#------------------------------------------------------------------------------
#$Date: 2016-05-06 03:19:51 +0300 (Fri, 06 May 2016) $
#$Revision: 182609 $
#$URL: svn://www.crystallography.net/cod/cif/7/11/89/7118904.cif $
#------------------------------------------------------------------------------
#
# This file is available in the Crystallography Open Database (COD),
# http://www.crystallography.net/
#
# All data on this site have been placed in the public domain by the
# contributors.
#
data_7118904
loop_
_publ_author_name
'Ivanov, Daniil M.'
'Novikov, Alexander S.'
'Ananyev, Ivan V.'
'Kirina, Yulia V.'
'Kukushkin, Vadim Yu'
_publ_section_title
;
 Halogen bonding between metal centers and halocarbons.
;
_journal_issue                   32
_journal_name_full
'Chemical communications (Cambridge, England)'
_journal_page_first              5565
_journal_page_last               5568
_journal_paper_doi               10.1039/c6cc01107a
_journal_volume                  52
_journal_year                    2016
_chemical_formula_moiety
'2(C6 H12 Cl2 N4 Pt), 2(C H Cl1.50 I1.50), 2(C H I3)'
_chemical_formula_sum            'C16 H28 Cl7 I9 N8 Pt2'
_chemical_formula_weight         2112.89
_space_group_crystal_system      triclinic
_space_group_IT_number           2
_space_group_name_Hall           '-P 1'
_space_group_name_H-M_alt        'P -1'
_symmetry_space_group_name_Hall  '-P 1'
_symmetry_space_group_name_H-M   'P -1'
_atom_sites_solution_hydrogens   geom
_audit_creation_method           SHELXL-2014/6
_audit_update_record
;
2016-01-11 deposited with the CCDC.
2016-03-16 downloaded from the CCDC.
;
_cell_angle_alpha                75.799(6)
_cell_angle_beta                 81.826(6)
_cell_angle_gamma                65.210(7)
_cell_formula_units_Z            1
_cell_length_a                   9.2558(6)
_cell_length_b                   9.3667(7)
_cell_length_c                   15.2697(11)
_cell_measurement_reflns_used    684
_cell_measurement_temperature    100(2)
_cell_measurement_theta_max      25
_cell_measurement_theta_min      3
_cell_volume                     1163.95(16)
_computing_cell_refinement       'Bruker SAINT'
_computing_data_collection       'Bruker APEX II'
_computing_data_reduction        'Bruker SAINT'
_computing_molecular_graphics    'Bruker SHELXTL'
_computing_publication_material  'Bruker SHELXTL'
_computing_structure_refinement  'SHELXL-97 (Sheldrick, 1997)'
_computing_structure_solution    'SHELXS-97 (Sheldrick, 1997)'
_diffrn_ambient_temperature      100(2)
_diffrn_measured_fraction_theta_full 0.999
_diffrn_measured_fraction_theta_max 0.892
_diffrn_measurement_device_type  'Bruker APEX II CCD area detector''
_diffrn_measurement_method       'omega scans'
_diffrn_radiation_type           MoK\a
_diffrn_radiation_wavelength     0.71073
_diffrn_reflns_av_R_equivalents  0.0312
_diffrn_reflns_av_unetI/netI     0.0316
_diffrn_reflns_Laue_measured_fraction_full 0.999
_diffrn_reflns_Laue_measured_fraction_max 0.892
_diffrn_reflns_limit_h_max       12
_diffrn_reflns_limit_h_min       -12
_diffrn_reflns_limit_k_max       12
_diffrn_reflns_limit_k_min       -12
_diffrn_reflns_limit_l_max       20
_diffrn_reflns_limit_l_min       -21
_diffrn_reflns_number            20329
_diffrn_reflns_point_group_measured_fraction_full 0.999
_diffrn_reflns_point_group_measured_fraction_max 0.892
_diffrn_reflns_theta_full        25.242
_diffrn_reflns_theta_max         29.790
_diffrn_reflns_theta_min         2.669
_exptl_absorpt_coefficient_mu    12.395
_exptl_absorpt_correction_T_max  0.273
_exptl_absorpt_correction_T_min  0.152
_exptl_absorpt_correction_type   multi-scan
_exptl_absorpt_process_details   SADABS
_exptl_crystal_colour            yellow
_exptl_crystal_density_diffrn    3.014
_exptl_crystal_description       prism
_exptl_crystal_F_000             932
_exptl_crystal_size_max          0.233
_exptl_crystal_size_mid          0.207
_exptl_crystal_size_min          0.148
_refine_diff_density_max         1.699
_refine_diff_density_min         -1.952
_refine_diff_density_rms         0.174
_refine_ls_extinction_method     none
_refine_ls_goodness_of_fit_ref   1.206
_refine_ls_hydrogen_treatment    constr
_refine_ls_matrix_type           full
_refine_ls_number_parameters     224
_refine_ls_number_reflns         5932
_refine_ls_number_restraints     48
_refine_ls_restrained_S_all      1.486
_refine_ls_R_factor_all          0.0382
_refine_ls_R_factor_gt           0.0300
_refine_ls_shift/su_max          0.005
_refine_ls_shift/su_mean         0.000
_refine_ls_structure_factor_coef Fsqd
_refine_ls_weighting_details
'w=1/[\s^2^(Fo^2^)+(0.0150P)^2^+3.0280P] where P=(Fo^2^+2Fc^2^)/3'
_refine_ls_weighting_scheme      calc
_refine_ls_wR_factor_gt          0.0581
_refine_ls_wR_factor_ref         0.0609
_reflns_Friedel_coverage         0.000
_reflns_number_gt                5152
_reflns_number_total             5932
_reflns_threshold_expression     I>2\s(I)
_cod_data_source_file            c6cc01107a2.cif
_cod_data_source_block           a
_cod_depositor_comments
'Adding full bibliography for 7118900--7118914.cif.'
_cod_original_cell_volume        1163.95(15)
_cod_database_code               7118904
_shelx_space_group_comment
;
The symmetry employed for this shelxl refinement is uniquely defined
by the following loop, which should always be used as a source of
symmetry information in preference to the above space-group names.
They are only intended as comments.
;
_shelx_estimated_absorpt_t_min   0.160
_shelx_estimated_absorpt_t_max   0.261
_shelxl_version_number           2014/6
_shelx_res_file
;
TITL dan85_a.res in P-1
REM Old TITL dan85 in P-1 #2
REM SHELXT solution in P-1
REM R1 0.192, Rweak 0.014, Alpha 0.031, Orientation as input
REM Formula found by SHELXT: C16 Cl10 I7 N6 Pt
CELL 0.71073 9.255833 9.3667 15.269683 75.7993 81.8257 65.2097
ZERR 1 0.000587 0.000671 0.001054 0.0061 0.0055 0.0066
LATT 1
SFAC C H Cl I N Pt
UNIT 16 28 7 9 8 2
DFIX 1.75 Cl2S C2S Cl1S C2S Cl3S C2S
DFIX 2.15 I5S C2S I6S C2S I4S C2S
size 0.233 0.207 0.148
temp -173.00
L.S. 10
PLAN  20
BIND Cl2S C2S
BOND $H
fmap 2
acta
OMIT -4 -5 9
OMIT -2 0 5
REM <olex2.extras>
REM <HklSrc "%.\\dan85.hkl">
REM </olex2.extras>
isor 0.001 c2a c3a c1a pt1a n1a n2a cl1a
WGHT    0.015000    3.028000
FVAR       0.23816
PT1   6    0.500000    0.500000    0.500000    10.50000    0.02641    0.01717 =
         0.01705   -0.00664    0.00531   -0.01538
PT1A  6    1.000000    0.500000    1.000000    10.50000    0.07443    0.04631 =
         0.01548   -0.01176    0.00157   -0.03954
I1S   4    0.806093    0.610717    0.673844    11.00000    0.02721    0.02080 =
         0.02167   -0.00511    0.00175   -0.01443
I3S   4    0.807147    0.997637    0.658949    11.00000    0.02896    0.02178 =
         0.02878   -0.00878    0.00363   -0.01499
I2S   4    1.169935    0.659858    0.635586    11.00000    0.02484    0.02706 =
         0.04938   -0.01250    0.00575   -0.01401
CL1   3    0.628839    0.395620    0.634019    11.00000    0.04302    0.02401 =
         0.02175   -0.00175   -0.00458   -0.02232
CL1A  3    0.907052    0.762947    0.922096    11.00000    0.08926    0.04342 =
         0.02746   -0.01028   -0.00499   -0.03540
N1    5    0.414436    0.332718    0.530457    11.00000    0.03135    0.01878 =
         0.02112   -0.00546    0.00287   -0.01517
N2    5    0.290969    0.139317    0.575753    11.00000    0.03136    0.02225 =
         0.02912   -0.00266    0.00004   -0.02046
N1A   5    0.839420    0.462324    0.948166    11.00000    0.04371    0.04150 =
         0.04084   -0.00928   -0.00234   -0.01788
C1S   1    0.934833    0.741440    0.697249    11.00000    0.02821    0.02185 =
         0.02324   -0.00876    0.00317   -0.01389
AFIX  13
H1S   2    0.947453    0.715983    0.763978    11.00000   -1.20000
AFIX   0
C1    1    0.356123    0.242648    0.553468    11.00000    0.02903    0.02025 =
         0.01513   -0.00666    0.00317   -0.01182
C3    1    0.116166    0.196132    0.581321    11.00000    0.03606    0.04018 =
         0.02895   -0.00836    0.00325   -0.02587
AFIX 137
H3A   2    0.078500    0.184950    0.644933    11.00000   -1.50000
H3B   2    0.084973    0.131897    0.552001    11.00000   -1.50000
H3C   2    0.068712    0.309351    0.550736    11.00000   -1.50000
AFIX   0
C1A   1    0.748083    0.432047    0.922431    11.00000    0.03753    0.03634 =
         0.03475   -0.00750   -0.00157   -0.01597
N2A   5    0.643644    0.395069    0.895391    11.00000    0.04729    0.04449 =
         0.04527   -0.01062   -0.00243   -0.02041
C2    1    0.386784   -0.028873    0.616518    11.00000    0.04191    0.02422 =
         0.04101   -0.00538   -0.00202   -0.01984
AFIX 137
H2A   2    0.500153   -0.049307    0.607228    11.00000   -1.50000
H2B   2    0.364636   -0.100205    0.588035    11.00000   -1.50000
H2C   2    0.359453   -0.049254    0.681471    11.00000   -1.50000
AFIX   0
C2A   1    0.694278    0.234943    0.875589    11.00000    0.07218    0.06209 =
         0.06502   -0.01564   -0.01250   -0.02859
AFIX 137
H2AA  2    0.695421    0.244363    0.810167    11.00000   -1.50000
H2AB  2    0.619802    0.186889    0.906047    11.00000   -1.50000
H2AC  2    0.801425    0.166639    0.897330    11.00000   -1.50000
AFIX   0
C3A   1    0.490610    0.515667    0.867690    11.00000    0.05921    0.05994 =
         0.06057   -0.01865   -0.00029   -0.02850
AFIX 137
H3AA  2    0.471922    0.614291    0.887329    11.00000   -1.50000
H3AB  2    0.407719    0.477196    0.895130    11.00000   -1.50000
H3AC  2    0.487582    0.537950    0.801674    11.00000   -1.50000
AFIX   0
C2S   1    0.290588    1.066758    0.888395    11.00000    0.05454    0.04164 =
         0.02990   -0.01702    0.00091   -0.03096
AFIX  13
H2S   2    0.262113    1.099158    0.948339    11.00000   -1.20000
AFIX   0
PART   1
I4S   4    0.539880    0.899484    0.895151    10.50000    0.04420    0.02768 =
         0.02188   -0.00601   -0.00267   -0.02003
I5S   4    0.252320    1.279791    0.793446    10.50000    0.04292    0.02245 =
         0.02142   -0.00170   -0.00381   -0.02039
I6S   4    0.141111    0.944141    0.881889    10.50000    0.05399    0.03807 =
         0.02203   -0.00227   -0.00237   -0.03352
PART   2
CL1S  3    0.491458    0.946408    0.881146    10.50000    0.03550    0.04678 =
         0.04766   -0.02097    0.00440   -0.02219
CL2S  3    0.252893    1.244786    0.798517    10.50000    0.07082    0.01893 =
         0.03097    0.00209   -0.00189   -0.02282
CL3S  3    0.170253    0.975012    0.869050    10.50000    0.05357    0.05879 =
         0.04911   -0.01547    0.00976   -0.03541
PART   0

HKLF 4

REM  dan85_a.res in P-1
REM R1 =  0.0300 for    5152 Fo > 4sig(Fo)  and  0.0382 for all    5932 data
REM    224 parameters refined using     48 restraints

END

WGHT      0.0147      5.8745

REM Highest difference peak  1.699,  deepest hole -1.952,  1-sigma level  0.174
Q1    1   1.1905  0.6130  0.6851  11.00000  0.05    1.70
Q2    1   0.6190  0.2659  0.8939  11.00000  0.05    1.61
Q3    1   0.9464  0.5431  0.9976  11.00000  0.05    1.61
Q4    1   0.5653  0.4476  0.8891  11.00000  0.05    1.46
Q5    1   0.7796  0.5005  0.9501  11.00000  0.05    1.44
Q6    1   0.8423  0.7980  0.9223  11.00000  0.05    1.36
Q7    1   0.6833  0.4788  0.9198  11.00000  0.05    1.28
Q8    1   0.7530  0.2144  0.8580  11.00000  0.05    1.22
Q9    1   0.8057  0.3957  0.9266  11.00000  0.05    1.20
Q10   1   0.9748  0.7273  0.9170  11.00000  0.05    1.19
Q11   1   0.7006  0.3570  0.8950  11.00000  0.05    1.17
Q12   1   0.9018  0.4305  0.9464  11.00000  0.05    1.11
Q13   1   0.4549  0.5716  0.8370  11.00000  0.05    1.09
Q14   1   1.2229  0.7204  0.6541  11.00000  0.05    0.83
Q15   1   0.5946  0.4450  0.4715  11.00000  0.05    0.83
Q16   1   0.4720  0.4554  0.4622  11.00000  0.05    0.82
Q17   1   0.8960  0.9331  0.6282  11.00000  0.05    0.80
Q18   1   1.0557  0.6817  0.6644  11.00000  0.05    0.77
Q19   1   0.8426  0.5427  0.9792  11.00000  0.05    0.76
Q20   1   1.1232  0.8383  0.5317  11.00000  0.05    0.75
;
_shelx_res_checksum              51934
_shelx_hkl_file
;
   0   0   2  217.21    5.14
   0   0  -2  232.68    6.04
   0   0   2  242.68    7.20
   0   0  -2  236.03    6.22
   0   0   2  222.52    5.17
   0   0   3 1451.61   27.20
   0   0  -3 1412.58   24.19
   0   0   3 1426.89   26.80
   0   0   3 1421.67   25.14
   0   0  -3 1446.41   25.23
   0   0   3 1414.04   25.14
   0   0   3 1514.25   29.36
   0   0  -3 1432.86   28.66
   0   0  -3 1449.22   26.82
   0   0   3 1430.00   24.30
   0   0  -3 1447.38   27.12
   0   0  -4 2389.10   41.39
   0   0  -4 2374.63   45.91
   0   0   4 2357.61   41.24
   0   0   4 2432.31   40.13
   0   0   4 2383.59   43.56
   0   0   4 2485.73   43.99
   0   0   4 2524.50   47.06
   0   0   4 2350.51   41.23
   0   0  -4 2371.40   39.92
   0   0  -4 2426.56   44.09
   0   0  -4 2472.35   43.65
   0   0  -5  807.12   15.68
   0   0  -5  825.69   19.82
   0   0   5  794.07   17.05
   0   0  -5  843.80   19.55
   0   0   5  860.85   20.13
   0   0   5  861.45   22.86
   0   0   5  809.77   19.43
   0   0   5  839.89   15.96
   0   0   5  795.57   17.09
   0   0  -5  847.58   17.45
   0   0  -5  788.05   21.49
   0   0   6 2843.79   47.33
   0   0  -6 2819.87   49.32
   0   0   6 2718.94   48.91
   0   0   6 2824.67   49.08
   0   0  -6 2704.96   46.86
   0   0   6 2813.25   52.62
   0   0  -6 2746.70   52.94
   0   0  -6 2802.07   55.89
   0   0   7 1679.23   36.09
   0   0   7 1662.33   32.20
   0   0  -7 1633.80   30.00
   0   0  -7 1630.15   32.51
   0   0  -7 1654.28   39.28
   0   0   7 1729.45   30.53
   0   0  -7 1732.60   36.83
   0   0   7 1630.01   32.24
   0   0   8  957.83   21.90
   0   0   8 1013.56   25.93
   0   0  -8  982.12   22.52
   0   0  -8  986.78   28.80
   0   0   8  969.91   21.94
   0   0   8 1002.97   20.20
   0   0  -8  937.66   26.05
   0   0  -9 2106.99   41.44
   0   0  -9 2091.70   46.29
   0   0   9 2151.63   38.46
   0   0  -9 2060.63   49.55
   0   0   9 2020.18   40.49
   0   0   9 2034.48   40.53
   0   0   9 2113.92   45.76
   0   0  10  462.11   12.41
   0   0  10  465.12   17.71
   0   0 -10  447.04   17.94
   0   0 -10  428.06   19.35
   0   0 -10  450.50   14.63
   0   0 -11   13.33    3.58
   0   0 -11    9.97    4.09
   0   0  11    9.85    3.18
   0   0 -11   10.32    2.69
   0   0  11   11.80    1.97
   0   0 -12  300.98   15.83
   0   0 -12  290.33   17.42
   0   0  12  316.40   15.57
   0   0 -12  302.23   12.61
   0   0 -13  279.38   17.69
   0   0  13  308.93   16.19
   0   0 -13  303.24   13.13
   0   0 -13  312.07   16.72
   0   0 -14  192.25   10.83
   0   0 -14  201.02   13.93
   0   0  14  206.22   13.65
   0   0 -14  178.75   14.85
   0   0 -15   53.22    8.06
   0   0 -15   61.25    9.75
   0   0  15   60.32    7.88
   0   0 -16  215.80   15.70
   0   0 -16  222.05   17.68
   0   0  16  198.09   14.60
   0   0 -17    8.76    4.56
   0   0 -17   17.14    5.89
   0   0  17    7.43    4.04
   0   0 -18  280.18   21.56
   0   0 -18  278.10   19.58
   0   0  18  303.54   19.57
   0   0 -19   32.90    9.07
   0   0 -19   25.17    7.63
   0   0  19   35.85    7.91
   0   1 -19   -2.65    4.88
   0  -1  19   13.22    5.17
   0  -1  18   24.82    6.45
   0   1 -18   19.99    6.29
   0   1 -17   97.90   11.33
   0  -1  17   94.96   10.92
   0  -1  16  469.64   22.89
   0   1 -16  445.17   23.32
   0  -1  15   25.09    5.52
   0   1 -15   29.92    6.53
   0   1 -15   36.16    6.71
   0  -1  14  183.33   12.85
   0   1 -14  206.27   15.23
   0   1 -14  174.53   13.18
   0   1 -14  194.35   11.20
   0   1 -13   56.94    5.89
   0   1 -13   40.97    6.89
   0  -1  13   53.30    6.83
   0   1 -13   51.93    7.21
   0   1 -12  306.41   13.23
   0   1 -12  305.97   16.01
   0  -1  12  317.92   15.57
   0   1 -12  273.19   16.39
   0   1 -11   53.74    5.26
   0   1 -11   53.05    7.30
   0   1 -11   45.98    6.16
   0  -1  11   57.36    6.41
   0   1 -10  319.44   12.60
   0   1 -10  309.42   13.41
   0   1 -10  312.30   14.66
   0  -1  10  320.15   14.15
   0   1 -10  318.55   15.87
   0   1  -9  594.76   17.55
   0  -1   9  564.94   18.90
   0   1  -9  593.46   19.98
   0   1  -9  586.05   21.33
   0   1  -9  567.71   18.17
   0   1  -8  398.24   13.59
   0  -1   8  412.36   14.34
   0   1  -8  399.37   14.92
   0   1  -8  387.30   12.82
   0   1  -8  406.35   16.02
   0   1  -7   42.05    5.07
   0   1  -7   49.86    4.78
   0   1  -7   44.22    4.01
   0   1  -7   34.41    1.79
   0   1  -7   52.76    4.53
   0  -1   7   43.27    4.32
   0   1  -6 2164.14   39.14
   0   1  -6 1870.41   32.98
   0   1  -6 2056.02   42.36
   0   1  -6 2026.96   39.38
   0  -1   6 2019.92   39.58
   0   1  -6 2028.10   40.53
   0  -1   6 2091.17   38.76
   0   1  -6 2017.52   38.75
   0   1  -5 1963.41   36.62
   0   1  -5 1961.65   36.10
   0   1  -5 1862.88   38.29
   0   1  -5 1798.58   30.90
   0   1  -5 1854.28   36.91
   0   1  -5 1835.05   35.79
   0  -1   5 1834.37   36.11
   0  -1   5 1894.32   35.78
   0   1  -5 1907.73   36.55
   0  -1   5 1935.30   38.78
   0   1  -4   58.54    4.19
   0   1  -4   58.38    4.03
   0   1  -4   48.55    4.05
   0   1  -4   59.16    3.87
   0  -1   4   56.64    3.68
   0  -1   4   66.24    4.61
   0   1  -4   58.49    3.93
   0  -1   4   54.40    3.68
   0   1  -4   58.06    3.83
   0  -1   3   11.87    2.20
   0   1  -3    8.56    1.80
   0  -1   3    9.54    1.75
   0   1  -3    9.72    1.76
   0   1  -3    9.17    2.40
   0   1  -3   10.39    1.83
   0  -1   3    8.12    1.46
   0   1  -3   11.90    1.71
   0   1  -2 2304.29   40.18
   0  -1   2 2297.89   40.19
   0  -1   2 2299.52   41.48
   0   1  -2 2178.44   42.45
   0  -1   2 2332.27   39.64
   0  -1   2 2265.83   38.90
   0   1  -2 2341.66   39.01
   0   1  -1 1336.96   23.90
   0   1  -1 1357.89   22.78
   0  -1   1 1328.76   22.75
   0  -1   1 1364.47   26.95
   0  -1  -2  109.97    4.66
   0   1   2  118.40    4.30
   0   1   2  107.15    4.62
   0   1   3 1483.32   28.14
   0  -1  -3 1476.28   28.82
   0   1   3 1496.13   28.75
   0   1   3 1496.49   27.43
   0  -1  -4 9490.02  156.72
   0   1   4 9436.73  154.16
   0   1   4 9599.85  154.51
   0   1   4 9810.89  156.99
   0   1   4 9594.12  156.26
   0   1   5  137.75    5.10
   0  -1  -5  147.19    6.82
   0   1   5  143.04    7.09
   0   1   5  138.33    5.60
   0   1   5  140.15    6.79
   0  -1  -5  144.72    7.18
   0   1   6 1134.21   21.57
   0   1   6 1055.75   22.61
   0   1   6 1043.87   25.14
   0  -1  -6 1079.20   30.23
   0  -1  -6 1075.48   25.99
   0  -1  -7  296.39   14.76
   0   1   7  288.37    9.48
   0  -1  -7  291.23   12.00
   0   1   7  278.86    8.37
   0   1   7  297.84   11.75
   0   1   8   19.98    2.53
   0  -1  -8   23.62    3.92
   0   1   8   23.87    2.33
   0   1   8   19.16    3.35
   0  -1  -8   17.54    2.79
   0   1   8   18.22    2.16
   0  -1  -8   26.75    4.85
   0  -1  -9  110.54    6.75
   0   1   9  118.89    5.57
   0  -1  -9  109.56    8.10
   0   1   9  128.92    8.41
   0   1   9  113.35    5.47
   0   1   9  110.37    5.92
   0  -1  -9  113.30   10.19
   0  -1 -10  390.63   16.64
   0  -1 -10  388.92   13.92
   0   1  10  380.09   15.99
   0   1  10  383.65   11.67
   0  -1 -10  371.22   19.15
   0   1  10  392.83   12.41
   0   1  10  378.48   11.59
   0  -1 -11   62.74    6.80
   0   1  11   58.42    4.36
   0   1  11   66.70    6.96
   0   1  11   67.74    4.65
   0  -1 -11   66.55    8.52
   0   1  12  366.12   12.22
   0   1  12  362.41   17.07
   0  -1 -12  366.10   17.42
   0  -1 -12  363.00   20.24
   0  -1 -13  781.24   28.10
   0  -1 -13  768.49   31.75
   0   1  13  828.60   28.10
   0  -1 -14  590.26   25.03
   0  -1 -14  574.03   28.09
   0   1  14  628.84   24.80
   0   1  15   54.40    7.30
   0  -1 -15   52.93    7.72
   0  -1 -15   47.17    8.68
   0   1  16  376.18   20.43
   0  -1 -16  388.77   21.38
   0  -1 -16  365.59   23.70
   0  -1 -17  112.48   12.22
   0  -1 -17  116.94   14.26
   0   1  17  100.61   11.11
   0  -1 -18   32.58    8.61
   0   1  18   30.69    6.64
   0  -1 -18   52.96    9.13
   0  -1 -19  156.60   15.60
   0  -1 -19  153.02   16.98
   0   1  19  161.67   14.90
   0  -1 -20   17.21    7.74
   0   2 -19   64.97   10.44
   0  -2  19   63.59   10.14
   0   2 -18  477.98   26.29
   0  -2  18  473.19   24.93
   0   2 -17   25.65    6.94
   0  -2  17   17.16    5.18
   0  -2  16   -0.31    3.61
   0   2 -16    4.08    4.24
   0  -2  15   11.34    4.49
   0   2 -15    7.89    4.39
   0   2 -14   15.44    3.92
   0  -2  14   13.28    4.34
   0   2 -14   22.84    5.44
   0   2 -13  279.50   16.33
   0  -2  13  292.44   15.75
   0   2 -13  312.34   14.80
   0  -2  12 1181.29   33.94
   0   2 -12 1193.73   35.33
   0   2 -12 1187.24   32.22
   0   2 -11   81.38    8.27
   0   2 -11   90.62    7.52
   0  -2  11   97.63    8.36
   0  -2  10   26.99    4.50
   0   2 -10   21.66    4.72
   0   2 -10   19.35    4.26
   0   2 -10   24.06    3.84
   0   2  -9  166.17   11.11
   0  -2   9  204.38   10.50
   0   2  -9  181.34    9.81
   0   2  -9  180.99   10.46
   0   2  -8 1089.54   28.83
   0  -2   8 1127.87   27.97
   0   2  -8 1106.32   31.49
   0   2  -8 1134.95   28.05
   0  -2   7  338.54   12.22
   0   2  -7  291.43    6.82
   0   2  -7  342.18   15.04
   0   2  -7  339.99   12.62
   0   2  -7  334.10   12.87
   0   2  -6  852.30   21.66
   0   2  -6  811.79   15.79
   0   2  -6  806.38   21.52
   0  -2   6  819.07   20.51
   0   2  -6  793.58   24.36
   0  -2   5  104.38    6.09
   0   2  -5  107.56    5.74
   0   2  -5  100.21    6.04
   0   2  -5  105.77    7.66
   0   2  -5  103.30    6.27
   0  -2   5  107.32    5.72
   0  -2   4  165.29    7.76
   0   2  -4  162.74    6.51
   0   2  -4  160.03    7.56
   0  -2   4  158.52    6.44
   0   2  -4  165.86    8.96
   0   2  -4  164.19    7.72
   0  -2   4  170.84    7.32
   0   2  -3  967.12   19.33
   0  -2   3  941.48   26.20
   0   2  -3  892.52   21.69
   0  -2   3  941.27   20.94
   0  -2   3  940.56   24.96
   0   2  -3  964.82   20.61
   0   2  -3  939.88   23.42
   0  -2   3  924.01   19.20
   0   2  -2 7298.23  116.77
   0   2  -2 7047.28  119.05
   0  -2   2 7213.61  125.30
   0  -2   2 7028.11  126.48
   0   2  -2 7450.86  120.64
   0  -2   2 7168.06  116.80
   0   2  -2 7370.15  122.04
   0  -2   2 7312.21  120.16
   0   2  -1   69.71    5.06
   0  -2   1   79.59    5.75
   0  -2   1   85.82    5.96
   0  -2   1   87.35    3.25
   0   2  -1   85.92    3.10
   0   2  -1   89.19    4.82
   0   2  -1   69.04    4.57
   0  -2   1   90.49    5.47
   0   2  -1   85.14    5.84
   0  -2   0 2279.61   47.85
   0  -2   0 2313.60   44.90
   0   2   0 2379.42   45.73
   0  -2   0 2353.15   50.07
   0   2   0 2359.47   44.20
   0  -2   0 2454.60   44.75
   0   2   0 2372.36   45.88
   0   2   1  244.85   10.88
   0  -2  -1  234.43    8.68
   0   2   1  243.92    8.76
   0  -2  -1  241.31   10.41
   0   2   1  254.45    9.53
   0   2   1  231.76   10.73
   0  -2  -1  257.07    9.23
   0   2   2  549.03   15.37
   0  -2  -2  521.87   13.85
   0  -2  -2  514.52   14.67
   0   2   2  534.20   12.62
   0  -2  -2  544.38   14.22
   0   2   2  529.42   11.60
   0   2   2  540.92   15.42
   0   2   2  512.06   15.64
   0   2   3   58.89    4.60
   0   2   3   64.41    4.25
   0  -2  -3   62.19    4.90
   0  -2  -3   60.43    4.40
   0   2   3   61.60    3.45
   0   2   3   62.60    4.61
   0   2   4  214.63    8.19
   0   2   4  207.72    8.11
   0   2   4  224.44    7.85
   0   2   4  205.24    8.79
   0  -2  -4  214.29    9.09
   0   2   5 2588.44   47.38
   0   2   5 2505.83   47.94
   0   2   5 2497.32   47.23
   0  -2  -5 2491.46   49.43
   0   2   6 3526.56   65.54
   0  -2  -6 3538.42   67.00
   0   2   6 3563.86   64.01
   0   2   7 1011.59   25.64
   0   2   7  980.22   22.82
   0  -2  -7 1031.48   26.80
   0   2   8 1562.47   31.14
   0   2   8 1592.37   36.59
   0  -2  -8 1577.86   37.71
   0   2   9  430.97   16.57
   0  -2  -9  434.62   17.22
   0   2   9  429.80   12.05
   0   2  10  232.99    8.30
   0   2  10  232.79   12.35
   0  -2 -10  238.30   16.13
   0  -2 -10  248.81   13.35
   0   2  11  756.21   17.99
   0   2  11  755.79   25.13
   0  -2 -11  764.99   26.12
   0   2  11  756.73   18.15
   0  -2 -11  774.28   31.18
   0  -2 -12  472.88   20.67
   0   2  12  497.43   20.56
   0   2  12  507.80   13.99
   0  -2 -12  515.41   25.57
   0  -2 -13  103.60    9.91
   0   2  13  100.59    5.62
   0   2  13   95.35    9.05
   0  -2 -13   99.31   12.06
   0   2  14   45.82    6.81
   0  -2 -14   48.12    7.43
   0  -2 -14   60.63    9.97
   0  -2 -15   15.26    5.13
   0   2  15   10.28    3.91
   0  -2 -15   18.73    6.62
   0  -2 -16  358.50   24.20
   0   2  16  417.91   21.64
   0  -2 -16  412.83   22.45
   0   2  17  134.26   12.74
   0  -2 -17  131.55   15.34
   0  -2 -17  151.99   14.22
   0  -2 -18  366.04   25.51
   0   2  18  352.03   21.28
   0  -2 -18  343.44   22.18
   0   2  19    1.82    4.52
   0  -2 -19    1.90    4.62
   0  -2 -19    6.67    6.29
   0  -2 -20   29.21    9.13
   0  -3  18  133.87   13.04
   0   3 -18  119.26   13.60
   0   3 -17   42.62    8.15
   0  -3  17   37.27    6.91
   0   3 -16   44.86    8.05
   0  -3  16   44.12    7.34
   0  -3  15   -0.17    3.22
   0   3 -15    3.97    3.15
   0   3 -15    6.01    3.91
   0  -3  14  496.96   21.98
   0   3 -14  493.50   21.19
   0   3 -14  495.94   23.11
   0   3 -13   -1.84    3.03
   0   3 -13    3.68    3.10
   0  -3  13    8.25    3.54
   0   3 -12  153.72   10.84
   0   3 -12  149.76   11.73
   0  -3  12  165.05   11.13
   0   3 -11  173.93   12.18
   0   3 -11  168.56   11.37
   0  -3  11  181.91   11.07
   0   3 -10   36.56    5.21
   0  -3  10   36.83    4.93
   0   3 -10   30.06    5.36
   0   3  -9  167.06   10.30
   0   3  -9  157.84   10.17
   0  -3   9  172.28    9.73
   0   3  -8  880.31   25.14
   0  -3   8  872.60   23.30
   0   3  -8  857.59   24.62
   0   3  -8  786.89   16.23
   0  -3   7  364.25   13.22
   0   3  -7  384.06   10.25
   0   3  -7  362.25   15.03
   0   3  -7  373.67   15.52
   0   3  -7  382.67   14.67
   0  -3   6   14.68    4.65
   0   3  -6   16.42    3.24
   0  -3   6   14.29    2.69
   0  -3   6   14.66    2.92
   0   3  -6   13.50    3.43
   0   3  -5  359.46   11.43
   0  -3   5  374.01   14.46
   0   3  -5  341.60   13.92
   0   3  -5  352.42   13.64
   0  -3   5  365.18   18.27
   0  -3   5  345.41   11.29
   0  -3   4 3189.70   66.21
   0  -3   4 3043.46   67.43
   0   3  -4 3232.83   55.87
   0  -3   4 3111.67   55.66
   0   3  -4 3087.10   58.29
   0   3  -4 3115.21   60.42
   0   3  -4 3133.13   60.88
   0  -3   3 1259.56   33.78
   0   3  -3 1210.14   29.38
   0   3  -3 1244.23   28.97
   0  -3   3 1229.46   24.68
   0  -3   3 1159.47   34.93
   0   3  -3 1248.23   27.19
   0  -3   3 1232.85   28.92
   0   3  -3 1270.27   24.53
   0  -3   2 2009.13   36.02
   0   3  -2 2016.93   41.72
   0   3  -2 2050.52   41.04
   0   3  -2 2016.03   39.63
   0  -3   2 1978.73   45.22
   0  -3   2 1933.03   46.86
   0  -3   2 2066.68   42.87
   0   3  -2 1992.62   35.48
   0   3  -1   54.63    2.82
   0  -3   1   66.75    6.68
   0   3  -1   53.40    4.61
   0  -3   1   52.83    5.67
   0  -3   1   50.49    5.68
   0   3  -1   43.98    4.52
   0  -3   1   46.29    7.47
   0   3  -1   45.62    4.75
   0  -3   0  762.14   21.48
   0  -3   0  769.92   26.61
   0  -3   0  727.45   24.65
   0  -3   0  733.56   21.35
   0   3   0  794.23   22.70
   0   3   0  744.61   20.33
   0  -3   0  741.82   14.03
   0   3   0  750.35   21.74
   0  -3  -1 3265.42   57.38
   0   3   1 3507.35   57.04
   0  -3  -1 3759.01   66.53
   0  -3  -1 3924.70   72.99
   0   3   1 3691.28   74.09
   0   3   1 3992.60   66.54
   0   3   1 3517.10   71.93
   0  -3  -1 3737.66   67.16
   0   3   1 3792.93   68.82
   0   3   2 3422.63   69.81
   0   3   2 3444.71   59.99
   0  -3  -2 3346.13   64.85
   0  -3  -2 3675.12   67.26
   0  -3  -2 3463.05   60.64
   0   3   2 3408.65   64.64
   0  -3  -2 3380.20   64.43
   0   3   2 3435.67   66.32
   0  -3  -3 1482.97   32.97
   0   3   3 1546.39   35.75
   0   3   3 1504.31   30.02
   0   3   3 1529.58   36.95
   0   3   3 1483.21   28.72
   0  -3  -3 1510.67   33.54
   0   3   3 1477.54   34.95
   0   3   4 4226.90   70.60
   0  -3  -4 3928.76   74.60
   0   3   4 3963.61   73.96
   0   3   5  360.98   14.11
   0   3   5  366.79   12.52
   0  -3  -5  364.61   14.97
   0   3   5  368.95   11.92
   0  -3  -5  371.52   13.79
   0  -3  -6  490.88   16.64
   0   3   6  510.42   17.06
   0  -3  -6  500.70   18.00
   0   3   6  504.41   15.91
   0  -3  -7 1211.58   30.23
   0   3   7 1193.30   29.57
   0  -3  -7 1221.04   32.10
   0  -3  -8   45.29    5.72
   0   3   8   45.97    5.24
   0   3   9  684.47   19.87
   0   3   9  708.62   22.56
   0  -3  -9  729.32   24.51
   0   3  10 4012.38   79.41
   0   3  10 3945.78   72.10
   0  -3 -10 4116.17   82.68
   0   3  11   70.69    7.38
   0  -3 -11   67.94    7.87
   0   3  11   75.09    4.92
   0   3  12  671.69   24.69
   0  -3 -12  706.82   31.30
   0  -3 -12  656.01   25.83
   0  -3 -13  316.52   17.95
   0  -3 -13  321.68   21.27
   0   3  13  301.87   16.34
   0  -3 -14   29.30    7.63
   0  -3 -14   20.58    4.80
   0   3  14   21.15    5.36
   0  -3 -14   20.10    5.37
   0  -3 -15  284.52   21.12
   0  -3 -15  281.65   18.27
   0   3  15  254.71   16.46
   0  -3 -15  284.27   15.28
   0  -3 -16  528.08   21.89
   0  -3 -16  511.98   29.76
   0   3  16  505.07   24.41
   0  -3 -16  521.76   26.18
   0  -3 -17   53.82    8.94
   0  -3 -17   52.33   10.80
   0   3  17   43.61    7.52
   0  -3 -18   14.19    6.70
   0  -3 -18   20.87    6.73
   0   3  18    7.11    4.34
   0   3  19   55.50    9.22
   0  -3 -19   47.17   10.54
   0  -3 -19   47.64    9.13
   0  -3 -20  278.26   23.84
   0   4 -18   72.00   10.60
   0   4 -17    9.35    5.45
   0  -4  16   32.34   11.11
   0  -4  16   34.44    6.70
   0   4 -16   32.63    7.00
   0   4 -15   12.28    5.55
   0  -4  15   19.38    5.47
   0  -4  15    2.93    7.37
   0   4 -15   15.28    5.38
   0   4 -14  539.66   23.66
   0  -4  14  540.93   36.08
   0  -4  14  513.81   22.69
   0   4 -14  504.98   24.36
   0  -4  13  115.30   16.86
   0  -4  13  110.73    9.77
   0   4 -13  116.16   10.93
   0   4 -13  114.45   10.47
   0   4 -12  426.45   19.85
   0  -4  12  428.94   18.61
   0  -4  12  417.17   29.55
   0   4 -12  387.13   19.18
   0   4 -11   11.40    4.29
   0  -4  11   16.06    7.34
   0   4 -11    8.33    3.78
   0  -4  11    7.62    3.24
   0   4 -10  122.03    9.78
   0   4 -10  118.02    9.34
   0  -4  10  112.53   14.41
   0  -4  10  113.67    8.52
   0  -4   9  127.94    8.55
   0  -4   9  122.25   14.16
   0   4  -9  125.90    9.81
   0   4  -9  123.62    9.41
   0  -4   8   89.63    6.73
   0   4  -8   94.61    5.25
   0   4  -8   83.10    7.20
   0   4  -8   83.66    7.95
   0  -4   8   95.32   12.02
   0  -4   7  587.13   19.67
   0   4  -7  589.46   21.46
   0  -4   7  578.62   17.83
   0  -4   7  552.22   27.08
   0   4  -7  579.17   19.78
   0  -4   6  267.79   10.59
   0   4  -6  278.76   13.30
   0  -4   6  270.15   17.64
   0  -4   6  271.61   13.70
   0   4  -5   49.84    4.08
   0  -4   5   46.28    7.03
   0  -4   5   44.11    4.01
   0  -4   5   45.60    6.54
   0   4  -5   40.44    5.00
   0   4  -4 1614.07   31.86
   0   4  -4 1575.12   38.23
   0  -4   4 1600.50   44.14
   0  -4   4 1600.48   46.41
   0   4  -4 1665.76   35.78
   0  -4   4 1578.15   32.26
   0  -4   3   97.79    5.13
   0  -4   3  108.32    9.79
   0   4  -3  100.96    7.36
   0   4  -3   96.93    6.54
   0  -4   3   94.63   10.35
   0   4  -3  100.49    4.80
   0  -4   2  390.92   17.61
   0   4  -2  394.39   14.01
   0   4  -2  390.84   10.12
   0   4  -2  381.80   15.03
   0  -4   2  412.53   19.54
   0   4  -1  543.18   18.02
   0   4  -1  556.22   17.80
   0  -4   1  576.59   21.70
   0  -4   1  577.61   20.79
   0   4  -1  540.55   12.53
   0  -4   0  569.71   12.78
   0   4   0  567.29   20.02
   0  -4   0  582.26   20.42
   0  -4   0  574.94   20.59
   0   4   0  581.94   13.31
   0   4   1   14.21    5.57
   0   4   1   40.99    6.55
   0  -4  -1   21.60    4.30
   0  -4  -1   21.93    4.00
   0  -4  -1   14.98    1.17
   0  -4  -2  491.43   18.03
   0   4   2  508.32   22.30
   0  -4  -2  468.15   17.43
   0   4   2  499.09   11.15
   0  -4  -2  501.91   14.09
   0   4   2  486.00   21.69
   0  -4  -3 2035.71   42.60
   0  -4  -3 2030.28   45.39
   0   4   3 1993.42   50.56
   0  -4  -3 1984.97   45.50
   0   4   3 2102.99   40.49
   0  -4  -4  918.01   25.87
   0   4   4  857.35   20.47
   0  -4  -4  882.16   24.74
   0   4   4  903.28   28.94
   0   4   5  525.75   17.29
   0  -4  -5  552.86   19.28
   0   4   5  576.05   21.79
   0   4   5  542.47   15.54
   0   4   6  611.26   20.70
   0   4   6  617.17   18.64
   0  -4  -6  605.63   20.55
   0  -4  -7  347.29   15.27
   0   4   7  356.09   14.05
   0  -4  -7  362.61   17.31
   0   4   7  381.02   16.31
   0  -4  -8  317.15   14.55
   0  -4  -8  321.45   16.33
   0   4   8  321.88   15.07
   0   4   8  314.46   13.65
   0   4   9  235.21   12.95
   0   4   9  246.49   12.59
   0  -4  -9  254.66   14.78
   0  -4  -9  248.06   13.05
   0  -4 -10  439.17   18.31
   0   4  10  428.46   18.38
   0  -4 -10  460.12   20.59
   0   4  10  433.22   17.94
   0  -4 -11   89.22    9.41
   0   4  11   72.60    7.57
   0  -4 -11   78.52    7.67
   0   4  12   36.30    5.74
   0  -4 -12   28.81    6.04
   0  -4 -12   30.85    5.05
   0  -4 -13    0.90    2.70
   0   4  13    1.29    3.67
   0  -4 -13    2.05    3.58
   0   4  14  728.47   28.15
   0  -4 -14  743.34   30.83
   0  -4 -14  710.82   26.30
   0  -4 -14  765.58   35.20
   0  -4 -15  298.21   22.23
   0   4  15  285.74   17.71
   0  -4 -15  286.44   16.25
   0  -4 -15  299.34   19.75
   0   4  16  397.28   21.80
   0  -4 -16  385.94   26.14
   0  -4 -16  408.44   20.07
   0  -4 -16  428.47   24.76
   0  -4 -17    2.99    3.42
   0  -4 -17   -2.44    5.12
   0  -4 -17    2.56    4.63
   0   4  17    5.88    4.18
   0  -4 -18   95.68   12.28
   0  -4 -18   82.36   12.78
   0   4  18   73.68   10.22
   0   4  19  140.52   14.35
   0  -4 -19  176.89   18.83
   0  -4 -19  178.29   17.34
   0  -5  15   49.83   12.63
   0   5 -15   65.39    9.11
   0   5 -15   77.54    9.71
   0   5 -14  150.04   13.03
   0  -5  14  177.76   21.82
   0   5 -14  171.91   13.79
   0   5 -13   14.18    4.84
   0  -5  13   32.90   10.01
   0   5 -13   24.78    5.36
   0   5 -12    8.94    4.03
   0  -5  12    6.21    3.01
   0   5 -12    9.36    3.94
   0  -5  12    8.23    7.39
   0   5 -11   21.41    4.90
   0   5 -11   14.41    4.12
   0  -5  11   27.21    9.39
   0  -5  11   20.66    4.09
   0   5 -10  560.60   22.37
   0  -5  10  593.42   33.39
   0   5 -10  583.64   24.27
   0  -5  10  616.51   21.31
   0  -5   9   86.92    7.25
   0   5  -9   90.39    9.22
   0   5  -9   90.10    8.38
   0  -5   9   88.69   12.90
   0  -5   8  366.26   14.22
   0   5  -8  308.55   15.00
   0  -5   8  308.80   15.07
   0   5  -8  318.68   16.72
   0  -5   8  301.71   21.55
   0  -5   7  152.31   14.75
   0  -5   7  153.48   11.06
   0   5  -7  151.51   11.03
   0  -5   7  144.99    8.26
   0  -5   6  157.60    8.28
   0   5  -6  141.07   10.63
   0  -5   6  162.63   14.34
   0  -5   6  152.16   12.35
   0  -5   5    2.01    3.98
   0   5  -5   -0.32    2.61
   0  -5   5    2.01    1.74
   0  -5   5    0.51    3.59
   0   5  -5    1.79    2.43
   0   5  -4  850.25   19.99
   0   5  -4  869.45   24.75
   0  -5   4  885.54   36.03
   0  -5   4  932.57   32.98
   0   5  -4  874.77   27.13
   0   5  -3 1625.12   32.14
   0  -5   3 1768.96   47.23
   0  -5   3 1725.17   52.81
   0   5  -3 1754.01   41.45
   0   5  -3 1672.47   38.64
   0   5  -2  156.67    9.55
   0  -5   2  177.58   14.57
   0   5  -2  168.58   10.16
   0   5  -2  157.68    6.06
   0  -5   2  164.07   12.16
   0   5  -1  799.36   24.56
   0   5  -1  792.91   23.93
   0  -5   1  813.04   27.67
   0  -5   1  741.35   15.44
   0  -5   1  826.38   29.68
   0   5  -1  761.04   16.72
   0   5   0   33.09    2.80
   0   5   0   30.21    5.09
   0  -5   0   40.84    6.39
   0  -5   0   42.48    6.40
   0   5   0   34.59    4.64
   0  -5  -1   76.63    7.74
   0  -5  -1   52.43    6.75
   0   5   1   58.06    7.54
   0  -5  -2 2795.12   60.91
   0   5   2 2766.30   67.82
   0  -5  -2 2743.34   60.97
   0   5   2 2793.58   69.70
   0   5   3  990.77   34.71
   0  -5  -3  893.18   28.22
   0  -5  -3  919.22   24.47
   0  -5  -3  933.95   28.62
   0   5   3  896.81   19.66
   0   5   3  933.38   34.27
   0   5   4 1260.06   29.56
   0  -5  -4 1141.00   33.86
   0  -5  -4 1233.03   32.76
   0   5   4 1303.74   40.25
   0  -5  -4 1213.59   34.30
   0   5   4 1308.02   40.65
   0  -5  -5  367.09   16.85
   0   5   5  339.74   12.65
   0   5   5  368.34   19.38
   0   5   6  842.95   23.72
   0   5   6  881.43   31.06
   0  -5  -6  862.72   27.87
   0   5   6  815.62   23.36
   0   5   6  832.97   22.39
   0   5   7   17.20    4.03
   0  -5  -7   18.70    3.90
   0   5   7   15.17    5.10
   0   5   7   12.06    3.17
   0   5   8 1760.64   44.31
   0   5   8 1661.74   40.59
   0  -5  -8 1773.04   44.75
   0   5   9  261.27   15.00
   0   5   9  264.35   13.50
   0  -5  -9  272.00   14.96
   0  -5 -10 1778.91   50.64
   0  -5 -10 1825.24   47.11
   0   5  10 1808.01   47.99
   0   5  10 1826.80   44.98
   0  -5 -11  115.68   10.19
   0  -5 -11  117.83   11.56
   0   5  11  119.41    9.77
   0   5  11  121.42   10.81
   0   5  12   76.86    8.60
   0  -5 -12   69.16    9.13
   0   5  12   87.80    8.79
   0  -5 -12   74.49    8.25
   0   5  13   48.92    7.18
   0   5  13   46.87    7.52
   0  -5 -13   63.64    9.43
   0  -5 -13   43.17    6.62
   0  -5 -14  260.32   15.99
   0   5  14  236.26   15.75
   0  -5 -14  269.70   18.77
   0   5  14  252.00   16.62
   0   5  15  190.86   15.12
   0  -5 -15  208.54   14.64
   0  -5 -15  207.94   16.95
   0   5  15  187.89   14.58
   0  -5 -16  192.38   18.53
   0  -5 -16  199.18   14.82
   0   5  16  212.67   16.32
   0  -5 -16  192.09   17.16
   0   5  16  212.83   16.06
   0   5  17   13.60    5.68
   0  -5 -17   15.99    5.16
   0   5  17   19.61    5.62
   0  -5 -17   16.50    8.02
   0  -5 -17   17.40    6.05
   0  -5 -18  253.52   20.82
   0   5  18  243.15   19.09
   0  -5 -18  255.58   22.47
   0   5  18  218.74   17.55
   0  -5 -19  121.81   16.07
   0   5  19  101.63   12.89
   0   5  20  251.67   20.57
   0   6 -15   17.43    5.29
   0   6 -14   44.19    7.84
   0   6 -13    8.99    4.09
   0   6 -13   10.67    4.93
   0  -6  13   17.47    9.15
   0   6 -12   78.07   10.10
   0  -6  12   63.02   12.83
   0   6 -12   74.19    8.95
   0   6 -11    3.03    3.44
   0  -6  11    7.46    6.41
   0   6 -11    0.69    2.52
   0   6 -10   49.14    7.70
   0  -6  10   51.93   11.01
   0   6 -10   41.92    6.38
   0  -6   9   95.72   13.78
   0   6  -9  121.60    9.84
   0   6  -9  126.82   11.26
   0   6  -8  131.19    9.92
   0  -6   8  138.45   10.87
   0   6  -8  113.23   11.18
   0  -6   8  121.77   14.31
   0   6  -7    0.31    3.29
   0  -6   7    1.56    2.80
   0  -6   7    7.68    5.07
   0  -6   7   -0.11    1.86
   0  -6   6  746.78   33.38
   0   6  -6  784.25   27.66
   0  -6   6  749.68   32.03
   0   6  -5    8.85    3.24
   0  -6   5    8.43    5.50
   0  -6   5    6.19    4.42
   0   6  -5    3.65    3.92
   0  -6   4  290.40   18.81
   0   6  -4  253.89   14.80
   0   6  -4  245.02   12.83
   0  -6   4  245.96   20.50
   0   6  -3  184.10   12.08
   0  -6   3  194.71   14.90
   0   6  -3  179.38   10.89
   0  -6   3  221.22   18.83
   0  -6   2  141.61   14.13
   0  -6   2  151.38   12.80
   0   6  -2  158.35   10.29
   0   6  -2  134.67    5.80
   0   6  -2  135.49   10.69
   0  -6   2  142.71    5.32
   0   6  -1   24.78    4.65
   0   6  -1   18.05    2.04
   0  -6   1   21.92    5.91
   0  -6   1   24.61    5.63
   0   6  -1   33.38    5.58
   0   6   0  355.12   17.66
   0   6   0  349.03   10.40
   0  -6   0  366.22   18.67
   0  -6   0  378.44   20.35
   0   6   0  354.16   16.35
   0   6   1 1873.54   50.84
   0  -6  -1 1912.10   50.86
   0   6   1 1917.35   45.64
   0   6   1 1841.56   36.38
   0  -6  -1 1975.01   49.92
   0  -6  -2  531.62   23.15
   0   6   2  518.34   25.47
   0  -6  -2  545.73   22.67
   0  -6  -3  327.55   17.60
   0  -6  -3  342.84   17.39
   0   6   3  331.97   21.57
   0   6   3  354.01   21.53
   0  -6  -4   29.70    5.69
   0   6   4   30.58    8.01
   0  -6  -4   21.28    4.93
   0   6   4   17.96    2.34
   0   6   4   22.73    6.71
   0   6   5  411.58   22.71
   0   6   5  389.05   14.78
   0   6   5  403.90   22.90
   0  -6  -5  352.35   18.28
   0   6   6 1038.67   28.07
   0   6   6 1024.73   28.26
   0  -6  -6 1110.13   34.71
   0   6   6 1145.25   39.46
   0   6   7  627.54   27.80
   0  -6  -7  598.59   24.50
   0   6   7  536.19   19.31
   0   6   8 1416.34   37.42
   0   6   8 1449.24   37.24
   0   6   8 1538.06   46.83
   0  -6  -8 1501.47   42.82
   0   6   9   18.30    4.26
   0  -6  -9   20.89    5.11
   0   6   9   14.96    4.14
   0   6   9   15.96    5.58
   0  -6 -10  288.12   17.13
   0   6  10  335.75   20.09
   0   6  10  292.19   15.38
   0   6  10  332.80   17.61
   0   6  11   45.45    6.29
   0   6  11   48.61    7.52
   0  -6 -11   47.54    7.37
   0  -6 -12  579.95   25.59
   0   6  12  629.40   26.62
   0   6  12  557.43   23.55
   0  -6 -13   60.55    8.58
   0   6  13   68.24    8.89
   0   6  13   65.72    8.62
   0   6  14 1022.83   35.97
   0  -6 -14 1101.20   37.95
   0   6  14 1049.87   38.27
   0   6  15   14.05    4.79
   0  -6 -15    4.40    4.51
   0   6  15   14.84    5.98
   0   6  16   15.07    6.02
   0   6  16    1.14    4.11
   0  -6 -16    1.46    4.70
   0  -6 -16   15.11    5.19
   0  -6 -17   32.79    7.16
   0  -6 -17   24.85    9.13
   0  -6 -17   20.14    7.33
   0   6  17   30.74    7.29
   0   6  17   13.09    5.43
   0  -6 -18  145.91   16.70
   0   6  18  119.80   13.34
   0  -6 -18  142.93   13.94
   0  -6 -18  149.56   17.59
   0   7 -13  167.91   15.13
   0   7 -12    5.63    5.23
   0  -7  11   23.04    9.47
   0   7 -11   26.41    6.67
   0   7 -10  337.19   20.36
   0  -7  10  359.50   27.76
   0   7  -9  256.20   17.66
   0  -7   9  281.77   23.49
   0   7  -9  247.13   14.99
   0   7  -8  250.11   14.44
   0   7  -8  273.11   17.48
   0  -7   8  247.75   21.49
   0   7  -7  135.80   12.22
   0  -7   7  117.77   12.56
   0  -7   7  114.73   14.51
   0  -7   6   34.65    8.69
   0  -7   6   38.06    8.90
   0   7  -6   28.40    6.23
   0   7  -5   30.19    6.01
   0  -7   5   22.89    7.06
   0  -7   5   19.87    7.83
   0   7  -5   22.91    4.86
   0   7  -4  357.82   18.64
   0   7  -4  347.78   16.93
   0  -7   4  331.98   26.15
   0  -7   4  385.29   23.08
   0   7  -3   74.55    7.73
   0   7  -3   78.62    8.79
   0  -7   3   66.44    9.54
   0  -7   3   83.46   13.06
   0  -7   2  596.32   32.06
   0   7  -2  540.05   21.82
   0  -7   2  554.73   26.68
   0   7  -2  539.88   23.33
   0   7  -1    8.02    3.88
   0  -7   1   15.72    6.50
   0   7  -1    1.59    3.12
   0  -7   1    3.10    3.65
   0   7   0  220.99   14.70
   0  -7   0  213.20   15.42
   0  -7   0  210.88   17.09
   0   7   0  221.25   13.94
   0   7   1   -0.59    2.73
   0   7   1    1.54    3.54
   0  -7  -1    4.57    4.66
   0  -7  -1    1.72    3.51
   0   7   2  489.62   25.40
   0   7   2  487.22   20.62
   0  -7  -2  490.80   23.08
   0  -7  -2  495.86   24.53
   0   7   3   15.88    5.67
   0  -7  -3   10.88    4.00
   0   7   3   21.82    4.96
   0  -7  -3    3.51    3.14
   0   7   4   52.92    9.52
   0   7   4   36.16    8.38
   0  -7  -4   37.21    6.68
   0  -7  -4   41.04    6.69
   0   7   5  232.38   19.29
   0  -7  -5  207.25   15.12
   0   7   5  229.35   18.41
   0   7   5  196.54   10.24
   0   7   6  406.01   15.97
   0  -7  -6  413.87   21.69
   0   7   6  441.25   26.26
   0   7   6  463.33   25.86
   0   7   7   67.62   10.27
   0   7   7   59.37    6.33
   0   7   7   70.40   10.41
   0  -7  -7   68.46    8.84
   0  -7  -8 1008.10   36.06
   0   7   8 1063.28   40.02
   0   7   8  932.34   28.56
   0   7   9   59.88    9.26
   0  -7  -9   47.95    7.73
   0   7   9   55.36    6.74
   0   7  10   71.67    7.72
   0  -7 -10   80.41    9.52
   0   7  10   77.19   10.42
   0   7  10   57.35    7.12
   0  -7 -11  101.31   11.04
   0   7  11   95.31    9.49
   0   7  11   92.42    9.31
   0   7  11   97.35   11.80
   0   7  12  238.20   18.25
   0   7  12  230.47   15.42
   0   7  12  219.26   14.41
   0  -7 -12  229.05   16.71
   0  -7 -13  229.74   17.04
   0   7  13  234.78   15.58
   0   7  13  233.05   18.13
   0   7  13  250.69   16.82
   0   7  14  124.86   13.72
   0   7  14  101.38   10.76
   0  -7 -14  114.85   12.35
   0  -7 -15   56.60    9.10
   0   7  15   50.44    8.35
   0   7  16  180.64   15.58
   0  -7 -16  205.27   16.92
   0  -7 -17   58.61    9.71
   0   7  17   64.64    9.96
   0  -7 -18  149.18   15.04
   0   7  18  140.37   14.71
   0   8 -10  133.35   14.01
   0  -8  10  147.60   18.57
   0  -8   9   20.64    8.50
   0   8  -9   18.54    5.92
   0  -8   8   16.68    7.48
   0   8  -8    9.96    4.63
   0  -8   7   -8.47    6.67
   0   8  -7    6.93    4.88
   0  -8   6  100.73   14.02
   0  -8   6  120.26   14.75
   0   8  -6  108.93   11.43
   0  -8   5   50.31    9.91
   0   8  -5   34.96    6.82
   0   8  -5   44.42    6.66
   0  -8   5   25.84    9.43
   0   8  -4  111.28   11.61
   0  -8   4  114.25   17.12
   0   8  -4  127.03   10.64
   0  -8   4  142.56   15.18
   0   8  -3   38.52    6.16
   0  -8   3   37.36    8.00
   0  -8   3   23.36    9.30
   0   8  -3   40.43    6.88
   0   8  -2    6.07    3.81
   0  -8   2   -5.31    5.27
   0  -8   2    5.76    5.82
   0   8  -2   13.05    4.48
   0   8  -1  305.11   17.73
   0  -8   1  298.60   20.08
   0   8  -1  295.15   17.32
   0  -8   1  311.13   23.93
   0   8   0  842.59   31.94
   0  -8   0  919.38   35.73
   0  -8   0  858.78   39.23
   0   8   0  876.11   30.88
   0  -8  -1   41.74    9.13
   0   8   1   32.29    7.17
   0   8   1   32.26    6.08
   0  -8  -1   33.06    7.12
   0  -8  -2   43.92    7.92
   0   8   2   22.22    6.58
   0  -8  -2   35.13    7.68
   0   8   2   42.44    6.71
   0  -8  -3  390.06   23.20
   0   8   3  360.32   23.35
   0   8   3  381.38   18.88
   0  -8  -3  383.19   21.42
   0   8   4   12.02    4.81
   0   8   4    8.00    5.82
   0   8   4    9.20    2.84
   0  -8  -4    9.89    4.60
   0  -8  -4    3.75    3.62
   0   8   5  110.27   13.86
   0   8   5  102.62    9.77
   0  -8  -5  124.25   12.98
   0   8   5  118.54    8.00
   0   8   6 1712.53   40.91
   0   8   6 1782.44   46.17
   0   8   6 1909.40   62.97
   0  -8  -6 1744.46   54.21
   0   8   6 1825.95   59.78
   0   8   7  688.56   35.87
   0   8   7  695.81   33.88
   0   8   7  634.35   21.91
   0  -8  -7  634.20   29.82
   0   8   8   42.78    9.43
   0   8   8   20.73    4.13
   0  -8  -8   28.80    6.76
   0   8   8   28.14    8.43
   0   8   9  199.28   18.91
   0  -8  -9  186.65   16.14
   0   8   9  163.34   11.26
   0   8   9  208.76   17.93
   0   8  10   23.16    5.14
   0  -8 -10   18.58    5.69
   0   8  10   32.23    7.95
   0  -8 -11   21.53    7.22
   0   8  11   19.80    5.61
   0   8  11   19.06    7.10
   0   8  12 1347.87   48.70
   0  -8 -12 1304.99   46.16
   0   8  12 1262.24   39.59
   0   8  13  254.60   16.86
   0   8  13  248.40   19.91
   0  -8 -13  266.02   19.74
   0  -8 -14  292.09   20.81
   0   8  14  269.16   17.93
   0  -8 -15  149.18   15.16
   0   8  15  125.70   12.53
   0   8  16    6.76    4.03
   0  -8 -16    3.96    4.31
   0  -8 -17   15.89    6.94
   0   8  17    1.25    4.81
   0  -9   7   10.57    6.02
   0   9  -7    4.86    4.63
   0   9  -6   34.06    7.71
   0  -9   6   41.42    9.71
   0  -9   5   11.57    6.43
   0   9  -5    3.34    4.07
   0  -9   5    0.33    5.84
   0  -9   4  156.42   20.64
   0   9  -4  138.57   11.90
   0  -9   4  151.61   16.86
   0   9  -4  153.62   14.25
   0   9  -3   77.20    9.11
   0  -9   3   83.37   12.18
   0   9  -3  100.07   11.05
   0  -9   3   53.96   12.86
   0  -9   2   90.34   15.34
   0   9  -2  104.02   11.11
   0   9  -2   83.89    9.58
   0  -9   2   96.95   12.51
   0  -9   1    6.24    4.70
   0  -9   1    7.88    7.04
   0   9  -1    3.19    3.72
   0   9  -1   -0.14    3.75
   0   9   0   78.55   10.11
   0  -9   0   65.61   12.62
   0  -9   0   73.00   10.68
   0   9   0   76.66    9.98
   0  -9  -1    5.47    5.15
   0   9   1   15.16    5.69
   0  -9  -1   17.02    6.11
   0   9   1   19.03    5.68
   0  -9  -2    7.66    6.17
   0   9   2    5.81    5.03
   0   9   2   12.78    5.51
   0  -9  -2    0.98    4.46
   0   9   3   81.34    9.57
   0  -9  -3   81.01   10.98
   0   9   3   63.74   10.94
   0  -9  -3   71.77   11.41
   0   9   4  474.62   22.54
   0   9   4  491.46   29.72
   0  -9  -4  500.46   28.75
   0  -9  -4  506.66   26.66
   0   9   5   88.83    9.65
   0   9   5   95.87   13.51
   0  -9  -5  115.02   14.11
   0   9   6  264.19   23.04
   0  -9  -6  237.15   19.76
   0   9   6  252.87   15.79
   0   9   7   19.60    7.65
   0   9   7   19.90    4.74
   0  -9  -7   27.18    7.16
   0   9   7   21.41    9.08
   0  -9  -8    6.80    5.49
   0   9   8    7.30    3.59
   0   9   8   -6.27    5.52
   0   9   8   13.70    7.57
   0   9   9    7.80    6.07
   0   9   9   16.37    8.13
   0  -9  -9   24.00    7.34
   0   9   9   16.31    4.40
   0   9  10  341.61   26.41
   0  -9 -10  338.50   23.36
   0   9  10  331.57   17.46
   0   9  10  341.25   24.65
   0   9  11  286.93   22.40
   0   9  11  271.82   24.04
   0  -9 -11  290.23   21.68
   0   9  12   34.29    6.48
   0  -9 -12   43.79    9.24
   0   9  12   38.52    9.46
   0   9  13   12.34    4.42
   0  -9 -13    0.53    4.72
   0  -9 -14   19.38    6.53
   0   9  14   22.29    5.88
   0   9  15   32.48    7.37
   0  -9 -15   26.96    7.91
   0   9  16  254.21   18.63
   0 -10   4   15.28    6.87
   0 -10   4  -10.11    9.20
   0 -10   3   43.60   10.00
   0 -10   3   42.48   13.19
   0  10  -3   36.25    7.87
   0 -10   2   15.89    6.32
   0 -10   2   24.86   10.35
   0  10  -2   15.36    5.45
   0  10  -1   17.99    6.29
   0 -10   1   14.13    6.08
   0  10  -1   15.48    5.52
   0 -10   1   25.06   10.51
   0 -10   0  213.99   23.95
   0 -10   0  233.68   19.96
   0  10   0  215.35   17.44
   0  10   0  240.23   17.71
   0 -10  -1   77.52   12.03
   0 -10  -1   71.03   14.14
   0  10   1   89.60   11.81
   0  10   1   88.14   10.65
   0 -10  -2    9.28    6.11
   0  10   2    3.61    4.51
   0  10   2    9.88    5.48
   0 -10  -2    9.00    6.52
   0 -10  -3   32.55    9.50
   0  10   3   24.76    6.72
   0  10   3   15.40    6.96
   0 -10  -3   27.31    7.55
   0  10   4   80.71   12.39
   0 -10  -4  106.49   13.57
   0 -10  -4   98.22   14.11
   0  10   4   80.30   10.45
   0  10   5   70.68    9.70
   0 -10  -5   99.65   14.63
   0  10   5   88.39   14.02
   0  10   6  100.87   15.30
   0  10   6   76.28    9.76
   0 -10  -6  102.91   14.56
   0 -10  -7    7.64    4.98
   0  10   7    0.23    6.49
   0  10   7    5.58    3.29
   0  10   8   12.79    7.83
   0  10   8   19.12    5.32
   0 -10  -8   20.46    6.82
   0 -10  -9   30.99    8.37
   0  10   9   45.31   11.91
   0  10   9   31.90    6.32
   0  10  10  187.26   21.04
   0 -10 -10  183.11   18.81
   0  10  11  101.01   16.03
   0 -10 -11  130.37   15.78
   0  10  12  283.70   25.89
   0 -11   2   49.31   15.94
   0 -11   1   16.21   10.62
   0 -11   0   -1.73    6.27
   0 -11  -1    5.36    5.23
   0 -11  -1   12.07    8.59
   0  11   2  116.56   14.42
   0 -11  -2  113.00   14.75
   0 -11  -2  111.57   17.65
   0  11   2  120.59   13.18
   0  11   3   67.05   10.25
   0 -11  -3   77.94   12.73
   0  11   3   75.74   12.17
   0 -11  -3   80.72   14.74
   0  11   4  131.53   16.63
   0 -11  -4  196.69   21.75
   0  11   4  151.60   14.38
   0  11   5    6.47    4.72
   0  11   5    5.41    6.71
   0 -11  -5   11.26    5.84
   0  11   6   19.58    7.70
   0  11   6   13.55    5.17
   0  11   7   88.57   14.99
   0  11   7   93.34   11.25
   0  11   8   56.49    9.02
   0  11   8   43.20   11.89
   0  11   9  235.89   24.09
  -1  11   8    2.86    5.09
  -1  11   7  214.34   17.24
  -1  11   6  116.38   13.28
  -1  11   6  110.80   16.87
  -1  11   5  107.71   16.11
  -1  11   4   -4.77    6.11
  -1  11   3   83.83   13.66
  -1  11   2   11.44    6.74
  -1  11   1   87.17   13.18
  -1  10  10    0.37    6.58
   1 -10  -9  128.62   17.30
  -1  10   9   99.00   11.10
  -1  10   9  136.82   18.25
   1 -10  -8  341.15   27.44
  -1  10   8  318.82   19.90
  -1  10   8  369.66   28.41
  -1  10   7  455.27   32.15
  -1  10   7  348.54   20.84
   1 -10  -7  390.60   28.66
  -1  10   6    4.97    7.30
   1 -10  -6    4.69    6.47
  -1  10   6    3.18    4.41
  -1  10   5   58.23   12.41
   1 -10  -5   51.86   11.63
  -1  10   5   50.75    8.70
  -1  10   4  142.16   14.10
   1 -10  -4  176.72   20.13
  -1  10   4  151.08   17.62
   1 -10  -3  100.63   15.87
  -1  10   3   72.15   12.22
  -1  10   3   90.52   11.45
   1 -10  -3   81.31   11.47
   1 -10  -2  162.73   20.38
  -1  10   2  125.23   16.05
   1 -10  -2  155.72   15.75
  -1  10   2  140.13   13.61
   1 -10  -1  361.57   31.18
  -1  10   1  374.90   25.50
   1 -10  -1  387.58   25.22
  -1  10   1  392.61   22.94
   1 -10   0  143.70   20.74
   1 -10   0  145.80   15.78
  -1  10   0  135.58   14.82
  -1  10   0  145.51   14.56
   1 -10   1   36.22    8.49
   1 -10   1   26.71   10.69
  -1  10  -1   34.06    7.86
  -1  10  -1   64.24    9.80
  -1  10  -2   93.72   11.88
   1 -10   2   80.15   17.40
   1 -10   2   85.52   12.96
   1 -10   3   -4.28    4.93
   1 -10   3   -9.36    9.67
   1 -10   4   55.31   14.97
  -1   9  15    6.29    5.83
  -1   9  14    1.29    4.04
   1  -9 -13  100.66   13.82
  -1   9  12   38.59   10.76
   1  -9 -12   29.99    8.60
   1  -9 -11   31.48    8.11
  -1   9  11   36.50   10.61
   1  -9 -10    0.53    4.57
  -1   9  10   -8.77    7.30
  -1   9   9  228.18   21.88
   1  -9  -9  188.88   18.64
   1  -9  -8   13.34    6.46
  -1   9   8    4.74    6.60
  -1   9   7  277.15   23.64
   1  -9  -7  224.80   20.45
   1  -9  -6   40.59    9.46
  -1   9   6   59.34   11.71
  -1   9   5   12.20    6.83
  -1   9   5   -4.62    4.20
   1  -9  -5    9.18    6.21
  -1   9   4    6.30    4.10
   1  -9  -4    1.92    5.23
  -1   9   4    3.75    5.76
   1  -9  -4   10.58    4.21
  -1   9   3   81.22    9.75
   1  -9  -3   86.34   13.44
   1  -9  -3   90.65   11.35
  -1   9   3   81.96   12.34
   1  -9  -2  161.41   18.43
  -1   9   2  185.02   17.59
   1  -9  -2  154.86   14.86
  -1   9   2  154.46   13.63
  -1   9   1  230.90   18.98
   1  -9  -1  230.93   18.33
   1  -9  -1  249.08   23.82
  -1   9   1  248.29   17.29
  -1   9   0   24.97    6.73
  -1   9   0   18.53    6.43
   1  -9   0   18.99    8.72
   1  -9   0   20.26    6.09
  -1   9  -1   97.52   11.04
  -1   9  -1   82.76   10.77
   1  -9   1   79.42   15.73
   1  -9   1  100.55   12.74
   1  -9   2   25.15   10.42
  -1   9  -2   26.62    6.40
  -1   9  -2   29.75    6.88
   1  -9   2   26.71    7.74
   1  -9   3    6.65    5.67
  -1   9  -3    2.24    4.02
  -1   9  -3    5.86    4.62
   1  -9   3    7.96    7.27
  -1   9  -4   70.15    9.48
   1  -9   4   51.62   10.20
   1  -9   4   51.93   12.93
  -1   9  -4   79.22   10.94
   1  -9   5   10.20    7.80
  -1   9  -5   17.05    5.73
   1  -9   5   39.76    9.49
  -1   9  -5   25.66    6.75
  -1   9  -6   11.91    5.65
   1  -9   6   21.88    9.13
   1  -8 -17    6.96    5.03
  -1   8  16   25.18    6.98
   1  -8 -16   -8.52    5.99
  -1   8  15  327.20   21.71
   1  -8 -15  347.08   24.17
   1  -8 -14   37.74    8.56
  -1   8  14   31.65    7.12
   1  -8 -13  136.35   14.63
  -1   8  13  125.28   12.48
  -1   8  12   12.20    6.32
  -1   8  12   12.95    4.54
   1  -8 -12    5.74    4.79
  -1   8  11    0.81    5.52
   1  -8 -11   -1.30    4.99
  -1   8  11   -2.38    5.04
   1  -8 -10   22.94    6.16
  -1   8  10   13.91    7.56
  -1   8  10   15.40    4.50
  -1   8   9  692.72   31.98
  -1   8   9  630.87   25.93
   1  -8  -9  728.45   33.88
  -1   8   9  692.41   37.21
  -1   8   8  454.71   25.96
   1  -8  -8  500.57   27.73
  -1   8   8  562.12   32.94
  -1   8   8  446.17   20.67
   1  -8  -7   61.49   10.24
  -1   8   7   57.85   11.55
  -1   8   7   44.37    6.25
  -1   8   6  281.99   22.77
   1  -8  -6  259.80   20.13
   1  -8  -5    9.93    5.80
  -1   8   5    6.52    5.25
   1  -8  -4   18.18    5.81
  -1   8   4   31.40    8.34
   1  -8  -4   36.20    8.58
   1  -8  -3  899.86   34.56
  -1   8   3  865.83   38.78
   1  -8  -3  933.92   39.78
   1  -8  -2  920.63   40.86
  -1   8   2  867.45   32.11
   1  -8  -2  921.16   35.17
  -1   8   2  904.03   38.16
   1  -8  -1  179.95   15.02
   1  -8  -1  201.82   19.03
  -1   8   1  169.76   15.56
  -1   8   1  178.12   13.62
  -1   8   0  112.53   10.73
   1  -8   0  110.21   12.11
   1  -8   0  106.38   15.04
  -1   8   0  119.51   12.51
   1  -8   1   85.73   14.31
   1  -8   1  103.19   11.86
  -1   8  -1   98.18   10.88
  -1   8  -1   96.43   10.28
   1  -8   2    6.34    4.49
  -1   8  -2   -4.87    4.63
   1  -8   2   12.78    7.92
  -1   8  -2    8.45    4.43
   1  -8   3  384.84   30.77
  -1   8  -3  351.59   19.63
  -1   8  -3  391.59   21.02
   1  -8   3  374.70   23.42
  -1   8  -4  207.32   14.76
   1  -8   4  200.28   17.50
  -1   8  -4  235.07   16.51
   1  -8   4  160.22   20.35
  -1   8  -5  420.78   21.59
  -1   8  -5  463.28   24.64
   1  -8   5  425.70   31.90
   1  -8   5  463.82   27.35
   1  -8   6   23.82    7.96
  -1   8  -6   32.76    6.91
   1  -8   6   30.56    9.52
  -1   8  -6   39.90    7.11
   1  -8   7   38.63    9.51
   1  -8   7   21.65    7.97
  -1   8  -7   31.47    6.94
   1  -8   8   15.64    8.05
  -1   8  -8   11.17    5.45
   1  -8   9   51.83   11.36
  -1   8  -9   58.33    9.39
  -1   8 -10   39.23    8.59
   1  -7 -18   39.86    8.70
   1  -7 -17   24.26    6.54
  -1   7  17   18.75    6.74
  -1   7  16   24.83    7.23
   1  -7 -16   23.45    8.02
  -1   7  15  113.92   12.64
   1  -7 -15  100.98   12.23
  -1   7  14    8.58    5.61
   1  -7 -14    6.37    4.61
  -1   7  14   -0.71    3.89
   1  -7 -13  146.09   14.47
  -1   7  13  167.42   14.09
  -1   7  13  163.23   14.03
   1  -7 -12   43.48    8.22
  -1   7  12   26.66    5.65
  -1   7  12   44.22    7.50
   1  -7 -11  601.94   28.77
  -1   7  11  535.34   24.82
  -1   7  11  541.40   24.69
  -1   7  11  616.65   28.22
  -1   7  10    1.23    3.69
  -1   7  10    5.56    3.26
   1  -7 -10    9.34    5.43
  -1   7   9  120.34   12.27
  -1   7   9   89.02    9.26
  -1   7   9   96.02   12.91
   1  -7  -9   86.54   10.79
  -1   7   8    0.85    3.43
  -1   7   8   -9.29    6.69
   1  -7  -8    1.67    4.10
  -1   7   8    0.74    2.93
  -1   7   7    0.54    3.60
   1  -7  -7    0.09    3.55
  -1   7   7   10.53    7.07
   1  -7  -6    0.87    4.29
  -1   7   6   10.55    5.24
  -1   7   6   -2.45    5.09
  -1   7   5  851.52   38.06
   1  -7  -5  687.25   30.95
   1  -7  -4  733.15   28.70
   1  -7  -4  723.26   31.76
  -1   7   4  761.30   35.63
  -1   7   3  344.09   23.12
   1  -7  -3  351.90   19.14
   1  -7  -3  347.91   21.53
  -1   7   2  101.75   12.41
   1  -7  -2  100.86   10.24
   1  -7  -2   97.55   11.89
  -1   7   1   17.93    6.19
   1  -7  -1    3.20    3.42
   1  -7  -1   18.84    6.86
   1  -7   0  247.86   20.32
  -1   7   0  229.96   15.03
   1  -7   0  257.62   16.95
  -1   7   0  268.54   17.65
  -1   7  -1  333.31   18.83
   1  -7   1  340.69   19.85
   1  -7   1  313.63   24.05
  -1   7  -1  298.06   16.93
  -1   7  -2  742.45   27.74
   1  -7   2  783.06   40.09
  -1   7  -2  719.94   28.11
   1  -7   2  711.93   30.46
  -1   7  -3  562.38   24.90
  -1   7  -3  601.61   24.49
   1  -7   3  631.67   28.62
   1  -7   3  582.81   35.71
  -1   7  -4    5.47    3.97
  -1   7  -4    0.19    2.69
   1  -7   4    2.03    3.85
   1  -7   4   -3.73    6.44
  -1   7  -5    9.92    4.19
   1  -7   5    1.56    4.51
   1  -7   5    8.09    7.15
  -1   7  -5   12.08    4.67
  -1   7  -6   14.38    4.95
   1  -7   6   23.84    7.78
  -1   7  -6   21.97    5.25
   1  -7   6    9.24    5.85
   1  -7   7   79.05   11.84
   1  -7   7   99.07   13.18
  -1   7  -7  127.83   12.34
  -1   7  -8   53.27    8.09
   1  -7   8   66.11   10.49
   1  -7   8   64.25   11.57
   1  -7   9  411.02   28.02
  -1   7  -9  435.68   23.36
  -1   7 -10   -7.53    5.22
  -1   7 -10   -4.58    4.20
  -1   7 -11   12.49    4.51
   1  -7  11   19.53    8.33
  -1   7 -11   21.18    6.28
  -1   7 -12    7.90    4.30
  -1   7 -13   55.36    9.71
  -1   6  18  144.68   15.73
  -1   6  17    1.91    5.31
   1  -6 -17   -0.33    5.07
  -1   6  17    4.26    4.73
   1  -6 -17    7.82    6.27
  -1   6  16    4.79    4.34
  -1   6  16    3.31    4.91
   1  -6 -16    2.65    3.98
   1  -6 -15  351.37   21.29
  -1   6  15  337.49   21.16
  -1   6  15  361.68   22.56
   1  -6 -14  318.55   19.73
  -1   6  14  291.94   18.98
  -1   6  14  361.81   21.78
  -1   6  13  139.66   12.55
  -1   6  13  135.23   12.85
  -1   6  13  155.04   13.34
   1  -6 -13  127.20   12.19
  -1   6  12  128.31   12.26
   1  -6 -12  124.70   11.97
  -1   6  12  111.41   10.88
  -1   6  12  129.95   12.33
  -1   6  11  112.55   11.09
  -1   6  11  110.02   10.37
   1  -6 -11  119.34   11.45
  -1   6  11  106.94   10.99
  -1   6  10   18.51    5.20
  -1   6  10    6.78    3.36
  -1   6  10   17.90    5.39
   1  -6 -10    8.48    4.64
  -1   6   9  388.54   20.50
   1  -6  -9  360.39   19.81
  -1   6   9  347.60   17.73
  -1   6   9  325.40   17.85
   1  -6  -8    9.63    4.29
  -1   6   8    9.04    4.49
  -1   6   8    7.55    3.70
  -1   6   8   11.18    3.51
  -1   6   7  369.06   20.10
   1  -6  -7  351.29   19.52
  -1   6   7  363.49   22.76
  -1   6   6   72.49   10.85
   1  -6  -6   75.56    8.96
  -1   6   6   76.53    9.33
  -1   6   5  331.84   21.95
  -1   6   5  276.56   13.02
   1  -6  -5  301.68   17.88
  -1   6   5  307.71   18.66
   1  -6  -4  567.52   25.10
   1  -6  -4  539.65   22.38
  -1   6   4  463.97   14.92
  -1   6   4  597.74   29.33
  -1   6   3  521.54   27.00
   1  -6  -3  492.63   21.11
   1  -6  -3  423.72   12.57
   1  -6  -3  477.90   23.28
   1  -6  -2    0.64    2.76
  -1   6   2    3.61    4.07
   1  -6  -2    5.40    1.54
   1  -6  -2    4.10    3.70
  -1   6   1   -6.16    5.16
   1  -6  -1    9.85    1.93
   1  -6  -1   11.13    5.07
   1  -6  -1   12.58    4.08
   1  -6   0   11.31    2.50
   1  -6   0   16.13    4.46
  -1   6   0   21.61    5.78
   1  -6   0   17.89    6.27
   1  -6   1  288.99   11.26
  -1   6  -1  311.78   17.17
   1  -6   1  274.94   21.12
   1  -6   1  293.12   17.01
   1  -6   2  101.87    5.69
   1  -6   2  105.77   10.46
  -1   6  -2  119.26    9.96
   1  -6   2   98.57   13.75
  -1   6  -2  121.63   10.20
  -1   6  -3 2012.74   50.66
  -1   6  -3 1937.16   49.04
   1  -6   3 2034.00   54.83
   1  -6   3 2085.38   39.88
   1  -6   3 1953.76   66.06
  -1   6  -4   -4.26    3.49
   1  -6   4    3.83    5.03
   1  -6   4    2.19    5.31
  -1   6  -4    2.05    3.69
  -1   6  -5    3.61    2.87
   1  -6   5    3.43    3.81
   1  -6   5    2.49    4.63
  -1   6  -5    5.63    3.17
  -1   6  -6   17.32    4.06
   1  -6   6   14.46    5.95
  -1   6  -6   18.15    4.85
   1  -6   6    6.28    4.50
  -1   6  -7   11.39    4.13
   1  -6   7   13.91    5.96
   1  -6   7    8.55    5.49
   1  -6   8   67.05   10.90
   1  -6   8   66.54    9.09
  -1   6  -8   64.30    8.55
   1  -6   9  304.10   23.11
  -1   6  -9  312.44   18.38
   1  -6  10  145.26   16.79
  -1   6 -10  131.18   12.25
  -1   6 -10  116.74   11.13
   1  -6  11  113.73   15.86
  -1   6 -11  119.34   11.96
  -1   6 -11  113.57   10.87
  -1   6 -12   30.13    6.37
   1  -6  12   28.41    9.24
  -1   6 -12   36.47    7.52
   1  -6  13   80.31   14.86
  -1   6 -13   74.07   10.40
  -1   6 -13   70.39    9.56
  -1   6 -14   -0.97    4.21
  -1   6 -14    3.49    3.86
  -1   5  20   13.04    6.01
  -1   5  19   36.08    8.84
   1  -5 -18   36.84    9.93
  -1   5  18   17.29    6.65
  -1   5  18   13.81    5.77
   1  -5 -17  340.34   20.12
  -1   5  17  328.76   21.80
  -1   5  17  318.71   22.44
   1  -5 -17  335.64   25.79
  -1   5  16   11.23    5.37
   1  -5 -16   17.94    5.41
  -1   5  16    5.08    4.49
   1  -5 -16    0.21    5.75
  -1   5  15  128.47   13.57
   1  -5 -15  134.16   12.40
  -1   5  15  137.33   12.98
  -1   5  14    9.41    4.24
  -1   5  14   28.58    6.87
   1  -5 -14   13.49    4.55
   1  -5 -13  240.33   15.66
  -1   5  13  248.88   16.25
  -1   5  13  226.46   16.57
   1  -5 -12   49.98    7.15
  -1   5  12   33.19    6.55
  -1   5  12   39.29    6.57
   1  -5 -11  337.42   18.10
  -1   5  11  355.79   19.68
  -1   5  11  328.15   17.71
  -1   5  10  104.15    9.60
  -1   5  10  138.41   11.79
   1  -5 -10  139.56   11.36
   1  -5  -9    6.61    3.23
  -1   5   9   14.22    4.26
  -1   5   9    3.85    3.40
  -1   5   9    4.79    2.98
  -1   5   8  604.83   23.97
   1  -5  -8  610.42   24.42
  -1   5   8  580.42   22.26
  -1   5   8  693.33   25.85
  -1   5   7  260.09   14.35
   1  -5  -7  257.90   15.40
  -1   5   7  306.17   16.57
  -1   5   6  564.77   20.70
  -1   5   6  655.35   25.22
   1  -5  -6  602.57   24.03
  -1   5   5 2413.83   57.61
   1  -5  -5 2264.43   55.75
  -1   5   5 2275.34   62.06
   1  -5  -4  134.74    7.10
  -1   5   4  147.26    8.91
  -1   5   4  180.34   14.96
  -1   5   4  148.24   12.02
   1  -5  -4  151.79   11.79
   1  -5  -3  124.27    6.38
  -1   5   3  120.93    6.42
   1  -5  -3  125.68   10.75
   1  -5  -3  131.66    9.73
  -1   5   3  155.09   13.95
   1  -5  -2 1564.61   43.56
  -1   5   2 1498.23   46.63
   1  -5  -2 1443.02   31.45
   1  -5  -2 1569.14   39.74
   1  -5  -1  110.64   10.77
  -1   5   1  108.84   10.71
   1  -5  -1   95.77    8.45
   1  -5  -1   84.61    5.85
   1  -5   0  489.66   15.49
   1  -5   0  485.35   20.07
   1  -5   0  483.22   23.67
  -1   5   0  489.81   21.63
  -1   5   0  468.71   14.42
   1  -5   1 3047.56   66.88
   1  -5   1 3111.48   76.42
  -1   5  -1 2985.79   66.02
  -1   5  -1 2945.64   55.77
   1  -5   1 3056.44   54.68
   1  -5   2  898.91   37.64
   1  -5   2  856.13   19.91
  -1   5  -2  861.53   27.41
   1  -5   2  910.31   30.31
  -1   5  -3  123.17    9.34
   1  -5   3  147.63   11.65
  -1   5  -3  143.46   10.19
   1  -5   3  112.10   13.76
  -1   5  -4  352.14   16.40
  -1   5  -4  355.28   15.72
   1  -5   4  372.73   19.65
   1  -5   4  301.95   22.21
   1  -5   5  120.94   11.90
  -1   5  -5  108.80    8.69
   1  -5   5  100.33   12.40
  -1   5  -5  112.52    9.59
  -1   5  -6   80.21    8.59
   1  -5   6   85.77    6.82
   1  -5   6   72.02    9.97
   1  -5   6   78.81   10.26
  -1   5  -6   83.96    7.83
   1  -5   7 2019.44   58.35
   1  -5   7 2027.43   44.65
  -1   5  -7 1984.02   49.69
   1  -5   7 1886.78   52.34
  -1   5  -8  346.82   17.37
   1  -5   8  350.92   18.14
   1  -5   8  344.03   15.03
   1  -5   8  344.12   22.43
  -1   5  -9  124.41   10.55
   1  -5   9  129.83    9.50
   1  -5   9  124.07   14.13
  -1   5  -9  102.68    9.38
   1  -5  10    8.98    5.59
  -1   5 -10    4.49    3.40
   1  -5  10    1.50    2.50
  -1   5 -10    3.94    3.14
   1  -5  11    2.33    2.73
   1  -5  11    8.88    5.77
  -1   5 -11    3.00    3.18
  -1   5 -11    6.28    3.44
  -1   5 -12   10.60    4.47
   1  -5  12    1.05    5.82
  -1   5 -12    0.35    3.68
   1  -5  12    0.67    3.31
  -1   5 -13  178.17   13.80
  -1   5 -13  165.79   13.38
   1  -5  13  234.28   23.30
  -1   5 -14   81.60    9.78
   1  -5  14   99.64   16.66
  -1   5 -14   67.51    9.69
  -1   5 -15   68.08   10.43
  -1   5 -16   57.67    9.48
  -1   4  20   19.30    8.17
   1  -4 -19   87.68   13.84
  -1   4  19   52.19    9.88
  -1   4  18   59.65   10.06
  -1   4  18   46.98    8.32
   1  -4 -18   72.30   11.80
   1  -4 -18   64.61   11.34
  -1   4  17  134.25   13.91
   1  -4 -17  125.52   15.98
  -1   4  17  136.98   13.68
   1  -4 -17  134.63   15.00
   1  -4 -16  269.44   16.57
  -1   4  16  261.39   18.39
  -1   4  16  275.00   19.25
   1  -4 -16  271.82   22.20
   1  -4 -16  264.08   20.17
  -1   4  15  528.84   25.77
   1  -4 -15  567.89   28.82
  -1   4  15  595.75   27.95
   1  -4 -15  551.51   31.17
   1  -4 -15  593.31   24.52
  -1   4  14   13.22    5.06
  -1   4  14   19.42    5.71
   1  -4 -14   21.56    5.27
   1  -4 -14   15.39    6.66
   1  -4 -14   11.80    5.16
   1  -4 -13  233.46   17.14
  -1   4  13  227.89   15.68
   1  -4 -13  228.03   14.26
  -1   4  13  223.78   15.00
  -1   4  12   83.65    8.91
   1  -4 -12   95.44   10.99
  -1   4  12   91.53    9.78
   1  -4 -12   86.85    8.47
  -1   4  11  105.56    9.45
  -1   4  11   97.18    9.76
   1  -4 -11   95.51   10.24
   1  -4 -11   93.71    8.68
  -1   4  10    2.07    3.72
   1  -4 -10    1.13    2.43
  -1   4  10    2.43    3.00
   1  -4 -10    4.21    3.69
  -1   4   9  897.07   30.76
  -1   4   9  865.79   28.02
   1  -4  -9  924.20   28.94
  -1   4   8  137.08   10.73
  -1   4   8  121.83    9.19
   1  -4  -8  129.28    9.80
  -1   4   7  189.58   11.73
  -1   4   7  203.49   12.68
   1  -4  -7  166.70   11.10
  -1   4   6   89.81    8.07
   1  -4  -6   91.02    8.03
  -1   4   6  110.22    8.87
   1  -4  -5  198.99   11.80
   1  -4  -5  204.32    9.19
  -1   4   5  191.16   10.75
  -1   4   5  236.05   13.06
  -1   4   4  438.52   18.54
   1  -4  -4  401.79   17.40
  -1   4   4  414.66   16.27
  -1   4   4  393.49   20.62
   1  -4  -4  397.97   13.06
   1  -4  -3  319.89   14.16
  -1   4   3  342.39   13.02
   1  -4  -3  334.50   11.60
  -1   4   3  369.62   19.95
  -1   4   3  353.11   16.95
   1  -4  -3  341.54   16.08
  -1   4   2   50.37    3.73
   1  -4  -2   48.14    6.31
   1  -4  -2   53.12    4.50
  -1   4   2   54.91    8.68
   1  -4  -2   49.07    5.53
  -1   4   1 1276.32   38.35
   1  -4  -1 1335.75   30.52
   1  -4  -1 1261.46   36.92
   1  -4  -1 1333.88   33.65
   1  -4   0   23.44    5.29
  -1   4   0   23.10    5.36
   1  -4   0   28.19    4.73
   1  -4   0   28.77    3.09
  -1   4  -1 2018.21   38.93
  -1   4  -1 1951.48   46.26
   1  -4   1 1931.65   46.24
   1  -4   1 2023.51   54.28
   1  -4   1 2019.46   37.31
   1  -4   2  121.38   13.00
   1  -4   2  115.53    9.27
  -1   4  -2  122.09    6.10
  -1   4  -2  113.16    8.26
   1  -4   3    8.06    4.95
  -1   4  -3   16.98    3.54
  -1   4  -3   18.70    2.52
   1  -4   3   15.97    4.02
  -1   4  -4    6.98    2.84
  -1   4  -4    0.55    2.43
   1  -4   4   -2.64    4.79
   1  -4   4    8.21    3.90
   1  -4   5  392.84   19.91
   1  -4   5  389.86   20.94
  -1   4  -5  387.64   15.64
   1  -4   5  382.47   13.72
  -1   4  -5  370.84   15.79
   1  -4   6  262.95   15.55
   1  -4   6  273.81   11.60
  -1   4  -6  225.62   13.12
   1  -4   6  249.45   16.64
  -1   4  -7  322.13   14.93
   1  -4   7  287.29   15.42
   1  -4   7  314.76   19.37
   1  -4   7  291.66   12.71
  -1   4  -8   27.19    4.06
   1  -4   8   27.41    6.95
   1  -4   8   22.96    4.13
  -1   4  -8   27.28    5.13
  -1   4  -9   73.54    7.68
  -1   4  -9   75.44    7.63
   1  -4   9   89.69    7.65
   1  -4   9   82.82   11.39
  -1   4  -9   81.23    5.79
  -1   4 -10  152.33   11.50
   1  -4  10  169.62   11.01
   1  -4  10  169.60   17.02
  -1   4 -10  166.85   11.70
   1  -4  11  788.87   26.37
  -1   4 -11  775.47   27.96
  -1   4 -11  800.55   27.78
   1  -4  11  785.37   38.55
   1  -4  12   27.90    9.19
  -1   4 -12   44.59    7.04
  -1   4 -12   44.81    7.13
   1  -4  12   43.86    6.58
  -1   4 -13   54.46    7.45
   1  -4  13   61.36   12.49
   1  -4  13   63.22    7.90
  -1   4 -13   55.41    8.21
  -1   4 -14    2.64    3.17
   1  -4  14  -11.25    8.52
  -1   4 -14   -4.52    4.70
   1  -4  14   -2.45    3.24
   1  -4  15    5.83    3.76
   1  -4  15   -7.11    8.17
  -1   4 -15    0.24    3.48
  -1   4 -16    5.18    5.05
  -1   4 -17  114.27   13.02
   1  -3 -19  142.22   17.22
  -1   3  19  112.29   13.34
   1  -3 -19  131.33   15.73
  -1   3  18  130.11   13.67
   1  -3 -18  143.91   17.31
   1  -3 -18  116.30   13.68
  -1   3  17  696.69   31.50
   1  -3 -17  757.69   34.39
   1  -3 -17  790.67   38.65
   1  -3 -16   20.62    6.92
  -1   3  16    3.60    4.13
   1  -3 -16   12.70    7.30
  -1   3  15   78.26    9.62
   1  -3 -15   85.55   10.22
   1  -3 -15   88.56    8.43
   1  -3 -15   78.70   12.12
  -1   3  14  290.13   17.57
   1  -3 -14  318.81   22.48
   1  -3 -14  323.67   19.52
   1  -3 -14  308.60   15.66
  -1   3  13   14.84    4.41
   1  -3 -13   18.93    3.92
   1  -3 -13   23.55    5.68
   1  -3 -13   13.97    6.32
   1  -3 -12  397.42   23.28
   1  -3 -12  348.16   16.06
  -1   3  12  346.64   17.79
   1  -3 -12  353.96   19.48
  -1   3  11 1978.05   49.37
   1  -3 -11 1982.94   46.71
   1  -3 -11 2054.45   52.79
   1  -3 -10   14.04    4.52
   1  -3 -10   12.35    3.34
  -1   3  10    8.78    3.62
  -1   3  10    4.64    3.39
  -1   3   9  363.31   16.25
  -1   3   9  379.88   17.30
   1  -3  -9  389.91   18.60
   1  -3  -9  385.83   15.91
   1  -3  -8   98.66    7.55
  -1   3   8   86.88    7.90
  -1   3   8   99.06    7.97
   1  -3  -8   99.52    8.92
  -1   3   7   77.21    7.49
   1  -3  -7   77.08    6.79
   1  -3  -7   77.03    8.00
   1  -3  -6  153.06    9.43
  -1   3   6  142.07   10.09
   1  -3  -5 1778.13   41.01
   1  -3  -5 1822.05   37.77
  -1   3   5 1827.22   43.14
  -1   3   4    6.67    2.54
  -1   3   4    4.84    2.59
  -1   3   4    5.69    2.19
   1  -3  -4    4.34    2.42
   1  -3  -4    6.04    1.98
  -1   3   3   17.55    3.35
   1  -3  -3   16.69    2.85
   1  -3  -3   16.14    3.42
  -1   3   3   11.79    2.85
   1  -3  -3   25.25    4.22
  -1   3   3   14.06    3.77
  -1   3   3   19.43    5.68
   1  -3  -2  157.87    8.54
  -1   3   2  172.15   10.74
  -1   3   2  152.11    7.54
  -1   3   2  192.01   13.21
   1  -3  -2  155.66    7.84
   1  -3  -2  162.71    7.82
   1  -3  -2  142.72    9.30
   1  -3  -2  172.11    9.09
   1  -3  -1 1613.30   36.38
   1  -3  -1 1625.18   40.31
   1  -3  -1 1672.97   35.78
  -1   3   1 1609.31   42.79
   1  -3  -1 1743.88   40.46
   1  -3  -1 1733.22   34.39
  -1   3   1 1623.59   31.00
   1  -3   0   85.77    8.70
   1  -3   0   96.64    8.66
   1  -3   0   85.65    4.60
  -1   3   0   75.27    7.15
   1  -3   0   94.31    6.89
  -1   3  -1 1787.26   34.52
  -1   3  -1 1737.14   39.92
   1  -3   1 1748.55   40.02
   1  -3   1 1813.03   47.06
   1  -3   1 1802.01   33.25
   1  -3   2   22.51    6.13
  -1   3  -2   20.09    3.41
  -1   3  -2   15.04    2.18
   1  -3   2   14.61    3.50
  -1   3  -3   30.12    3.95
  -1   3  -3   33.57    3.15
   1  -3   3   35.32    5.45
   1  -3   3   27.41    6.28
   1  -3   3   29.26    3.26
  -1   3  -4  781.59   22.00
  -1   3  -4  756.68   22.40
   1  -3   4  771.55   28.24
   1  -3   4  788.48   26.35
   1  -3   4  804.96   20.12
  -1   3  -4  791.21   19.21
   1  -3   5 1931.52   48.48
  -1   3  -5 1908.41   41.20
   1  -3   5 1928.15   46.66
  -1   3  -5 1840.01   41.25
   1  -3   5 1843.27   38.80
   1  -3   6 1044.60   25.86
   1  -3   6 1045.92   29.81
  -1   3  -6 1059.10   27.86
   1  -3   6 1050.67   34.77
  -1   3  -7  840.60   24.54
  -1   3  -7  840.07   22.07
   1  -3   7  806.24   22.76
  -1   3  -8   29.23    4.99
  -1   3  -8   32.90    3.43
   1  -3   8   28.75    4.30
  -1   3  -8   25.95    4.47
  -1   3  -9   44.93    5.90
  -1   3  -9   45.93    5.88
  -1   3  -9   39.16    3.46
   1  -3   9   38.08    5.03
   1  -3  10  239.57   12.49
  -1   3 -10  209.37   12.99
  -1   3 -10  234.75   12.76
  -1   3 -10  200.32    7.42
  -1   3 -11   82.77    7.84
  -1   3 -11   72.34    8.07
   1  -3  11   71.17    7.30
  -1   3 -12  219.44   14.40
   1  -3  12  238.15   13.74
  -1   3 -12  253.69   13.80
   1  -3  13  828.19   28.84
  -1   3 -13  818.13   30.26
  -1   3 -13  849.11   27.94
  -1   3 -14   43.92    6.44
  -1   3 -14   40.15    7.51
   1  -3  14   51.02    7.56
   1  -3  15  173.39   13.43
  -1   3 -15  155.81   13.89
   1  -3  16   10.58    4.04
  -1   3 -16    5.37    3.66
  -1   3 -17   10.11    5.29
   1  -3  17   12.51    5.18
   1  -3  18   19.30    5.58
  -1   3 -18   15.00    5.81
   1  -2 -19   67.87   12.53
  -1   2  19   79.96   10.99
   1  -2 -19   66.95   10.90
   1  -2 -18  136.05   14.49
   1  -2 -18  115.32   14.96
  -1   2  18  129.60   13.33
   1  -2 -17  231.59   17.92
  -1   2  17  204.66   16.12
   1  -2 -17  218.27   19.84
  -1   2  16    3.40    3.91
   1  -2 -16    6.02    5.88
   1  -2 -16   -2.14    3.74
   1  -2 -15  144.55   13.00
  -1   2  15  148.67   12.61
   1  -2 -15  153.80   15.81
   1  -2 -15  164.75   10.79
   1  -2 -14   24.48    5.72
   1  -2 -14   26.97    4.18
  -1   2  14   24.31    5.74
   1  -2 -14   23.93    6.48
   1  -2 -13  201.52   16.86
   1  -2 -13  194.73   10.92
   1  -2 -13  209.78   14.63
  -1   2  13  185.73   13.11
   1  -2 -12   38.01    4.76
  -1   2  12   36.48    5.78
   1  -2 -12   36.84    6.86
   1  -2 -12   38.21    6.29
   1  -2 -11  900.33   29.98
   1  -2 -11  898.76   25.26
   1  -2 -11  889.03   34.69
  -1   2  11  847.70   27.98
  -1   2  10  105.79    8.67
   1  -2 -10  116.36   11.94
   1  -2 -10  100.68    9.11
   1  -2 -10  109.73    7.50
   1  -2  -9  377.47   16.89
  -1   2   9  336.17   15.13
   1  -2  -9  341.69   13.50
  -1   2   8  403.83   15.62
   1  -2  -8  436.07   17.63
   1  -2  -8  445.88   15.21
  -1   2   8  426.74   16.48
  -1   2   7 1250.71   31.24
   1  -2  -7 1280.31   29.82
  -1   2   7 1166.34   32.03
   1  -2  -7 1263.53   33.17
  -1   2   6  634.41   20.09
   1  -2  -6  611.15   20.81
   1  -2  -6  630.13   18.35
   1  -2  -5  234.00   11.96
  -1   2   5  253.80   10.26
   1  -2  -5  247.59    9.93
   1  -2  -5  240.01   10.21
  -1   2   5  234.62   11.59
   1  -2  -4   27.07    3.62
  -1   2   4   26.06    4.39
  -1   2   4   21.19    3.12
  -1   2   4   20.03    3.14
   1  -2  -4   30.27    3.39
   1  -2  -3 1713.93   34.38
  -1   2   3 1657.51   36.82
   1  -2  -3 1810.28   38.77
  -1   2   3 1660.86   35.10
  -1   2   3 1672.73   40.43
  -1   2   3 1663.62   36.53
  -1   2   3 1703.61   36.23
   1  -2  -3 1667.12   35.95
  -1   2   3 1693.37   34.79
  -1   2   2 1435.04   32.27
  -1   2   2 1415.19   29.71
   1  -2  -2 1432.15   29.86
  -1   2   2 1416.45   31.38
  -1   2   2 1415.20   36.67
   1  -2  -2 1408.57   32.01
  -1   2   2 1439.65   31.09
   1  -2  -2 1442.66   30.98
  -1   2   2 1474.58   32.71
   1  -2  -2 1363.81   30.12
   1  -2  -1 5162.48   86.61
  -1   2   1 4824.19   95.23
  -1   2   1 5145.76   89.46
  -1   2   1 5134.29   85.47
   1  -2  -1 5229.37   89.87
   1  -2  -1 5065.59   96.82
   1  -2  -1 5005.63   88.77
  -1   2   1 5375.33   91.99
   1  -2  -1 4952.88   91.58
   1  -2  -1 4876.24   87.20
   1  -2   0   11.37    3.60
   1  -2   0    8.21    2.27
   1  -2   0   14.71    3.80
  -1   2   0   14.09    3.39
   1  -2   0   10.17    1.81
  -1   2   0    7.83    3.06
   1  -2   0   16.61    4.08
  -1   2   0    8.91    3.11
  -1   2  -1  818.28   25.15
  -1   2  -1  865.99   18.42
   1  -2   1  816.69   21.24
   1  -2   1  844.60   22.30
   1  -2   1  806.90   26.78
  -1   2  -1  848.60   23.23
  -1   2  -1  826.06   21.30
  -1   2  -2 3236.24   55.13
   1  -2   2 3207.94   59.18
  -1   2  -2 3241.31   65.81
  -1   2  -2 3020.95   57.91
   1  -2   2 2951.23   67.21
   1  -2   2 3175.43   55.57
   1  -2   2 3078.90   60.65
   1  -2   3  629.69   16.00
   1  -2   3  652.01   20.70
  -1   2  -3  626.21   15.56
   1  -2   3  663.29   18.21
  -1   2  -3  654.17   23.32
  -1   2  -3  678.63   17.75
   1  -2   3  675.94   22.98
   1  -2   4  564.43   15.33
  -1   2  -4  581.53   15.13
   1  -2   4  611.40   19.90
  -1   2  -4  542.56   22.64
  -1   2  -4  584.42   16.56
  -1   2  -4  585.85   16.89
   1  -2   5 4102.76   77.06
  -1   2  -5 4242.92   85.93
  -1   2  -5 4077.39   75.01
   1  -2   5 4140.87   73.51
   1  -2   6  983.82   24.35
  -1   2  -6 1000.29   22.80
  -1   2  -6 1013.05   24.97
  -1   2  -7   14.23    2.31
   1  -2   7   10.00    2.85
  -1   2  -7    8.89    2.61
  -1   2  -7    9.42    3.20
  -1   2  -8 2138.60   45.66
  -1   2  -8 2190.01   40.30
  -1   2  -8 2232.19   48.29
   1  -2   8 2107.28   45.82
   1  -2   9   76.87    6.71
  -1   2  -9   77.89    4.21
  -1   2  -9   89.70    7.64
  -1   2  -9   87.79    6.80
   1  -2  10  207.92   11.35
  -1   2 -10  188.18   11.72
  -1   2 -10  164.72    6.18
  -1   2 -10  194.02   10.50
  -1   2 -11 1202.99   33.50
  -1   2 -11 1209.83   30.03
   1  -2  11 1238.36   32.32
  -1   2 -12  348.55   17.76
   1  -2  12  343.28   16.56
  -1   2 -12  342.33   15.03
  -1   2 -13   87.20    9.58
   1  -2  13   86.45    8.63
  -1   2 -13   77.45    7.39
   1  -2  14  132.43   11.00
  -1   2 -14  122.49    9.38
  -1   2 -14  137.34   12.25
   1  -2  15    1.79    3.09
  -1   2 -15    2.53    3.94
   1  -2  16   15.08    6.09
  -1   2 -16   19.91    6.68
  -1   2 -17  508.17   26.48
   1  -2  17  517.59   25.45
  -1   2 -18   24.83    7.13
   1  -2  18   38.10    7.70
   1  -1 -19  465.51   27.44
   1  -1 -19  426.83   29.44
  -1   1  19  447.14   25.52
   1  -1 -18   34.34    7.70
   1  -1 -18   26.31    8.63
  -1   1  18   38.57    7.88
   1  -1 -17  819.57   34.28
   1  -1 -17  805.36   38.29
  -1   1  17  758.92   31.95
   1  -1 -16  139.20   15.17
  -1   1  16   98.77   10.79
   1  -1 -16   94.59   10.93
  -1   1  15  157.97   12.71
   1  -1 -15  158.90   13.49
   1  -1 -15  154.62   15.50
   1  -1 -14   11.70    3.14
   1  -1 -14    6.23    5.24
   1  -1 -14   17.90    5.33
  -1   1  14   11.49    3.14
  -1   1  14   13.84    4.26
   1  -1 -13  434.00   15.77
   1  -1 -13  449.56   20.95
   1  -1 -13  452.74   24.94
  -1   1  13  431.16   15.61
  -1   1  13  425.68   19.89
  -1   1  12  359.06   13.66
  -1   1  12  360.51   17.40
   1  -1 -12  372.22   21.66
   1  -1 -12  343.23   17.42
   1  -1 -12  362.43   13.79
   1  -1 -11 1573.36   41.64
   1  -1 -11 1602.21   35.45
  -1   1  11 1570.05   40.75
   1  -1 -11 1618.29   48.41
  -1   1  10    2.10    2.52
   1  -1 -10    7.96    3.54
   1  -1 -10    6.03    4.22
   1  -1 -10    6.83    2.04
   1  -1  -9   18.29    4.00
  -1   1   9   14.65    3.48
   1  -1  -9   13.60    2.62
  -1   1   9   17.67    2.50
   1  -1  -9   21.34    5.54
  -1   1   8  865.53   24.72
   1  -1  -8  871.52   21.54
  -1   1   8  874.84   20.65
   1  -1  -8  847.01   30.29
  -1   1   8  858.81   22.00
   1  -1  -8  889.55   25.63
   1  -1  -7  683.45   17.66
   1  -1  -7  634.33   24.63
   1  -1  -7  690.81   20.89
  -1   1   7  680.44   18.73
  -1   1   7  666.69   16.95
  -1   1   7  658.18   20.03
  -1   1   6  461.21   15.16
  -1   1   6  490.59   15.84
   1  -1  -6  478.93   13.66
  -1   1   6  470.82   13.36
   1  -1  -6  486.71   16.29
   1  -1  -5  973.30   24.34
  -1   1   5 1021.83   23.78
   1  -1  -5  944.92   21.44
  -1   1   5  858.09   24.23
   1  -1  -4  106.24    6.54
  -1   1   4  111.59    6.75
   1  -1  -4  114.09    6.03
  -1   1   4  117.30    6.42
   1  -1  -4  105.29    5.42
   1  -1  -3 4026.05   70.12
  -1   1   3 4068.44   72.71
   1  -1  -3 3961.57   69.48
  -1   1   3 3951.65   69.53
   1  -1  -3 4034.63   72.66
  -1   1   3 4086.51   70.20
  -1   1   3 4019.85   72.73
   1  -1  -2  421.02   12.18
   1  -1  -2  392.54   11.93
  -1   1   2  396.69   13.14
  -1   1   2  407.91   12.47
   1  -1  -2  401.45   13.38
  -1   1   2  430.53   12.30
  -1   1   1 2663.24   50.34
   1  -1  -1 2661.66   45.35
   1  -1  -1 2547.00   49.39
  -1   1   1 2463.49   52.02
  -1   1   1 2666.35   48.81
   1  -1  -1 2680.52   49.78
   1  -1  -1 2576.49   52.65
  -1   1   1 2620.02   46.76
   1  -1  -1 2690.12   47.23
   1  -1  -1 2608.29   45.36
  -1   1   1 2698.99   46.33
  -1   1   0  164.18    6.39
   1  -1   0  157.90    7.44
  -1   1   0  165.48    7.30
   1  -1   0  155.61    5.77
  -1   1   0  153.07    8.60
   1  -1   0  175.93    9.16
  -1   1   0  162.37    5.30
   1  -1   0  157.66    5.37
   1  -1   1  192.74    7.42
  -1   1  -1  182.11   10.19
  -1   1  -1  203.61    7.42
   1  -1   1  184.95   10.22
  -1   1  -1  200.52    6.44
   1  -1   1  195.39    7.43
  -1   1  -2   41.07    3.53
  -1   1  -2   39.04    2.94
   1  -1   2   41.47    3.50
   1  -1   2   57.59    5.52
  -1   1  -2   39.70    5.49
   1  -1   2   43.91    3.07
  -1   1  -3 1046.96   22.81
   1  -1   3 1081.19   24.59
  -1   1  -3 1047.31   21.63
   1  -1   3 1052.19   22.96
   1  -1   3  997.70   21.71
  -1   1  -3 1087.02   27.42
   1  -1   4 1132.06   24.53
  -1   1  -4 1083.30   23.01
   1  -1   4 1119.91   23.81
   1  -1   4 1039.29   23.35
  -1   1  -4 1093.73   23.34
  -1   1  -4 1041.48   27.65
  -1   1  -5  693.55   16.03
  -1   1  -5  666.00   17.34
  -1   1  -5  734.02   18.28
  -1   1  -5  741.32   21.15
   1  -1   5  716.36   18.08
   1  -1   5  728.36   18.73
  -1   1  -6   30.67    2.68
   1  -1   6   28.65    3.46
  -1   1  -6   30.60    3.95
  -1   1  -6   24.39    3.85
  -1   1  -6   27.17    3.00
  -1   1  -6   30.45    3.23
  -1   1  -7  599.37   16.12
  -1   1  -7  566.98   13.39
  -1   1  -7  490.25   18.60
  -1   1  -7  538.63   17.98
   1  -1   7  557.27   16.95
  -1   1  -7  544.48   15.70
  -1   1  -8  436.51   16.72
   1  -1   8  455.98   15.85
  -1   1  -8  460.67   14.53
  -1   1  -8  486.31   11.97
  -1   1  -9  156.23    9.82
   1  -1   9  163.41    9.51
  -1   1  -9  150.82    5.96
  -1   1  -9  169.56    8.31
  -1   1 -10  116.66    8.88
  -1   1 -10  116.96    7.22
   1  -1  10  126.98    8.76
  -1   1 -10  115.67    5.20
  -1   1 -11  656.14   15.62
   1  -1  11  744.31   24.08
  -1   1 -11  731.12   20.76
  -1   1 -11  747.57   25.15
  -1   1 -12   25.23    3.74
   1  -1  12   27.26    5.09
  -1   1 -12   25.79    2.37
  -1   1 -12   30.18    5.53
   1  -1  13  383.34   18.19
  -1   1 -13  332.06   17.95
  -1   1 -13  399.93   15.41
  -1   1 -14    7.07    3.73
  -1   1 -14   16.31    3.55
   1  -1  14   19.48    5.22
  -1   1 -15   96.44   10.55
   1  -1  15  100.99   10.42
  -1   1 -16   -0.99    3.35
   1  -1  16   -2.52    3.89
  -1   1 -17   63.09    9.67
   1  -1  17   70.82    9.60
  -1   1 -18   -0.59    4.04
   1  -1  18   10.01    4.83
  -1   1 -19   37.06    8.46
   1  -1  19   28.23    6.97
  -1   0  19  146.59   14.42
   1   0 -19  131.30   14.61
   1   0 -19  108.88   14.56
   1   0 -18    0.98    5.10
   1   0 -18    1.02    4.04
  -1   0  18   11.35    5.53
   1   0 -17   13.98    6.86
  -1   0  17    8.78    4.18
   1   0 -17   13.09    5.20
   1   0 -16  116.89   14.13
  -1   0  16  111.48   11.03
   1   0 -16  109.96   11.49
  -1   0  15  513.77   23.53
   1   0 -15  531.73   24.62
   1   0 -15  506.55   27.75
   1   0 -14   10.04    4.42
  -1   0  14    5.83    2.85
  -1   0  14    1.60    3.31
   1   0 -14    2.61    4.62
   1   0 -14    0.10    2.85
   1   0 -13 1728.22   46.24
   1   0 -13 1680.05   51.77
  -1   0  13 1758.36   39.72
  -1   0  13 1747.54   45.83
   1   0 -13 1665.88   42.36
   1   0 -12    5.60    3.05
   1   0 -12    6.73    3.63
  -1   0  12    4.52    2.26
  -1   0  12    5.53    3.26
   1   0 -12    8.98    5.32
  -1   0  11  219.34   12.56
  -1   0  11  209.75    7.48
  -1   0  11  201.14    9.98
   1   0 -11  208.20   12.40
   1   0 -11  223.76   15.49
   1   0 -11  204.65   11.05
  -1   0  10    5.22    2.11
   1   0 -10    4.16    2.57
  -1   0  10    5.09    2.72
   1   0 -10    9.18    4.28
   1   0 -10    1.34    2.04
  -1   0  10    7.19    1.60
  -1   0   9  365.96   15.09
   1   0  -9  357.66   15.14
  -1   0   9  382.39   10.37
  -1   0   9  349.90   12.74
   1   0  -9  380.02   14.27
   1   0  -9  391.83   19.01
  -1   0   8  471.98   14.61
   1   0  -8  469.08   15.53
  -1   0   8  453.98   16.33
   1   0  -8  459.42   16.52
  -1   0   8  471.91   11.75
   1   0  -8  477.27   20.26
  -1   0   7 1972.83   35.61
   1   0  -7 1983.87   42.15
  -1   0   7 2022.39   39.36
   1   0  -7 1937.01   47.03
   1   0  -7 1972.49   40.54
  -1   0   7 1950.68   41.76
   1   0  -6   21.36    2.96
   1   0  -6   28.08    4.99
  -1   0   6   26.56    3.72
   1   0  -6   14.51    2.66
  -1   0   6   26.75    2.19
  -1   0   6   20.06    2.75
  -1   0   5  201.96    7.81
  -1   0   5  193.66    8.47
   1   0  -5  209.76    8.64
   1   0  -5  202.46    8.40
  -1   0   5  207.26    8.67
   1   0  -5  195.48   10.91
   1   0  -4 2581.19   47.27
  -1   0   4 2536.08   47.46
  -1   0   4 2669.58   48.25
   1   0  -4 2566.15   47.58
   1   0  -4 2460.17   51.66
  -1   0   4 2532.96   46.66
   1   0  -4 2543.75   47.43
   1   0  -4 2548.55   43.66
  -1   0   3 3613.06   62.92
   1   0  -3 3634.57   63.51
   1   0  -3 3519.75   62.36
   1   0  -3 3563.15   66.37
  -1   0   3 3647.04   62.51
  -1   0   3 3765.18   63.69
   1   0  -3 3566.24   59.61
   1   0  -3 3568.82   62.72
   1   0  -2 1340.52   24.51
  -1   0   2 1327.95   27.26
   1   0  -2 1364.48   26.81
   1   0  -2 1398.04   26.28
   1   0  -2 1343.59   28.61
  -1   0   2 1312.38   24.31
  -1   0   2 1321.37   26.26
   1   0  -2 1324.67   27.56
  -1   0   2 1347.60   26.73
  -1   0   1  887.47   19.51
  -1   0   1  910.86   19.82
  -1   0  -1  312.15    8.43
  -1   0  -1  293.03    7.53
  -1   0  -2  152.93    5.27
   1   0   2  149.58    5.25
   1   0   2  155.97    4.44
   1   0   2  163.64    5.68
  -1   0  -2  159.19    5.28
   1   0   2  163.49    5.65
  -1   0  -3 4575.38   75.02
   1   0   3 4365.21   74.80
   1   0   3 4434.99   74.23
   1   0   3 4528.49   74.49
  -1   0  -3 4418.70   73.82
  -1   0  -3 4481.77   73.76
   1   0   4 3832.61   67.02
  -1   0  -4 3897.19   64.92
  -1   0  -4 4026.92   67.19
  -1   0  -4 3759.18   64.24
   1   0   4 3846.15   67.47
   1   0   4 3968.84   65.76
  -1   0  -4 3856.47   66.44
  -1   0  -4 3890.42   67.72
  -1   0  -5 2127.78   41.67
  -1   0  -5 2097.26   37.89
  -1   0  -5 2118.55   37.75
   1   0   5 2195.60   38.99
  -1   0  -5 2120.12   40.95
   1   0   5 2162.74   42.64
  -1   0  -5 2081.97   37.66
   1   0   5 2083.01   40.69
  -1   0  -5 2263.79   41.37
  -1   0  -6  689.78   15.54
  -1   0  -6  677.38   19.12
   1   0   6  691.26   18.42
   1   0   6  702.75   20.61
  -1   0  -6  717.45   19.06
  -1   0  -6  717.23   15.69
   1   0   6  724.31   16.62
  -1   0  -6  697.30   15.60
  -1   0  -7  117.26    5.35
  -1   0  -7  116.80    7.39
  -1   0  -7  115.97    5.22
   1   0   7  118.75    5.78
  -1   0  -7  123.14    5.43
   1   0   7  123.87    7.20
  -1   0  -7  110.02    7.26
  -1   0  -8   26.84    4.21
  -1   0  -8   20.35    4.02
   1   0   8   24.36    2.86
  -1   0  -8   29.97    2.77
   1   0   8   30.81    4.08
  -1   0  -8   31.61    3.01
   1   0   9 1060.01   23.49
   1   0   9  976.88   26.93
  -1   0  -9 1036.58   28.67
  -1   0  -9  995.76   22.59
  -1   0  -9  979.95   21.58
  -1   0  -9  987.95   28.05
   1   0  10  501.17   14.83
  -1   0 -10  508.81   19.21
  -1   0 -10  479.98   13.17
   1   0  10  480.86   17.97
  -1   0 -10  483.69   14.25
  -1   0 -10  479.99   19.08
  -1   0 -11 1857.20   37.93
   1   0  11 1857.20   38.49
  -1   0 -11 1832.64   35.74
  -1   0 -11 1839.05   46.13
   1   0  11 1829.36   44.17
  -1   0 -11 1821.73   45.27
  -1   0 -12  179.56   12.23
  -1   0 -12  185.17    7.61
  -1   0 -12  196.22   13.11
   1   0  12  205.46   12.33
  -1   0 -12  197.72    9.13
  -1   0 -13   49.91    7.41
   1   0  13   60.64    7.29
  -1   0 -13   63.95    7.85
  -1   0 -13   53.42    4.93
  -1   0 -14   95.88   10.06
  -1   0 -14   81.42    9.31
   1   0  14   92.87    9.30
   1   0  15  481.96   22.36
  -1   0 -15  464.57   23.49
  -1   0 -15  476.36   23.03
   1   0  16   28.47    5.99
  -1   0 -16   32.62    7.29
  -1   0 -16   32.49    7.23
  -1   0 -17  390.82   22.81
  -1   0 -17  386.45   23.05
   1   0  17  391.00   21.86
   1   0  18    4.42    4.51
  -1   0 -18    8.79    5.25
  -1   0 -18    8.44    4.90
   1   0  19   -2.28    4.57
  -1   0 -19   -2.47    4.26
   1   1 -19  381.87   24.52
  -1  -1  19  407.41   24.02
   1   1 -18   -6.74    6.02
  -1  -1  18   -1.19    4.36
   1   1 -18    3.98    4.23
  -1  -1  17    7.09    4.20
   1   1 -17    9.59    6.39
   1   1 -17   13.11    5.12
   1   1 -16   17.48    5.79
  -1  -1  16   18.96    5.28
   1   1 -16   12.83    5.37
   1   1 -15  113.94   11.01
  -1  -1  15  111.25   10.45
   1   1 -15  103.63    9.35
   1   1 -15   92.52   12.08
   1   1 -14  100.96    8.78
  -1  -1  14   94.03    9.40
   1   1 -14   96.98    9.84
   1   1 -14   94.16   11.82
   1   1 -13  710.91   26.43
   1   1 -13  647.65   28.93
  -1  -1  13  699.80   25.77
   1   1 -13  737.78   24.23
   1   1 -12    4.64    3.88
   1   1 -12   11.31    3.36
  -1  -1  12    6.17    3.06
   1   1 -12    4.11    3.18
   1   1 -11  388.76   17.24
  -1  -1  11  384.00   14.95
   1   1 -11  414.32   16.09
   1   1 -11  366.17   19.52
  -1  -1  11  396.11   17.00
  -1  -1  10 1071.64   29.77
  -1  -1  10 1044.10   27.28
   1   1 -10 1068.21   34.11
   1   1 -10 1087.10   28.14
   1   1 -10 1020.64   29.61
   1   1  -9  563.61   22.36
  -1  -1   9  552.72   19.04
   1   1  -9  541.80   18.98
  -1  -1   9  551.01   17.58
   1   1  -9  590.45   18.29
  -1  -1   8  219.15    9.80
   1   1  -8  224.88   10.76
  -1  -1   8  229.05   10.84
   1   1  -8  222.25   10.07
   1   1  -8  208.90   12.54
   1   1  -7  210.50    9.76
  -1  -1   7  219.87    9.44
   1   1  -7  219.04   11.92
  -1  -1   7  221.69    9.96
   1   1  -7  221.13    9.51
  -1  -1   6  843.67   21.45
   1   1  -6  868.00   21.22
  -1  -1   6  861.70   21.09
   1   1  -6  841.16   24.71
   1   1  -6  858.66   21.54
  -1  -1   6  901.34   21.17
  -1  -1   5 1789.83   35.65
  -1  -1   5 1902.05   35.97
   1   1  -5 1786.40   35.72
  -1  -1   5 1799.15   35.73
   1   1  -5 1815.23   39.19
  -1  -1   5 1717.24   35.41
   1   1  -5 1792.73   35.67
  -1  -1   4  185.49    7.24
   1   1  -4  193.17    7.55
  -1  -1   4  184.40    8.57
   1   1  -4  185.07    8.79
  -1  -1   4  181.61    7.35
  -1  -1   4  186.72    7.17
  -1  -1   4  196.02    8.06
   1   1  -4  181.66    7.10
  -1  -1   4  195.17    7.22
  -1  -1   3  829.98   19.74
  -1  -1   3  827.43   18.63
   1   1  -3  840.31   20.00
  -1  -1   3  862.74   17.95
   1   1  -3  717.31   18.00
   1   1  -3  874.04   18.67
  -1  -1   3  889.92   19.09
  -1  -1   3  807.06   18.41
   1   1  -3  860.25   17.58
  -1  -1   3  876.89   17.66
  -1  -1   2  735.29   16.80
   1   1  -2  761.85   14.86
  -1  -1   2  778.74   16.64
  -1  -1   2  756.86   16.34
   1   1  -2  751.45   16.17
   1   1  -2  715.33   16.67
  -1  -1   2  780.23   14.97
   1   1  -2  744.54   16.37
  -1  -1   1  627.46   13.66
  -1  -1   1  652.97   14.63
  -1  -1   1  634.56   11.97
   1   1  -1  637.03   12.07
  -1  -1   1  619.65   13.39
  -1  -1   1  647.10   14.63
  -1  -1   1  591.82   17.25
  -1  -1   0  284.41    6.80
  -1  -1  -1 3104.25   50.13
  -1  -1  -1 3080.75   51.65
   1   1   2 2606.78   44.65
  -1  -1  -2 2596.28   44.05
  -1  -1  -2 2572.65   44.52
   1   1   2 2624.04   44.14
  -1  -1  -2 2666.14   44.11
   1   1   2 2567.87   44.19
  -1  -1  -3  687.13   14.88
  -1  -1  -3  669.44   14.98
   1   1   3  682.27   15.13
  -1  -1  -3  652.80   14.49
   1   1   3  659.17   14.66
   1   1   3  676.34   14.62
  -1  -1  -4  966.26   20.18
   1   1   4 1004.86   21.72
   1   1   4 1002.21   20.42
   1   1   4  951.15   20.96
  -1  -1  -4  976.21   21.46
  -1  -1  -4 1049.78   21.45
  -1  -1  -5  159.12    8.56
  -1  -1  -5  156.20    6.15
   1   1   5  153.49    6.20
  -1  -1  -5  170.32    7.55
  -1  -1  -5  166.50    7.16
   1   1   5  151.65    6.91
   1   1   5  151.53    7.38
   1   1   6  543.23   15.66
  -1  -1  -6  558.21   18.11
   1   1   6  560.23   14.17
  -1  -1  -6  570.33   16.56
  -1  -1  -6  559.71   13.94
  -1  -1  -6  546.36   11.12
  -1  -1  -7 1348.29   24.71
   1   1   7 1380.42   27.95
  -1  -1  -7 1359.55   33.61
  -1  -1  -7 1340.47   27.48
  -1  -1  -7 1363.68   31.66
   1   1   7 1323.62   30.37
   1   1   8 2624.19   52.66
   1   1   8 2660.43   48.95
  -1  -1  -8 2601.11   45.72
  -1  -1  -8 2648.85   48.47
  -1  -1  -8 2571.04   53.75
  -1  -1  -8 2671.62   56.42
  -1  -1  -9 2961.93   53.88
  -1  -1  -9 2873.96   62.67
   1   1   9 2907.03   59.01
  -1  -1  -9 2872.10   51.58
   1   1   9 3053.47   54.83
  -1  -1  -9 2949.33   60.35
   1   1  10   17.61    3.70
  -1  -1 -10   21.78    2.87
  -1  -1 -10   20.24    2.40
  -1  -1 -10   19.77    4.35
  -1  -1 -10   26.26    4.49
   1   1  11   10.85    3.43
  -1  -1 -11   21.02    4.52
  -1  -1 -11   14.78    2.70
  -1  -1 -11   17.79    4.84
  -1  -1 -11   16.55    2.40
  -1  -1 -12  313.20   11.27
  -1  -1 -12  318.81   11.50
  -1  -1 -12  293.72   15.65
  -1  -1 -12  325.70   17.59
   1   1  12  343.02   16.10
   1   1  13  164.83   11.68
  -1  -1 -13  158.86   11.99
  -1  -1 -13  171.35    8.48
  -1  -1 -13  159.83   12.75
  -1  -1 -14   66.38    8.98
  -1  -1 -14   57.17    7.72
   1   1  14   59.61    7.60
   1   1  15 1405.08   41.45
  -1  -1 -15 1299.32   43.54
  -1  -1 -15 1367.18   42.31
  -1  -1 -16   10.44    4.43
  -1  -1 -16    6.06    4.86
   1   1  16    8.66    3.82
  -1  -1 -17    5.83    4.59
  -1  -1 -17   -1.07    3.89
   1   1  17    7.17    3.80
   1   1  18   89.12   10.79
  -1  -1 -18   86.66   11.46
  -1  -1 -18   89.44   11.98
  -1  -1 -19  152.71   15.16
   1   1  19  162.66   14.91
  -1  -1 -19  129.70   14.95
  -1  -1 -20    1.76    4.54
  -1  -2  19   19.27    6.37
   1   2 -19   29.31    8.33
   1   2 -18  120.03   13.33
  -1  -2  18  119.03   12.44
  -1  -2  17   24.06    6.30
   1   2 -17   16.74    6.12
   1   2 -16   34.16    7.05
  -1  -2  16   43.63    7.93
   1   2 -15 1560.92   43.20
  -1  -2  15 1602.50   45.70
   1   2 -15 1641.52   47.32
   1   2 -14  583.06   22.80
  -1  -2  14  584.37   24.05
   1   2 -14  555.76   24.39
   1   2 -13   41.67    6.33
   1   2 -13   48.77    6.81
  -1  -2  13   46.66    6.55
   1   2 -12  101.51    8.43
  -1  -2  12   97.56    8.58
   1   2 -12   87.13    8.53
   1   2 -11  249.42   12.76
   1   2 -11  246.53   13.71
  -1  -2  11  261.57   13.26
   1   2 -10   44.48    4.56
   1   2 -10   36.96    5.02
  -1  -2  10   38.85    4.95
   1   2 -10   39.97    5.15
   1   2 -10   27.10    5.83
  -1  -2   9 1757.04   39.66
   1   2  -9 1736.64   39.73
   1   2  -9 1738.56   44.17
   1   2  -9 1689.43   40.03
   1   2  -9 1687.21   36.32
   1   2  -8  778.10   22.75
  -1  -2   8  823.05   22.94
   1   2  -8  812.94   20.28
   1   2  -8  777.89   25.41
  -1  -2   8  794.77   22.34
   1   2  -8  782.19   22.61
   1   2  -7 3673.11   68.77
  -1  -2   7 3635.38   68.65
  -1  -2   7 3702.81   67.76
   1   2  -7 3677.27   68.36
   1   2  -7 3576.02   64.50
  -1  -2   6 2186.03   44.43
   1   2  -6 2226.60   44.46
  -1  -2   6 2184.95   43.01
   1   2  -6 2239.87   43.65
   1   2  -6 2122.51   39.95
   1   2  -5  109.07    6.48
   1   2  -5   97.18    4.33
  -1  -2   5   99.08    5.41
  -1  -2   5  105.46    6.30
   1   2  -5  107.88    5.83
  -1  -2   4  109.36    6.14
   1   2  -4   88.40    3.78
   1   2  -4  102.06    6.03
   1   2  -4  102.60    5.93
  -1  -2   4  101.35    3.94
  -1  -2   4   97.47    4.84
   1   2  -4  100.83    5.08
  -1  -2   4  104.16    4.80
  -1  -2   4  104.56    5.62
  -1  -2   3   63.01    4.30
  -1  -2   3   52.20    4.07
   1   2  -3   51.23    3.18
   1   2  -3   52.94    4.09
   1   2  -3   51.10    2.71
  -1  -2   3   50.97    4.27
   1   2  -3   49.27    2.17
  -1  -2   3   60.15    6.20
  -1  -2   3   53.88    4.01
  -1  -2   3   51.23    3.08
   1   2  -3   53.36    4.22
  -1  -2   3   54.06    3.12
  -1  -2   3   51.85    3.64
  -1  -2   2 1499.37   28.93
  -1  -2   2 1496.86   27.32
  -1  -2   2 1568.54   28.79
   1   2  -2 1537.78   30.40
  -1  -2   2 1521.39   26.92
  -1  -2   2 1579.93   30.41
  -1  -2   2 1526.05   26.75
   1   2  -2 1551.55   26.89
  -1  -2   2 1520.38   34.40
  -1  -2   2 1503.97   30.33
   1   2  -2 1506.36   27.31
   1   2  -2 1611.23   30.79
   1   2  -2 1484.96   27.30
  -1  -2   1 1836.21   34.87
   1   2  -1 1883.91   34.91
  -1  -2   1 1816.48   37.91
  -1  -2   1 1902.35   33.16
  -1  -2   1 1771.70   34.15
  -1  -2   1 1838.47   32.75
  -1  -2   1 1854.68   33.26
  -1  -2   1 1934.35   35.01
   1   2  -1 1938.15   35.18
  -1  -2   1 1749.29   43.20
   1   2  -1 1864.07   32.05
   1   2  -1 1884.18   32.68
   1   2  -1 1858.58   37.37
   1   2  -1 1839.87   31.69
  -1  -2   0  103.07    7.97
  -1  -2   0   99.54    4.57
   1   2   0  103.30    4.65
   1   2   0  105.02    8.00
   1   2   0   98.72    4.22
  -1  -2   0  108.40    4.76
   1   2   0   98.95    5.07
  -1  -2   0   97.96    5.86
   1   2   0  107.07    5.79
  -1  -2   0  100.89    4.31
   1   2   0  102.06    4.61
   1   2   1  690.13   14.67
  -1  -2  -1  703.81   15.44
   1   2   1  700.63   19.34
  -1  -2  -1  707.05   14.92
  -1  -2  -1  714.66   19.50
   1   2   1  745.11   17.49
   1   2   1  696.21   13.59
   1   2   1  710.16   15.43
   1   2   1  693.13   14.81
  -1  -2  -1  699.30   17.43
   1   2   2    8.13    2.44
  -1  -2  -2    7.09    1.20
  -1  -2  -2    9.26    1.27
  -1  -2  -2    9.27    1.60
   1   2   2    6.67    1.27
   1   2   2    8.88    1.48
  -1  -2  -2    9.69    1.96
   1   2   2    4.99    1.14
   1   2   2    5.55    1.05
   1   2   2    7.31    1.68
   1   2   3 2725.99   48.01
  -1  -2  -3 2781.88   47.18
  -1  -2  -3 2673.36   48.03
   1   2   3 2713.77   44.96
   1   2   3 2635.95   46.93
  -1  -2  -3 2745.67   48.57
   1   2   3 2793.84   48.88
  -1  -2  -4  865.35   20.12
   1   2   4  951.24   20.42
  -1  -2  -4  891.09   19.53
   1   2   4  866.95   15.63
   1   2   4  870.89   19.35
   1   2   4  924.23   20.31
  -1  -2  -4  901.07   19.95
  -1  -2  -5  151.87    7.37
   1   2   5  171.96    7.80
   1   2   5  152.39    7.00
   1   2   5  157.31    7.00
  -1  -2  -5  173.24    7.23
  -1  -2  -5  158.70    6.81
  -1  -2  -6    2.61    2.19
   1   2   6    2.21    1.61
   1   2   6    0.32    2.08
  -1  -2  -6   -0.38    1.69
  -1  -2  -7  233.97   10.76
  -1  -2  -7  230.09    9.11
   1   2   7  235.39   10.20
  -1  -2  -8  140.24    7.00
   1   2   8  116.95    3.39
   1   2   8  142.46    8.29
   1   2   8  114.83    3.41
  -1  -2  -8  135.24    8.39
   1   2   9 2689.08   53.72
   1   2   9 2438.45   42.18
  -1  -2  -9 2743.28   61.30
  -1  -2  -9 2722.70   49.88
  -1  -2  -9 2647.85   54.80
  -1  -2 -10   17.60    3.74
   1   2  10   16.55    1.45
   1   2  10   18.39    3.79
  -1  -2 -10   28.19    5.75
  -1  -2 -10   18.63    2.89
   1   2  11   51.31    6.13
  -1  -2 -11   50.32    7.81
  -1  -2 -11   49.68    6.25
  -1  -2 -11   50.96    4.67
  -1  -2 -12   70.97    8.90
  -1  -2 -12   90.73    8.64
   1   2  12   76.96    7.60
  -1  -2 -13  316.27   16.94
   1   2  13  308.27   16.17
  -1  -2 -13  305.97   18.95
  -1  -2 -14    7.91    4.10
  -1  -2 -14   15.83    6.15
   1   2  14    7.61    2.94
  -1  -2 -15  655.81   27.61
  -1  -2 -15  652.59   30.35
   1   2  15  698.20   27.26
   1   2  16   96.44   10.33
  -1  -2 -16   81.24   11.40
  -1  -2 -16   94.21   10.75
   1   2  17  160.57   13.58
  -1  -2 -17  141.77   14.78
  -1  -2 -17  173.66   14.83
  -1  -2 -18  106.30   12.18
  -1  -2 -18   84.83   12.36
   1   2  18   96.25   11.07
   1   2  19  129.89   13.23
  -1  -2 -19  118.61   13.67
  -1  -2 -19  108.04   13.29
  -1  -2 -20   -0.98    5.06
   1   3 -18    0.86    5.09
  -1  -3  18   10.08    4.17
   1   3 -17  114.33   12.45
  -1  -3  17  130.61   12.29
  -1  -3  16   67.03    8.62
   1   3 -16   63.46    9.20
  -1  -3  15  199.01   14.16
   1   3 -15  175.84   14.09
   1   3 -15  181.90   13.13
   1   3 -14   -5.79    3.53
   1   3 -14   -0.99    3.38
   1   3 -13   92.15    8.82
  -1  -3  13  106.43    9.54
   1   3 -13  100.76    9.63
   1   3 -12  295.36   15.45
  -1  -3  12  300.05   15.22
   1   3 -12  295.11   15.98
   1   3 -11  691.16   24.55
   1   3 -11  682.41   24.22
  -1  -3  11  728.76   23.82
  -1  -3  10  416.33   16.64
   1   3 -10  448.59   18.00
   1   3 -10  428.76   17.92
   1   3  -9  223.24   11.66
  -1  -3   9  221.19   10.85
   1   3  -9  180.71    7.87
   1   3  -9  213.72   11.82
   1   3  -8   64.22    4.27
  -1  -3   8   73.36    5.74
   1   3  -8   66.86    6.03
   1   3  -8   70.80    6.61
   1   3  -7  133.14    7.80
  -1  -3   7  136.62    7.35
   1   3  -7  128.51    8.57
   1   3  -7  130.38    6.22
   1   3  -6   55.07    3.84
   1   3  -6   46.94    5.03
  -1  -3   6   47.96    3.99
   1   3  -6   61.31    4.96
  -1  -3   5 1056.85   34.44
  -1  -3   5 1124.72   24.02
   1   3  -5 1052.85   20.31
   1   3  -5 1114.27   23.42
   1   3  -5 1165.35   24.42
  -1  -3   5 1105.42   24.61
  -1  -3   5 1110.67   24.98
   1   3  -5 1142.42   27.94
   1   3  -5 1172.87   25.55
   1   3  -4    0.97    2.06
   1   3  -4    2.25    1.27
   1   3  -4    1.13    1.53
  -1  -3   4    2.19    1.51
  -1  -3   4   -1.05    1.27
  -1  -3   4    1.94    1.49
  -1  -3   4    0.82    3.40
  -1  -3   4   11.87    3.02
   1   3  -4    0.92    0.85
   1   3  -4    3.30    1.43
   1   3  -3 2737.95   52.50
   1   3  -3 2673.06   47.00
   1   3  -3 2775.18   46.83
  -1  -3   3 2673.51   46.55
  -1  -3   3 2742.81   59.28
   1   3  -3 2714.98   48.20
  -1  -3   3 2739.95   50.02
   1   3  -3 2709.53   48.89
  -1  -3   3 2646.72   54.79
  -1  -3   3 2749.00   48.95
  -1  -3   2 1978.20   40.20
  -1  -3   2 1999.26   35.48
  -1  -3   2 1994.08   39.41
  -1  -3   2 1950.62   44.84
   1   3  -2 1992.15   33.47
   1   3  -2 1956.87   35.92
   1   3  -2 1979.34   37.27
   1   3  -2 1941.15   35.82
  -1  -3   2 1900.65   33.22
   1   3  -2 1996.44   39.67
  -1  -3   1  339.80   18.00
   1   3  -1  325.36   13.45
  -1  -3   1  333.43   13.92
  -1  -3   1  333.79    8.35
  -1  -3   1  331.85   11.18
  -1  -3   1  352.87   11.54
   1   3  -1  350.57   11.50
   1   3  -1  332.60    9.87
   1   3  -1  344.39   11.37
  -1  -3   1  309.25   12.69
   1   3  -1  330.63    9.81
   1   3   0 1128.28   25.39
   1   3   0 1039.23   33.50
  -1  -3   0 1223.67   25.89
   1   3   0 1156.70   27.24
  -1  -3   0 1156.32   25.66
   1   3   0 1210.25   25.84
  -1  -3   0 1201.39   34.51
   1   3   0 1188.48   28.92
  -1  -3   0 1188.01   29.21
   1   3   0 1205.67   24.62
  -1  -3  -1  606.83   15.63
   1   3   1  631.63   15.77
  -1  -3  -1  659.94   22.11
   1   3   1  640.83   18.79
   1   3   1  578.83   21.87
  -1  -3  -1  608.41   16.25
   1   3   1  604.45   11.26
   1   3   1  620.56   15.43
  -1  -3  -1  627.69   18.81
   1   3   2 1335.30   27.53
  -1  -3  -2 1227.23   30.00
   1   3   2 1261.16   25.96
  -1  -3  -2 1255.74   27.10
   1   3   2 1295.13   23.23
   1   3   2 1287.25   25.73
   1   3   2 1230.46   33.05
   1   3   2 1327.93   30.53
  -1  -3  -2 1265.39   23.80
  -1  -3  -3  514.79   14.94
   1   3   3  511.59   12.13
  -1  -3  -3  486.77   14.40
   1   3   3  520.01   12.69
   1   3   3  509.61   18.34
   1   3   3  488.90   13.43
   1   3   3  522.65   11.50
   1   3   3  507.98   17.01
   1   3   3  521.44   14.63
   1   3   4 1154.12   25.91
   1   3   4 1166.60   24.41
   1   3   4 1230.22   24.80
  -1  -3  -4 1209.54   27.10
  -1  -3  -4 1175.94   26.51
  -1  -3  -5   14.88    2.93
  -1  -3  -5   16.37    2.87
   1   3   5   17.57    2.62
  -1  -3  -5   14.46    2.43
   1   3   6    1.84    1.68
  -1  -3  -6    4.14    2.11
  -1  -3  -6    2.58    1.99
   1   3   7 5507.00   95.95
  -1  -3  -7 5339.43   97.68
  -1  -3  -7 5378.21   95.23
   1   3   8  383.48   14.32
   1   3   8  338.65    9.49
  -1  -3  -8  369.82   13.36
  -1  -3  -8  363.22   14.76
   1   3   9  417.86   16.01
  -1  -3  -9  405.79   16.67
  -1  -3  -9  414.82   14.64
   1   3   9  406.68    9.13
   1   3  10  408.78    9.03
   1   3  10  490.37   18.12
   1   3  10  421.01    8.96
  -1  -3 -10  457.11   18.40
  -1  -3 -11  220.62   12.99
   1   3  11  232.64   12.68
  -1  -3 -12  200.63   15.88
   1   3  12  193.84   12.32
  -1  -3 -12  175.60   12.57
  -1  -3 -13 1919.75   56.26
   1   3  13 1852.54   47.64
  -1  -3 -13 1853.59   49.19
  -1  -3 -14  669.08   27.28
  -1  -3 -14  697.61   32.17
   1   3  14  691.52   26.43
  -1  -3 -15  384.50   24.05
   1   3  15  390.40   19.96
  -1  -3 -15  367.52   20.53
  -1  -3 -16   46.32    7.99
   1   3  16   45.79    7.10
  -1  -3 -16   80.47   11.81
   1   3  17   14.05    5.12
  -1  -3 -17   20.07    6.07
  -1  -3 -17    5.97    5.55
   1   3  18   49.46    8.99
  -1  -3 -18   65.22   10.31
  -1  -3 -18   73.40   11.52
  -1  -3 -19  339.27   25.31
   1   3  19  343.92   21.75
  -1  -3 -19  333.38   23.00
  -1  -3 -20   78.39   12.80
   1   4 -17  199.31   16.53
  -1  -4  16   66.11   14.57
   1   4 -16   50.83    8.34
  -1  -4  16   60.70    8.45
  -1  -4  15  213.89   14.73
  -1  -4  15  275.72   26.28
   1   4 -15  206.31   14.99
   1   4 -15  204.65   15.19
  -1  -4  14   22.25    5.29
   1   4 -14   22.73    5.76
   1   4 -14   24.95    5.79
  -1  -4  14   33.65   10.60
   1   4 -13    5.73    3.79
  -1  -4  13    3.13    3.03
  -1  -4  13   -7.71    7.52
   1   4 -13    3.50    3.38
   1   4 -12   43.37    6.14
   1   4 -12   32.22    5.73
  -1  -4  12   49.06   10.82
  -1  -4  12   30.44    4.84
  -1  -4  11   79.55   13.78
  -1  -4  11   84.33    7.53
   1   4 -11   84.96    8.37
   1   4 -11   86.97    8.83
   1   4 -10  159.48   10.73
   1   4 -10  166.07   11.49
  -1  -4  10  181.27   17.87
  -1  -4  10  169.53   10.10
   1   4  -9 1847.41   45.39
  -1  -4   9 1818.99   58.70
  -1  -4   9 1813.17   41.01
   1   4  -9 1823.23   43.09
  -1  -4   8  124.87    7.77
  -1  -4   8  144.37   14.57
   1   4  -8  119.03    9.69
   1   4  -8  120.77    6.71
   1   4  -8  132.39    8.72
   1   4  -7  214.23   10.45
   1   4  -7  205.47    8.85
   1   4  -7  211.51   12.12
   1   4  -7  186.41    5.65
  -1  -4   7  208.47   16.55
  -1  -4   7  201.04    9.13
   1   4  -6   26.60    4.37
  -1  -4   6   28.26    2.97
   1   4  -6   27.34    3.29
   1   4  -6   28.10    2.32
  -1  -4   6   31.54    3.99
   1   4  -6   35.37    4.30
  -1  -4   6   28.26    6.87
   1   4  -5    5.83    2.67
  -1  -4   5    8.28    2.83
  -1  -4   5    1.44    1.58
   1   4  -5    3.17    1.63
  -1  -4   5    6.19    3.77
   1   4  -5    7.67    2.23
   1   4  -5    9.29    1.82
   1   4  -5    4.45    1.34
  -1  -4   4  389.54   10.86
  -1  -4   4  432.46   20.51
   1   4  -4  402.06   11.47
  -1  -4   4  397.96   14.84
   1   4  -4  395.15   13.07
   1   4  -4  411.05   11.04
   1   4  -4  413.13   15.66
  -1  -4   4  431.88   12.71
  -1  -4   4  397.82   18.43
   1   4  -3 2271.27   39.55
  -1  -4   3 2250.56   41.78
  -1  -4   3 2279.27   39.61
  -1  -4   3 2188.16   51.82
   1   4  -3 2217.84   47.49
  -1  -4   3 2315.78   48.83
   1   4  -3 2251.03   42.34
   1   4  -3 2252.93   44.53
   1   4  -3 2243.52   43.05
  -1  -4   3 2225.51   54.23
   1   4  -2  266.45   10.57
  -1  -4   2  256.50   12.58
  -1  -4   2  278.60   13.72
  -1  -4   2  263.69   14.53
   1   4  -2  250.60   11.33
   1   4  -2  268.63    9.63
  -1  -4   2  263.16    7.80
   1   4  -2  266.51    9.52
   1   4  -2  251.00    6.38
  -1  -4   1  515.39   12.04
   1   4  -1  576.85   17.45
  -1  -4   1  567.21   18.29
  -1  -4   1  589.51   21.18
  -1  -4   1  581.66   21.00
   1   4  -1  597.31   15.95
   1   4  -1  600.93   17.08
   1   4  -1  570.43   16.05
  -1  -4   0  494.43   16.38
  -1  -4   0  489.54   18.65
   1   4   0  498.01   16.86
   1   4   0  498.95   15.57
   1   4   1  904.39   27.71
   1   4   1  935.96   22.64
   1   4   1  922.69   32.31
  -1  -4  -1  934.39   24.11
   1   4   1  883.39   16.48
  -1  -4  -1  901.71   26.51
   1   4   2  590.77   24.46
   1   4   2  585.50   17.95
  -1  -4  -2  620.16   13.87
   1   4   2  623.57   13.18
  -1  -4  -2  606.21   20.53
  -1  -4  -2  615.03   18.76
   1   4   2  607.49   16.84
  -1  -4  -3  649.20   19.61
  -1  -4  -3  629.37   16.14
   1   4   3  654.15   13.41
   1   4   3  637.11   16.87
   1   4   3  613.38   17.83
   1   4   3  593.88   23.82
   1   4   3  647.29   14.82
  -1  -4  -3  643.34   21.45
   1   4   4 1006.21   24.60
   1   4   4 1013.87   22.77
   1   4   4  922.04   30.56
   1   4   4 1006.33   20.79
  -1  -4  -4 1009.07   26.52
   1   4   4 1042.19   20.86
   1   4   4 1009.91   22.10
   1   4   5  442.01   14.01
   1   4   5  438.49   13.20
  -1  -4  -5  450.77   16.64
   1   4   6  222.05    9.36
   1   4   6  201.22    9.76
  -1  -4  -6  216.49   11.28
  -1  -4  -7  675.69   22.10
   1   4   7  665.06   19.61
   1   4   7  697.09   19.96
  -1  -4  -8  108.52    8.38
   1   4   8  105.60    7.25
   1   4   9   47.61    5.25
  -1  -4  -9   37.79    5.26
   1   4  10  132.09    9.18
  -1  -4 -10  140.62   10.41
   1   4  10  116.16    6.07
   1   4  11 1614.67   40.40
   1   4  11 1503.46   28.78
  -1  -4 -11 1641.21   43.01
  -1  -4 -12   29.37    5.82
   1   4  12   34.92    5.61
  -1  -4 -13  541.52   23.97
   1   4  13  543.39   22.34
   1   4  14   19.84    4.93
  -1  -4 -14   12.25    4.45
  -1  -4 -14    9.92    6.10
   1   4  15   -2.44    4.71
  -1  -4 -15   12.33    4.91
  -1  -4 -15    2.45    4.55
  -1  -4 -16  146.48   13.74
  -1  -4 -16  145.66   15.80
   1   4  16  153.44   12.45
   1   4  17  332.51   20.24
  -1  -4 -17  341.04   24.60
  -1  -4 -17  348.20   21.99
   1   4  18  139.70   13.46
  -1  -4 -18  135.04   16.03
  -1  -4 -18  140.51   12.30
  -1  -4 -18  155.58   15.17
  -1  -4 -19  205.99   18.31
   1   4  19  213.05   17.37
  -1  -4 -19  207.40   20.26
  -1  -4 -20   11.87    6.33
   1   5 -15   10.93    4.69
  -1  -5  15   20.49    9.87
  -1  -5  14  349.51   29.67
   1   5 -14  370.61   20.81
   1   5 -14  387.25   20.50
   1   5 -13  161.10   13.60
   1   5 -13  170.03   12.77
  -1  -5  13  148.53   19.45
   1   5 -12  231.08   15.53
   1   5 -12  235.67   14.50
  -1  -5  12  207.72   21.86
  -1  -5  12  229.02   13.28
   1   5 -11 1007.53   33.68
  -1  -5  11 1000.46   29.40
  -1  -5  11  993.69   45.95
   1   5 -11  982.21   31.23
  -1  -5  10  337.41   25.14
   1   5 -10  353.08   16.28
   1   5 -10  291.70   16.85
  -1  -5  10  315.79   14.23
   1   5  -9   28.03    4.65
   1   5  -9   41.67    6.65
  -1  -5   9   33.15    4.50
  -1  -5   9   33.82    9.54
  -1  -5   8  605.43   31.28
   1   5  -8  588.82   20.19
  -1  -5   8  589.63   18.31
   1   5  -8  593.35   23.05
  -1  -5   7   97.92    6.31
   1   5  -7   98.84    8.93
  -1  -5   7  113.52   13.05
   1   5  -7  114.33    7.82
  -1  -5   7  105.89    7.76
   1   5  -6   13.71    2.24
  -1  -5   6   15.10    2.66
   1   5  -6   16.52    3.14
   1   5  -6   14.83    4.60
  -1  -5   6   13.81    3.85
  -1  -5   6   23.56    6.61
  -1  -5   5 4221.81   87.46
   1   5  -5 4077.73   70.94
   1   5  -5 3866.62   71.62
  -1  -5   5 4116.14   71.08
  -1  -5   5 4076.45   92.19
   1   5  -5 4178.77   81.35
  -1  -5   4  221.64   15.71
   1   5  -4  253.08   10.73
  -1  -5   4  242.48   16.66
  -1  -5   4  237.44    8.01
   1   5  -4  238.13   12.89
   1   5  -4  250.38    8.05
  -1  -5   4  232.78    9.33
  -1  -5   3  552.35   14.10
  -1  -5   3  572.41   24.77
   1   5  -3  567.76   16.85
   1   5  -3  542.58   12.38
  -1  -5   3  540.14   23.78
   1   5  -3  567.80   19.84
  -1  -5   2   28.66    5.65
   1   5  -2   22.56    4.15
   1   5  -2   20.42    1.52
  -1  -5   2   29.82    5.86
  -1  -5   2   23.89    2.18
   1   5  -2   22.83    3.33
   1   5  -1  431.75   15.78
  -1  -5   1  469.55   20.15
   1   5  -1  422.57   14.65
  -1  -5   1  446.53   18.10
   1   5   0   71.44    6.28
  -1  -5   0   73.82    7.10
  -1  -5   0   72.77    7.75
   1   5   0   67.42    6.60
   1   5   0   56.91    2.10
  -1  -5  -1 1982.69   45.60
   1   5   1 2079.19   43.22
   1   5   1 1904.35   56.99
  -1  -5  -1 2061.75   48.77
   1   5   1 1957.09   34.24
   1   5   1 1996.72   49.13
   1   5   2  378.96    9.61
  -1  -5  -2  369.01   15.60
   1   5   2  337.44   15.32
  -1  -5  -2  367.04   16.96
   1   5   2  340.22   20.39
   1   5   2  358.74   18.70
   1   5   2  373.82   13.90
  -1  -5  -2  378.34   10.88
   1   5   3  920.17   23.61
   1   5   3  889.82   33.50
   1   5   3  829.02   17.94
  -1  -5  -3  916.82   22.09
  -1  -5  -3  867.03   27.83
  -1  -5  -3  917.91   26.66
   1   5   3  915.69   19.45
   1   5   4  710.39   15.66
   1   5   4  702.33   19.57
   1   5   4  670.91   27.95
   1   5   4  652.66   16.93
  -1  -5  -4  680.24   22.65
   1   5   5 1215.51   28.33
  -1  -5  -5 1223.32   33.03
   1   5   5 1269.02   25.86
   1   5   5 1177.96   38.59
   1   5   5 1216.37   27.36
   1   5   6    3.05    2.08
   1   5   6    0.67    1.47
  -1  -5  -6    2.30    2.50
   1   5   6    1.64    1.38
   1   5   6    1.82    3.65
  -1  -5  -7  498.63   19.58
   1   5   7  493.10   16.56
   1   5   7  498.43   17.66
  -1  -5  -7  507.95   20.72
   1   5   8  405.40   16.78
  -1  -5  -8  438.24   19.40
   1   5   8  433.25   15.89
  -1  -5  -8  405.36   17.83
  -1  -5  -9   19.58    4.52
   1   5   9   13.85    3.56
  -1  -5  -9   16.66    3.94
   1   5   9   18.52    3.90
  -1  -5 -10  142.98   11.50
  -1  -5 -10  136.62   10.51
   1   5  10  148.29   10.00
   1   5  10  141.48    9.97
   1   5  11  696.76   24.43
   1   5  11  710.94   24.52
  -1  -5 -11  728.33   25.94
  -1  -5 -11  680.10   26.96
   1   5  12  175.98   11.87
  -1  -5 -12  188.43   12.68
  -1  -5 -12  173.14   13.32
   1   5  13  960.38   31.80
  -1  -5 -13  972.73   32.19
  -1  -5 -13  925.53   34.17
  -1  -5 -14   36.65    6.20
   1   5  14   32.77    5.88
  -1  -5 -14   34.46    6.42
   1   5  15  101.11   10.30
  -1  -5 -15  111.13   11.78
  -1  -5 -15  109.26   10.71
  -1  -5 -16  227.98   17.71
  -1  -5 -16  246.34   16.09
  -1  -5 -16  228.90   19.97
   1   5  16  221.14   15.79
  -1  -5 -17   85.95   13.02
   1   5  17   79.21    9.90
  -1  -5 -17   59.83    8.47
  -1  -5 -17   79.87   11.29
  -1  -5 -18   69.15   10.52
   1   5  18   88.28   10.71
  -1  -5 -18   79.34   12.72
  -1  -5 -18  101.30   11.20
  -1  -5 -19  418.12   26.77
  -1  -5 -19  398.03   28.70
   1   5  19  393.55   23.80
  -1  -5 -20   -0.87    6.36
   1   6 -15   -1.75    4.26
   1   6 -14    3.12    4.01
  -1  -6  14   24.78   10.64
  -1  -6  13   27.86    9.99
   1   6 -13    8.41    4.50
   1   6 -12   98.99   10.76
  -1  -6  12   91.33   15.53
   1   6 -11  503.40   24.04
   1   6 -11  508.60   21.54
  -1  -6  11  509.10   33.96
   1   6 -10  108.55    9.31
  -1  -6  10  104.64   15.41
   1   6 -10  110.64   11.20
  -1  -6   9  148.13   16.79
   1   6  -9  178.89   13.48
   1   6  -9  167.36   10.73
   1   6  -8   26.93    4.66
   1   6  -8   24.79    5.95
  -1  -6   8   30.39    8.10
   1   6  -7  133.23   11.13
   1   6  -7  104.32    8.09
  -1  -6   7  112.68    6.91
  -1  -6   7  118.01    9.84
  -1  -6   7  120.62   14.36
  -1  -6   6  157.85    7.59
   1   6  -6  154.24   11.78
  -1  -6   6  158.44   15.68
  -1  -6   6  148.94   12.33
  -1  -6   5  586.91   28.10
   1   6  -5  599.71   23.49
  -1  -6   5  611.30   29.36
   1   6  -4  194.12   10.16
   1   6  -4  189.37   12.20
  -1  -6   4  176.57   15.73
  -1  -6   4  194.57   15.67
   1   6  -3   70.78    7.55
  -1  -6   3   74.37    9.62
  -1  -6   3   69.52    4.18
   1   6  -3   68.44    5.94
  -1  -6   3   73.99   10.15
   1   6  -3   65.42    3.24
   1   6  -2   54.70    5.46
   1   6  -2   43.44    2.13
   1   6  -2   46.31    6.24
  -1  -6   2   39.52    2.90
  -1  -6   2   63.35    9.00
  -1  -6   2   56.03    8.23
  -1  -6   1  945.87   30.92
   1   6  -1  973.69   26.84
  -1  -6   1  936.80   31.70
   1   6  -1  958.87   25.00
   1   6   0  147.79   10.22
  -1  -6   0  169.29   12.03
   1   6   0  181.42   10.78
  -1  -6   0  183.40   13.29
   1   6   1  213.77   11.53
  -1  -6  -1  207.34   12.91
   1   6   1  197.98   13.23
   1   6   1  189.44    5.76
  -1  -6  -1  202.49   13.72
   1   6   1  194.63    5.68
   1   6   2  190.76   17.36
   1   6   2  197.75   10.87
  -1  -6  -2  194.78    8.30
  -1  -6  -2  182.07   13.00
   1   6   2  198.61    6.65
  -1  -6  -2  202.02   12.54
   1   6   2  204.80   14.94
   1   6   3  188.13   14.67
   1   6   3  175.15    7.00
   1   6   3  157.29   15.23
   1   6   3  165.79    9.90
  -1  -6  -3  185.10   12.14
  -1  -6  -3  203.93   13.31
  -1  -6  -3  189.18    8.96
  -1  -6  -4  510.54   21.97
  -1  -6  -4  520.75   17.60
   1   6   4  496.72   13.35
   1   6   4  492.76   14.24
   1   6   4  525.91   26.97
  -1  -6  -4  543.59   21.36
   1   6   4  516.64   17.98
   1   6   5 1563.44   31.61
  -1  -6  -5 1532.88   41.31
   1   6   5 1519.05   49.05
   1   6   5 1560.01   33.18
   1   6   5 1535.06   36.37
   1   6   6   13.78    3.27
  -1  -6  -6   14.63    4.21
   1   6   6    5.24    4.76
   1   6   6   11.39    2.33
   1   6   6   10.10    2.60
   1   6   7   34.73    4.21
   1   6   7   32.69    7.10
  -1  -6  -7   38.92    5.90
   1   6   7   32.62    3.81
   1   6   7   32.65    4.11
  -1  -6  -8 1271.03   37.27
   1   6   8 1340.33   44.13
   1   6   8 1251.07   31.98
   1   6   8 1229.42   31.66
   1   6   9  636.61   22.68
  -1  -6  -9  623.56   24.61
   1   6   9  627.13   29.01
   1   6   9  627.74   21.26
   1   6  10  174.55   11.89
   1   6  10  155.34   10.61
  -1  -6 -10  176.68   12.91
  -1  -6 -10  172.45   13.88
  -1  -6 -11 1304.23   39.61
   1   6  11 1325.71   38.70
   1   6  11 1319.19   36.70
  -1  -6 -11 1299.52   42.23
   1   6  12  727.03   28.03
  -1  -6 -12  767.72   31.57
   1   6  12  765.27   27.08
  -1  -6 -12  794.43   29.56
   1   6  13    8.35    3.49
   1   6  13    5.26    3.46
  -1  -6 -13    5.51    3.69
  -1  -6 -13    5.70    4.18
  -1  -6 -14  478.10   23.23
  -1  -6 -14  485.87   25.92
   1   6  14  483.43   22.31
   1   6  14  461.38   22.66
  -1  -6 -15   13.99    4.89
   1   6  15    7.75    3.75
   1   6  15   16.24    4.88
  -1  -6 -15    7.79    4.27
   1   6  16   32.42    7.04
   1   6  16   20.15    5.84
  -1  -6 -16   26.26    6.09
  -1  -6 -16   22.53    6.55
  -1  -6 -17  866.97   41.94
   1   6  17  829.05   34.11
  -1  -6 -17  911.77   35.15
  -1  -6 -17  958.32   40.64
   1   6  17  962.93   36.94
   1   6  18   52.45    8.74
  -1  -6 -18   37.13    7.25
  -1  -6 -18   48.01    9.64
  -1  -6 -18   41.88   10.00
  -1  -6 -19  253.61   23.21
  -1  -6 -19  244.90   18.25
   1   7 -14   20.53    7.47
   1   7 -13   55.93    9.32
   1   7 -12  188.49   15.65
  -1  -7  12  198.55   23.23
   1   7 -11  195.84   16.06
  -1  -7  11  235.91   24.01
  -1  -7  10   24.39    9.70
   1   7 -10   -1.17    3.75
  -1  -7   9  141.52   17.90
   1   7  -9  157.33   13.65
   1   7  -8  139.19   10.20
  -1  -7   8  142.15   17.04
   1   7  -8  144.74   12.68
   1   7  -7  626.07   26.32
   1   7  -7  598.17   21.17
  -1  -7   7  594.25   33.27
  -1  -7   6  104.32   11.67
   1   7  -6   93.27   10.07
  -1  -7   6   87.02   12.98
  -1  -7   5 1279.14   47.51
   1   7  -5 1289.47   40.04
   1   7  -5 1355.90   34.50
  -1  -7   5 1357.84   49.02
   1   7  -4   38.81    6.74
  -1  -7   4   49.06    9.77
   1   7  -4   48.33    5.79
  -1  -7   4   42.78    9.39
  -1  -7   3   55.51    9.21
   1   7  -3   52.22    5.90
  -1  -7   3   70.23   11.28
   1   7  -3   54.47    7.09
  -1  -7   2  157.56   15.10
   1   7  -2  179.64   12.28
  -1  -7   2  177.10   15.37
   1   7  -2  178.07   10.79
   1   7  -1  106.71    9.45
  -1  -7   1  126.57   12.34
  -1  -7   1  120.13   12.30
   1   7  -1  112.69    8.92
   1   7   0  630.65   23.36
  -1  -7   0  611.03   26.78
   1   7   0  599.13   23.09
  -1  -7   0  658.13   28.05
  -1  -7  -1  826.07   31.16
   1   7   1  794.72   28.70
  -1  -7  -1  857.90   30.79
   1   7   1  863.30   27.06
   1   7   2   10.12    1.53
   1   7   2    8.71    3.62
  -1  -7  -2    8.33    3.94
   1   7   2   11.00    4.26
  -1  -7  -2    5.76    4.09
   1   7   3  567.90   21.13
   1   7   3  570.22   28.22
   1   7   3  602.30   32.73
  -1  -7  -3  563.63   23.99
   1   7   3  567.79   14.58
  -1  -7  -3  592.47   25.60
  -1  -7  -4  294.82   17.07
   1   7   4  311.52   10.78
   1   7   4  313.80   21.30
  -1  -7  -4  308.67   17.98
   1   7   4  308.05   22.53
   1   7   4  309.60   14.82
   1   7   5   66.63   10.78
   1   7   5   69.63   10.33
   1   7   5   71.33    7.14
  -1  -7  -5   71.46    8.32
   1   7   5   68.01    5.21
   1   7   6  210.57    9.97
  -1  -7  -6  214.51   14.37
   1   7   6  225.36   12.13
   1   7   6  210.32   17.93
   1   7   7  233.39   11.12
   1   7   7  233.17   12.14
   1   7   7  248.03   19.38
  -1  -7  -7  229.00   15.05
   1   7   8   51.61    5.83
   1   7   8   61.08   10.42
  -1  -7  -8   64.37    8.44
   1   7   8   43.80    5.15
   1   7   9  478.90   17.35
   1   7   9  473.44   18.38
  -1  -7  -9  477.96   22.74
   1   7   9  482.13   17.49
   1   7   9  469.97   26.85
   1   7  10    3.91    6.59
   1   7  10   10.25    3.15
  -1  -7 -10   18.32    5.32
   1   7  10   12.48    2.81
   1   7  10   10.92    3.50
   1   7  11  427.16   25.69
   1   7  11  402.79   18.91
   1   7  11  432.94   18.93
  -1  -7 -11  422.52   21.99
   1   7  12  129.58   11.29
  -1  -7 -12  129.21   12.11
   1   7  12  139.78   14.73
   1   7  12  101.41    9.58
   1   7  13  372.57   19.10
  -1  -7 -13  407.10   21.96
  -1  -7 -14    3.75    3.99
   1   7  14    8.07    4.07
  -1  -7 -15   60.13    8.75
   1   7  15   61.53    8.31
  -1  -7 -16  146.40   16.05
   1   7  16  130.78   12.86
  -1  -7 -16  165.81   14.81
  -1  -7 -17  140.31   13.87
  -1  -7 -17  154.31   16.61
   1   7  17  131.54   13.27
  -1  -7 -18    2.90    5.96
   1   7  18   -3.20    4.83
  -1  -7 -18   -3.28    3.74
  -1  -7 -18    1.16    5.30
  -1  -7 -19   92.20   11.91
   1   8 -11   26.79    7.18
   1   8 -10   56.38    9.38
  -1  -8  10   64.47   13.21
  -1  -8   9   51.31   12.00
   1   8  -9   42.89    8.45
  -1  -8   8  219.19   21.67
   1   8  -8  234.35   17.33
  -1  -8   7  363.69   27.58
   1   8  -7  372.22   21.61
  -1  -8   6  182.50   18.62
   1   8  -6  168.42   14.12
   1   8  -5  124.65    9.64
  -1  -8   5  134.92   15.25
   1   8  -5  129.97   12.05
  -1  -8   5  141.07   16.47
  -1  -8   4  399.30   25.46
   1   8  -4  377.91   17.13
  -1  -8   4  337.14   26.21
   1   8  -4  394.13   20.58
  -1  -8   3  280.79   23.61
   1   8  -3  269.30   16.59
  -1  -8   3  254.70   19.94
   1   8  -3  264.65   13.98
   1   8  -2   20.50    4.65
  -1  -8   2   26.82    8.26
  -1  -8   2   25.76    7.48
   1   8  -2   17.39    5.29
  -1  -8   1 1481.52   51.51
   1   8  -1 1437.42   42.34
  -1  -8   1 1441.72   48.14
   1   8  -1 1429.99   39.48
   1   8   0  240.42   14.72
  -1  -8   0  225.58   17.63
  -1  -8   0  234.70   18.30
   1   8   0  244.09   15.10
  -1  -8  -1    3.03    4.08
   1   8   1    5.61    3.60
   1   8   1    2.70    3.37
  -1  -8  -1    7.24    4.75
  -1  -8  -2  131.28   12.63
  -1  -8  -2  123.60   12.47
   1   8   2  124.39   12.27
   1   8   2  132.42   10.74
   1   8   3   15.77    4.29
   1   8   3   28.04    7.20
  -1  -8  -3   16.71    5.21
  -1  -8  -3   10.90    4.61
   1   8   4  347.76   26.27
   1   8   4  392.00   25.15
  -1  -8  -4  386.16   21.43
   1   8   4  389.37   18.17
  -1  -8  -4  392.46   21.94
   1   8   5  733.50   38.01
   1   8   5  749.42   25.86
   1   8   5  748.49   35.75
  -1  -8  -5  696.50   29.67
   1   8   5  732.47   19.88
  -1  -8  -6    4.52    3.13
   1   8   6   -1.87    6.11
   1   8   6    0.95    5.80
   1   8   6    1.84    1.88
   1   8   6    3.45    2.59
   1   8   7  334.60   24.29
   1   8   7  320.90   23.12
   1   8   7  291.58   14.97
   1   8   7  293.86   12.88
  -1  -8  -7  292.57   18.77
   1   8   8  183.75   11.62
   1   8   8  160.01   16.73
   1   8   8  181.87   10.37
  -1  -8  -8  175.01   14.30
   1   8   9  121.76    9.18
   1   8   9  124.57   14.78
  -1  -8  -9  119.81   12.58
   1   8   9  114.52    8.86
   1   8  10  436.32   27.24
  -1  -8 -10  452.16   24.09
   1   8  10  395.42   17.89
   1   8  10  418.57   17.39
   1   8  11  413.57   26.53
  -1  -8 -11  385.82   22.47
   1   8  11  368.15   17.68
   1   8  12    1.21    5.22
  -1  -8 -12    0.76    3.74
   1   8  12    3.96    3.05
   1   8  13   10.00    3.78
  -1  -8 -13    8.44    5.40
   1   8  13   22.08    7.93
   1   8  14   33.14    6.49
  -1  -8 -14   46.37    8.60
   1   8  14   59.04   11.10
   1   8  15  353.83   25.21
  -1  -8 -15  299.07   21.00
   1   8  15  293.56   18.47
   1   8  16   22.25    6.08
  -1  -8 -16   21.06    6.35
   1   8  16   23.41    8.22
  -1  -8 -17  548.93   29.61
   1   8  17  532.96   27.14
   1   8  18    3.33    4.83
  -1  -8 -18    1.25    4.68
   1   9  -8    9.61    6.00
  -1  -9   8   12.59    7.79
   1   9  -7  298.71   20.36
  -1  -9   7  287.91   25.09
  -1  -9   6   14.36    8.20
   1   9  -6   11.79    5.23
   1   9  -5    4.52    4.87
  -1  -9   5    2.24    5.57
  -1  -9   4    9.18    6.44
   1   9  -4   11.20    4.50
  -1  -9   4   11.50    7.20
  -1  -9   3   17.89    6.48
  -1  -9   3    1.85    5.46
   1   9  -3    4.66    3.51
   1   9  -3    6.17    3.25
  -1  -9   2  243.42   19.98
  -1  -9   2  268.71   24.28
   1   9  -2  252.81   14.87
   1   9  -2  275.34   17.77
  -1  -9   1  183.69   19.02
   1   9  -1  175.86   12.66
  -1  -9   1  171.77   16.50
   1   9  -1  168.77   14.06
   1   9   0   16.53    5.11
   1   9   0   16.90    4.46
  -1  -9   0   11.42    5.46
  -1  -9   0   13.03    5.76
   1   9   1  430.34   21.53
   1   9   1  381.61   21.05
  -1  -9  -1  389.91   23.97
  -1  -9  -1  434.89   26.72
   1   9   2  149.59   12.43
   1   9   2  163.22   14.50
  -1  -9  -2  142.13   14.41
  -1  -9  -2  145.91   15.29
  -1  -9  -3   63.29    9.98
  -1  -9  -3   43.18    8.18
   1   9   3   50.01    9.00
   1   9   3   60.55    7.92
  -1  -9  -4    0.63    3.92
   1   9   4   -4.22    5.39
  -1  -9  -4   -4.29    5.35
   1   9   4   -0.77    3.11
   1   9   5  108.95   10.16
  -1  -9  -5  102.40   11.99
   1   9   5  107.91   13.84
   1   9   6   77.52   12.67
   1   9   6   84.52    8.80
   1   9   6   66.28   11.80
  -1  -9  -6   94.21   11.52
  -1  -9  -7  249.03   18.89
   1   9   7  255.90   22.92
   1   9   7  264.98   15.50
   1   9   7  285.98   23.48
   1   9   8  293.85   15.92
   1   9   8  269.88   23.33
  -1  -9  -8  270.38   19.60
   1   9   8  267.12   22.89
  -1  -9  -9  173.39   15.88
   1   9   9  182.29   12.29
   1   9   9  167.84   18.31
   1   9   9  185.05   19.05
   1   9  10  117.33   14.98
  -1  -9 -10  108.75   12.56
  -1  -9 -11   62.55   10.02
   1   9  11   72.35   12.72
   1   9  12   78.10   12.65
   1   9  12   58.26    7.67
  -1  -9 -12   69.87   10.42
  -1  -9 -13  138.13   14.65
   1   9  13  129.34   11.25
   1   9  13  134.23   16.36
   1   9  14  311.22   24.23
  -1  -9 -14  281.19   21.31
   1   9  14  274.53   17.31
   1   9  15  354.62   20.54
  -1  -9 -15  386.64   25.38
   1   9  16   11.68    4.56
  -1  -9 -16    6.67    5.60
   1   9  17    0.28    4.54
   1  10  -5    0.66    5.20
  -1 -10   5    7.07    7.12
   1  10  -4   59.74    9.86
  -1 -10   4   77.25   12.44
  -1 -10   3  447.46   29.41
   1  10  -3  438.70   24.79
  -1 -10   3  384.78   32.68
  -1 -10   2  533.87   37.56
  -1 -10   2  538.34   32.20
   1  10  -2  634.71   29.53
  -1 -10   1  312.41   23.49
  -1 -10   1  343.54   28.56
   1  10  -1  321.16   20.27
   1  10   0    6.74    4.24
  -1 -10   0   -9.05    7.21
  -1 -10   0   -1.49    5.40
   1  10   0    7.45    4.36
   1  10   1  161.40   14.20
   1  10   1  153.41   13.76
  -1 -10  -1  163.98   18.49
  -1 -10  -1  168.75   16.91
   1  10   2    5.68    4.05
  -1 -10  -2   12.23    6.71
  -1 -10  -2    7.20    5.77
   1  10   2    6.52    4.59
   1  10   3   78.27   11.19
  -1 -10  -3   87.47   13.25
  -1 -10  -3   80.34   11.34
   1  10   3   75.58    9.52
   1  10   4  120.68   11.83
   1  10   4  119.90   14.39
  -1 -10  -4  134.87   14.76
  -1 -10  -4  139.13   15.26
   1  10   5  935.88   34.44
   1  10   5  910.95   42.73
  -1 -10  -5  971.36   41.75
   1  10   6    7.48    3.78
   1  10   6    2.46    5.81
  -1 -10  -6   17.37    7.44
  -1 -10  -7   16.36    7.20
   1  10   7   12.75    8.63
   1  10   7   20.81    9.07
   1  10   7   15.10    5.09
   1  10   8   26.36    9.42
  -1 -10  -8   13.70    5.37
   1  10   8    7.16    3.61
   1  10   8    9.80    7.19
  -1 -10  -9   51.67    9.53
   1  10   9   46.38   10.60
   1  10   9   56.84   11.70
   1  10   9   50.67    7.29
   1  10  10   75.46   13.72
  -1 -10 -10   79.44   12.05
   1  10  10   48.32   11.72
   1  10  11   84.21   13.84
  -1 -10 -11   98.33   13.12
   1  10  11  108.10   15.98
   1  10  12   13.99    7.66
  -1 -10 -12   23.69    7.66
   1  10  12   25.60    9.13
  -1 -10 -13   80.87   12.15
  -1 -11   2    9.01    7.87
  -1 -11   1   39.98   11.34
   1  11   0   47.65    8.75
  -1 -11   0   42.10   11.66
  -1 -11   0   33.22    8.48
   1  11   1   58.13    9.31
  -1 -11  -1   79.40   15.00
  -1 -11  -1   96.06   14.00
   1  11   2  162.36   14.82
  -1 -11  -2  177.94   20.54
  -1 -11  -2  171.96   17.83
  -1 -11  -3  205.20   19.23
   1  11   3  191.75   15.96
   1  11   3  206.63   18.02
  -1 -11  -3  202.54   20.99
  -1 -11  -4   21.51    8.18
  -1 -11  -4    8.76    5.99
   1  11   4   11.98    6.61
   1  11   4   13.80    5.00
   1  11   5    1.79    3.61
   1  11   5   16.50    7.59
  -1 -11  -5   13.38    7.16
   1  11   6    4.59    6.61
   1  11   6    4.87    4.29
  -1 -11  -6   -4.22    6.50
  -1 -11  -7  110.95   15.23
   1  11   7   93.46   10.78
   1  11   7   83.34   14.17
   1  11   8   37.62   10.82
   1  11   8   22.12    5.86
  -1 -11  -8   23.43    8.04
   1  11   9  364.33   29.56
   1  11   9  400.84   31.63
   1  11  10   26.70   10.79
   1  11  11   -7.39    8.12
   1  12   6   -0.26    6.85
   1  12   6   -3.94    5.39
   1  12   7   12.12    6.88
   1  12   7    1.91    4.49
   1  12   8   33.45   11.23
  -2  10   7    6.28    6.70
  -2  10   6    0.81    6.30
  -2  10   6    8.56    4.59
  -2  10   5   76.66   10.71
  -2  10   5   75.46   14.13
  -2  10   4   95.18   15.48
  -2  10   4  102.64   12.62
  -2  10   3  162.18   15.60
   2 -10  -3  189.83   18.00
  -2  10   3  142.09   18.00
   2 -10  -3  153.70   21.12
  -2  10   2   26.95    7.45
   2 -10  -2   35.59    8.53
  -2  10   2   32.71    9.17
   2 -10  -2   46.36   12.37
  -2  10   1   85.65   13.82
   2 -10  -1  114.21   14.09
   2 -10  -1  116.45   19.72
  -2  10   0    0.70    5.40
   2 -10   0    9.74    8.15
   2 -10   0    8.47    6.02
  -2  10  -1    2.68    5.92
   2 -10   1    1.94    5.06
  -2  10  -2  189.43   17.97
  -2  10  -3   98.33   13.04
   2  -9 -11   16.17    8.22
  -2   9  11   20.49    9.62
   2  -9 -10   12.63    7.08
  -2   9  10    6.06    7.22
  -2   9   9  113.87   16.28
   2  -9  -9   92.67   14.59
  -2   9   8  380.71   28.32
   2  -9  -8  322.56   26.23
  -2   9   7   27.26    9.18
   2  -9  -7   20.05    8.70
   2  -9  -6  161.60   18.49
  -2   9   6  186.30   19.72
  -2   9   5    3.90    5.88
   2  -9  -5   -1.63    5.89
   2  -9  -4    8.17    7.12
  -2   9   4   -0.77    5.32
   2  -9  -3    8.70    5.78
  -2   9   3   -4.10    6.18
   2  -9  -3    2.09    5.27
   2  -9  -2   35.14   10.44
  -2   9   2   34.51    7.12
  -2   9   2   40.45    9.89
   2  -9  -2   40.67    8.10
  -2   9   1   72.87   10.05
   2  -9  -1   56.07   13.43
   2  -9  -1   78.65   11.09
  -2   9   1   87.90   13.38
  -2   9   0   33.44    8.42
  -2   9   0   39.53    7.84
   2  -9   0   45.86    8.98
   2  -9   0   26.99    9.52
  -2   9  -1  101.80   12.34
   2  -9   1  105.26   17.87
   2  -9   1  106.12   13.18
  -2   9  -1  111.48   13.58
   2  -9   2  160.13   22.31
  -2   9  -2  132.57   14.19
  -2   9  -2  127.75   14.04
   2  -9   2  144.63   15.19
   2  -9   3   12.65   10.08
   2  -9   3   25.37    7.51
  -2   9  -3   12.16    6.04
  -2   9  -3   26.16    7.25
   2  -9   4    6.22    8.30
  -2   9  -4    7.67    5.21
   2  -9   4   -3.98    6.21
  -2   9  -4    3.80    4.73
   2  -9   5   -1.38    6.56
   2  -9   5    2.99    6.69
  -2   9  -5    8.31    5.34
   2  -9   6   38.16   10.98
  -2   9  -6   45.02    8.44
  -2   8  15  236.06   19.85
   2  -8 -15  208.74   19.84
  -2   8  14    6.45    5.01
   2  -8 -14    5.62    5.60
  -2   8  13  148.31   14.96
  -2   8  13  148.84   18.39
   2  -8 -13  164.31   17.56
   2  -8 -12   -2.42    6.28
  -2   8  12   -0.45    4.15
  -2   8  12   -3.23    7.37
  -2   8  11   15.44    8.36
   2  -8 -11   23.05    7.78
  -2   8  11    9.91    4.95
  -2   8  10  507.96   26.04
  -2   8  10  569.73   34.61
   2  -8 -10  529.16   31.56
  -2   8   9  135.75   13.14
  -2   8   9  180.93   19.02
   2  -8  -9  134.59   15.88
  -2   8   8  122.57   16.02
   2  -8  -8  130.58   15.64
   2  -8  -7   -2.59    4.97
  -2   8   7   -5.90    6.72
   2  -8  -6   27.82    8.81
  -2   8   6   23.33    8.67
  -2   8   5  133.79   16.39
   2  -8  -5  128.46   15.52
   2  -8  -4  412.01   27.93
  -2   8   4  402.08   26.86
   2  -8  -3   14.46    7.05
  -2   8   3    9.15    6.16
   2  -8  -3   25.47    6.29
   2  -8  -2   52.30    8.48
  -2   8   2   55.92   11.36
   2  -8  -2   50.61   11.72
   2  -8  -1   17.82    5.84
  -2   8   1    8.70    5.94
   2  -8  -1    6.12    5.82
  -2   8   0  122.03   13.71
  -2   8   0  148.08   12.92
   2  -8   0  154.70   14.33
   2  -8   0  146.02   18.62
  -2   8  -1  144.60   14.43
  -2   8  -1  180.23   14.28
   2  -8   1  160.52   19.98
   2  -8   1  149.97   14.35
   2  -8   2  275.86   26.66
  -2   8  -2  248.80   18.30
  -2   8  -2  271.20   17.83
   2  -8   2  267.29   19.00
  -2   8  -3   35.44    7.18
   2  -8   3   25.21   10.10
   2  -8   3   43.96    8.49
  -2   8  -3   43.29    8.14
  -2   8  -4   88.45   10.93
  -2   8  -4   87.67   10.61
   2  -8   4   76.65   15.64
   2  -8   4   88.02   12.23
  -2   8  -5   30.62    7.56
  -2   8  -5   36.49    7.15
   2  -8   5   38.32    8.75
   2  -8   5   23.49    9.05
  -2   8  -6  123.69   12.60
  -2   8  -6  131.66   13.40
   2  -8   6  118.65   17.23
   2  -8   6  123.43   14.37
   2  -8   7   90.76   14.81
  -2   8  -7   95.24   12.17
   2  -8   7  101.47   13.93
   2  -8   8  288.57   23.60
  -2   8  -8  317.74   21.73
   2  -7 -17   -6.19    6.18
   2  -7 -16  252.01   20.64
  -2   7  16  256.15   20.98
   2  -7 -15    1.91    4.57
  -2   7  15    6.68    5.61
  -2   7  14  170.35   15.55
   2  -7 -14  140.68   14.97
  -2   7  14  152.56   15.34
  -2   7  13   -1.40    4.99
  -2   7  13    7.06    6.86
  -2   7  13   -3.96    4.49
   2  -7 -13   -3.17    4.54
  -2   7  12   -1.29    3.99
  -2   7  12    4.21    3.87
  -2   7  12    4.78    5.36
   2  -7 -12    3.13    4.32
  -2   7  11   61.02    9.29
  -2   7  11   58.39   11.42
   2  -7 -11   66.52   10.45
   2  -7 -10  191.73   17.01
  -2   7  10  160.11   17.34
  -2   7  10  158.17   14.33
  -2   7   9    7.42    6.63
   2  -7  -9   -0.01    4.30
   2  -7  -8  369.29   23.66
  -2   7   8  354.43   25.22
  -2   7   7   42.42    9.68
   2  -7  -7   25.41    7.22
   2  -7  -6  188.85   17.12
  -2   7   6  228.16   19.70
   2  -7  -5   18.77    7.20
  -2   7   5   16.60    6.98
   2  -7  -4    2.02    3.80
  -2   7   4    5.29    4.77
   2  -7  -4   12.83    5.28
   2  -7  -3   13.87    4.41
  -2   7   3   21.24    7.49
   2  -7  -3   24.58    7.33
  -2   7   2   28.31    7.58
   2  -7  -2   35.38    8.86
   2  -7  -2   36.48    6.45
  -2   7   1  346.05   22.31
   2  -7  -1  326.34   24.50
   2  -7  -1  344.52   19.75
   2  -7   0 1021.76   46.03
   2  -7   0 1090.34   36.96
  -2   7   0  916.06   38.00
   2  -7   1   15.43    5.42
  -2   7  -1   -3.96    4.40
   2  -7   1   17.24    7.11
  -2   7  -2    9.94    4.48
   2  -7   2    7.30    4.86
  -2   7  -2    1.52    3.86
   2  -7   2    3.50    5.49
   2  -7   3  206.92   22.17
  -2   7  -3  183.56   14.41
  -2   7  -3  181.00   13.93
   2  -7   3  190.11   15.52
  -2   7  -4    2.67    3.22
  -2   7  -4    4.80    3.82
   2  -7   4    1.45    4.33
  -2   7  -5  134.57   12.49
   2  -7   5  115.07   16.52
   2  -7   5  126.82   13.77
  -2   7  -5  130.70   11.96
   2  -7   6  401.81   29.65
  -2   7  -6  457.34   22.95
   2  -7   6  497.26   27.42
  -2   7  -6  513.95   24.99
   2  -7   7  328.51   25.27
  -2   7  -7  445.07   23.05
   2  -7   7  395.42   25.07
   2  -7   8    7.90    5.60
  -2   7  -8   -1.44    3.99
   2  -7   8    6.66    5.48
  -2   7  -9   93.25   11.45
   2  -7   9   81.08   12.70
  -2   7 -10   21.82    6.40
   2  -7  10    8.92    5.81
  -2   7 -11    4.75    4.30
  -2   7 -11    2.89    4.12
  -2   7 -12  218.93   17.81
  -2   6  18   61.45   10.93
  -2   6  17  331.00   23.51
  -2   6  17  355.92   24.79
  -2   6  16  269.76   20.90
  -2   6  16  226.71   19.46
   2  -6 -16  253.76   19.01
  -2   6  15   37.63    8.46
  -2   6  15   25.13    7.49
   2  -6 -15   20.77    6.42
  -2   6  14   14.93    6.18
  -2   6  14   26.74    7.01
   2  -6 -14   28.26    6.94
   2  -6 -13  144.86   13.98
  -2   6  13  136.32   13.45
  -2   6  13  145.98   14.23
  -2   6  12  361.02   21.97
  -2   6  12  404.07   22.85
   2  -6 -12  390.33   23.07
  -2   6  11  141.37   13.22
   2  -6 -11  147.41   13.96
  -2   6  11  162.52   13.84
  -2   6  10 1079.14   37.50
  -2   6  10 1026.32   42.83
  -2   6  10 1023.93   37.03
   2  -6 -10 1113.28   39.92
   2  -6  -9   59.25    9.03
  -2   6   9   54.60    9.60
  -2   6   9   51.10    7.74
  -2   6   9   56.20    7.38
  -2   6   8  165.43   16.23
  -2   6   8  174.08   12.71
   2  -6  -8  172.57   14.98
  -2   6   7   46.46    9.68
   2  -6  -7   33.42    7.78
  -2   6   7   22.65    5.27
   2  -6  -6  155.67   14.34
  -2   6   6  135.48   15.40
  -2   6   5   78.18   11.63
   2  -6  -5   71.12    9.87
   2  -6  -5   69.36    6.24
   2  -6  -4  896.45   25.50
  -2   6   4 1058.48   41.22
   2  -6  -4  959.96   37.11
   2  -6  -3   27.51    4.28
   2  -6  -3   40.42    6.35
  -2   6   3   46.78    9.14
   2  -6  -3   28.42    7.30
   2  -6  -2  166.73   15.84
  -2   6   2  143.50   14.55
   2  -6  -2  161.15   12.03
   2  -6  -2  144.51    9.10
   2  -6  -1   83.63    7.15
   2  -6  -1   86.79   12.03
   2  -6  -1   90.72    9.12
  -2   6   1   77.38   10.74
   2  -6   0  127.02   15.35
  -2   6   0  146.04   13.42
   2  -6   0  132.29   11.19
   2  -6   0  139.14    9.60
   2  -6   1  224.17   20.61
  -2   6  -1  254.63   16.94
   2  -6   1  241.12   11.92
   2  -6   1  249.62   15.66
   2  -6   2   54.50   11.75
   2  -6   2   61.29    8.39
  -2   6  -2   53.65    7.89
   2  -6   2   63.21    5.70
   2  -6   3   18.24    5.49
   2  -6   3   19.07    7.72
   2  -6   3   21.28    3.41
  -2   6  -3    7.71    3.92
   2  -6   4  313.96   12.62
   2  -6   4  318.08   26.07
  -2   6  -4  316.42   17.48
  -2   6  -4  295.55   17.06
   2  -6   4  288.07   18.37
   2  -6   5   13.22    5.17
   2  -6   5   15.99    7.60
  -2   6  -5   14.98    4.59
  -2   6  -5   16.57    4.73
   2  -6   6  220.51   19.91
  -2   6  -6  250.39   15.73
  -2   6  -6  216.19   14.52
   2  -6   6  234.79   17.57
   2  -6   7   34.42    8.08
   2  -6   7   28.66    7.69
  -2   6  -7   26.37    5.85
  -2   6  -8   63.20    8.80
   2  -6   8   59.54   10.20
   2  -6   8   55.63   10.03
   2  -6   9    9.48    6.11
  -2   6  -9   -0.05    4.17
  -2   6 -10   11.99    5.38
   2  -6  10    0.75    6.32
  -2   6 -11   87.13   10.71
   2  -6  11  114.64   15.35
  -2   6 -11   82.15   10.45
   2  -6  12   45.44   10.81
  -2   6 -12   27.94    6.83
  -2   6 -12   38.62    7.30
  -2   6 -13   -3.19    3.96
  -2   6 -13    0.73    3.54
  -2   6 -14   82.30   10.85
  -2   6 -14   87.35   10.94
  -2   5  19   54.69   10.62
  -2   5  18  394.71   26.80
  -2   5  17   34.38    8.76
   2  -5 -17   38.47   10.31
  -2   5  17   48.16    9.77
  -2   5  16   30.14    7.41
  -2   5  16   34.27    8.66
   2  -5 -16   29.28    6.64
   2  -5 -16   39.83    9.07
  -2   5  15   63.86   10.09
   2  -5 -15   70.07    9.52
  -2   5  15   65.54   10.09
   2  -5 -14    5.57    4.29
  -2   5  14   10.41    4.66
  -2   5  14    5.21    4.85
   2  -5 -13  557.62   26.11
  -2   5  13  544.20   27.42
  -2   5  13  520.83   26.30
  -2   5  12  684.42   29.86
   2  -5 -12  735.94   29.96
  -2   5  12  702.89   30.55
  -2   5  11   30.93    6.77
  -2   5  11   33.12    5.81
   2  -5 -11   41.59    7.16
  -2   5  11   26.09    6.34
   2  -5 -10   16.64    4.81
  -2   5  10   28.03    6.68
  -2   5  10   28.05    5.47
  -2   5  10   22.91    5.83
   2  -5  -9  460.03   22.73
  -2   5   9  467.52   22.57
  -2   5   9  476.48   20.17
  -2   5   8  233.30   13.76
  -2   5   8  238.30   15.31
  -2   5   8  240.60   17.87
   2  -5  -8  241.80   15.99
  -2   5   7    4.57    2.73
  -2   5   7    1.31    2.75
  -2   5   7   -2.36    4.88
   2  -5  -7   -3.92    4.35
   2  -5  -6 1308.21   41.02
  -2   5   6 1346.05   45.82
  -2   5   6 1288.59   36.56
   2  -5  -6 1334.51   34.19
  -2   5   5  425.75   24.39
  -2   5   5  404.59   18.59
   2  -5  -5  479.10   22.89
   2  -5  -5  430.45   16.62
  -2   5   4   45.41    8.75
   2  -5  -4   45.98    5.34
   2  -5  -4   51.61    8.35
   2  -5  -3    8.33    3.20
   2  -5  -3    5.91    3.15
   2  -5  -3   13.35    5.28
  -2   5   3    2.93    4.43
  -2   5   2  403.03   23.00
   2  -5  -2  419.75   16.99
   2  -5  -2  416.40   22.67
   2  -5  -2  405.90   17.78
   2  -5  -1    9.77    5.32
   2  -5  -1    2.27    2.81
   2  -5  -1    5.38    3.29
  -2   5   1    5.20    3.78
   2  -5   0  865.78   25.15
   2  -5   0  844.85   36.05
   2  -5   0  863.36   28.20
  -2   5   0  841.77   31.94
   2  -5   1   11.89    2.83
  -2   5  -1   14.29    4.58
   2  -5   1    7.70    3.71
   2  -5   1    7.30    5.83
   2  -5   2   31.11    8.55
   2  -5   2   27.88    5.52
   2  -5   2   27.45    3.60
  -2   5  -2   36.27    6.23
   2  -5   3   40.79    4.29
   2  -5   3   25.01    8.30
  -2   5  -3   32.83    5.61
   2  -5   3   34.06    6.36
  -2   5  -4  307.21   16.18
   2  -5   4  332.23   12.72
   2  -5   4  300.61   17.44
   2  -5   4  279.68   22.57
  -2   5  -5 1059.97   32.37
   2  -5   5  981.65   35.28
   2  -5   5  929.50   40.91
  -2   5  -5 1011.13   31.93
   2  -5   6  212.91   15.71
  -2   5  -6  201.13   13.25
  -2   5  -6  214.97   14.28
   2  -5   6  219.08   17.84
  -2   5  -7   55.04    7.68
   2  -5   7   44.92    8.55
   2  -5   7   53.58    8.75
  -2   5  -8   16.81    4.89
   2  -5   8    6.79    4.96
   2  -5   8    3.52    4.51
   2  -5   8   10.21    3.32
   2  -5   9  222.54   18.52
  -2   5  -9  246.09   15.39
   2  -5   9  228.22   13.67
  -2   5 -10  283.15   17.07
   2  -5  10  262.38   21.03
   2  -5  10  264.81   15.38
  -2   5 -11  328.19   19.14
   2  -5  11  326.52   24.49
   2  -5  11  375.66   18.80
  -2   5 -11  355.12   19.09
   2  -5  12  315.77   25.35
  -2   5 -12  382.80   20.58
  -2   5 -12  380.66   21.00
  -2   5 -13    3.42    4.35
   2  -5  13    4.33    5.94
  -2   5 -13    3.48    3.88
  -2   5 -14   55.23    8.32
  -2   5 -14   43.99    8.35
   2  -5  14   39.80   10.72
  -2   5 -15    2.16    3.89
  -2   4  19   49.73   10.36
   2  -4 -18  234.08   21.86
  -2   4  18  215.92   18.99
  -2   4  18  257.70   20.92
  -2   4  17   13.47    6.53
  -2   4  17   11.27    6.32
   2  -4 -17   25.68    9.22
  -2   4  16   70.39   10.46
  -2   4  16   87.44   11.01
   2  -4 -16   95.88   13.31
   2  -4 -15   53.86    9.92
   2  -4 -15   57.35    7.84
  -2   4  15   35.30    7.29
  -2   4  15   53.09    9.10
  -2   4  14  245.13   18.65
   2  -4 -14  290.28   21.86
  -2   4  14  316.52   19.99
   2  -4 -14  285.63   17.01
   2  -4 -13   -0.03    2.85
  -2   4  13    7.05    4.84
  -2   4  13    4.01    3.69
  -2   4  12 1173.27   39.45
  -2   4  12 1212.44   41.66
   2  -4 -12 1258.73   38.12
  -2   4  11  363.15   20.54
   2  -4 -11  358.76   18.43
  -2   4  11  336.56   18.86
  -2   4  10   27.95    6.78
   2  -4 -10   30.91    5.73
  -2   4  10   33.58    6.19
  -2   4   9    7.40    4.04
   2  -4  -9    2.62    2.62
   2  -4  -8    7.20    2.71
  -2   4   8    6.15    3.39
  -2   4   8    8.68    3.26
   2  -4  -7   11.52    4.45
  -2   4   7   19.85    3.84
  -2   4   7   12.35    4.57
   2  -4  -7   11.34    3.73
  -2   4   6 1238.25   36.73
  -2   4   6 1357.05   34.34
  -2   4   6 1286.77   41.92
   2  -4  -6 1311.93   38.30
   2  -4  -6 1350.58   34.37
  -2   4   5  125.81    9.58
  -2   4   5  139.46    9.41
  -2   4   5  123.52   12.18
   2  -4  -5  151.98   11.46
   2  -4  -5  148.28    9.41
  -2   4   4 2001.33   46.38
  -2   4   4 2126.66   57.22
   2  -4  -4 1964.68   51.17
   2  -4  -4 1978.60   45.67
  -2   4   3  495.75   24.59
   2  -4  -3  402.03   20.34
   2  -4  -3  470.72   17.36
   2  -4  -3  444.49   17.54
  -2   4   2   35.31    4.01
   2  -4  -2   41.60    5.03
   2  -4  -2   34.29    4.77
  -2   4   2   45.16    7.61
   2  -4  -2   38.46    6.67
  -2   4   1    1.01    3.87
   2  -4  -1    7.97    3.33
   2  -4  -1    5.60    4.52
   2  -4  -1    4.46    2.49
   2  -4   0   75.00    6.02
   2  -4   0   64.08    6.58
  -2   4   0   67.56    8.40
   2  -4   0   72.45   10.08
   2  -4   1  208.45   17.14
   2  -4   1  220.51    9.45
  -2   4  -1  239.77   14.20
   2  -4   1  210.16   11.97
   2  -4   2 1447.43   31.75
   2  -4   2 1412.76   49.70
   2  -4   2 1570.48   39.29
  -2   4  -2 1417.06   38.91
  -2   4  -3  141.58   10.06
   2  -4   3  138.22   10.48
   2  -4   3  146.52    7.69
   2  -4   3  134.08   14.50
  -2   4  -4  746.49   24.68
   2  -4   4  753.57   27.13
   2  -4   4  723.76   33.20
  -2   4  -5   52.84    6.41
   2  -4   5   38.85    8.12
   2  -4   5   54.79    7.39
   2  -4   6    8.35    4.90
   2  -4   6   18.49    5.53
  -2   4  -6    6.60    2.98
   2  -4   6    6.27    2.72
  -2   4  -6    9.26    3.49
   2  -4   7  262.09   17.39
   2  -4   7  245.35   16.19
   2  -4   7  244.77   12.77
  -2   4  -7  256.61   13.79
  -2   4  -8   41.92    6.74
  -2   4  -8   48.77    6.48
   2  -4   8   53.05    6.28
   2  -4   8   63.91    9.35
  -2   4  -9  785.56   26.90
   2  -4   9  779.50   25.64
   2  -4   9  721.45   33.15
  -2   4  -9  711.14   23.15
   2  -4  10  625.82   23.17
  -2   4 -10  603.24   23.21
   2  -4  10  586.09   30.83
  -2   4 -10  557.67   24.09
   2  -4  11   21.08    4.92
  -2   4 -11   10.31    4.08
   2  -4  11   10.16    6.77
  -2   4 -11   21.00    5.30
  -2   4 -12  104.06   10.39
   2  -4  12  126.55   11.00
  -2   4 -12  119.25   11.36
   2  -4  12  118.60   15.42
   2  -4  13  291.75   17.29
  -2   4 -13  249.84   17.33
   2  -4  13  270.85   24.46
  -2   4 -13  293.91   16.77
   2  -4  14   -0.16    3.15
  -2   4 -14    7.98    4.25
   2  -4  14    7.36    8.13
  -2   4 -14    7.40    4.21
   2  -4  15   38.38    6.96
  -2   4 -15   36.03    7.46
   2  -4  15   14.48    9.85
  -2   4 -16  220.27   17.81
  -2   3  19   35.16    9.04
   2  -3 -18  232.16   20.27
  -2   3  18  230.74   19.54
  -2   3  18  226.21   19.12
   2  -3 -18  216.16   20.95
   2  -3 -17  142.31   16.55
   2  -3 -17  106.18   13.56
  -2   3  17  116.91   13.56
  -2   3  17   96.90   12.40
   2  -3 -16   68.27   10.63
   2  -3 -16   67.99   11.23
  -2   3  16   76.80   10.71
  -2   3  16   67.09    9.73
   2  -3 -15   15.28    6.07
   2  -3 -15   11.79    4.52
  -2   3  15   25.76    6.55
   2  -3 -15   17.12    6.93
  -2   3  15   20.27    6.36
  -2   3  14  962.25   36.63
   2  -3 -14  984.19   38.34
   2  -3 -14  994.07   41.24
   2  -3 -14  997.34   31.75
  -2   3  14  914.75   35.14
  -2   3  13  616.10   26.95
   2  -3 -13  620.64   30.94
   2  -3 -13  612.91   23.49
   2  -3 -13  645.40   29.44
  -2   3  13  633.69   28.16
  -2   3  12  673.71   28.12
   2  -3 -12  703.29   29.90
   2  -3 -12  697.70   24.66
   2  -3 -12  655.36   30.86
  -2   3  12  612.39   26.45
   2  -3 -11  203.75   15.20
   2  -3 -11  218.95   12.93
  -2   3  11  216.54   14.53
  -2   3  11  204.11   14.73
  -2   3  10    6.83    3.62
  -2   3  10    9.36    4.01
   2  -3 -10    9.41    3.48
  -2   3   9  739.11   28.21
   2  -3  -9  757.46   25.39
  -2   3   8 1814.70   48.28
   2  -3  -8 1828.89   44.74
  -2   3   7 2573.38   60.81
   2  -3  -7 2639.46   56.13
   2  -3  -7 2537.71   57.10
  -2   3   6  669.17   24.90
   2  -3  -6  656.83   21.71
  -2   3   6  724.90   20.53
   2  -3  -6  629.00   22.83
   2  -3  -5   39.36    5.33
  -2   3   5   48.56    4.86
  -2   3   5   34.59    5.67
   2  -3  -5   37.66    5.36
  -2   3   4   62.63    5.55
  -2   3   4   68.08    8.83
   2  -3  -4   65.55    7.27
  -2   3   4   61.81    6.38
   2  -3  -4   71.71    6.51
   2  -3  -3  779.67   26.46
  -2   3   3  914.94   31.71
   2  -3  -3  732.18   23.58
  -2   3   3  785.34   24.54
  -2   3   2 1140.95   29.65
   2  -3  -2 1270.85   29.45
   2  -3  -2 1273.51   36.72
   2  -3  -2 1363.46   34.23
  -2   3   2 1365.80   40.04
   2  -3  -2 1259.82   29.90
   2  -3  -1   93.82    7.19
  -2   3   1   90.34    9.71
   2  -3  -1   91.41    9.40
  -2   3   1   79.29    5.50
   2  -3  -1   91.87    7.21
   2  -3  -1   89.16    6.35
  -2   3   0 3118.57   68.71
   2  -3   0 3386.63   69.38
   2  -3   0 3182.91   62.48
   2  -3   0 3307.46   74.98
   2  -3   0 3204.65   60.28
   2  -3   1  437.25   23.00
  -2   3  -1  433.51   17.91
   2  -3   1  425.57   13.33
   2  -3   1  434.78   16.03
   2  -3   2   10.69    2.28
   2  -3   2    7.91    4.97
   2  -3   2   10.87    3.51
  -2   3  -2    7.21    2.87
   2  -3   3  392.48   16.67
  -2   3  -3  416.53   16.38
   2  -3   3  416.11   22.80
   2  -3   4   49.27    6.33
  -2   3  -4   36.75    4.89
   2  -3   4   38.27    7.23
   2  -3   5  259.85   16.17
  -2   3  -5  266.39   13.17
   2  -3   5  264.54   11.82
   2  -3   5  253.66   14.75
   2  -3   6  506.01   22.19
   2  -3   6  550.65   23.51
  -2   3  -6  545.28   18.94
   2  -3   6  561.83   18.49
   2  -3   7  250.52   12.30
  -2   3  -7  229.02   12.58
  -2   3  -7  261.15   13.13
   2  -3   7  251.45   16.24
   2  -3   8  150.79    9.94
  -2   3  -8  145.93   10.15
  -2   3  -8  153.97    9.14
  -2   3  -9    7.94    3.00
  -2   3  -9    4.02    2.41
   2  -3   9    5.87    2.84
  -2   3 -10  997.97   32.38
  -2   3 -10  975.04   25.00
   2  -3  10 1007.77   30.32
  -2   3 -10 1025.06   29.87
  -2   3 -11   46.32    6.15
  -2   3 -11   44.42    6.88
   2  -3  11   46.81    6.76
  -2   3 -12    0.82    3.16
  -2   3 -12    5.28    3.25
   2  -3  12    7.96    3.79
  -2   3 -13    6.13    3.76
   2  -3  13    8.30    3.92
  -2   3 -13   -4.75    3.53
  -2   3 -14    9.72    4.04
  -2   3 -14    8.57    5.24
   2  -3  14    2.14    3.69
  -2   3 -15    3.51    4.26
   2  -3  15   14.69    6.06
   2  -3  16  412.54   22.41
  -2   3 -16  397.03   23.22
  -2   3 -17    7.48    5.11
   2  -3  17    7.77    4.64
   2  -3  18   58.91    9.79
   2  -2 -19    6.42    5.56
   2  -2 -18   40.90    8.77
  -2   2  18   45.63    8.21
   2  -2 -18   32.32    9.37
  -2   2  17   19.17    6.37
   2  -2 -17    8.95    5.96
   2  -2 -17   18.62    7.83
   2  -2 -16  304.51   20.82
  -2   2  16  308.28   20.09
   2  -2 -16  316.49   23.16
   2  -2 -15    4.64    3.91
  -2   2  15   12.12    5.49
   2  -2 -15    0.25    5.03
  -2   2  14  571.18   25.95
   2  -2 -14  609.00   28.01
   2  -2 -14  626.09   22.27
   2  -2 -14  620.00   31.61
   2  -2 -13    0.55    3.84
   2  -2 -13    0.28    2.31
   2  -2 -13    6.61    5.66
  -2   2  13    8.60    4.35
   2  -2 -12   22.96    6.66
  -2   2  12    7.72    3.86
   2  -2 -12    2.80    3.32
   2  -2 -12   11.36    2.96
  -2   2  11   11.41    4.25
   2  -2 -11    9.87    4.57
   2  -2 -11   14.04    3.28
   2  -2 -11   16.91    5.54
   2  -2 -10  392.20   16.07
   2  -2 -10  397.38   19.64
  -2   2  10  406.93   18.74
   2  -2 -10  419.90   22.44
  -2   2  10  389.26   18.90
   2  -2  -9  236.63   11.98
  -2   2   9  260.10   14.65
  -2   2   9  235.46   13.70
   2  -2  -9  259.07   15.38
  -2   2   8 1371.29   38.39
   2  -2  -8 1395.56   39.54
   2  -2  -8 1400.53   34.46
   2  -2  -7    7.86    3.05
  -2   2   7    2.18    3.04
   2  -2  -7    5.02    2.50
   2  -2  -6 1131.08   30.15
  -2   2   6 1132.02   33.10
   2  -2  -6 1143.24   29.85
  -2   2   5 1257.25   34.69
   2  -2  -5 1190.10   31.08
   2  -2  -5 1221.08   31.48
  -2   2   4  950.53   20.97
  -2   2   4  876.72   27.10
   2  -2  -4  843.59   25.06
   2  -2  -4  884.10   25.69
  -2   2   4  867.84   23.78
  -2   2   3 1431.95   35.55
  -2   2   3 1531.24   30.56
  -2   2   3 1455.25   40.82
   2  -2  -3 1502.07   36.90
   2  -2  -3 1467.72   36.64
  -2   2   3 1480.50   33.47
  -2   2   3 1624.26   38.90
  -2   2   2  258.87   12.00
   2  -2  -2  259.48   12.81
  -2   2   2  257.04   10.76
   2  -2  -2  236.99   13.01
  -2   2   2  262.86   15.17
   2  -2  -2  254.22    9.50
   2  -2  -2  251.33    8.36
   2  -2  -1  246.80   11.15
  -2   2   1  239.91   13.80
   2  -2  -1  241.85    9.20
   2  -2  -1  243.63   10.03
  -2   2   1  230.45    9.51
  -2   2   1  238.23   10.60
   2  -2  -1  244.08   14.10
   2  -2   0  188.54   13.23
  -2   2   0  195.69   11.20
  -2   2   0  197.71   10.07
   2  -2   0  190.50    8.40
   2  -2   0  187.68    8.40
  -2   2  -1   74.34    6.66
   2  -2   1   73.96    9.15
  -2   2  -1   68.89    4.92
   2  -2   1   74.71    5.60
   2  -2   1   66.69    4.63
  -2   2  -2 1676.91   33.97
   2  -2   2 1566.77   45.38
  -2   2  -2 1601.70   36.90
   2  -2   2 1617.76   36.00
   2  -2   3   34.69    6.51
   2  -2   3   41.08    5.04
   2  -2   3   32.03    3.71
  -2   2  -3   32.85    4.35
   2  -2   4 2166.12   43.76
   2  -2   4 2147.13   48.33
  -2   2  -4 2175.43   45.61
   2  -2   4 2106.91   51.18
   2  -2   5  920.86   24.13
   2  -2   5  928.86   28.44
  -2   2  -6  103.28    7.46
   2  -2   6   99.37    7.01
  -2   2  -7  247.96   11.71
   2  -2   7  253.63   11.93
  -2   2  -7  275.05   11.45
  -2   2  -8  352.54   14.37
  -2   2  -8  373.82   13.07
   2  -2   8  365.77   14.86
  -2   2  -9  533.38   18.47
  -2   2  -9  550.66   16.36
   2  -2   9  561.64   19.79
  -2   2  -9  546.89   21.45
  -2   2 -10  755.94   23.04
   2  -2  10  771.74   24.78
  -2   2 -10  704.95   19.22
  -2   2 -10  735.96   26.18
  -2   2 -11  260.79   15.01
  -2   2 -11  244.14    9.62
   2  -2  11  277.48   14.49
  -2   2 -11  273.32   13.07
   2  -2  12    6.26    3.11
  -2   2 -12    9.01    4.12
  -2   2 -12    4.91    2.70
  -2   2 -13  107.67    8.68
   2  -2  13  112.65    9.92
  -2   2 -13   87.54   10.00
  -2   2 -14  773.80   25.25
   2  -2  14  745.53   28.32
  -2   2 -14  694.61   29.03
  -2   2 -15  175.46   14.91
   2  -2  15  185.88   13.88
  -2   2 -16   91.60   11.03
   2  -2  16  101.26   11.21
   2  -2  17    5.61    4.72
  -2   2 -17   17.16    6.07
  -2   2 -18   12.97    6.53
   2  -2  18   11.91    5.40
   2  -1 -19   17.24    7.67
   2  -1 -18   49.87    9.49
   2  -1 -18   50.50   10.78
  -2   1  18   60.04    9.41
   2  -1 -17   58.42    9.65
  -2   1  17   55.80    9.29
   2  -1 -17   54.06   10.92
   2  -1 -16  176.95   18.36
  -2   1  16  143.92   13.59
   2  -1 -16  162.25   14.56
   2  -1 -15   82.49   10.25
  -2   1  15   70.25    9.26
   2  -1 -15   68.41   11.22
   2  -1 -14  365.49   20.28
  -2   1  14  385.43   20.11
   2  -1 -14  315.57   22.26
  -2   1  14  367.23   16.30
   2  -1 -13   88.43    6.85
  -2   1  13   71.31    8.22
   2  -1 -13   81.52   11.06
   2  -1 -13   90.18    9.70
  -2   1  12   46.10    6.76
   2  -1 -12   42.01    4.84
   2  -1 -12   49.62    7.12
   2  -1 -12   45.80    8.49
   2  -1 -11  805.17   22.64
   2  -1 -11  846.52   33.69
   2  -1 -11  770.04   27.85
  -2   1  11  765.27   27.09
   2  -1 -10  481.13   16.39
   2  -1 -10  493.03   20.85
   2  -1 -10  542.20   25.59
  -2   1  10  491.52   20.11
   2  -1  -9  687.08   19.97
  -2   1   9  667.62   23.47
   2  -1  -9  707.46   28.87
   2  -1  -9  688.52   24.31
   2  -1  -8 1982.00   40.69
   2  -1  -8 1895.51   51.06
  -2   1   8 1831.69   44.60
   2  -1  -8 1908.42   45.94
   2  -1  -7   91.16    9.36
   2  -1  -7  101.85    8.27
   2  -1  -7  104.81    7.97
   2  -1  -7  100.15    6.50
   2  -1  -6   60.63    5.09
  -2   1   6   72.66    6.78
   2  -1  -6   72.88    6.72
   2  -1  -6   65.25    6.53
   2  -1  -5 1521.71   33.49
   2  -1  -5 1564.52   36.05
  -2   1   5 1492.03   33.37
  -2   1   5 1502.70   37.41
   2  -1  -4   70.43    6.40
  -2   1   4   50.32    6.45
  -2   1   4   61.35    5.46
   2  -1  -4   65.16    5.27
   2  -1  -3  135.47    8.11
   2  -1  -3  162.09    9.84
  -2   1   3  136.64    9.15
  -2   1   3  149.24    8.64
  -2   1   3  151.09    9.57
  -2   1   3  156.34    9.63
   2  -1  -3  140.70    9.14
  -2   1   2 9363.77  157.17
  -2   1   2 9712.52  165.93
  -2   1   2 9217.58  162.70
  -2   1   2 9944.04  168.60
   2  -1  -2 9999.00  164.34
   2  -1  -2 9975.47  167.04
  -2   1   2 9923.76  166.74
   2  -1  -2 9885.19  165.52
   2  -1  -1  159.92    8.60
   2  -1  -1  154.59    9.77
   2  -1  -1  135.72    5.37
   2  -1  -1  156.71    7.60
  -2   1   1  144.84    9.74
   2  -1  -1  151.75    5.47
  -2   1   1  161.27   10.40
  -2   1   1  163.44    6.37
  -2   1   1  162.02    8.12
   2  -1  -1  149.50   10.06
   2  -1   0  559.10   14.99
  -2   1   0  545.86   14.48
   2  -1   0  547.81   20.84
   2  -1   0  556.90   17.26
  -2   1   0  570.19   14.76
  -2   1   0  542.90   17.25
   2  -1   0  537.13   13.12
  -2   1   0  607.20   21.58
  -2   1  -1  165.53   11.92
  -2   1  -1  168.38    7.32
   2  -1   1  167.32    6.87
   2  -1   1  160.85    7.04
  -2   1  -1  163.08    8.34
   2  -1   1  156.96    8.17
   2  -1   1  174.75   11.82
  -2   1  -2  872.95   21.93
  -2   1  -2  892.81   20.99
   2  -1   2  909.91   22.46
   2  -1   2  874.39   26.41
  -2   1  -2  894.42   28.31
  -2   1  -3   34.75    3.68
   2  -1   3   42.78    5.53
  -2   1  -3   39.07    4.17
   2  -1   3   36.07    3.95
  -2   1  -3   42.35    6.05
  -2   1  -4 1639.72   36.51
   2  -1   4 1630.66   34.02
   2  -1   5  174.07    7.71
   2  -1   5  177.44    8.78
  -2   1  -5  174.01    8.54
  -2   1  -6 2450.13   48.55
   2  -1   6 2597.54   49.78
   2  -1   6 2566.91   50.56
  -2   1  -7   65.62    5.50
   2  -1   7   87.77    6.47
  -2   1  -7   79.16    5.27
   2  -1   8 1259.62   31.39
  -2   1  -8 1249.21   29.00
  -2   1  -8 1247.73   27.86
  -2   1  -8 1295.11   33.22
  -2   1  -9  359.42   11.90
  -2   1  -9  338.13   12.80
  -2   1  -9  385.33   16.49
   2  -1   9  367.75   15.33
  -2   1 -10   68.08    4.82
   2  -1  10   66.85    6.96
  -2   1 -10   59.26    7.10
  -2   1 -10   66.38    5.50
  -2   1 -11  145.21    7.13
   2  -1  11  137.83   10.33
  -2   1 -11  162.35   11.47
  -2   1 -11  146.89    8.53
  -2   1 -12   99.59    5.83
   2  -1  12  107.81    9.34
  -2   1 -12  117.98    7.86
  -2   1 -12  112.92   10.01
  -2   1 -13   91.35    7.13
  -2   1 -13   99.38    9.88
   2  -1  13  101.94    9.46
  -2   1 -14  704.59   28.61
   2  -1  14  713.80   27.27
  -2   1 -15   13.24    5.41
   2  -1  15    9.90    4.34
   2  -1  16   40.85    7.62
  -2   1 -16   29.78    7.01
  -2   1 -17  127.42   13.04
   2  -1  17  105.89   11.56
   2  -1  18  148.74   14.14
  -2   1 -18  131.37   14.01
   2   0 -19    5.95    5.80
   2   0 -18  116.47   13.19
  -2   0  18  102.78   12.07
   2   0 -18  131.74   16.70
  -2   0  17    2.26    3.62
   2   0 -17   -2.36    5.19
   2   0 -17    9.50    5.00
   2   0 -16  887.49   40.43
   2   0 -16  899.51   35.19
  -2   0  16  853.81   33.77
  -2   0  15   91.54   10.12
   2   0 -15   93.53   10.60
   2   0 -15   98.64   13.11
  -2   0  14   20.58    4.42
   2   0 -14   41.63    7.15
  -2   0  14   24.66    5.56
   2   0 -14   18.04    6.16
   2   0 -13  526.15   23.07
  -2   0  13  492.30   22.08
  -2   0  13  518.92   19.61
   2   0 -13  484.93   26.74
   2   0 -12   15.32    6.68
   2   0 -12   25.73    5.50
  -2   0  12   18.58    3.80
   2   0 -12   12.33    2.56
  -2   0  12   11.32    4.13
  -2   0  11  207.65   11.43
   2   0 -11  205.01   15.95
   2   0 -11  222.89   13.43
  -2   0  11  236.28   13.62
   2   0 -11  226.90    9.35
   2   0 -10 1666.27   42.97
  -2   0  10 1655.98   33.87
   2   0 -10 1814.82   35.63
   2   0 -10 1780.63   43.66
   2   0 -10 1737.16   49.77
  -2   0  10 1688.82   42.60
   2   0  -9 1250.11   33.84
   2   0  -9 1258.10   39.27
  -2   0   9 1233.77   33.36
   2   0  -9 1271.46   33.81
  -2   0   9 1178.33   25.93
   2   0  -9 1295.82   27.23
   2   0  -8  982.44   22.07
  -2   0   8  942.11   27.17
   2   0  -8 1028.42   28.10
   2   0  -8  963.03   32.51
  -2   0   8  933.34   21.50
   2   0  -8  952.03   27.80
   2   0  -7 3669.36   71.33
   2   0  -7 3648.55   72.45
   2   0  -7 3752.78   79.02
   2   0  -7 3675.16   64.68
  -2   0   7 3627.67   71.14
   2   0  -6   82.26    6.31
   2   0  -6   81.28    6.88
   2   0  -6   77.04    6.30
   2   0  -6   71.18    7.79
   2   0  -6   70.49    4.39
   2   0  -5   14.00    3.09
  -2   0   5   15.08    3.22
   2   0  -5   12.02    2.16
   2   0  -5   11.33    3.43
   2   0  -5   13.86    4.68
  -2   0   4 3562.05   66.58
  -2   0   4 3573.58   67.56
  -2   0   4 3552.53   65.92
  -2   0   4 3461.67   61.48
   2   0  -4 3453.93   62.26
   2   0  -4 3633.40   67.18
   2   0  -4 3350.80   69.41
   2   0  -4 3511.41   65.76
  -2   0   3 2598.51   54.02
  -2   0   3 2674.09   53.30
  -2   0   3 2636.09   52.31
  -2   0   3 2728.17   53.58
  -2   0   3 2566.24   49.51
   2   0  -3 2610.98   54.16
   2   0  -3 2647.41   53.58
   2   0  -3 2738.15   50.39
   2   0  -2 1823.00   39.22
   2   0  -2 1903.42   40.72
  -2   0   2 1877.72   39.58
  -2   0   2 1906.70   40.35
  -2   0   2 1923.61   42.85
  -2   0   2 1935.35   40.98
   2   0  -2 1805.16   41.57
   2   0  -1  592.47   17.99
   2   0  -1  598.55   17.90
  -2   0   1  635.42   18.78
   2   0  -1  608.76   16.91
  -2   0   1  598.69   17.80
  -2   0   1  563.07   16.60
  -2   0   1  565.20   16.39
   2   0  -1  579.61   17.05
  -2   0   0  355.73   10.78
  -2   0   0  349.89   13.03
   2   0   0  348.57   12.58
   2   0   0  360.28   10.83
   2   0   0  355.66   10.76
  -2   0   0  354.90   10.96
   2   0   0  350.38   10.92
  -2   0  -1  582.67   14.71
  -2   0  -1  594.73   16.92
   2   0   1  609.18   14.61
   2   0   1  556.35   16.59
   2   0   1  604.23   14.84
  -2   0  -1  596.23   14.64
  -2   0  -2 6125.41  101.79
  -2   0  -2 6363.69  104.66
  -2   0  -2 6093.60  103.95
   2   0   2 6328.90  101.88
  -2   0  -2 5845.16  101.47
   2   0   2 5762.95  101.69
   2   0   3  203.30    5.84
  -2   0  -3  205.23    8.38
  -2   0  -3  198.40    7.79
   2   0   3  171.77    7.74
   2   0   3  225.45    8.38
  -2   0  -3  188.83    9.33
  -2   0  -4  775.66   20.70
  -2   0  -4  739.52   18.32
   2   0   4  759.98   16.64
  -2   0  -4  771.71   18.59
   2   0   4  705.43   19.39
   2   0   4  750.75   18.57
   2   0   5  592.67   16.90
   2   0   5  572.15   15.12
  -2   0  -5  562.85   15.19
   2   0   5  542.93   16.20
   2   0   6   13.42    2.83
   2   0   6   14.55    2.87
  -2   0  -6   13.30    2.52
   2   0   6    9.34    2.47
   2   0   7  127.26    7.96
  -2   0  -7  121.06    7.98
  -2   0  -7  111.99    5.77
   2   0   7  132.97    7.79
   2   0   7  130.02    7.64
  -2   0  -7  126.85    6.39
  -2   0  -7  128.91    7.00
  -2   0  -8 1862.17   41.45
  -2   0  -8 1782.30   38.39
  -2   0  -8 1754.81   34.89
  -2   0  -8 1731.83   35.67
   2   0   8 1803.90   39.13
  -2   0  -8 1835.72   35.13
   2   0   8 1749.53   39.71
  -2   0  -9    2.64    1.44
  -2   0  -9    3.68    1.59
  -2   0  -9    3.61    1.65
  -2   0  -9    3.09    2.67
  -2   0  -9    5.98    2.75
   2   0   9    3.64    2.52
  -2   0 -10  403.44   17.49
   2   0  10  437.08   17.32
  -2   0 -10  420.76   13.00
  -2   0 -10  421.19   13.07
  -2   0 -10  408.96   13.10
  -2   0 -10  449.01   16.84
  -2   0 -11  808.05   25.51
   2   0  11  859.13   26.55
  -2   0 -11  794.16   27.22
  -2   0 -11  823.65   20.87
  -2   0 -11  829.10   20.70
  -2   0 -12  784.30   27.49
  -2   0 -12  791.53   20.38
   2   0  12  759.38   25.87
  -2   0 -12  750.29   19.84
  -2   0 -12  742.21   25.47
  -2   0 -13   53.21    4.67
  -2   0 -13   40.09    6.45
  -2   0 -13   46.81    4.26
   2   0  13   50.28    6.63
  -2   0 -13   48.31    6.65
   2   0  14  296.68   16.91
  -2   0 -14  284.91   17.19
  -2   0 -14  282.81   16.28
  -2   0 -15  308.09   18.72
   2   0  15  314.46   18.27
  -2   0 -16   10.22    4.96
   2   0  16    3.78    3.34
  -2   0 -17  212.24   16.55
   2   0  17  201.71   15.62
   2   0  18   69.71    9.73
  -2   0 -18   48.91    8.92
  -2   0 -19    8.30    5.52
   2   0  19   10.60    5.78
   2   1 -19    2.31    4.81
  -2  -1  18   88.95   11.02
   2   1 -18  102.68   12.44
   2   1 -18   94.89   14.86
   2   1 -17    1.68    4.02
   2   1 -17    7.00    5.73
  -2  -1  17   -0.94    4.15
   2   1 -16   84.76   10.28
  -2  -1  16   83.35   10.08
   2   1 -16   67.32   11.67
   2   1 -15   41.25    7.31
  -2  -1  15   32.92    5.67
  -2  -1  15   25.96    5.85
   2   1 -15   19.48    6.56
   2   1 -15   22.77    4.87
   2   1 -14  349.42   17.97
  -2  -1  14  304.06   17.46
   2   1 -14  328.29   18.17
   2   1 -14  303.48   21.28
  -2  -1  14  313.55   15.70
   2   1 -13  116.32    9.82
  -2  -1  13  120.87   10.27
  -2  -1  13  104.66    8.60
   2   1 -13  104.24    9.83
   2   1 -13   86.71   10.82
  -2  -1  12  393.84   16.77
   2   1 -12  358.02   21.65
  -2  -1  12  400.38   18.49
   2   1 -12  376.98   18.07
   2   1 -12  381.17   17.81
  -2  -1  11  104.37    8.23
   2   1 -11   96.67   10.91
   2   1 -11  100.90    8.50
   2   1 -11  115.98    9.28
  -2  -1  11  102.68    8.86
   2   1 -11   99.80    4.78
   2   1 -10  718.26   28.13
   2   1 -10  698.74   14.77
  -2  -1  10  701.34   21.72
  -2  -1  10  722.00   23.13
   2   1 -10  736.24   23.41
   2   1 -10  733.08   23.01
  -2  -1   9    4.89    0.96
   2   1  -9    7.49    1.26
   2   1  -9    4.59    2.38
   2   1  -9    8.21    2.90
  -2  -1   9    7.21    2.70
  -2  -1   9    3.81    1.98
   2   1  -9    3.35    3.15
  -2  -1   8  369.12   14.25
   2   1  -8  360.28   14.41
   2   1  -8  375.14   14.88
   2   1  -8  346.39   17.48
  -2  -1   8  342.92    8.48
  -2  -1   8  365.06   14.55
   2   1  -8  354.45    8.95
   2   1  -7  106.46    7.34
   2   1  -7  108.34    7.17
   2   1  -7  105.84    9.15
  -2  -1   7  103.57    6.99
   2   1  -7  102.06    3.96
   2   1  -6   41.85    5.65
  -2  -1   6   33.71    3.90
   2   1  -6   42.21    4.67
   2   1  -6   34.47    2.16
   2   1  -6   39.01    4.09
   2   1  -5   58.88    5.36
   2   1  -5   65.02    5.53
   2   1  -5   72.41    6.64
  -2  -1   5   61.07    4.79
   2   1  -5   61.08    4.73
  -2  -1   4 3010.51   55.57
   2   1  -4 2886.91   55.68
  -2  -1   4 2900.01   53.64
   2   1  -4 2873.59   57.97
   2   1  -4 2951.08   53.80
   2   1  -4 2932.91   56.24
   2   1  -3   31.89    4.02
  -2  -1   3   28.74    3.83
  -2  -1   3   36.44    3.78
  -2  -1   3   31.59    3.04
  -2  -1   3   31.81    3.03
  -2  -1   3   27.69    2.34
   2   1  -3   28.43    3.12
   2   1  -3   30.82    2.17
   2   1  -3   26.86    3.54
  -2  -1   3   30.35    3.64
   2   1  -3   31.65    4.12
  -2  -1   2  830.17   21.34
  -2  -1   2  834.47   17.39
   2   1  -2  797.54   19.78
  -2  -1   2  781.91   18.13
  -2  -1   2  809.91   19.90
  -2  -1   2  770.85   17.78
  -2  -1   2  795.44   19.08
   2   1  -2  777.18   21.60
   2   1  -2  784.68   19.19
  -2  -1   2  802.03   22.77
   2   1  -1  161.10    7.50
   2   1  -1  160.47    6.17
   2   1  -1  160.74    7.55
  -2  -1   1  155.03    7.40
  -2  -1   1  156.05    5.53
  -2  -1   1  154.23    6.17
   2   1  -1  152.34    6.23
  -2  -1   1  143.80    7.05
  -2  -1   1  147.94    6.23
   2   1  -1  170.46    7.62
  -2  -1   1  148.41    5.38
  -2  -1   1  156.78    5.40
  -2  -1   1  146.90    7.54
   2   1  -1  156.93    8.83
  -2  -1   1  149.20    8.38
   2   1  -1  162.67    6.17
   2   1   0  562.21   13.88
  -2  -1   0  598.72   15.49
  -2  -1   0  562.17   14.07
   2   1   0  560.08   15.29
   2   1   0  578.17   13.99
  -2  -1   0  543.59   13.72
   2   1   0  553.68   14.32
   2   1   0  555.02   11.87
   2   1   0  549.33   11.21
  -2  -1   0  547.82   14.09
  -2  -1   0  550.81   11.66
   2   1   0  562.09   11.75
  -2  -1   0  555.37   11.94
  -2  -1   0  549.18   11.60
   2   1   0  573.21   14.52
   2   1   1  134.87    5.57
   2   1   1  131.09    4.80
  -2  -1  -1  150.76    6.95
  -2  -1  -1  138.18    5.44
   2   1   1  136.91    5.07
   2   1   1  133.15    5.88
  -2  -1  -1  128.02    5.79
  -2  -1  -2  724.41   17.02
   2   1   2  690.77   16.40
   2   1   2  767.51   17.58
  -2  -1  -2  763.46   16.43
   2   1   3   10.98    2.28
  -2  -1  -3   21.03    2.46
  -2  -1  -3   14.83    1.47
   2   1   3   13.72    2.18
  -2  -1  -3   10.67    2.13
   2   1   4  519.68   14.24
   2   1   4  555.18   14.72
  -2  -1  -4  509.45   13.93
  -2  -1  -4  524.55   14.16
  -2  -1  -4  555.81   12.58
   2   1   5    6.72    1.99
   2   1   5    1.53    1.64
  -2  -1  -5    2.89    1.75
  -2  -1  -5    4.84    2.08
  -2  -1  -5    3.11    1.65
   2   1   6 4181.45   76.13
  -2  -1  -6 4118.85   76.55
   2   1   6 4347.85   75.57
  -2  -1  -6 4234.31   74.03
  -2  -1  -6 4277.77   74.71
  -2  -1  -7    4.40    1.01
   2   1   7    6.23    2.21
  -2  -1  -7    5.68    2.46
  -2  -1  -7    5.53    2.15
  -2  -1  -7    0.09    1.69
   2   1   7    4.84    2.49
  -2  -1  -7    2.51    0.97
  -2  -1  -8   14.31    2.56
  -2  -1  -8   12.97    1.59
  -2  -1  -8   13.54    1.56
  -2  -1  -8   15.35    3.30
   2   1   8   12.16    2.74
  -2  -1  -8   17.01    3.49
   2   1   9   14.55    3.21
  -2  -1  -9    9.89    3.09
  -2  -1  -9   10.84    1.52
  -2  -1  -9   12.08    2.44
  -2  -1  -9   18.85    3.65
   2   1  10   13.38    3.68
  -2  -1 -10   14.78    1.90
  -2  -1 -10   16.35    4.09
  -2  -1 -10   11.07    2.64
  -2  -1 -10   14.56    3.86
  -2  -1 -11   39.36    5.35
   2   1  11   48.60    6.08
  -2  -1 -11   41.86    5.92
  -2  -1 -11   40.66    4.13
  -2  -1 -11   48.50    3.33
  -2  -1 -12 2027.44   38.32
  -2  -1 -12 1943.71   49.70
  -2  -1 -12 1957.23   48.85
  -2  -1 -12 2024.32   42.04
   2   1  12 2133.24   49.52
  -2  -1 -13  172.11   12.81
  -2  -1 -13  162.69    8.60
  -2  -1 -13  169.59   12.18
   2   1  13  170.54   11.94
   2   1  14  586.70   24.04
  -2  -1 -14  543.23   24.32
  -2  -1 -14  578.18   17.78
  -2  -1 -14  575.54   24.19
  -2  -1 -15  626.07   26.46
  -2  -1 -15  606.71   26.70
   2   1  15  635.13   26.11
   2   1  16   62.11    8.47
  -2  -1 -16   77.83    9.76
  -2  -1 -16   64.13    8.76
  -2  -1 -17    7.34    4.74
  -2  -1 -17    5.58    4.47
   2   1  17    1.90    3.93
  -2  -1 -18  131.45   13.06
   2   1  18  132.11   13.16
  -2  -1 -18  120.29   13.60
  -2  -1 -19  297.68   20.74
   2   1  19  325.52   21.26
  -2  -1 -19  302.03   21.22
   2   2 -19   92.82   12.41
   2   2 -18   59.28   10.05
  -2  -2  18   53.06    8.98
   2   2 -17  151.08   14.33
  -2  -2  17  146.58   13.40
  -2  -2  16  287.72   18.18
   2   2 -16  315.34   19.32
  -2  -2  15   -0.63    3.38
   2   2 -15   12.65    6.32
   2   2 -15    5.32    3.12
   2   2 -15    6.57    4.17
   2   2 -14   28.74    7.56
   2   2 -14   23.98    5.37
   2   2 -14   22.17    5.03
  -2  -2  14   16.05    4.47
   2   2 -13   56.76    7.54
   2   2 -13   50.72    8.83
   2   2 -13   53.43    7.03
  -2  -2  13   62.78    7.09
  -2  -2  13   57.60    7.10
  -2  -2  12  133.20    9.93
   2   2 -12  140.90   10.55
   2   2 -12  149.35   10.81
  -2  -2  12  140.18   10.45
   2   2 -12  132.77   12.64
   2   2 -11  361.33   16.63
   2   2 -11  359.00   16.48
  -2  -2  11  364.50   16.43
  -2  -2  11  356.42   16.04
   2   2 -11  345.10   19.94
   2   2 -10 2211.93   50.07
  -2  -2  10 2261.28   50.44
  -2  -2  10 2266.24   50.61
   2   2 -10 2244.66   50.77
   2   2 -10 2192.05   56.68
   2   2  -9  353.80   15.30
   2   2  -9  332.68   17.87
  -2  -2   9  343.35   14.81
   2   2  -9  348.14   14.58
  -2  -2   9  364.91   15.06
   2   2  -8   26.28    5.38
   2   2  -8   22.00    3.58
  -2  -2   8   26.01    4.02
  -2  -2   8   21.63    3.54
   2   2  -8   24.15    4.24
  -2  -2   7  430.48   14.83
   2   2  -7  431.57   14.71
  -2  -2   7  421.98   15.61
   2   2  -7  450.99   16.08
   2   2  -7  442.98   18.44
  -2  -2   6  802.26   22.46
   2   2  -6  804.11   20.69
   2   2  -6  812.49   22.57
  -2  -2   6  820.79   21.22
   2   2  -6  814.96   24.99
   2   2  -5 1188.22   27.91
  -2  -2   5 1163.44   27.82
  -2  -2   5 1278.93   25.63
  -2  -2   5 1068.56   19.71
  -2  -2   5 1192.56   26.14
   2   2  -5 1173.26   25.23
   2   2  -5 1184.09   29.68
  -2  -2   4 3165.67   55.13
   2   2  -4 3123.19   55.15
   2   2  -4 3157.52   58.95
  -2  -2   4 3094.41   51.58
  -2  -2   4 3057.16   58.76
  -2  -2   4 3185.87   56.39
   2   2  -4 3096.72   58.12
   2   2  -4 3093.12   60.09
   2   2  -3  356.71   11.85
  -2  -2   3  380.33   12.47
   2   2  -3  371.17    9.70
  -2  -2   3  354.66   12.20
  -2  -2   3  357.98   12.50
   2   2  -3  360.47    9.02
  -2  -2   3  364.43    8.80
  -2  -2   3  339.89   12.35
  -2  -2   3  362.02   14.52
  -2  -2   3  367.80    9.49
   2   2  -3  344.87   12.04
  -2  -2   2 1036.38   19.00
   2   2  -2 1007.51   23.33
  -2  -2   2 1025.27   23.37
  -2  -2   2 1052.08   30.00
   2   2  -2 1024.52   20.12
  -2  -2   2 1005.52   19.92
   2   2  -2 1039.62   23.79
  -2  -2   2 1006.55   25.50
  -2  -2   2  954.14   25.15
  -2  -2   2 1057.54   23.20
   2   2  -2  984.72   19.16
  -2  -2   1 3068.97   53.68
   2   2  -1 3018.02   54.48
  -2  -2   1 3072.46   62.23
  -2  -2   1 2919.60   57.98
   2   2  -1 2943.88   61.19
   2   2  -1 3116.72   52.31
  -2  -2   1 3175.16   54.64
  -2  -2   1 2827.63   55.80
   2   2  -1 2841.76   56.80
  -2  -2   1 3073.36   52.12
   2   2  -1 2953.46   54.37
   2   2   0 1878.45   36.53
  -2  -2   0 1933.39   35.97
   2   2   0 1960.26   42.02
  -2  -2   0 1904.76   36.01
   2   2   0 1955.92   36.56
   2   2   0 1987.28   37.64
   2   2   0 2033.83   35.87
  -2  -2   0 1998.96   35.82
  -2  -2   0 1893.75   42.16
  -2  -2   0 1936.23   37.99
  -2  -2   0 1821.39   36.64
  -2  -2  -1  121.38    3.65
  -2  -2  -1  120.38    3.98
   2   2   1  125.20    5.55
   2   2   1  124.56    7.34
   2   2   1  123.37    5.43
  -2  -2  -1  114.86    5.42
  -2  -2  -1  125.01    4.48
   2   2   1  126.34    4.87
  -2  -2  -1  126.56    6.22
   2   2   1  128.80    5.87
  -2  -2  -1  107.98    5.36
   2   2   1  125.49    5.01
   2   2   1  127.29    4.59
   2   2   2 5448.22   90.78
   2   2   2 5761.75   94.61
  -2  -2  -2 5602.85   90.86
   2   2   2 5685.47   93.10
  -2  -2  -2 5444.90   92.92
   2   2   2 5356.12   91.24
  -2  -2  -2 5573.66   90.82
  -2  -2  -2 5517.83   90.04
  -2  -2  -3 1857.76   34.10
   2   2   3 1904.08   33.17
   2   2   3 1876.25   34.46
   2   2   3 1865.56   35.92
  -2  -2  -3 1789.14   35.77
  -2  -2  -3 1807.76   32.25
  -2  -2  -3 1869.13   34.39
   2   2   4    9.09    2.05
  -2  -2  -4    8.97    1.05
   2   2   4    9.48    1.93
  -2  -2  -4   13.90    2.15
  -2  -2  -4    9.44    2.05
   2   2   4   12.29    2.49
  -2  -2  -4    7.73    1.97
   2   2   5 1174.83   26.40
  -2  -2  -5 1160.71   26.19
   2   2   5 1185.79   26.36
  -2  -2  -5 1187.41   26.05
  -2  -2  -5 1208.46   26.13
   2   2   5 1163.84   25.80
   2   2   6   65.52    5.10
  -2  -2  -6   61.72    4.82
  -2  -2  -6   65.88    5.33
  -2  -2  -7   27.59    3.95
   2   2   7   32.04    4.05
  -2  -2  -7   24.08    3.45
  -2  -2  -8 2059.02   44.13
   2   2   8 1930.76   42.32
  -2  -2  -8 1991.29   40.88
  -2  -2  -8 2026.71   46.17
  -2  -2  -9   49.20    6.22
  -2  -2  -9   49.17    4.61
   2   2   9   46.39    5.30
  -2  -2  -9   54.87    6.12
  -2  -2 -10 1426.55   38.44
  -2  -2 -10 1410.07   32.24
  -2  -2 -10 1427.13   36.69
   2   2  10 1395.86   35.44
   2   2  11   42.03    5.62
  -2  -2 -11   51.75    6.66
  -2  -2 -11   45.70    4.76
  -2  -2 -11   44.00    6.29
  -2  -2 -12   11.27    2.56
  -2  -2 -12    8.26    3.16
   2   2  12    9.86    3.77
  -2  -2 -12   14.18    4.34
  -2  -2 -13  270.16   12.04
   2   2  13  265.85   14.89
  -2  -2 -13  245.23   15.50
  -2  -2 -13  272.00   15.73
  -2  -2 -14  158.94   12.67
  -2  -2 -14  176.37    9.80
  -2  -2 -14  174.55   13.71
   2   2  14  159.44   12.07
  -2  -2 -15    7.71    2.81
  -2  -2 -15    0.90    3.32
   2   2  15    0.66    3.41
  -2  -2 -15   -1.07    3.59
  -2  -2 -16  381.44   21.43
   2   2  16  402.90   21.06
  -2  -2 -16  362.63   21.09
  -2  -2 -17    5.20    4.48
  -2  -2 -17    3.67    4.19
   2   2  17    5.13    4.53
  -2  -2 -18  501.33   26.32
  -2  -2 -18  442.09   25.58
   2   2  18  498.97   25.49
  -2  -2 -19   58.20    9.51
  -2  -2 -19   51.73    9.50
   2   2  19   62.21    9.70
  -2  -2 -20  121.56   14.15
   2   3 -18   72.39   10.90
  -2  -3  18   71.01    9.90
   2   3 -17   -0.41    3.49
  -2  -3  17    5.38    4.51
   2   3 -16  153.81   13.59
  -2  -3  16  161.98   13.45
   2   3 -15    3.91    3.58
   2   3 -15   20.68    5.43
  -2  -3  15   15.54    4.35
  -2  -3  14  208.27   13.97
   2   3 -14  230.91   14.99
   2   3 -14  192.70   13.78
  -2  -3  13  315.05   16.60
   2   3 -13  291.67   16.31
   2   3 -13  327.60   17.29
   2   3 -12  443.63   19.95
  -2  -3  12  429.30   18.69
   2   3 -12  445.91   19.45
  -2  -3  11   31.44    4.76
   2   3 -11   29.61    5.05
   2   3 -11   24.62    5.02
   2   3 -10   18.68    4.17
   2   3 -10   23.54    4.61
  -2  -3  10   16.26    3.22
  -2  -3   9  286.88   14.09
   2   3  -9  285.00   12.99
  -2  -3   9  280.64   12.66
   2   3  -9  270.29   13.75
   2   3  -8  130.30    8.26
  -2  -3   8  133.87    8.00
   2   3  -8  145.28    9.58
  -2  -3   8  136.40    9.12
  -2  -3   7  473.67   17.52
   2   3  -7  468.06   17.45
  -2  -3   7  437.77   13.88
  -2  -3   7  471.81   15.35
   2   3  -7  461.06   15.23
  -2  -3   6 5608.15  115.42
   2   3  -6 5874.35  105.11
  -2  -3   6 5799.92   98.38
   2   3  -6 5897.91  100.28
  -2  -3   6 5797.97  100.38
  -2  -3   6 5726.59  104.84
  -2  -3   5   32.27    6.42
   2   3  -5   32.30    2.00
   2   3  -5   35.50    3.42
  -2  -3   5   34.05    1.89
  -2  -3   5   32.14    3.39
   2   3  -5   33.60    4.52
  -2  -3   5   35.31    2.99
  -2  -3   5   36.86    4.62
  -2  -3   4   43.50    6.33
   2   3  -4   45.76    4.83
  -2  -3   4   39.56    2.49
   2   3  -4   42.10    2.54
  -2  -3   4   51.06    4.96
  -2  -3   4   37.87    3.09
  -2  -3   4   40.03    2.80
   2   3  -4   43.00    3.25
  -2  -3   4   43.76    3.64
   2   3  -3 1115.11   22.07
  -2  -3   3 1145.77   32.24
   2   3  -3 1088.76   26.94
   2   3  -3 1179.71   22.25
  -2  -3   3 1139.81   21.98
   2   3  -3 1146.30   24.85
  -2  -3   3 1093.85   23.33
  -2  -3   3 1144.90   22.53
  -2  -3   3 1126.77   27.20
  -2  -3   3 1123.50   22.23
  -2  -3   3 1169.49   26.53
   2   3  -2   21.88    2.71
   2   3  -2   22.89    1.69
  -2  -3   2   33.16    4.06
  -2  -3   2   28.32    2.60
  -2  -3   2   23.24    4.54
   2   3  -2   29.17    2.63
  -2  -3   2   24.00    3.37
  -2  -3   2   27.55    2.62
   2   3  -2   35.36    4.55
  -2  -3   2   21.61    2.41
  -2  -3   2   31.50    2.18
   2   3  -2   25.82    3.44
  -2  -3   1  266.30   11.04
  -2  -3   1  272.52   12.55
  -2  -3   1  277.81   10.54
  -2  -3   1  283.90   16.27
   2   3  -1  296.63   16.49
   2   3  -1  284.10   10.47
   2   3  -1  282.79    8.81
   2   3  -1  274.13    6.46
  -2  -3   1  291.22    8.98
  -2  -3   1  281.03   10.44
   2   3  -1  287.13   11.78
   2   3  -1  296.02    9.37
   2   3   0 4270.10   85.22
   2   3   0 4340.04   74.51
   2   3   0 4269.50   74.37
  -2  -3   0 4097.50   78.41
  -2  -3   0 4332.17   74.40
   2   3   0 4236.25   77.05
  -2  -3   0 4436.26   85.89
  -2  -3   0 4245.06   74.35
   2   3   0 4423.43   73.13
  -2  -3   0 4410.42   73.21
   2   3   0 3957.38   74.35
  -2  -3   0 4191.68   68.07
  -2  -3   0 4173.95   70.96
   2   3   1 3138.89   52.76
   2   3   1 3323.38   57.98
   2   3   1 3205.74   66.61
   2   3   1 3190.35   57.55
  -2  -3  -1 3287.31   57.73
  -2  -3  -1 3332.45   67.32
   2   3   1 3418.97   58.23
  -2  -3  -1 3313.75   58.22
  -2  -3  -1 3214.96   57.73
   2   3   1 3351.00   53.44
   2   3   1 3160.20   55.24
  -2  -3  -1 3270.66   53.14
  -2  -3  -1 3264.44   62.61
   2   3   1 3202.18   60.84
   2   3   2   79.24    7.32
  -2  -3  -2   67.88    3.14
   2   3   2   69.71    3.23
   2   3   2   66.97    3.12
   2   3   2   68.02    4.57
  -2  -3  -2   71.34    4.81
   2   3   2   72.41    5.55
  -2  -3  -2   72.40    3.59
  -2  -3  -2   62.10    5.91
  -2  -3  -2   67.08    4.04
  -2  -3  -2   71.32    4.11
   2   3   2   61.19    3.91
   2   3   2   70.44    4.12
  -2  -3  -3 2506.72   45.30
  -2  -3  -3 2557.37   44.81
   2   3   3 2567.97   44.75
   2   3   3 2479.41   44.98
   2   3   3 2523.78   44.80
   2   3   3 2542.16   45.04
   2   3   3 2604.42   51.43
   2   3   3 2651.01   48.20
  -2  -3  -3 2502.78   47.90
  -2  -3  -3 2533.16   44.68
   2   3   4  395.59   11.47
  -2  -3  -4  413.14   11.34
   2   3   4  380.25    9.64
  -2  -3  -4  397.99    9.76
   2   3   4  395.72   11.22
  -2  -3  -4  383.58   11.66
  -2  -3  -4  401.53   12.92
   2   3   5  238.64    6.43
  -2  -3  -5  247.80    9.54
  -2  -3  -5  245.07    9.03
   2   3   5  255.92    9.48
  -2  -3  -5  242.03    9.90
   2   3   5  242.52    8.99
  -2  -3  -6 2399.62   46.86
   2   3   6 2385.82   45.56
   2   3   6 2313.63   38.64
  -2  -3  -6 2376.68   46.66
  -2  -3  -7  904.57   23.10
   2   3   7  845.08   22.43
  -2  -3  -7  904.03   23.97
  -2  -3  -8  396.03   14.15
  -2  -3  -8  375.04   14.89
   2   3   8  401.20   14.56
  -2  -3  -9  278.56   13.33
   2   3   9  283.33   12.72
  -2  -3  -9  289.74   12.08
  -2  -3 -10  165.33   10.55
   2   3  10  157.22    9.87
  -2  -3 -10  181.36    9.60
  -2  -3 -11   84.80    8.10
  -2  -3 -11   91.61    7.12
   2   3  11   80.07    7.42
  -2  -3 -11   96.10    9.91
  -2  -3 -12 1115.60   33.93
  -2  -3 -12 1088.43   37.28
  -2  -3 -12 1145.58   29.78
   2   3  12 1100.17   32.44
  -2  -3 -13  197.68   13.41
  -2  -3 -13  194.33   10.71
  -2  -3 -13  223.89   16.15
   2   3  13  187.98   12.49
  -2  -3 -14  208.68   14.39
  -2  -3 -14  214.21   11.70
  -2  -3 -14  224.72   16.60
   2   3  14  198.36   13.46
   2   3  15  106.51   10.54
  -2  -3 -15  117.57   12.69
  -2  -3 -15  109.58   10.95
  -2  -3 -16   34.83    7.40
  -2  -3 -16   40.95    7.73
   2   3  16   37.49    7.42
  -2  -3 -17  448.54   24.26
  -2  -3 -17  405.30   24.75
   2   3  17  458.14   23.50
  -2  -3 -18  487.77   26.30
   2   3  18  492.54   25.37
  -2  -3 -18  479.17   27.41
  -2  -3 -19    3.11    4.79
  -2  -3 -19   -5.85    5.46
   2   3  19   11.33    5.24
  -2  -3 -20   30.31    8.95
  -2  -3 -21   92.99   13.74
   2   4 -16  317.82   19.55
  -2  -4  16  318.31   27.92
   2   4 -15    5.45    4.50
   2   4 -15   -4.14    4.15
  -2  -4  15    4.69    4.15
  -2  -4  15    4.25    8.29
  -2  -4  14   68.87   12.85
   2   4 -14   65.82    8.73
   2   4 -14   61.89    8.05
  -2  -4  14   61.42    7.82
  -2  -4  13    2.70    6.18
   2   4 -13   -0.41    2.97
   2   4 -13    1.59    4.01
  -2  -4  13    8.55    3.83
   2   4 -12  553.86   23.57
   2   4 -12  530.26   21.91
  -2  -4  12  580.62   21.82
  -2  -4  12  554.12   33.26
   2   4 -11    2.79    3.05
   2   4 -11    4.63    3.67
  -2  -4  11    4.85    2.84
  -2  -4  11    8.36    5.31
  -2  -4  10  110.48   14.30
   2   4 -10  124.86    9.11
  -2  -4  10  125.82    8.64
   2   4 -10  118.13    9.96
   2   4  -9    1.07    1.96
   2   4  -9   -2.79    3.31
  -2  -4   9    1.92    1.72
  -2  -4   9    1.88    5.06
   2   4  -8  166.22   11.19
   2   4  -8  170.86    9.50
  -2  -4   8  183.25   16.00
  -2  -4   8  171.70    9.07
   2   4  -7   16.30    2.95
   2   4  -7   16.60    3.96
  -2  -4   7   15.96    2.73
  -2  -4   7   22.69    6.67
   2   4  -6 1431.26   30.77
   2   4  -6 1398.44   35.37
  -2  -4   6 1374.00   43.95
   2   4  -6 1328.82   24.65
  -2  -4   6 1393.30   30.53
  -2  -4   6 1359.52   27.09
  -2  -4   6 1381.11   29.49
  -2  -4   5  471.01   14.93
   2   4  -5  440.26   16.96
  -2  -4   5  457.91   14.04
   2   4  -5  444.15   10.93
  -2  -4   5  434.33   21.90
   2   4  -5  457.40   13.44
  -2  -4   5  435.73   12.52
  -2  -4   4   68.72    6.09
   2   4  -4   73.06    4.03
  -2  -4   4   76.24    5.31
   2   4  -4   69.45    4.26
  -2  -4   4   70.43    3.92
   2   4  -4   65.12    6.21
  -2  -4   4   76.47    8.97
  -2  -4   3  618.24   18.73
   2   4  -3  643.27   14.69
  -2  -4   3  646.08   17.83
  -2  -4   3  633.25   18.38
   2   4  -3  651.25   15.51
   2   4  -3  614.88   19.55
  -2  -4   3  620.96   13.41
  -2  -4   3  675.48   25.15
  -2  -4   2  740.87   19.58
  -2  -4   2  746.71   18.09
  -2  -4   2  676.77   13.49
   2   4  -2  808.59   16.04
   2   4  -2  768.94   17.94
   2   4  -2  767.80   21.32
  -2  -4   2  774.06   20.50
  -2  -4   2  742.16   25.90
  -2  -4   1   66.22    4.64
  -2  -4   1   62.35    4.81
   2   4  -1   61.20    3.72
   2   4  -1   65.10    4.52
  -2  -4   1   72.59    5.25
   2   4  -1   66.26    3.39
  -2  -4   1   79.21    8.00
   2   4  -1   74.76    5.78
  -2  -4   0 2948.68   53.96
  -2  -4   0 2852.74   48.44
   2   4   0 2817.20   55.12
   2   4   0 3033.91   53.89
  -2  -4   0 2914.20   61.29
  -2  -4   0 2908.56   54.67
   2   4   0 2812.83   68.78
   2   4   0 2967.59   55.04
   2   4   0 2833.40   49.29
   2   4   1 1114.45   25.09
   2   4   1 1074.61   34.92
  -2  -4  -1 1138.84   25.51
   2   4   1 1073.71   20.76
   2   4   1 1006.73   22.08
  -2  -4  -1 1079.89   30.00
  -2  -4  -2 1194.15   21.52
   2   4   2 1204.68   26.22
  -2  -4  -2 1154.43   31.26
   2   4   2 1159.49   22.93
   2   4   2 1143.09   25.89
  -2  -4  -2 1241.39   26.24
   2   4   2 1114.77   34.88
   2   4   2 1158.84   21.19
   2   4   2 1137.43   21.59
  -2  -4  -2 1147.67   26.97
   2   4   3   90.19    4.71
   2   4   3   92.78    4.14
  -2  -4  -3   93.59    6.03
   2   4   3   81.33    4.95
   2   4   3   82.99    5.04
   2   4   3   86.75    8.72
  -2  -4  -3   81.16    5.92
  -2  -4  -3   98.25    7.97
  -2  -4  -3   88.21    4.14
   2   4   4   87.67    4.55
   2   4   4  100.69    5.53
   2   4   4   85.49    4.73
  -2  -4  -4   88.32    5.78
   2   4   4   91.15    4.82
   2   4   4   94.64    8.97
  -2  -4  -4   82.86    6.12
  -2  -4  -4   90.00    4.75
   2   4   5   54.92    4.08
  -2  -4  -5   52.40    4.95
  -2  -4  -5   54.61    4.86
   2   4   5   58.08    3.63
   2   4   5   62.88    3.72
  -2  -4  -5   58.29    4.26
   2   4   6  328.78    9.08
  -2  -4  -6  335.28   12.89
   2   4   6  338.47    9.19
   2   4   6  318.66   11.34
  -2  -4  -6  310.64   12.66
   2   4   7   79.37    3.61
  -2  -4  -7   84.12    6.60
  -2  -4  -7   83.49    6.44
   2   4   7   73.41    5.45
   2   4   7   73.46    3.45
  -2  -4  -8 3133.92   62.73
   2   4   8 3030.13   50.94
  -2  -4  -8 3208.22   61.82
   2   4   8 3096.95   60.17
   2   4   8 3105.24   51.15
  -2  -4  -9    1.73    2.42
  -2  -4  -9    1.44    2.30
   2   4   9    4.32    2.81
  -2  -4 -10  552.28   20.82
   2   4  10  518.38   18.97
  -2  -4 -10  539.99   18.91
  -2  -4 -11   11.63    3.83
   2   4  11   17.10    3.89
  -2  -4 -11   16.34    3.54
  -2  -4 -12   30.39    4.66
  -2  -4 -12   25.25    5.33
   2   4  12   31.44    5.14
  -2  -4 -13  147.07    9.93
  -2  -4 -13  118.30   10.65
   2   4  13  124.35   10.20
  -2  -4 -13  126.14   13.21
  -2  -4 -14  160.91   12.77
  -2  -4 -14  168.34   15.36
   2   4  14  139.56   11.14
  -2  -4 -15  112.34   11.18
  -2  -4 -15   87.98   11.80
   2   4  15  108.42   10.42
  -2  -4 -16 1045.79   38.01
   2   4  16 1009.56   35.49
  -2  -4 -16 1008.08   41.50
   2   4  17   27.88    6.47
  -2  -4 -17   29.72    8.11
  -2  -4 -17   24.66    7.07
   2   4  18  146.19   13.75
  -2  -4 -18  140.22   15.62
  -2  -4 -18  140.72   14.26
   2   4  19   90.00   11.26
  -2  -4 -19   92.45   12.18
  -2  -4 -19   82.97   12.23
  -2  -4 -20    7.99    7.10
  -2  -4 -21   52.75   11.16
   2   5 -15    2.78    3.96
  -2  -5  15   -3.55    6.87
   2   5 -14  157.14   13.63
  -2  -5  14  183.80   20.91
   2   5 -13   37.09    7.12
   2   5 -13   39.76    6.39
  -2  -5  13   45.41   11.52
  -2  -5  12  570.84   35.95
   2   5 -12  599.99   25.96
   2   5 -12  594.52   23.47
  -2  -5  12  617.09   22.47
   2   5 -11   34.50    5.58
   2   5 -11   40.94    6.83
  -2  -5  11   32.27    4.40
  -2  -5  11   35.43    9.54
  -2  -5  10   -3.46    3.05
   2   5 -10    5.86    2.48
   2   5 -10    5.91    3.80
  -2  -5  10   13.40    6.90
   2   5  -9   74.45    6.79
   2   5  -9   64.31    7.88
  -2  -5   9   74.65    6.17
  -2  -5   9   72.49   11.80
   2   5  -8 1467.56   35.23
   2   5  -8 1446.16   40.05
  -2  -5   8 1444.37   33.10
  -2  -5   8 1355.09   50.16
   2   5  -7  782.75   26.74
  -2  -5   7  793.09   34.80
   2   5  -7  758.63   21.59
  -2  -5   7  746.08   19.29
  -2  -5   7  760.27   20.08
  -2  -5   6  735.70   21.20
   2   5  -6  741.50   19.85
  -2  -5   6  698.21   17.81
   2   5  -6  656.66   15.82
   2   5  -6  694.47   24.45
  -2  -5   6  738.16   32.06
   2   5  -5   23.35    3.09
   2   5  -5   23.68    4.65
  -2  -5   5   20.98    4.00
  -2  -5   5   19.03    2.18
  -2  -5   5   22.02    4.54
   2   5  -5   20.78    2.47
  -2  -5   5   18.43    5.87
   2   5  -4  324.14   10.72
  -2  -5   4  312.72    8.73
  -2  -5   4  319.97   12.10
   2   5  -4  326.23   14.85
  -2  -5   4  335.41   15.15
   2   5  -4  325.77   10.73
  -2  -5   4  315.43   19.26
  -2  -5   4  318.15   16.30
  -2  -5   3  670.43   23.05
  -2  -5   3  638.97   13.18
   2   5  -3  694.15   22.21
  -2  -5   3  724.77   23.28
   2   5  -3  696.45   16.78
  -2  -5   3  682.19   27.95
  -2  -5   3  701.21   19.05
   2   5  -2 1262.22   31.91
  -2  -5   2 1195.82   28.97
  -2  -5   2 1210.29   31.90
   2   5  -2 1268.16   26.26
  -2  -5   2 1196.39   37.72
  -2  -5   1 3016.10   67.49
   2   5  -1 3012.60   59.56
   2   5  -1 2881.19   54.29
  -2  -5   1 2939.20   51.12
  -2  -5   1 2969.47   59.49
   2   5   0 2675.16   72.81
   2   5   0 2828.71   56.64
   2   5   0 2823.73   55.67
  -2  -5   0 2851.97   57.12
  -2  -5   0 2841.39   63.93
  -2  -5  -1  309.16   15.93
   2   5   1  278.18    9.89
   2   5   1  302.56   12.19
  -2  -5  -1  299.94   12.18
   2   5   1  318.93   19.82
   2   5   1  302.73   14.69
  -2  -5  -1  298.24   12.83
  -2  -5  -2   18.85    1.63
   2   5   2   23.17    2.74
  -2  -5  -2   19.35    3.35
  -2  -5  -2   19.83    3.37
   2   5   2   15.16    5.66
   2   5   2   19.68    1.44
   2   5   2   16.89    3.08
  -2  -5  -2   26.13    5.26
   2   5   3 1468.19   26.81
   2   5   3 1407.82   31.51
   2   5   3 1341.99   43.03
  -2  -5  -3 1457.06   34.02
   2   5   3 1391.34   29.87
  -2  -5  -3 1466.94   35.15
  -2  -5  -3 1436.26   38.91
  -2  -5  -4  626.58   19.78
   2   5   4  635.50   17.20
   2   5   4  618.33   17.28
   2   5   4  621.16   26.54
   2   5   4  611.49   14.97
   2   5   5 1632.44   33.60
   2   5   5 1633.40   46.82
  -2  -5  -5 1619.75   38.81
   2   5   5 1631.86   32.72
  -2  -5  -5 1638.11   37.99
  -2  -5  -6 2802.93   57.81
   2   5   6 2703.22   50.72
   2   5   6 2686.01   50.07
   2   5   6 2686.72   51.82
   2   5   6 2890.71   51.15
  -2  -5  -6 2739.12   56.75
  -2  -5  -7   17.32    3.64
   2   5   7   14.46    2.26
  -2  -5  -7   14.39    3.14
   2   5   7   15.85    2.84
   2   5   7   21.01    2.53
   2   5   7   17.65    2.95
  -2  -5  -8   44.50    5.33
   2   5   8   52.95    4.85
   2   5   8   48.78    3.44
  -2  -5  -8   51.71    6.16
   2   5   8   52.73    3.51
   2   5   8   45.34    4.89
  -2  -5  -9   46.47    5.99
  -2  -5  -9   56.87    5.97
   2   5   9   53.40    3.24
   2   5   9   50.68    3.16
   2   5   9   46.91    5.14
   2   5  10  372.30    9.04
   2   5  10  341.43    8.79
   2   5  10  360.42   15.47
  -2  -5 -10  376.29   16.24
  -2  -5 -10  388.81   17.82
  -2  -5 -11   16.16    4.09
   2   5  11   13.97    3.75
  -2  -5 -11    5.05    3.42
  -2  -5 -12 1595.72   44.98
   2   5  12 1682.16   42.78
  -2  -5 -13   40.93    6.63
   2   5  13   41.72    6.50
   2   5  14   48.09    6.88
  -2  -5 -14   43.67    7.15
  -2  -5 -15    4.43    4.63
   2   5  15   -0.33    3.28
  -2  -5 -15    2.65    5.49
  -2  -5 -16  339.17   23.80
   2   5  16  353.52   19.78
  -2  -5 -16  354.74   21.45
  -2  -5 -17   34.35    9.26
  -2  -5 -17   26.44    7.04
   2   5  17   23.41    6.00
   2   5  18  113.94   12.44
  -2  -5 -18  113.67   13.10
  -2  -5 -18  134.36   16.08
  -2  -5 -19   20.06    7.42
   2   5  19   10.89    5.17
  -2  -5 -19    7.58    5.20
  -2  -5 -20   62.65   11.80
   2   6 -15    8.92    5.46
  -2  -6  14   58.40   13.76
   2   6 -14   61.79    9.21
   2   6 -13    0.66    3.82
  -2  -6  13    5.26    7.59
   2   6 -12   40.43    7.51
  -2  -6  12   45.06   11.64
   2   6 -11   44.66    7.41
  -2  -6  11   46.37   11.56
   2   6 -10  256.14   16.65
   2   6 -10  259.08   13.82
  -2  -6  10  274.05   23.79
   2   6  -9    7.06    3.44
   2   6  -9    8.16    4.46
  -2  -6   9    8.17    6.60
   2   6  -8  474.82   22.05
   2   6  -8  466.04   17.34
  -2  -6   8  435.20   28.44
   2   6  -7    5.78    2.48
   2   6  -7    0.99    3.20
  -2  -6   7    6.75    2.35
  -2  -6   7   17.66    6.74
  -2  -6   7    4.02    1.90
   2   6  -6   18.76    3.16
  -2  -6   6   15.75    3.97
  -2  -6   6   24.14    7.90
   2   6  -6   16.47    4.74
  -2  -6   6   20.55    2.71
   2   6  -5   67.30    5.32
   2   6  -5   80.37    8.31
  -2  -6   5   69.87    4.00
  -2  -6   5   75.44    9.15
  -2  -6   5   85.09   11.34
   2   6  -4  901.29   28.43
  -2  -6   4  843.02   22.88
  -2  -6   4  876.71   35.35
  -2  -6   4  815.62   31.35
  -2  -6   3  564.21   17.96
   2   6  -3  616.24   22.22
   2   6  -3  589.90   16.83
  -2  -6   3  592.18   24.66
  -2  -6   3  587.47   27.45
  -2  -6   2  946.94   22.15
   2   6  -2  995.28   29.19
   2   6  -2  966.42   23.78
  -2  -6   2 1007.71   35.78
  -2  -6   2  963.84   30.95
   2   6  -1  105.21    8.59
  -2  -6   1  101.34   10.55
   2   6  -1  106.59    6.83
  -2  -6   1  110.07    9.01
   2   6   0    9.52    3.19
  -2  -6   0   13.16    3.93
   2   6   0    8.32    2.70
  -2  -6   0   10.48    4.39
   2   6   1  797.79   22.42
   2   6   1  841.79   24.52
   2   6   1  856.40   27.34
  -2  -6  -1  851.17   26.50
   2   6   1  791.12   36.57
  -2  -6  -1  812.39   29.74
   2   6   2  111.45    7.75
  -2  -6  -2  105.58    4.73
   2   6   2   99.46   12.96
   2   6   2  114.87   10.73
  -2  -6  -2  113.53    8.66
  -2  -6  -2  106.09   10.01
   2   6   2   94.23    6.44
   2   6   3  905.38   17.92
   2   6   3  891.03   24.57
   2   6   3  933.48   37.38
  -2  -6  -3  934.53   27.81
  -2  -6  -3  887.36   30.70
  -2  -6  -3  832.73   19.99
   2   6   4 2202.27   46.17
   2   6   4 2202.09   38.39
   2   6   4 2100.90   61.53
  -2  -6  -4 2274.17   56.03
  -2  -6  -4 2170.82   50.73
   2   6   4 2214.56   40.42
   2   6   5    1.70    1.15
   2   6   5   -1.05    4.18
  -2  -6  -5    0.86    2.61
   2   6   5    1.57    1.93
   2   6   5    0.48    1.36
   2   6   6  664.68   19.18
   2   6   6  611.54   29.31
  -2  -6  -6  661.71   23.91
   2   6   6  666.43   16.80
   2   6   6  660.01   18.19
   2   6   7  579.95   17.17
   2   6   7  609.39   15.24
   2   6   7  593.45   27.97
  -2  -6  -7  569.68   22.26
   2   6   7  585.27   17.70
  -2  -6  -8  194.51   12.85
   2   6   8  180.34    9.04
   2   6   8  185.68    8.41
   2   6   8  224.09   16.95
   2   6   8  181.68    9.60
   2   6   9  239.93   12.35
  -2  -6  -9  261.06   15.35
   2   6   9  259.23    9.69
   2   6   9  262.30   12.54
   2   6  10  988.11   29.38
  -2  -6 -10 1012.99   33.25
   2   6  10  978.96   22.24
   2   6  10 1031.94   29.06
  -2  -6 -11   63.84    7.97
   2   6  11   52.70    6.47
   2   6  11   64.62    6.72
  -2  -6 -12    3.65    3.15
   2   6  12    3.47    3.04
   2   6  12    7.82    3.42
   2   6  13    0.93    2.47
  -2  -6 -13    6.93    3.76
   2   6  13    7.70    3.66
  -2  -6 -14  437.04   23.38
   2   6  14  427.79   20.54
  -2  -6 -15    7.55    4.77
   2   6  15    5.69    3.89
   2   6  16  902.20   33.70
  -2  -6 -16  915.93   37.32
  -2  -6 -17   22.90    7.18
   2   6  17   18.93    6.00
  -2  -6 -17   24.11    6.19
  -2  -6 -17   20.87    8.27
  -2  -6 -18    1.11    3.74
  -2  -6 -18   -1.13    4.80
   2   6  18   12.52    5.38
  -2  -6 -18    7.19    6.28
  -2  -6 -19    4.43    4.68
   2   6  19    8.82    4.86
  -2  -6 -19   17.26    7.40
  -2  -6 -20  145.64   18.05
   2   7 -14  233.09   18.55
   2   7 -13  110.20   12.54
   2   7 -12  150.82   14.46
  -2  -7  12  177.79   21.83
  -2  -7  11   34.63   10.90
   2   7 -11   25.96    6.58
   2   7 -10   38.58    7.68
  -2  -7  10   41.36   10.84
   2   7  -9    6.98    3.71
  -2  -7   9    6.04    6.68
   2   7  -8   94.35   10.23
  -2  -7   8   81.92   13.26
   2   7  -7   91.40   10.03
  -2  -7   7  106.19   14.69
  -2  -7   6   85.02    9.47
   2   7  -6   90.85    9.73
   2   7  -6   82.92    6.58
  -2  -7   6   87.07   12.83
   2   7  -5  311.93   12.55
  -2  -7   5  341.94   21.12
   2   7  -5  314.83   17.35
  -2  -7   5  367.22   24.11
   2   7  -4  238.45   14.70
   2   7  -4  220.74   10.53
  -2  -7   4  238.50   19.11
  -2  -7   4  247.94   18.32
  -2  -7   3  237.86   18.51
  -2  -7   3  245.94   17.73
   2   7  -3  266.57   11.52
   2   7  -3  253.90   14.94
  -2  -7   2 1269.90   40.71
   2   7  -2 1203.35   35.82
   2   7  -2 1193.73   29.93
  -2  -7   2 1238.73   43.33
   2   7  -1   52.57    6.73
   2   7  -1   52.52    5.46
  -2  -7   1   57.00    7.93
  -2  -7   1   53.83    8.47
   2   7   0   93.18    8.39
   2   7   0   91.13    7.50
  -2  -7   0  102.12    9.66
  -2  -7   0   96.30   10.96
   2   7   1  197.31   11.92
   2   7   1  198.57   12.65
  -2  -7  -1  240.42   16.40
  -2  -7  -1  220.48   13.79
   2   7   2   12.79    3.65
  -2  -7  -2    7.49    3.61
   2   7   2   12.95    7.40
  -2  -7  -2    8.96    1.85
   2   7   2   13.12    4.64
  -2  -7  -2   10.80    3.79
   2   7   3  276.98    7.33
   2   7   3  289.41   13.83
  -2  -7  -3  271.66   10.58
   2   7   3  260.95   21.75
   2   7   3  287.18   18.68
  -2  -7  -3  303.98   16.18
  -2  -7  -3  259.65   16.96
   2   7   4 2118.82   47.72
   2   7   4 2078.50   65.74
   2   7   4 2095.09   59.14
  -2  -7  -4 2180.51   53.12
   2   7   4 2148.45   39.19
  -2  -7  -4 2080.42   56.58
   2   7   5  179.10    7.59
   2   7   5  192.61   10.69
   2   7   5  182.40   17.07
   2   7   5  166.67    6.20
  -2  -7  -5  189.02   12.85
   2   7   6  197.84   10.66
   2   7   6  220.26   18.63
  -2  -7  -6  196.47   13.13
   2   7   6  196.64    8.87
   2   7   7  121.86    7.97
   2   7   7  119.37   14.18
  -2  -7  -7  120.83   10.46
   2   7   7  119.47    7.27
   2   7   8   25.46    3.71
   2   7   8   24.56    3.70
  -2  -7  -8   28.18    5.36
   2   7   8   28.35    8.11
   2   7   9  165.44    8.35
   2   7   9  166.99   16.51
   2   7   9  165.93    8.81
  -2  -7  -9  171.22   12.93
   2   7   9  158.59    9.80
   2   7  10 1234.62   32.16
   2   7  10 1257.17   29.41
   2   7  10 1271.83   47.41
  -2  -7 -10 1269.02   39.66
   2   7  10 1278.31   33.97
   2   7  11  185.79   11.76
  -2  -7 -11  172.14   14.31
  -2  -7 -11  178.46   13.62
   2   7  11  173.26   11.49
  -2  -7 -12  450.26   23.94
  -2  -7 -12  485.53   23.35
   2   7  12  441.85   19.56
  -2  -7 -13   15.93    5.75
   2   7  13   24.46    5.38
  -2  -7 -13   24.86    6.09
  -2  -7 -14   95.44   10.72
  -2  -7 -14   82.91   10.89
   2   7  14   83.23    9.14
  -2  -7 -15   16.18    5.37
  -2  -7 -15    7.40    4.87
   2   7  15   15.23    5.24
  -2  -7 -16   13.93    5.10
  -2  -7 -16   10.76    5.91
   2   7  16   14.09    4.77
  -2  -7 -17   18.33    5.83
  -2  -7 -17    5.40    5.55
   2   7  17   15.25    5.22
  -2  -7 -18  323.29   23.98
  -2  -7 -18  317.45   21.25
   2   7  18  314.01   20.34
  -2  -7 -18  306.56   25.00
  -2  -7 -19   11.02    5.60
  -2  -7 -19  -13.04    8.68
  -2  -7 -20  296.58   21.28
   2   8 -11   -5.44    5.34
   2   8 -10  287.72   19.83
  -2  -8  10  353.86   29.48
  -2  -8   9  109.10   16.80
   2   8  -9   93.39   11.26
  -2  -8   8   53.17   11.12
   2   8  -8   60.83    9.31
  -2  -8   7  202.68   20.92
   2   8  -7  195.44   15.44
   2   8  -6    2.51    4.07
  -2  -8   6   16.62    8.32
  -2  -8   5   63.85   10.85
   2   8  -5   68.02    8.99
  -2  -8   5   71.23   12.36
   2   8  -4  692.44   27.78
  -2  -8   4  654.32   34.01
  -2  -8   4  634.63   33.58
   2   8  -3  674.19   27.46
  -2  -8   3  641.63   33.09
   2   8  -3  710.48   22.02
  -2  -8   3  704.76   34.19
   2   8  -2  254.45   15.89
   2   8  -2  253.83   12.50
  -2  -8   2  279.17   20.54
  -2  -8   2  295.80   20.53
   2   8  -1  919.68   31.13
   2   8  -1  894.63   26.82
  -2  -8   1  892.55   35.69
  -2  -8   1  901.73   37.35
   2   8   0  185.37   12.92
  -2  -8   0  189.33   16.39
   2   8   0  182.08   11.53
  -2  -8   0  192.51   14.82
  -2  -8  -1   -0.98    4.64
   2   8   1   13.85    4.57
  -2  -8  -1    6.04    3.75
   2   8   1   14.87    4.55
   2   8   2 1621.11   42.68
   2   8   2 1580.64   46.30
  -2  -8  -2 1639.01   47.17
  -2  -8  -2 1615.49   50.54
   2   8   3  912.02   29.09
  -2  -8  -3  898.71   32.65
   2   8   3  844.88   43.17
   2   8   3  915.84   35.84
  -2  -8  -3  909.79   35.59
   2   8   4 1167.11   33.37
  -2  -8  -4 1128.76   37.69
   2   8   4 1148.92   49.74
   2   8   4 1139.91   43.36
  -2  -8  -4 1126.06   40.40
  -2  -8  -5   52.19    7.47
   2   8   5   50.57   10.49
   2   8   5   59.30    9.98
   2   8   5   49.71    3.87
   2   8   5   48.51    6.18
   2   8   6  363.12   16.25
   2   8   6  330.84   25.02
  -2  -8  -6  353.56   19.73
   2   8   6  358.55   12.38
   2   8   7  104.57    8.36
   2   8   7   96.06   14.14
  -2  -8  -7  116.91   11.26
   2   8   7  107.78    7.05
   2   8   8  811.58   24.96
   2   8   8  826.94   23.46
   2   8   8  824.86   40.06
  -2  -8  -8  752.96   30.61
   2   8   9  380.97   15.71
   2   8   9  399.04   16.10
   2   8   9  411.31   27.47
  -2  -8  -9  404.70   21.74
   2   8  10  650.76   20.87
   2   8  10  679.31   35.65
  -2  -8 -10  665.88   28.67
   2   8  10  624.16   22.22
  -2  -8 -11    3.12    3.97
   2   8  11    7.33    6.85
   2   8  11    7.47    3.10
   2   8  12   36.55    9.41
  -2  -8 -12   32.38    6.43
   2   8  12   41.72    6.12
  -2  -8 -13  185.54   15.27
   2   8  13  182.03   13.06
   2   8  13  186.65   19.00
   2   8  14  567.88   33.11
  -2  -8 -14  535.88   26.97
   2   8  14  486.60   22.74
   2   8  15  101.78   10.57
  -2  -8 -15  103.92   12.11
  -2  -8 -16  135.56   13.98
   2   8  16  113.17   11.61
   2   8  17    3.09    3.98
  -2  -8 -17   -0.01    4.26
  -2  -8 -18    3.26    4.90
   2   8  18   17.78    5.84
   2   9  -9   66.06   10.21
   2   9  -8  169.69   15.63
  -2  -9   8  163.20   20.26
   2   9  -7   15.05    6.03
  -2  -9   7    7.95    7.68
   2   9  -6  142.91   13.69
  -2  -9   6  156.35   18.31
   2   9  -5   57.98    8.83
  -2  -9   5   46.45   10.36
   2   9  -4  143.28   13.38
  -2  -9   4  132.66   16.78
  -2  -9   4  154.25   17.15
  -2  -9   3    2.79    5.32
  -2  -9   3   -1.73    5.17
   2   9  -3    0.66    3.52
   2   9  -2   88.48   10.00
  -2  -9   2   94.88   13.27
  -2  -9   2  107.55   14.88
   2   9  -1    2.96    2.57
   2   9  -1    8.41    4.31
  -2  -9   1   15.44    7.35
  -2  -9   1    7.87    5.32
   2   9   0   58.28    7.91
  -2  -9   0   66.06   10.08
   2   9   0   71.45    7.66
  -2  -9   0   72.48   11.04
  -2  -9  -1   85.87   11.44
   2   9   1   82.72    9.01
  -2  -9  -1   76.35   10.41
   2   9   1   73.44    8.27
   2   9   2  512.10   22.98
   2   9   2  514.11   24.16
  -2  -9  -2  552.31   28.80
  -2  -9  -2  532.66   26.99
  -2  -9  -3    9.55    4.54
  -2  -9  -3    8.19    4.19
   2   9   3    4.73    4.31
   2   9   3   15.96    4.82
  -2  -9  -4   28.18    6.52
   2   9   4   25.66   10.04
   2   9   4   27.07    5.42
   2   9   4   26.44    7.50
  -2  -9  -4   28.89    7.35
   2   9   5    7.95    3.19
   2   9   5    7.38    8.12
  -2  -9  -5   11.62    4.63
   2   9   5    3.02    4.71
   2   9   6  179.88   12.23
   2   9   6  188.77   18.55
  -2  -9  -6  219.77   16.64
   2   9   6  203.89   21.60
   2   9   7   11.71    3.51
  -2  -9  -7   21.58    5.89
   2   9   7   17.49    8.85
   2   9   7   22.36    7.72
   2   9   8  524.88   21.08
   2   9   8  504.03   33.11
  -2  -9  -8  519.33   26.41
   2   9   9   56.03    6.46
  -2  -9  -9   62.48    9.85
   2   9   9   56.25   12.46
  -2  -9 -10   34.37    7.32
   2   9  10   36.82   11.68
  -2  -9 -11    1.57    3.89
   2   9  11    5.57    6.26
   2   9  11    0.72    2.63
   2   9  12  246.62   14.35
   2   9  12  285.46   24.29
  -2  -9 -12  280.05   20.03
  -2  -9 -13   24.17    6.47
   2   9  13   28.64    9.65
   2   9  13   29.10    5.65
   2   9  14  141.62   18.06
  -2  -9 -14  158.27   15.19
   2   9  14  141.54   11.91
  -2  -9 -15    9.69    6.29
   2   9  15   -0.81    5.78
   2   9  15   -0.16    3.84
  -2  -9 -16   67.56   10.86
   2   9  16   84.91   14.81
   2   9  16   65.51    8.87
   2   9  17   37.26   10.11
   2   9  17    9.63    4.60
   2  10  -6    8.85    5.26
   2  10  -5  113.73   12.92
  -2 -10   5   86.62   14.47
   2  10  -4  307.54   21.15
  -2 -10   4  362.44   27.79
   2  10  -3   31.10    7.21
  -2 -10   3   18.00    7.42
   2  10  -2   10.50    4.68
  -2 -10   2   19.87    9.66
  -2 -10   2    8.25    6.67
  -2 -10   1    1.02    5.88
   2  10  -1    9.41    4.46
  -2 -10   1    5.75    4.73
   2  10   0  141.63   13.22
  -2 -10   0  151.31   17.13
  -2 -10   0  121.27   14.75
  -2 -10  -1   95.88   13.44
   2  10   1  107.51   10.43
  -2 -10  -1  103.49   13.65
   2  10   1  116.87   11.83
  -2 -10  -2  700.32   34.91
   2  10   2  726.54   29.94
  -2 -10  -2  726.11   35.68
   2  10   2  698.21   29.32
   2  10   3   84.25   10.06
   2  10   3   59.78    9.27
  -2 -10  -3   71.35   11.17
  -2 -10  -3   69.33   10.99
   2  10   4   25.43    5.85
  -2 -10  -4   12.87    5.51
   2  10   4   33.79    7.86
  -2 -10  -4   30.41    8.36
   2  10   5  201.29   14.28
   2  10   5  205.65   19.03
  -2 -10  -5  212.00   17.94
   2  10   6   92.96    9.79
   2  10   6  103.38   16.91
  -2 -10  -6   77.34   10.78
   2  10   6   91.22   13.37
  -2 -10  -7  107.68   12.98
   2  10   7   97.76    9.91
   2  10   7  104.00   14.96
   2  10   7  106.55   16.59
  -2 -10  -8  704.39   33.69
   2  10   8  732.51   42.15
   2  10   8  707.22   39.30
   2  10   8  724.22   27.21
  -2 -10  -9  133.33   14.84
   2  10   9  127.15   17.88
   2  10   9  154.81   18.25
  -2 -10 -10   37.53    8.27
   2  10  10   31.88    9.80
   2  10  10   35.96   11.05
   2  10  11  250.09   24.03
  -2 -10 -11  251.38   19.95
   2  10  12    8.63    8.53
  -2 -10 -12   19.75    6.42
   2  10  13   89.78   15.60
  -2 -10 -13   66.42   11.17
   2  10  14  309.74   26.48
  -2 -10 -14  310.88   23.14
   2  10  15   77.31   14.13
   2  11  -2   10.72    5.99
   2  11  -1  203.92   17.23
  -2 -11   1  201.73   20.96
  -2 -11   1  175.18   21.02
   2  11   0  624.36   30.21
  -2 -11   0  640.50   36.04
  -2 -11   0  580.43   37.58
  -2 -11  -1  131.84   17.73
   2  11   1  134.28   13.71
  -2 -11  -1  109.12   15.29
  -2 -11  -2   24.57    8.26
   2  11   2   15.00    6.29
  -2 -11  -2   -0.82    6.50
   2  11   3  122.44   12.66
  -2 -11  -3  153.98   16.81
  -2 -11  -3  140.74   16.48
  -2 -11  -4   -0.75    5.21
   2  11   4    1.40    3.91
  -2 -11  -4   10.81    5.39
   2  11   4    7.51    5.18
   2  11   5   25.18    6.50
  -2 -11  -5   32.78    9.31
   2  11   5   25.97    8.37
   2  11   6  834.76   32.51
   2  11   6  817.13   41.26
  -2 -11  -6  833.15   39.64
   2  11   7  475.90   23.51
   2  11   7  467.64   32.25
  -2 -11  -7  462.14   29.07
   2  11   8   77.94   16.46
  -2 -11  -8   76.97   12.39
   2  11   8   89.98   15.89
  -2 -11  -9  204.00   19.16
   2  11   9  187.60   23.08
   2  11   9  169.31   20.78
   2  11  10    1.43    6.69
  -2 -11 -10   -0.45    5.17
   2  11  10    9.60    8.18
   2  11  11   12.02    8.41
   2  11  11    4.10    6.60
   2  11  12  268.78   26.16
   2  11  12  302.71   27.06
   2  11  13  222.60   24.77
  -2 -12   0   80.30   16.24
  -2 -12  -1   30.15   11.02
  -2 -12  -2    3.07    5.83
  -2 -12  -3   -2.57    5.37
   2  12   3   -2.85    3.98
   2  12   4   32.41    7.58
   2  12   5   26.23    6.58
   2  12   6  154.51   14.31
   2  12   8  121.93   17.39
   2  12   9   10.95    8.23
   2  12  10   53.23   14.99
   2  12  10   29.85   11.78
   3 -10  -2   -0.37    4.77
   3 -10  -1    7.84    6.39
  -3   9   8    9.97    8.12
   3  -9  -7   -4.06    6.71
  -3   9   7   -2.04    5.36
   3  -9  -6   -4.24    6.66
  -3   9   6   -9.92    7.62
  -3   9   5  166.32   19.42
   3  -9  -5  158.38   20.01
   3  -9  -4  167.97   21.39
  -3   9   4  216.79   21.54
   3  -9  -3   44.91   12.22
  -3   9   3   61.45   11.99
   3  -9  -3   84.58   11.35
   3  -9  -2    3.92    6.02
  -3   9   2    9.76    5.53
   3  -9  -2   -3.71    4.27
   3  -9  -1    8.14    6.61
  -3   9   1   24.41    8.98
   3  -9  -1   15.35    6.79
   3  -9   0    4.94    7.03
  -3   9   0    2.55    3.87
   3  -9   0    2.31    4.29
  -3   9   0   -4.46    6.67
  -3   9  -1   -2.53    5.84
   3  -9   1    1.32    6.45
  -3   9  -1   -1.42    4.52
   3  -9   1    5.96    5.05
   3  -9   2   -0.50    6.61
  -3   9  -2   19.07    6.77
   3  -9   2   26.06    6.95
   3  -9   3  103.96   18.04
  -3   9  -3   90.72   12.65
   3  -9   3   96.91   13.07
   3  -9   4   18.32   10.64
   3  -9   4   25.62    7.91
  -3   9  -4   32.87    8.37
  -3   9  -5   52.16    9.87
  -3   9  -6   41.74    8.80
  -3   8  14    2.74    5.13
  -3   8  13  169.86   17.97
   3  -8 -13  195.80   21.03
  -3   8  12  217.97   19.45
   3  -8 -12  274.49   24.41
   3  -8 -11  184.10   19.70
  -3   8  11  142.70   15.54
  -3   8  11  185.41   20.51
  -3   8  10    1.29    5.12
  -3   8  10   17.96    8.42
   3  -8 -10   20.39    8.47
  -3   8   9  133.38   16.77
   3  -8  -9  125.17   16.59
  -3   8   8   46.15   11.02
   3  -8  -8   48.28   11.61
   3  -8  -7  403.17   28.91
  -3   8   7  396.58   27.78
  -3   8   6  428.99   28.83
   3  -8  -6  400.05   28.87
  -3   8   5  432.25   28.72
   3  -8  -5  360.49   28.75
  -3   8   4    8.77    6.92
   3  -8  -4   11.41    7.04
   3  -8  -3   23.54    9.24
  -3   8   3   35.70    9.98
   3  -8  -3   23.54    6.48
  -3   8   2   97.85   14.59
   3  -8  -2  105.20   11.60
   3  -8  -2   82.81   15.61
   3  -8  -1   85.07   15.21
  -3   8   1  100.78   14.10
   3  -8  -1   89.44   10.95
   3  -8   0  356.48   22.05
   3  -8   0  377.20   30.45
  -3   8   0  329.43   24.17
   3  -8   1  180.09   22.40
  -3   8  -1  184.57   17.25
   3  -8   1  175.83   15.34
  -3   8  -2   -1.00    4.61
   3  -8   2    9.45    5.63
   3  -8   2   15.55    8.51
  -3   8  -2    8.57    5.15
   3  -8   3    4.53    6.91
  -3   8  -3    2.25    4.68
  -3   8  -3  -10.58    5.53
   3  -8   3    4.53    4.02
  -3   8  -4   22.69    7.05
   3  -8   4   12.23    7.50
  -3   8  -4   14.21    5.96
   3  -8   4   12.13    5.65
   3  -8   5   31.27    9.83
  -3   8  -5   36.88    8.86
  -3   8  -5   48.69    8.86
   3  -8   5   23.49    7.65
  -3   8  -6   51.51    9.91
   3  -8   6   52.63   13.21
  -3   8  -6   58.00    9.64
   3  -8   6   52.69   10.04
   3  -8   7  112.31   14.26
   3  -8   7  101.72   16.43
   3  -8   8   -3.10    5.92
   3  -7 -16   18.44    7.41
  -3   7  15   77.68   13.01
   3  -7 -15   81.97   12.85
   3  -7 -14   10.31    5.51
  -3   7  14   23.70    6.70
  -3   7  14   18.05    7.29
  -3   7  13  271.58   20.09
  -3   7  13  267.91   23.86
   3  -7 -13  253.69   21.51
  -3   7  13  236.65   20.59
  -3   7  12   12.33    8.75
   3  -7 -12    7.25    6.18
  -3   7  12    0.31    4.93
  -3   7  11    2.32    5.08
  -3   7  11    4.45    6.96
   3  -7 -11    3.60    5.35
   3  -7 -10    1.07    4.79
  -3   7  10    9.17    7.25
  -3   7   9   60.26   12.17
   3  -7  -9   49.09   10.30
  -3   7   8   99.26   13.74
   3  -7  -8  124.46   15.78
  -3   7   7  378.35   25.93
   3  -7  -7  339.86   25.08
   3  -7  -6  121.08   15.15
  -3   7   6  128.35   15.43
  -3   7   5   11.53    7.06
   3  -7  -5    1.64    4.90
   3  -7  -4   99.19   14.16
  -3   7   4   97.21   13.86
   3  -7  -3   89.68   10.42
   3  -7  -3   93.02   14.19
  -3   7   3   89.02   13.06
   3  -7  -2   38.89    7.35
   3  -7  -2   29.80    8.97
  -3   7   2   46.18    9.76
   3  -7  -1  247.26   22.70
  -3   7   1  229.14   19.56
   3  -7  -1  268.49   17.10
   3  -7   0   76.30   14.51
  -3   7   0   95.74   12.63
   3  -7   0   90.40   10.49
  -3   7  -1  105.48   12.86
   3  -7   1   98.32   16.04
   3  -7   1  102.34   11.30
   3  -7   2    4.49    6.11
   3  -7   2   10.41    5.06
  -3   7  -2   13.34    5.64
  -3   7  -3   30.85    7.74
   3  -7   3   27.03    6.79
   3  -7   3   23.20    8.96
  -3   7  -4  145.06   13.56
   3  -7   4  152.25   14.20
  -3   7  -4  140.76   13.79
   3  -7   4  112.42   17.90
  -3   7  -5   57.04    8.86
   3  -7   5   39.71   11.19
  -3   7  -5   42.24    7.72
   3  -7   5   50.61    9.02
   3  -7   6    3.25    4.23
  -3   7  -6   -4.79    4.43
   3  -7   6   -1.08    5.93
  -3   7  -6    6.24    4.75
  -3   7  -7    9.12    5.27
   3  -7   7   13.11    6.73
   3  -7   7    7.38    4.45
  -3   7  -8   -1.86    3.57
   3  -7   8    2.51    5.37
  -3   7  -9   83.24   11.25
   3  -7   9  111.81   15.06
  -3   7 -10   47.68    9.30
   3  -7  10   48.25   11.27
  -3   7 -11   86.66   11.84
  -3   6  17   64.64   11.42
  -3   6  16    2.00    4.72
  -3   6  15   18.42    6.34
  -3   6  15   21.90    7.24
   3  -6 -15   19.86    6.71
  -3   6  15   23.66    8.25
  -3   6  14   40.36    8.92
   3  -6 -14   40.93    8.62
  -3   6  14   45.70    9.13
  -3   6  14   41.96    9.51
  -3   6  13  271.74   19.63
  -3   6  13  235.69   19.78
  -3   6  13  244.53   21.77
   3  -6 -13  267.70   20.36
   3  -6 -12   75.96   11.46
  -3   6  12   69.63   10.03
  -3   6  12   65.73   10.90
  -3   6  12   72.04   12.19
  -3   6  11   -0.44    4.69
  -3   6  11    3.07    3.65
  -3   6  11    6.50    6.67
   3  -6 -11   -0.17    3.95
  -3   6  10  244.11   17.91
  -3   6  10  270.25   21.90
   3  -6 -10  244.86   19.60
  -3   6   9  129.66   15.55
   3  -6  -9  109.99   13.70
  -3   6   8  158.25   16.27
   3  -6  -8  128.14   14.62
  -3   6   7  847.81   38.00
   3  -6  -7  798.11   35.75
   3  -6  -7  780.51   27.99
   3  -6  -6  422.16   19.32
  -3   6   6  431.91   26.69
   3  -6  -6  440.45   26.35
   3  -6  -5   22.23    4.76
   3  -6  -5   21.38    7.09
  -3   6   5   23.67    7.62
   3  -6  -4  398.05   18.71
  -3   6   4  509.59   28.03
   3  -6  -4  423.67   26.05
   3  -6  -3   44.01    9.34
   3  -6  -3   40.03    5.88
  -3   6   3   33.73    8.59
   3  -6  -3   48.64    6.77
   3  -6  -2   65.97    7.90
   3  -6  -2   75.06    7.64
   3  -6  -2   55.97   10.87
  -3   6   2   83.51   11.84
   3  -6  -1  893.02   40.69
  -3   6   1  727.67   34.51
   3  -6  -1  852.72   29.91
   3  -6  -1  860.83   28.62
   3  -6   0  305.89   16.13
   3  -6   0  299.82   24.79
  -3   6   0  332.92   21.91
   3  -6   0  356.21   18.59
   3  -6   1  380.49   17.20
   3  -6   1  367.93   27.78
  -3   6  -1  379.09   22.62
   3  -6   1  367.89   19.38
   3  -6   2   13.78    4.68
   3  -6   2   26.20    7.96
  -3   6  -2   28.58    6.80
   3  -6   3   43.26   10.87
   3  -6   3   58.07    8.21
  -3   6  -3   48.16    8.17
   3  -6   4   11.69    6.65
  -3   6  -4   11.41    4.52
   3  -6   4    9.89    5.03
  -3   6  -5  323.11   18.48
   3  -6   5  293.84   19.21
   3  -6   5  253.44   23.88
  -3   6  -5  306.81   18.81
  -3   6  -6   72.03    9.19
   3  -6   6   63.62   11.52
  -3   6  -6   71.87    9.67
   3  -6   6   61.34    9.43
  -3   6  -7  121.57   12.32
   3  -6   7  115.03   15.22
   3  -6   7  132.91   13.77
  -3   6  -8   98.46   11.43
   3  -6   8   91.19   11.87
   3  -6   8   99.51   13.44
  -3   6  -9   17.36    5.67
   3  -6   9   11.84    6.34
  -3   6 -10    1.13    4.66
   3  -6  10    6.03    5.80
  -3   6 -11   16.83    6.07
   3  -6  11    8.97    6.70
   3  -6  12    2.57    5.47
  -3   6 -12    6.73    4.59
  -3   6 -12    7.35    4.79
  -3   6 -13   14.40    6.00
  -3   6 -13   16.05    5.88
  -3   5  18    6.54    4.94
  -3   5  17   21.88    7.07
   3  -5 -16   10.23    8.06
  -3   5  16   16.96    5.98
  -3   5  16   17.53    6.96
  -3   5  15  636.03   33.65
   3  -5 -15  681.61   31.30
  -3   5  15  655.13   32.51
  -3   5  14   43.75    9.09
   3  -5 -14   52.09    9.22
  -3   5  14   38.14    8.50
  -3   5  13   66.31    9.95
   3  -5 -13   56.95    9.62
  -3   5  13   46.68    9.05
  -3   5  12   74.52   10.15
   3  -5 -12   77.96   10.60
  -3   5  12   65.08   10.15
  -3   5  11   17.09    5.83
  -3   5  11    9.52    6.00
   3  -5 -11   18.44    5.52
  -3   5  10   23.62    5.76
  -3   5  10   14.66    6.84
   3  -5 -10   21.36    5.77
   3  -5  -9  797.67   33.11
  -3   5   9  697.60   33.71
  -3   5   9  769.37   31.25
   3  -5  -8  722.17   27.46
  -3   5   8  713.31   29.38
  -3   5   8  724.82   34.20
   3  -5  -8  769.76   32.34
  -3   5   7  318.83   21.50
   3  -5  -7  319.80   20.34
   3  -5  -7  300.24   16.70
  -3   5   6  851.44   36.13
   3  -5  -6  796.95   28.18
   3  -5  -6  810.16   33.77
   3  -5  -5   18.49    5.04
   3  -5  -5    5.96    5.27
  -3   5   5   17.52    6.74
   3  -5  -4   43.62    8.78
  -3   5   4   52.42    9.26
   3  -5  -4   43.70    5.91
   3  -5  -3  630.78   23.97
  -3   5   3  673.63   31.31
   3  -5  -3  578.54   22.16
   3  -5  -3  602.08   29.52
  -3   5   2 1428.69   47.63
   3  -5  -2 1411.39   38.11
   3  -5  -2 1322.53   48.27
   3  -5  -2 1485.76   40.31
   3  -5  -1  654.63   32.62
  -3   5   1  644.77   30.18
   3  -5  -1  687.81   25.08
   3  -5  -1  673.92   24.21
   3  -5   0   89.15   13.10
   3  -5   0   62.12    7.00
  -3   5   0   84.85   10.67
   3  -5   0   86.87    8.59
   3  -5   1  170.75   17.97
   3  -5   1  182.60   12.42
  -3   5  -1  177.44   14.56
   3  -5   1  182.95   10.76
   3  -5   2   14.85    2.95
   3  -5   2   20.87    7.70
  -3   5  -2   14.08    5.23
   3  -5   2   18.93    4.90
   3  -5   3  436.79   16.34
   3  -5   3  423.48   20.48
   3  -5   3  453.19   29.80
  -3   5  -3  391.22   20.68
   3  -5   4  170.31    9.92
   3  -5   4  118.03   15.69
  -3   5  -4  156.59   12.95
   3  -5   4  166.93   13.29
   3  -5   5  516.71   18.34
  -3   5  -5  504.50   22.72
   3  -5   5  465.33   22.88
   3  -5   5  387.19   27.29
   3  -5   6    3.06    3.47
   3  -5   6    1.12    5.39
  -3   5  -6    4.77    4.25
  -3   5  -6    0.73    3.96
   3  -5   7    2.50    4.45
   3  -5   7    4.41    4.33
  -3   5  -7    7.33    4.06
  -3   5  -8   -1.37    3.18
   3  -5   8    3.93    4.55
  -3   5  -9  482.15   23.19
   3  -5   9  458.44   26.36
  -3   5 -10   56.85    8.39
   3  -5  10   61.07   10.57
   3  -5  11    9.93    3.96
  -3   5 -11    3.47    3.28
   3  -5  11   15.47    7.46
  -3   5 -12   -4.81    4.16
  -3   5 -12    2.44    4.48
  -3   5 -13    1.38    4.85
  -3   5 -13    8.41    4.78
   3  -5  13   16.24    8.84
  -3   5 -14   10.32    5.18
  -3   4  18    6.77    5.52
   3  -4 -17   86.66   13.46
  -3   4  17   83.35   12.74
  -3   4  17   63.11   11.23
  -3   4  16   -4.80    6.11
  -3   4  16   19.13    6.70
   3  -4 -16   32.86    8.78
  -3   4  15   11.89    4.38
   3  -4 -15    6.33    5.28
  -3   4  15    9.78    5.76
  -3   4  14  126.97   13.92
  -3   4  14  164.74   16.00
   3  -4 -14  155.23   13.61
   3  -4 -14  144.74   16.00
  -3   4  13  199.78   16.69
  -3   4  13  183.91   16.06
   3  -4 -13  185.56   14.36
   3  -4 -12    2.35    3.43
  -3   4  12    9.10    5.49
  -3   4  12   -0.11    4.27
  -3   4  11  594.87   28.18
  -3   4  11  586.05   28.53
   3  -4 -11  590.44   26.31
  -3   4  10    2.65    3.56
   3  -4 -10   -3.59    3.29
  -3   4   9  242.90   16.67
  -3   4   9  211.78   11.00
   3  -4  -9  233.97   16.14
  -3   4   9  223.69   17.09
  -3   4   8   78.43    6.49
  -3   4   8   86.46    9.72
  -3   4   8   64.05    9.57
   3  -4  -8   90.57   10.19
   3  -4  -8   78.06    8.58
  -3   4   7  174.00   13.34
   3  -4  -7  181.00   12.71
  -3   4   7  183.80    9.48
  -3   4   7  187.37   15.48
   3  -4  -7  163.35   13.32
   3  -4  -6   25.97    5.25
   3  -4  -6   16.09    4.98
  -3   4   6   16.05    4.64
  -3   4   6   18.66    6.00
   3  -4  -5   62.01    9.22
   3  -4  -5   61.50    8.01
  -3   4   5   69.13   10.00
   3  -4  -4   49.93    6.93
   3  -4  -4   55.14    8.09
  -3   4   4   59.19    9.10
   3  -4  -3  848.87   34.17
   3  -4  -3  885.57   26.14
  -3   4   3  987.32   36.66
   3  -4  -3  933.49   30.38
  -3   4   2   14.75    6.17
   3  -4  -2   27.71    5.55
   3  -4  -2   22.83    6.29
   3  -4  -2   10.30    3.18
   3  -4  -1  438.57   18.86
   3  -4  -1  416.92   24.56
  -3   4   1  376.99   21.68
   3  -4  -1  453.15   17.27
   3  -4   0   -1.49    2.65
  -3   4   0    5.08    3.80
   3  -4   0   -3.89    5.32
   3  -4   0    0.27    2.15
   3  -4   1    3.76    2.46
   3  -4   1    2.94    4.74
  -3   4  -1    6.72    4.26
   3  -4   1   11.69    3.50
   3  -4   2   99.69   13.29
  -3   4  -2  115.54   10.73
   3  -4   2  106.40    8.90
   3  -4   2  118.31    7.74
  -3   4  -3  469.49   21.04
   3  -4   3  482.19   28.83
   3  -4   3  514.78   17.27
   3  -4   3  468.13   19.99
   3  -4   4   23.26    3.85
   3  -4   4   12.41    6.24
   3  -4   4   16.82    4.50
  -3   4  -4   17.97    4.32
   3  -4   5   59.32   10.45
  -3   4  -5   56.10    7.59
   3  -4   5   62.39    7.77
   3  -4   6    3.77    3.42
  -3   4  -6    2.08    3.26
   3  -4   6   13.22    5.75
  -3   4  -7  285.25   15.30
   3  -4   7  255.68   18.57
   3  -4   7  286.58   18.06
  -3   4  -8    3.31    3.39
  -3   4  -8   -2.64    3.91
   3  -4   8   -2.45    4.17
   3  -4   8    3.33    2.63
   3  -4   9  188.91   12.86
  -3   4  -9  186.24   13.56
   3  -4   9  196.63   16.62
  -3   4  -9  207.65   13.25
   3  -4  10    1.46    4.55
  -3   4 -10   -3.44    3.45
   3  -4  10    1.06    2.90
  -3   4 -11    3.04    4.21
  -3   4 -11   12.04    4.36
   3  -4  11    0.75    5.17
   3  -4  11   -0.09    3.27
  -3   4 -12   -1.20    2.89
   3  -4  12   -1.12    3.35
  -3   4 -12   -5.74    4.71
   3  -4  12   -4.43    6.16
  -3   4 -13  299.36   19.76
  -3   4 -13  331.84   18.56
   3  -4  13  271.59   23.85
   3  -4  13  337.49   19.57
   3  -4  14   58.51   12.28
  -3   4 -14   62.61   10.38
   3  -4  14   74.66    9.70
  -3   4 -15   26.01    6.64
   3  -4  15    8.12    8.32
   3  -4  15   28.94    6.91
  -3   3  18   50.66   10.22
  -3   3  17  101.68   13.64
  -3   3  17  108.28   13.83
   3  -3 -17  109.72   15.14
  -3   3  16   14.06    6.65
  -3   3  16   11.48    5.49
   3  -3 -16   12.37    6.53
  -3   3  15  474.32   27.10
  -3   3  15  462.27   26.61
   3  -3 -15  518.29   29.97
   3  -3 -14   22.57    7.81
  -3   3  14    4.81    4.60
  -3   3  14   14.99    6.65
   3  -3 -14   12.96    4.40
   3  -3 -13   83.20   11.54
  -3   3  13   84.08   10.99
   3  -3 -13   85.88    9.07
  -3   3  13   81.36   10.62
  -3   3  12   24.10    6.41
  -3   3  12   27.09    6.78
   3  -3 -12   33.06    5.47
   3  -3 -12   23.81    6.55
  -3   3  11   26.26    6.28
  -3   3  11   15.58    5.52
   3  -3 -11   41.32    6.52
  -3   3  10  837.87   32.99
   3  -3 -10  887.08   30.88
   3  -3  -9 1082.67   34.94
  -3   3   9 1110.98   37.64
   3  -3  -9 1101.25   35.46
   3  -3  -8   67.51    8.23
  -3   3   8   70.55    5.54
  -3   3   8   70.68    8.99
   3  -3  -8   67.51    8.11
  -3   3   7  172.94   13.31
  -3   3   7  169.28    8.18
  -3   3   7  137.06   12.47
   3  -3  -7  167.47   12.44
   3  -3  -7  153.64   11.67
  -3   3   6  733.33   27.39
  -3   3   6  700.53   18.37
  -3   3   6  740.47   29.40
   3  -3  -6  685.31   25.81
   3  -3  -6  699.78   26.81
  -3   3   5  246.36   14.74
   3  -3  -5  256.64   16.00
  -3   3   5  239.09   16.34
   3  -3  -5  280.80   15.37
  -3   3   4 1388.51   38.85
  -3   3   4 1600.32   46.49
   3  -3  -4 1489.95   42.82
   3  -3  -4 1490.57   40.73
  -3   3   3 3349.12   76.52
   3  -3  -3 3068.04   73.15
   3  -3  -3 3254.89   70.14
   3  -3  -2  265.11   14.59
   3  -3  -2  253.93   10.10
  -3   3   2  273.45   17.08
   3  -3  -2  261.49   11.31
   3  -3  -2  269.07   17.25
   3  -3  -1  376.38   21.55
   3  -3  -1  382.91   14.50
  -3   3   1  306.42   18.35
   3  -3  -1  348.99   13.43
   3  -3  -1  356.55   16.07
   3  -3   0 1254.66   42.73
   3  -3   0 1208.87   33.20
  -3   3   0 1159.29   36.98
   3  -3   0 1212.50   29.86
   3  -3   0 1181.04   30.68
   3  -3   1   98.24   12.08
  -3   3  -1  104.55    9.87
   3  -3   1   91.16    7.36
   3  -3   1  100.63    7.01
   3  -3   2   47.98    4.81
   3  -3   2   33.85    8.22
  -3   3  -2   47.54    6.50
   3  -3   2   49.54    5.62
   3  -3   3 3488.99   65.79
   3  -3   3 3431.31   84.59
  -3   3  -3 3462.31   72.15
   3  -3   3 3357.34   69.47
   3  -3   4  763.88   25.22
  -3   3  -4  750.32   25.18
   3  -3   4  700.66   31.54
   3  -3   5   22.84    6.75
  -3   3  -5   35.68    5.42
   3  -3   5   24.32    4.91
   3  -3   6  302.15   14.36
   3  -3   6  303.02   18.79
   3  -3   6  326.23   17.34
  -3   3  -6  302.14   15.61
  -3   3  -7   -0.85    2.98
   3  -3   7    5.45    4.11
   3  -3   7    7.25    3.20
   3  -3   8   10.12    3.21
  -3   3  -8    9.18    3.86
   3  -3   8   12.96    4.75
  -3   3  -8   12.81    3.84
  -3   3  -9  478.82   19.28
  -3   3  -9  455.75   18.35
   3  -3   9  486.08   20.14
   3  -3   9  486.60   25.26
   3  -3  10  145.73   11.20
  -3   3 -10  157.79   10.98
  -3   3 -10  151.99    9.76
  -3   3 -11  256.62   14.74
  -3   3 -11  267.18   17.05
   3  -3  11  286.45   16.02
  -3   3 -12   59.69    8.54
  -3   3 -12   75.61    7.96
   3  -3  12   67.70    8.30
   3  -3  13   50.75    7.87
  -3   3 -13   43.02    6.69
  -3   3 -13   31.93    7.15
   3  -3  14    5.19    4.24
  -3   3 -14    4.58    3.81
  -3   3 -15   49.49    8.58
   3  -3  15   57.32    8.50
  -3   3 -16   -8.18    4.78
   3  -3  16    0.67    3.54
   3  -3  17   82.32   11.01
   3  -2 -18   -1.29    5.30
  -3   2  18    7.53    5.59
   3  -2 -18    2.53    5.01
  -3   2  18    3.05    4.93
  -3   2  17   -0.46    4.72
   3  -2 -17    9.34    5.53
  -3   2  17    7.73    5.59
   3  -2 -17   11.23    6.27
  -3   2  16   88.00   11.82
   3  -2 -16   65.19   10.34
  -3   2  16   62.78   10.33
   3  -2 -16   80.27   12.33
   3  -2 -15    6.30    4.60
  -3   2  15    9.68    5.41
   3  -2 -15   -2.33    5.38
  -3   2  15    9.13    5.35
   3  -2 -14    8.02    4.65
  -3   2  14    1.56    4.17
   3  -2 -14    8.11    5.03
  -3   2  14    6.11    4.33
  -3   2  13  749.52   31.93
  -3   2  13  709.84   30.83
   3  -2 -13  765.76   34.90
   3  -2 -13  795.63   27.10
  -3   2  12    2.69    4.28
   3  -2 -12    4.97    2.68
  -3   2  12   -3.27    4.77
   3  -2 -12    7.85    5.93
  -3   2  11  976.91   35.58
   3  -2 -11  966.88   37.44
  -3   2  11  955.65   34.87
   3  -2 -11 1053.66   31.39
  -3   2  10   43.66    7.67
   3  -2 -10   35.43    5.62
   3  -2 -10   50.53    8.73
  -3   2   9   45.74    7.41
   3  -2  -9   54.47    6.55
   3  -2  -9   57.72    7.65
   3  -2  -8  293.98   16.23
  -3   2   8  281.55   16.86
   3  -2  -8  295.01   15.01
  -3   2   7   54.72    7.56
   3  -2  -7   41.33    6.19
   3  -2  -7   44.33    5.98
  -3   2   6 1282.81   37.86
   3  -2  -6 1221.14   35.80
   3  -2  -6 1178.52   34.41
  -3   2   5 3775.23   75.59
  -3   2   5 3198.74   57.83
  -3   2   5 3534.26   75.57
  -3   2   5 3655.52   66.89
   3  -2  -5 3393.37   71.76
   3  -2  -5 3339.01   73.02
  -3   2   4  223.84   13.33
  -3   2   4  207.65   14.48
  -3   2   4  244.91   10.96
   3  -2  -4  229.07   13.68
   3  -2  -4  230.41   13.63
  -3   2   3  968.97   25.19
   3  -2  -3 1067.27   31.99
  -3   2   3  918.93   28.28
  -3   2   3 1067.49   34.08
   3  -2  -3  935.20   31.58
   3  -2  -2 1094.64   32.05
   3  -2  -2 1010.54   21.20
  -3   2   2 1182.18   35.64
   3  -2  -2 1147.75   35.45
   3  -2  -2 1084.80   24.32
  -3   2   2 1040.97   26.69
   3  -2  -1  335.15   11.60
   3  -2  -1  342.90   14.84
   3  -2  -1  341.77   18.95
  -3   2   1  324.18   17.22
   3  -2  -1  338.25   11.30
  -3   2   1  339.30   13.45
   3  -2   0  147.05   12.89
   3  -2   0  143.57    8.46
  -3   2   0  115.35    9.76
   3  -2   0  136.91    7.17
  -3   2   0  137.28    8.85
   3  -2   1 2991.27   58.32
  -3   2  -1 3008.81   63.89
   3  -2   1 2919.53   71.96
   3  -2   1 3024.23   57.26
   3  -2   2 1752.89   36.76
   3  -2   2 1683.21   49.33
  -3   2  -2 1709.47   41.33
   3  -2   2 1654.93   37.25
   3  -2   3  355.09   20.07
  -3   2  -3  387.44   16.22
   3  -2   3  394.57   15.08
   3  -2   4  317.81   18.10
  -3   2  -4  329.41   14.77
   3  -2   4  328.09   14.67
  -3   2  -5   48.03    5.85
   3  -2   5   36.12    4.96
   3  -2   5   39.80    6.69
   3  -2   6  362.61   15.02
  -3   2  -6  334.72   16.54
   3  -2   7  884.95   26.60
  -3   2  -7  884.68   26.99
  -3   2  -8  463.66   17.85
  -3   2  -8  460.07   17.47
   3  -2   8  467.92   18.65
   3  -2   9   36.03    5.39
  -3   2  -9   41.67    5.45
  -3   2  -9   41.86    4.99
  -3   2 -10   29.71    5.81
  -3   2 -10   34.36    4.99
   3  -2  10   27.32    5.20
  -3   2 -10   33.19    4.36
  -3   2 -11  115.67    8.76
  -3   2 -11  125.49   11.32
   3  -2  11  124.69   10.17
  -3   2 -11  112.14    7.61
  -3   2 -12   28.11    6.40
  -3   2 -12   24.36    4.57
   3  -2  12   26.99    5.41
  -3   2 -13  300.48   14.84
   3  -2  13  295.49   17.31
  -3   2 -13  276.91   17.68
   3  -2  14    7.05    3.86
  -3   2 -14    6.98    4.63
  -3   2 -15   52.52    8.65
   3  -2  15   52.91    8.12
   3  -2  16  148.87   13.50
  -3   2 -16  133.81   14.05
  -3   2 -17   29.39    7.14
   3  -2  17   35.19    7.45
   3  -2  18   77.73   10.81
  -3   1  18  146.26   16.01
   3  -1 -18  136.79   15.75
   3  -1 -18  126.33   16.51
  -3   1  18  118.98   14.00
   3  -1 -17  203.67   18.05
  -3   1  17  193.79   17.22
   3  -1 -17  208.35   20.29
   3  -1 -16   45.94    9.97
  -3   1  16   35.46    8.26
   3  -1 -16   25.45    6.85
   3  -1 -15  725.87   32.27
   3  -1 -15  751.95   35.97
  -3   1  15  685.62   30.84
   3  -1 -14   14.53    6.11
   3  -1 -14   23.21    6.35
  -3   1  14   18.33    5.56
   3  -1 -13   45.37    7.81
  -3   1  13   50.81    8.13
   3  -1 -13   46.83    9.19
  -3   1  12   95.63   10.37
   3  -1 -12   83.11    9.65
  -3   1  12   76.44    9.28
   3  -1 -12   91.56    7.72
   3  -1 -12   96.00   12.15
   3  -1 -11  199.91   14.45
  -3   1  11  198.98   14.07
   3  -1 -11  200.39   11.26
   3  -1 -11  177.67   15.38
  -3   1  11  212.57   14.82
   3  -1 -10    5.99    4.72
  -3   1  10   -0.77    3.65
  -3   1  10    2.32    3.28
   3  -1 -10    2.72    3.26
   3  -1 -10    0.97    2.14
   3  -1  -9 1514.00   45.71
   3  -1  -9 1524.29   37.36
  -3   1   9 1534.88   43.09
  -3   1   8  340.27   17.66
   3  -1  -8  360.99   15.06
   3  -1  -8  415.09   20.58
   3  -1  -8  358.78   17.62
  -3   1   7  293.49   15.92
   3  -1  -7  309.50   13.91
   3  -1  -7  318.26   17.39
   3  -1  -7  326.69   16.32
  -3   1   6   85.03    8.61
   3  -1  -6   90.74    7.38
   3  -1  -6   95.77    9.09
  -3   1   5 1459.68   39.77
   3  -1  -5 1438.28   39.23
   3  -1  -5 1425.44   36.04
  -3   1   4  811.31   26.77
  -3   1   4  821.22   26.72
   3  -1  -4  728.15   25.99
   3  -1  -4  733.78   24.45
  -3   1   3   23.38    5.42
  -3   1   3   30.51    3.24
  -3   1   3   22.84    4.74
   3  -1  -3   27.65    6.09
   3  -1  -3   27.01    5.40
   3  -1  -2   55.87    7.12
  -3   1   2   57.89    6.35
  -3   1   2   61.91    4.18
   3  -1  -2   62.61    7.25
  -3   1   2   62.20    7.53
  -3   1   1  110.44    9.17
   3  -1  -1  109.63   10.02
   3  -1  -1  118.14    4.90
  -3   1   1  125.93    6.04
   3  -1  -1  121.82    8.49
   3  -1   0  188.02    6.84
   3  -1   0  216.47   13.87
   3  -1   0  201.20    9.67
  -3   1   0  207.61   11.47
   3  -1   1 3718.22   66.77
   3  -1   1 3561.28   77.16
  -3   1  -1 3632.56   70.00
   3  -1   1 3536.24   63.17
   3  -1   2  527.58   15.76
   3  -1   2  487.41   20.85
  -3   1  -2  500.58   17.33
   3  -1   2  503.10   14.76
   3  -1   3  867.74   28.60
  -3   1  -3  903.23   24.57
   3  -1   4   13.56    3.13
  -3   1  -4    9.58    3.73
  -3   1  -4   12.38    3.19
   3  -1   5  134.31    8.13
  -3   1  -5  116.15    8.67
   3  -1   6    0.49    2.35
  -3   1  -6    1.66    2.34
   3  -1   6    2.34    1.70
  -3   1  -7  188.51   10.07
   3  -1   7  218.15   11.28
   3  -1   8   57.40    6.35
  -3   1  -8   56.75    5.48
  -3   1  -9 1167.56   29.30
  -3   1  -9 1191.20   29.33
   3  -1   9 1230.02   33.04
  -3   1 -10   41.58    4.56
   3  -1  10   39.29    5.87
  -3   1 -10   37.05    5.84
  -3   1 -10   43.62    4.73
  -3   1 -11  274.25   15.67
  -3   1 -11  267.36   12.01
   3  -1  11  247.97   14.64
  -3   1 -11  243.93   11.17
  -3   1 -12   37.60    4.20
  -3   1 -12   24.12    5.43
  -3   1 -12   33.10    4.46
   3  -1  12   26.11    5.38
  -3   1 -13   12.01    4.70
  -3   1 -13   17.52    3.62
   3  -1  13   14.00    4.33
  -3   1 -14   27.60    6.08
   3  -1  14   24.92    5.52
   3  -1  15  102.43   10.72
  -3   1 -15   93.40   10.83
  -3   1 -16   13.15    5.62
   3  -1  16   12.46    5.06
  -3   1 -17  148.85   14.95
   3  -1  17  164.09   14.34
  -3   1 -18   15.88    6.30
   3  -1  18   25.84    7.08
   3   0 -19   12.29    7.34
   3   0 -18  151.64   15.83
  -3   0  18  148.60   15.18
   3   0 -18  170.59   18.88
   3   0 -17  243.42   18.76
  -3   0  17  196.14   16.75
   3   0 -17  193.57   19.21
   3   0 -16   12.02    5.61
  -3   0  16    2.68    4.57
   3   0 -16    0.84    5.88
  -3   0  15  121.76   10.65
  -3   0  15  134.00   12.81
   3   0 -15  130.02   15.08
   3   0 -15  131.15   12.82
   3   0 -14  131.42   12.17
  -3   0  14  140.33   12.63
  -3   0  14  131.30   10.80
   3   0 -14  125.62   14.51
  -3   0  13  340.53   19.22
   3   0 -13  360.10   19.67
   3   0 -13  362.79   23.35
   3   0 -12    8.16    4.12
   3   0 -12    2.31    4.61
  -3   0  12   11.56    4.45
   3   0 -11 1234.39   29.15
   3   0 -11 1211.70   37.26
   3   0 -11 1200.62   42.43
  -3   0  11 1182.27   36.83
   3   0 -10    3.48    4.04
   3   0 -10    3.35    2.94
   3   0 -10    6.28    2.18
  -3   0  10   -4.14    4.21
  -3   0   9  245.56   14.24
   3   0  -9  240.59   16.58
   3   0  -9  237.80   13.87
   3   0  -9  240.30   10.52
   3   0  -8  105.22    9.07
   3   0  -8  118.68   11.15
   3   0  -8   94.71    6.45
   3   0  -8   91.41    8.27
  -3   0   7  863.73   27.53
   3   0  -7  877.18   28.12
   3   0  -7  831.11   26.74
   3   0  -7  882.01   30.82
   3   0  -7  853.39   22.69
  -3   0   6  268.29   13.97
  -3   0   6  238.90   10.00
   3   0  -6  263.09   15.25
   3   0  -6  246.52   10.83
   3   0  -6  251.96   13.80
   3   0  -5 3584.90   68.50
  -3   0   5 3634.24   73.70
   3   0  -5 3739.34   75.27
  -3   0   5 3450.14   67.12
   3   0  -5 3708.80   75.71
  -3   0   4  815.01   24.02
  -3   0   4  761.06   22.51
  -3   0   4  747.07   25.29
   3   0  -4  857.33   26.22
   3   0  -4  782.63   22.98
   3   0  -4  763.28   25.75
   3   0  -3  114.24    8.20
   3   0  -3  106.90    9.25
  -3   0   3  105.87    4.15
  -3   0   3  118.24    8.59
  -3   0   3  117.01    8.42
  -3   0   3  105.58    8.88
   3   0  -2 1443.57   35.40
  -3   0   2 1414.95   35.36
  -3   0   2 1342.99   25.03
   3   0  -2 1449.15   37.68
  -3   0   2 1436.29   35.37
  -3   0   2 1656.44   37.70
  -3   0   1 1541.85   36.52
   3   0  -1 1365.80   34.43
  -3   0   1 1295.27   31.85
  -3   0   1 1329.75   33.17
   3   0  -1 1403.11   32.90
  -3   0   1 1306.83   32.19
   3   0  -1 1332.16   33.44
  -3   0   0 4409.58   79.92
   3   0   0 4283.40   79.41
  -3   0   0 4415.79   79.21
  -3   0   0 4521.99   84.71
   3   0   0 4330.22   83.60
   3   0   0 4632.29   79.41
   3   0   0 4286.39   79.01
   3   0   1 1152.27   26.76
   3   0   1 1181.43   26.44
  -3   0  -1 1109.11   30.42
   3   0   1 1104.34   29.87
  -3   0  -1 1129.75   26.72
  -3   0  -1 1160.50   26.55
   3   0   2  110.33    6.35
  -3   0  -2  108.60    8.24
  -3   0  -2  102.43    6.57
  -3   0  -3   22.21    3.57
  -3   0  -3   25.63    4.43
   3   0   3   26.01    3.67
  -3   0  -4 2920.83   57.64
   3   0   4 2928.34   56.55
   3   0   4 2910.89   50.11
   3   0   5 1175.13   28.27
  -3   0  -5 1115.01   28.24
   3   0   5 1210.90   24.57
  -3   0  -6 1561.91   35.30
   3   0   6 1553.67   36.50
   3   0   6 1655.94   33.45
  -3   0  -7 2804.50   55.98
   3   0   7 2929.40   56.70
   3   0   7 2922.02   58.25
   3   0   8   36.69    5.14
  -3   0  -8   32.73    4.04
  -3   0  -8   33.97    4.94
   3   0   9   18.63    3.81
  -3   0  -9   20.59    2.92
  -3   0  -9   20.46    3.33
  -3   0  -9   21.99    4.31
  -3   0 -10  317.35   15.85
  -3   0 -10  333.12   11.73
  -3   0 -10  308.44   12.43
   3   0  10  342.62   15.61
  -3   0 -11   69.27    7.86
  -3   0 -11   65.26    4.99
  -3   0 -11   56.47    5.25
   3   0  11   63.68    7.10
  -3   0 -12  150.98   11.69
  -3   0 -12  152.12    7.93
  -3   0 -12  132.42    8.03
   3   0  12  139.51   11.32
  -3   0 -13 1423.72   41.62
  -3   0 -13 1479.64   32.25
  -3   0 -13 1285.47   32.23
   3   0  13 1449.06   40.75
  -3   0 -14    4.31    3.83
   3   0  14   -0.12    3.59
  -3   0 -15    2.86    3.42
   3   0  15    7.94    4.22
  -3   0 -16    8.22    4.57
   3   0  16    4.26    4.20
  -3   0 -17   41.33    8.17
   3   0  17   57.48    8.57
  -3   0 -18    4.49    4.21
   3   0  18    2.86    4.76
   3   1 -19   29.01    7.99
   3   1 -18   -4.64    4.34
  -3  -1  18   -9.65    5.60
  -3  -1  17  670.01   31.03
   3   1 -17  616.62   34.96
   3   1 -17  658.37   30.91
   3   1 -16   78.59   10.57
  -3  -1  16   76.59   10.19
   3   1 -16   80.62   12.45
  -3  -1  15   72.79    9.27
   3   1 -15   63.05    9.33
  -3  -1  15   70.68    8.49
   3   1 -15   69.75   11.52
   3   1 -14   16.90    5.25
  -3  -1  14   14.61    4.53
  -3  -1  14   10.87    4.50
   3   1 -14    9.66    6.27
   3   1 -13    3.21    3.60
   3   1 -13    2.40    5.36
   3   1 -13    6.24    4.04
  -3  -1  13   10.03    3.82
  -3  -1  13    4.75    3.43
   3   1 -12  139.45   11.89
   3   1 -12  144.16   11.53
   3   1 -12  137.37   13.80
  -3  -1  12  169.38   12.44
  -3  -1  12  170.38   11.76
   3   1 -11  736.14   27.63
  -3  -1  11  730.92   26.71
  -3  -1  11  754.77   26.02
   3   1 -11  759.49   26.83
   3   1 -11  746.17   32.06
   3   1 -10    5.13    3.72
   3   1 -10    8.77    3.14
  -3  -1  10    3.21    2.65
   3   1 -10    7.88    1.45
   3   1 -10   13.06    5.57
   3   1  -9 1567.45   31.24
  -3  -1   9 1670.29   41.89
   3   1  -9 1687.37   41.44
   3   1  -9 1681.67   48.27
   3   1  -9 1745.38   43.80
   3   1  -8   10.53    3.77
   3   1  -8   13.71    3.70
  -3  -1   8    2.66    2.41
   3   1  -8   11.34    1.80
   3   1  -8   19.69    5.24
   3   1  -7  750.83   25.13
   3   1  -7  770.53   17.84
   3   1  -7  760.23   23.36
   3   1  -7  736.51   24.72
   3   1  -7  717.72   26.91
   3   1  -6   14.09    2.16
   3   1  -6   21.06    4.53
   3   1  -6   15.20    3.27
   3   1  -6   14.74    4.39
   3   1  -6   10.66    3.89
   3   1  -5 1053.45   22.38
   3   1  -5  964.00   27.75
   3   1  -5  916.96   25.34
  -3  -1   5  921.65   20.54
   3   1  -5  972.60   29.12
   3   1  -5  973.14   28.52
  -3  -1   4   57.58    5.22
   3   1  -4   57.78    6.15
  -3  -1   4   49.96    6.01
   3   1  -4   69.16    4.69
  -3  -1   4   60.93    4.57
   3   1  -4   60.24    6.97
   3   1  -4   57.40    6.40
  -3  -1   3 1241.73   31.77
   3   1  -3 1222.00   31.89
  -3  -1   3 1181.98   29.62
   3   1  -3 1240.50   27.35
  -3  -1   3 1220.79   29.92
  -3  -1   3 1332.32   29.50
  -3  -1   3 1283.01   29.86
   3   1  -3 1206.38   30.94
  -3  -1   3 1398.25   30.07
   3   1  -3 1250.16   34.12
  -3  -1   2   52.36    4.62
   3   1  -2   40.84    5.85
  -3  -1   2   49.94    4.10
  -3  -1   2   47.80    5.50
  -3  -1   2   44.95    4.56
  -3  -1   2   43.44    4.84
  -3  -1   2   48.73    3.45
   3   1  -2   47.20    4.81
   3   1  -1 6915.47  122.20
  -3  -1   1 6841.87  121.76
   3   1  -1 7137.30  121.17
  -3  -1   1 6985.58  122.78
  -3  -1   1 6853.37  119.09
   3   1  -1 6938.63  115.20
  -3  -1   1 6674.67  120.18
   3   1  -1 6713.14  116.11
  -3  -1   1 6899.45  115.41
   3   1  -1 6871.67  115.82
  -3  -1   1 6991.04  116.87
   3   1   0   10.44    3.19
  -3  -1   0   11.22    3.32
  -3  -1   0   10.60    3.69
   3   1   0    7.44    2.24
  -3  -1   0    9.48    2.45
  -3  -1   0    0.63    2.20
   3   1   0   14.06    2.29
  -3  -1   0   11.25    2.75
   3   1   0   11.29    2.00
  -3  -1   0    7.88    2.06
  -3  -1  -1   88.57    7.36
   3   1   1   81.71    3.20
   3   1   1   94.47    5.36
  -3  -1  -1   66.79    5.54
   3   1   1   76.28    5.41
   3   1   1   92.48    6.09
  -3  -1  -1   86.96    6.17
   3   1   1   88.15    4.91
  -3  -1  -1   74.14    4.62
  -3  -1  -1   84.93    5.24
   3   1   2 2089.32   41.59
  -3  -1  -2 2053.81   42.92
  -3  -1  -2 2214.52   41.72
   3   1   2 2164.33   43.68
   3   1   2 2188.53   40.86
   3   1   3   17.43    2.88
   3   1   3   17.49    3.15
  -3  -1  -3   17.15    3.02
   3   1   3   12.45    2.78
  -3  -1  -3   14.36    2.64
   3   1   4 1028.62   24.15
  -3  -1  -4  981.10   24.35
  -3  -1  -5  979.53   24.20
   3   1   5  992.34   24.51
   3   1   6  826.75   22.26
  -3  -1  -6  820.91   21.61
  -3  -1  -6  814.41   17.80
  -3  -1  -7 1340.85   32.45
  -3  -1  -7 1339.70   27.57
  -3  -1  -7 1274.19   29.87
   3   1   7 1276.29   31.93
   3   1   8 1350.86   33.06
  -3  -1  -8 1278.54   30.48
  -3  -1  -8 1336.16   33.76
  -3  -1  -8 1339.10   29.20
  -3  -1  -9  125.73    9.15
  -3  -1  -9  122.13    5.67
  -3  -1  -9  136.65    7.85
   3   1   9  126.89    9.15
  -3  -1  -9  144.14    7.87
  -3  -1 -10   28.24    3.93
  -3  -1 -10   26.04    2.63
  -3  -1 -10   24.13    4.74
  -3  -1 -10   30.65    2.79
   3   1  10   23.19    4.40
  -3  -1 -10   22.08    3.71
  -3  -1 -11  819.91   27.38
  -3  -1 -11  867.39   18.99
  -3  -1 -11  819.62   18.91
  -3  -1 -11  831.70   23.06
  -3  -1 -11  819.50   24.44
   3   1  11  819.89   27.03
   3   1  12   48.79    6.25
  -3  -1 -12   40.92    3.32
  -3  -1 -12   47.22    6.85
  -3  -1 -12   43.16    4.70
  -3  -1 -12   47.69    5.73
  -3  -1 -13  252.34   15.89
   3   1  13  276.08   15.36
  -3  -1 -13  269.32   12.08
  -3  -1 -13  240.86   13.45
  -3  -1 -14    5.91    2.63
  -3  -1 -14    6.94    3.76
  -3  -1 -14   11.23    4.18
   3   1  14   -1.11    3.56
  -3  -1 -15   98.85   10.81
   3   1  15   94.74   10.12
  -3  -1 -15   96.80    9.21
  -3  -1 -16    9.24    5.01
   3   1  16   16.68    5.43
  -3  -1 -16   10.40    3.99
  -3  -1 -17  539.96   27.69
   3   1  17  617.10   28.05
  -3  -1 -18    9.02    5.42
   3   1  18    4.59    3.97
  -3  -1 -19   -1.18    4.55
   3   1  19   -2.83    4.74
   3   2 -19  129.51   14.81
   3   2 -18  197.64   17.46
  -3  -2  18  196.21   16.60
   3   2 -17  300.93   20.40
  -3  -2  17  290.34   19.69
   3   2 -16    9.11    5.40
  -3  -2  16    5.02    4.49
   3   2 -16   -8.16    6.27
   3   2 -15    3.09    3.63
  -3  -2  15   -2.24    3.35
   3   2 -15   -0.06    3.62
  -3  -2  15   -1.83    4.03
   3   2 -15    6.63    5.35
   3   2 -14  233.45   16.18
   3   2 -14  258.79   16.51
   3   2 -14  246.36   19.74
  -3  -2  14  227.40   15.31
  -3  -2  14  229.81   14.70
   3   2 -13  902.91   31.97
   3   2 -13  881.85   30.62
  -3  -2  13  844.55   29.69
   3   2 -13  778.45   35.64
  -3  -2  13  877.23   30.91
   3   2 -12  164.23   11.91
   3   2 -12  158.40   12.12
  -3  -2  12  163.44   11.67
  -3  -2  12  172.23   12.20
   3   2 -12  170.43   15.37
   3   2 -11  299.71   15.31
   3   2 -11  277.80   15.70
  -3  -2  11  265.17   14.80
   3   2 -11  243.38   17.67
  -3  -2  11  276.67   14.95
  -3  -2  10   66.19    7.07
   3   2 -10   63.70    6.87
   3   2 -10   60.53    7.28
   3   2 -10   55.60    8.27
  -3  -2  10   61.41    6.57
   3   2  -9   34.91    5.38
  -3  -2   9   37.81    5.18
   3   2  -9   42.43    5.35
  -3  -2   9   36.84    4.89
   3   2  -9   41.42    6.87
   3   2  -8   88.57    7.14
   3   2  -8   97.71    8.44
  -3  -2   8   76.50    6.80
  -3  -2   8   83.54    7.38
  -3  -2   8   78.87    3.38
   3   2  -8   82.02    8.90
   3   2  -7 1413.99   33.45
   3   2  -7 1432.48   36.30
  -3  -2   7 1357.75   26.27
  -3  -2   7 1417.44   34.42
   3   2  -7 1405.24   39.39
   3   2  -6   80.59    5.99
   3   2  -6   78.55    6.93
  -3  -2   6   77.51    4.17
   3   2  -6   68.41    7.51
   3   2  -6   71.37    6.79
  -3  -2   5 1005.98   23.67
   3   2  -5  970.73   23.97
  -3  -2   5  965.13   21.12
   3   2  -5  979.31   28.21
   3   2  -5  946.44   26.74
   3   2  -5  966.76   27.06
  -3  -2   4  777.77   18.81
   3   2  -4  770.38   22.44
   3   2  -4  775.78   22.72
  -3  -2   4  822.40   26.07
  -3  -2   4  759.98   17.90
   3   2  -4  744.91   19.30
  -3  -2   4  718.60   15.87
  -3  -2   4  710.61   22.95
   3   2  -4  799.35   23.78
  -3  -2   3  290.75    9.59
   3   2  -3  281.54   13.29
   3   2  -3  309.03   12.64
   3   2  -3  305.08   12.07
  -3  -2   3  283.16    9.79
  -3  -2   3  299.74    9.55
  -3  -2   3  296.02    8.49
  -3  -2   3  285.41   12.33
  -3  -2   3  326.61   14.99
  -3  -2   2 1248.43   33.72
   3   2  -2 1249.59   32.39
   3   2  -2 1176.79   28.62
   3   2  -2 1218.05   25.79
   3   2  -2 1173.08   26.77
  -3  -2   2 1270.50   32.04
  -3  -2   2 1182.54   25.57
  -3  -2   2 1135.91   22.19
  -3  -2   2 1128.76   27.43
  -3  -2   2 1241.15   27.11
  -3  -2   2 1178.67   28.29
  -3  -2   2 1159.92   24.67
   3   2  -1  365.16   15.46
  -3  -2   1  392.54   13.37
  -3  -2   1  399.77   15.17
   3   2  -1  381.03   10.88
  -3  -2   1  424.99   15.47
   3   2  -1  379.26   11.90
   3   2  -1  371.01   14.80
   3   2  -1  365.18    9.73
  -3  -2   1  366.97    8.47
  -3  -2   1  361.32   11.78
   3   2  -1  381.57   13.46
  -3  -2   1  361.89   11.99
  -3  -2   1  381.09   11.54
  -3  -2   1  402.08   14.21
   3   2   0 1993.46   41.35
   3   2   0 2083.64   41.74
   3   2   0 2005.80   41.43
  -3  -2   0 1900.81   40.40
   3   2   0 1946.74   42.25
  -3  -2   0 1997.80   39.66
  -3  -2   0 1981.82   40.45
   3   2   0 2054.07   35.63
  -3  -2   0 1928.21   38.51
   3   2   0 2041.74   37.38
  -3  -2   0 2089.79   37.37
  -3  -2   0 2152.85   41.56
   3   2   0 2138.28   40.13
   3   2   1  696.17   17.79
   3   2   1  680.30   16.15
   3   2   1  698.61   19.19
   3   2   1  692.80   17.42
  -3  -2  -1  719.14   17.05
   3   2   1  714.24   18.34
  -3  -2  -1  710.45   18.23
  -3  -2  -1  713.14   18.61
   3   2   1  708.66   15.37
  -3  -2  -1  702.17   14.71
   3   2   2 4509.73   80.37
   3   2   2 4348.15   77.74
   3   2   2 4557.82   75.75
   3   2   2 4726.80   79.46
  -3  -2  -2 4258.84   78.40
   3   2   2 4450.14   77.51
  -3  -2  -2 4566.26   77.06
  -3  -2  -2 4452.68   78.33
   3   2   2 4356.77   76.98
   3   2   3  365.12   11.60
  -3  -2  -3  349.60   12.14
  -3  -2  -3  367.83   11.49
  -3  -2  -3  386.95   11.54
   3   2   4  126.40    6.81
  -3  -2  -4  140.71    6.37
  -3  -2  -4  139.73    7.36
  -3  -2  -5 4771.77   84.69
  -3  -2  -5 4798.28   81.35
  -3  -2  -5 4762.02   85.13
   3   2   5 4862.16   84.79
  -3  -2  -6  757.83   21.01
   3   2   6  753.01   21.27
  -3  -2  -6  760.27   17.14
  -3  -2  -6  795.10   19.32
  -3  -2  -6  782.39   21.02
  -3  -2  -7  416.39   14.92
  -3  -2  -7  373.11   10.34
   3   2   7  432.53   15.34
  -3  -2  -7  427.70   14.35
  -3  -2  -7  430.94   13.74
  -3  -2  -8   11.90    3.42
  -3  -2  -8    8.31    1.34
  -3  -2  -8   17.11    3.13
   3   2   8    8.34    2.95
  -3  -2  -8    9.14    3.12
  -3  -2  -9  555.67   20.10
  -3  -2  -9  599.68   18.37
   3   2   9  566.47   19.38
  -3  -2  -9  585.73   18.64
  -3  -2 -10   99.31    8.47
  -3  -2 -10  111.88    7.49
   3   2  10  103.38    8.16
  -3  -2 -10   99.70    7.58
  -3  -2 -11 1678.22   43.05
   3   2  11 1687.77   41.91
  -3  -2 -11 1629.23   40.21
  -3  -2 -11 1680.82   38.38
  -3  -2 -12    7.61    2.74
  -3  -2 -12    2.62    3.02
   3   2  12   10.59    3.65
  -3  -2 -12    9.12    3.15
  -3  -2 -13  797.92   29.11
  -3  -2 -13  841.16   27.75
  -3  -2 -13  832.72   24.41
   3   2  13  852.76   28.64
  -3  -2 -14    6.43    2.54
  -3  -2 -14    6.90    4.29
  -3  -2 -14    6.02    3.44
   3   2  14    8.36    4.09
   3   2  15  104.35   10.38
  -3  -2 -15  123.62    8.62
  -3  -2 -15  111.41   11.08
  -3  -2 -15  116.70   10.68
  -3  -2 -16   40.88    6.66
  -3  -2 -16   45.55    7.89
   3   2  16   39.75    6.99
  -3  -2 -17   94.56   11.42
   3   2  17  109.91   11.59
  -3  -2 -17   99.90   10.54
   3   2  18    4.50    3.67
  -3  -2 -18    7.83    4.80
  -3  -2 -18    6.40    4.33
  -3  -2 -19  106.84   12.91
   3   2  19   96.16   11.57
  -3  -3  18    5.90    4.44
   3   3 -17   33.87    7.20
  -3  -3  17   31.82    7.04
   3   3 -16   30.66    6.67
   3   3 -16   21.09    6.49
  -3  -3  16   30.71    6.25
   3   3 -15   78.12    9.76
   3   3 -15   67.38    8.94
  -3  -3  15   79.01    9.22
   3   3 -14   21.24    5.33
   3   3 -14   23.49    6.32
  -3  -3  14   15.55    4.47
  -3  -3  13  264.83   16.09
   3   3 -13  267.59   16.52
   3   3 -13  295.09   16.44
  -3  -3  13  286.47   16.26
   3   3 -12    0.36    2.93
  -3  -3  12   -1.44    2.97
  -3  -3  12   -4.24    4.09
   3   3 -12   -0.40    3.20
   3   3 -11  348.29   16.24
   3   3 -11  382.04   18.70
  -3  -3  11  354.09   17.57
  -3  -3  11  356.40   16.67
   3   3 -10  143.74    9.63
   3   3 -10  132.80   10.54
  -3  -3  10  136.68   10.37
  -3  -3  10  134.81    9.55
  -3  -3   9 1346.76   34.81
   3   3  -9 1334.18   33.89
   3   3  -9 1414.89   37.84
  -3  -3   9 1344.08   37.08
  -3  -3   8  239.75   13.18
   3   3  -8  246.32   11.47
   3   3  -8  283.33   14.30
  -3  -3   8  246.03   11.72
   3   3  -7   20.67    3.29
   3   3  -7   19.14    4.58
  -3  -3   7   22.63    3.52
  -3  -3   7   24.20    4.40
  -3  -3   6    5.66    3.84
   3   3  -6    8.82    3.57
   3   3  -6    5.14    1.92
  -3  -3   6    8.15    2.82
  -3  -3   6    5.48    2.13
  -3  -3   6    8.21    1.23
   3   3  -5   12.67    2.29
  -3  -3   5   15.46    2.28
   3   3  -5   17.08    3.83
  -3  -3   5   13.95    3.20
   3   3  -5   13.04    3.08
  -3  -3   5   14.97    1.76
  -3  -3   5   15.88    2.65
  -3  -3   5   12.96    4.31
  -3  -3   4  138.62    5.92
   3   3  -4  136.46    6.08
   3   3  -4  131.46    8.40
   3   3  -4  139.45    5.90
  -3  -3   4  132.76    5.51
  -3  -3   4  119.10    3.97
  -3  -3   4  139.24    8.68
  -3  -3   4  139.09   10.60
   3   3  -4  139.42    8.27
  -3  -3   3 3817.09   63.83
  -3  -3   3 3797.78   76.59
   3   3  -3 3891.39   72.18
   3   3  -3 3689.84   64.82
   3   3  -3 3968.47   72.76
   3   3  -3 3900.20   66.32
  -3  -3   3 3799.90   65.80
  -3  -3   3 3606.55   71.59
  -3  -3   2 1040.84   28.88
  -3  -3   2  829.35   16.67
  -3  -3   2  925.15   26.53
   3   3  -2  930.73   23.97
   3   3  -2  970.60   20.91
  -3  -3   2  918.12   20.49
   3   3  -2  917.62   23.70
  -3  -3   2  905.24   23.90
   3   3  -2  923.22   25.06
  -3  -3   1 2575.58   54.86
   3   3  -1 2791.89   52.96
   3   3  -1 2668.42   56.15
   3   3  -1 2723.16   60.98
   3   3  -1 2796.76   50.32
  -3  -3   1 2660.78   49.70
  -3  -3   1 2806.16   51.19
   3   3  -1 2652.31   52.15
  -3  -3   1 2705.56   52.91
  -3  -3   1 2669.49   54.54
  -3  -3   0  972.40   22.82
  -3  -3   0  954.75   23.21
   3   3   0 1008.89   24.10
  -3  -3   0 1011.59   30.32
   3   3   0  958.59   29.14
   3   3   0  958.14   25.19
   3   3   0 1055.27   23.21
  -3  -3   0  980.89   22.68
  -3  -3   0  985.03   25.74
   3   3   0  985.84   23.80
   3   3   1  555.89   15.16
  -3  -3  -1  522.42   11.04
   3   3   1  593.58   16.25
  -3  -3  -1  592.40   15.94
  -3  -3  -1  567.82   13.62
   3   3   1  550.54   19.85
  -3  -3  -1  556.56   17.61
   3   3   1  601.86   16.00
  -3  -3  -1  560.94   15.94
  -3  -3  -1  585.19   13.56
   3   3   1  580.10   16.33
   3   3   2   87.69    5.12
   3   3   2   86.13    4.61
   3   3   2   91.33    4.60
   3   3   2   90.84    5.47
  -3  -3  -2   81.56    5.13
   3   3   2   86.56    7.55
  -3  -3  -2   92.85    3.95
  -3  -3  -2   95.58    6.09
   3   3   2   94.87    6.18
  -3  -3  -2   90.24    4.56
  -3  -3  -3  418.80   11.20
   3   3   3  448.54   14.98
   3   3   3  437.86   12.50
  -3  -3  -3  419.50   11.78
  -3  -3  -3  417.33   13.62
   3   3   3  418.19   11.88
  -3  -3  -3  433.77   11.93
   3   3   4 2824.39   51.34
  -3  -3  -4 2854.76   49.78
  -3  -3  -4 2897.23   51.95
  -3  -3  -4 2841.89   54.62
  -3  -3  -4 2808.95   51.53
  -3  -3  -4 2806.49   49.80
   3   3   4 2832.40   51.97
  -3  -3  -5 5092.77   87.56
  -3  -3  -5 4989.14   82.68
  -3  -3  -5 5020.18   89.79
   3   3   5 5032.81   87.72
  -3  -3  -5 4984.18   82.84
   3   3   5 5113.41   85.88
  -3  -3  -6 1824.90   32.10
  -3  -3  -6 1979.11   39.78
  -3  -3  -6 1800.36   31.97
  -3  -3  -6 1963.82   40.56
   3   3   6 1977.16   39.30
  -3  -3  -7    8.54    2.61
  -3  -3  -7   11.90    3.03
   3   3   7    9.18    2.70
  -3  -3  -8  963.11   26.68
  -3  -3  -8  979.94   25.97
   3   3   8  953.18   25.81
  -3  -3  -9 1405.72   33.66
  -3  -3  -9 1402.43   35.38
   3   3   9 1385.31   34.23
   3   3  10  747.87   23.79
  -3  -3 -10  760.26   22.88
  -3  -3 -10  746.62   24.75
  -3  -3 -10  797.99   26.62
  -3  -3 -11  769.37   26.32
  -3  -3 -11  846.12   24.53
   3   3  11  820.67   25.94
  -3  -3 -11  809.98   27.85
  -3  -3 -12   86.07    9.00
   3   3  12   86.12    8.05
  -3  -3 -12  100.36    7.80
  -3  -3 -12   80.17    8.68
   3   3  13  156.53   11.40
  -3  -3 -13  171.74   12.61
  -3  -3 -13  181.49   12.98
  -3  -3 -13  181.19   10.58
  -3  -3 -14  224.60   12.21
  -3  -3 -14  193.06   14.10
   3   3  14  196.47   13.70
  -3  -3 -14  220.80   14.84
  -3  -3 -15  860.00   32.66
   3   3  15  920.28   32.35
  -3  -3 -15  893.15   32.93
  -3  -3 -15  900.79   27.51
  -3  -3 -16   15.05    3.90
  -3  -3 -16   22.28    6.28
  -3  -3 -16   26.17    6.44
   3   3  16   21.11    5.72
  -3  -3 -17  332.21   20.92
   3   3  17  382.94   21.46
  -3  -3 -17  375.96   21.50
  -3  -3 -18   27.12    6.91
  -3  -3 -18   26.17    6.89
   3   3  18   13.84    5.14
  -3  -3 -19    5.17    4.92
   3   3  19   -0.35    4.61
  -3  -3 -19   16.03    5.50
  -3  -4  16  279.34   25.39
   3   4 -16  306.01   20.26
   3   4 -15  224.33   16.59
  -3  -4  15  188.36   14.20
  -3  -4  15  199.28   20.73
  -3  -4  14   28.19    9.40
   3   4 -14   13.57    4.82
   3   4 -14   22.41    5.35
  -3  -4  14    8.01    3.59
   3   4 -13  467.22   20.98
   3   4 -13  471.35   23.16
  -3  -4  13  482.97   20.99
  -3  -4  13  488.91   30.41
   3   4 -12  426.62   19.03
   3   4 -12  429.27   21.34
  -3  -4  12  456.60   28.74
  -3  -4  12  446.87   19.17
  -3  -4  11   87.52   12.53
   3   4 -11   69.26    7.23
   3   4 -11   82.83    9.19
  -3  -4  11   80.86    7.58
  -3  -4  10  118.23   14.19
  -3  -4  10  109.07    9.78
   3   4 -10  118.59   10.26
   3   4 -10  113.34    8.41
  -3  -4  10  117.57    8.72
  -3  -4   9   -0.44    4.42
   3   4  -9    6.15    2.91
   3   4  -9    4.52    2.19
  -3  -4   9    7.09    3.22
  -3  -4   9    4.46    2.22
   3   4  -8    2.08    2.75
  -3  -4   8    6.75    3.08
   3   4  -8    5.21    1.91
  -3  -4   8    7.10    2.60
  -3  -4   8    0.81    4.47
   3   4  -7 1708.31   36.97
   3   4  -7 1759.36   43.43
  -3  -4   7 1749.87   52.05
  -3  -4   7 1721.86   34.97
  -3  -4   7 1694.54   43.04
  -3  -4   7 1749.38   37.80
   3   4  -6    3.46    1.74
   3   4  -6    7.54    3.16
  -3  -4   6    1.76    1.23
  -3  -4   6    4.76    2.04
  -3  -4   6    2.19    2.40
   3   4  -5 1493.12   39.14
  -3  -4   5 1617.06   31.05
   3   4  -5 1633.81   32.86
   3   4  -5 1748.17   31.71
  -3  -4   5 1657.24   31.30
  -3  -4   5 1695.65   40.58
  -3  -4   5 1651.02   31.63
  -3  -4   5 1679.93   34.08
  -3  -4   5 1631.84   46.97
  -3  -4   4   47.95    3.76
  -3  -4   4   56.02    7.62
   3   4  -4   55.53    6.14
   3   4  -4   59.51    3.90
  -3  -4   4   51.00    3.23
  -3  -4   4   53.72    5.61
   3   4  -4   55.62    3.53
  -3  -4   4   56.63    3.77
  -3  -4   4   55.05    3.93
   3   4  -4   61.12    5.14
   3   4  -3   67.68    6.44
  -3  -4   3   65.70    3.95
   3   4  -3   65.25    3.25
  -3  -4   3   71.96    6.41
   3   4  -3   68.75    4.43
  -3  -4   3   63.56    4.43
  -3  -4   3   71.22    4.58
  -3  -4   3   71.95    8.70
   3   4  -3   64.67    5.17
  -3  -4   2   79.76    7.36
  -3  -4   2   82.34    6.60
   3   4  -2   70.54    6.18
   3   4  -2   85.15    5.07
  -3  -4   2   81.36    4.88
   3   4  -2   73.88    5.73
  -3  -4   2   74.85    4.93
  -3  -4   2   70.65    8.11
   3   4  -1  411.88   14.89
  -3  -4   1  424.38   15.07
  -3  -4   1  427.13   14.48
   3   4  -1  442.73   22.12
  -3  -4   1  435.60   18.21
   3   4  -1  425.69   12.98
  -3  -4   1  408.83   12.93
   3   4  -1  405.12   14.15
  -3  -4   0   97.03    5.16
   3   4   0   93.40    6.93
  -3  -4   0   92.27    3.62
   3   4   0   93.85    6.48
  -3  -4   0   90.31    6.39
   3   4   0   92.79    9.65
  -3  -4   0  107.13    6.27
  -3  -4   0   91.48    8.13
  -3  -4  -1 1557.74   31.22
   3   4   1 1598.72   33.67
   3   4   1 1724.04   45.01
  -3  -4  -1 1667.52   35.20
  -3  -4  -1 1655.35   29.18
  -3  -4  -1 1658.32   35.03
   3   4   1 1655.66   35.14
  -3  -4  -1 1608.92   39.91
   3   4   2   59.18    3.99
  -3  -4  -2   60.16    3.27
   3   4   2   59.43    4.63
   3   4   2   53.60    3.30
  -3  -4  -2   55.24    3.18
   3   4   2   60.06    7.54
  -3  -4  -2   54.58    4.42
  -3  -4  -2   59.50    5.11
  -3  -4  -2   52.32    6.25
   3   4   3 3598.78   60.61
   3   4   3 3463.92   61.08
  -3  -4  -3 3546.86   61.21
   3   4   3 3539.19   63.71
  -3  -4  -3 3587.45   63.23
   3   4   3 3593.28   75.21
  -3  -4  -3 3478.26   66.21
  -3  -4  -3 3540.50   63.37
  -3  -4  -3 3523.71   61.08
   3   4   4   18.43    2.27
  -3  -4  -4   22.90    2.64
  -3  -4  -4   20.74    2.68
   3   4   4   19.63    2.78
  -3  -4  -4   22.99    2.60
  -3  -4  -4   22.73    2.61
   3   4   4   20.70    2.61
  -3  -4  -4   27.38    3.97
  -3  -4  -5   51.96    5.20
   3   4   5   50.97    3.63
  -3  -4  -5   51.16    3.49
  -3  -4  -5   45.06    4.19
   3   4   5   54.82    4.27
   3   4   5   54.07    4.38
  -3  -4  -6   93.96    6.23
   3   4   6   97.79    4.63
  -3  -4  -6   98.02    6.96
   3   4   6   98.77    6.16
  -3  -4  -7   68.40    5.84
   3   4   7   62.63    5.24
   3   4   7   66.08    3.54
  -3  -4  -7   63.75    5.81
  -3  -4  -8  100.31    7.45
  -3  -4  -8   98.17    7.24
   3   4   8   92.11    6.74
  -3  -4  -9 2801.99   58.80
   3   4   9 2729.87   56.78
  -3  -4  -9 2821.84   57.96
  -3  -4 -10  178.48   11.11
   3   4  10  158.64    9.82
  -3  -4 -10  162.09    9.95
   3   4  11  610.78   21.95
  -3  -4 -11  660.10   23.87
  -3  -4 -11  658.78   22.00
  -3  -4 -12  229.31   14.16
  -3  -4 -12  273.59   13.51
   3   4  12  239.62   13.52
  -3  -4 -12  230.46   15.82
  -3  -4 -13  292.54   16.75
  -3  -4 -13  311.38   15.07
   3   4  13  318.21   16.37
  -3  -4 -13  305.15   18.92
  -3  -4 -14   33.62    5.21
  -3  -4 -14   29.56    6.70
  -3  -4 -14   33.25    6.12
   3   4  14   25.99    5.34
  -3  -4 -15  145.37   12.79
  -3  -4 -15  147.21   10.75
   3   4  15  177.46   13.52
  -3  -4 -15  150.05   13.95
  -3  -4 -16  154.87   14.60
  -3  -4 -16  169.11   14.18
  -3  -4 -16  161.65   11.35
   3   4  16  149.74   12.77
  -3  -4 -17    7.89    4.78
   3   4  17    6.35    4.88
  -3  -4 -17    8.75    4.81
  -3  -4 -18   56.53    9.59
   3   4  18   50.82    8.30
  -3  -4 -18   74.08   10.57
  -3  -4 -19  339.61   22.86
   3   4  19  345.81   21.79
  -3  -4 -19  328.78   22.70
   3   5 -16    6.50    5.14
   3   5 -15  302.85   20.08
  -3  -5  15  361.85   28.80
   3   5 -14  199.91   15.97
  -3  -5  14  187.75   21.02
   3   5 -13  354.65   20.80
  -3  -5  13  408.78   29.08
   3   5 -12  544.25   25.25
  -3  -5  12  539.79   21.18
  -3  -5  12  570.29   33.83
   3   5 -11   48.84    6.05
   3   5 -11   47.59    7.55
  -3  -5  11   45.44    5.72
  -3  -5  11   38.69    9.63
   3   5 -10   22.06    3.95
   3   5 -10   27.37    5.54
  -3  -5  10   26.26    8.25
  -3  -5  10   25.30    3.90
   3   5  -9  256.92   15.52
   3   5  -9  245.52   11.88
  -3  -5   9  246.55   11.72
  -3  -5   9  239.25   19.85
  -3  -5   8  952.68   24.86
   3   5  -8  945.72   25.02
  -3  -5   8  910.33   39.34
   3   5  -8  904.00   30.73
   3   5  -7  331.53   12.28
   3   5  -7  317.28   16.47
  -3  -5   7  315.89   11.82
  -3  -5   7  330.40   21.75
  -3  -5   6    2.26    4.62
  -3  -5   6    3.86    1.42
   3   5  -6    3.16    1.46
   3   5  -6    3.77    3.07
  -3  -5   6    3.40    1.79
  -3  -5   6    5.48    1.92
   3   5  -6    3.60    1.11
  -3  -5   5   47.63    8.59
   3   5  -5   36.09    5.39
  -3  -5   5   42.05    5.77
   3   5  -5   38.14    3.21
  -3  -5   5   31.54    3.80
  -3  -5   5   41.80    3.54
  -3  -5   5   59.79    5.48
   3   5  -5   38.96    3.33
   3   5  -4    6.72    3.47
   3   5  -4    5.22    1.40
  -3  -5   4    0.80    2.21
  -3  -5   4   -0.65    2.51
  -3  -5   4    5.87    1.54
   3   5  -4    2.43    1.14
  -3  -5   4    5.77    5.01
   3   5  -3 2606.19   45.42
  -3  -5   3 2658.73   45.37
  -3  -5   3 2673.16   57.19
   3   5  -3 2622.79   56.62
  -3  -5   3 2714.55   50.66
  -3  -5   3 2644.15   53.15
  -3  -5   3 2830.64   66.80
   3   5  -2  143.62    4.19
  -3  -5   2  172.52   10.32
   3   5  -2  164.69   10.03
  -3  -5   2  179.80   10.16
  -3  -5   2  144.24    4.17
   3   5  -2  170.60    5.19
  -3  -5   2  164.14    8.78
  -3  -5   2  176.89    8.34
  -3  -5   2  182.01   13.52
   3   5  -2  156.52    7.04
  -3  -5   1  435.90   13.19
  -3  -5   1  430.84   20.31
  -3  -5   1  411.73   15.98
   3   5  -1  427.91   10.67
  -3  -5   1  440.25   14.93
  -3  -5   1  447.77   14.47
   3   5  -1  420.90   16.15
   3   5  -1  432.43   12.44
  -3  -5   0   31.95    3.74
  -3  -5   0   35.75    2.85
   3   5   0   31.71    3.23
   3   5   0   31.26    4.02
   3   5   0   27.09    6.97
   3   5   0   34.94    3.63
  -3  -5   0   42.02    6.71
   3   5   1   34.51    1.85
   3   5   1   43.60    4.80
   3   5   1   53.85    4.76
   3   5   1   58.31    9.39
  -3  -5  -1   39.77    4.58
  -3  -5  -1   37.75    6.13
   3   5   2 1297.43   27.10
   3   5   2 1357.80   24.51
  -3  -5  -2 1271.92   23.85
   3   5   2 1290.72   30.39
   3   5   2 1403.45   42.52
  -3  -5  -2 1308.40   31.42
  -3  -5  -2 1293.70   37.17
  -3  -5  -3 3645.63   61.61
   3   5   3 3612.59   62.66
   3   5   3 3681.96   62.22
   3   5   3 3552.76   66.82
   3   5   3 3583.43   81.42
  -3  -5  -3 3550.55   69.08
   3   5   3 3610.71   61.44
  -3  -5  -3 3534.40   76.09
  -3  -5  -4    4.38    2.38
   3   5   4    1.25    1.32
   3   5   4    1.10    1.50
  -3  -5  -4    2.65    1.70
   3   5   4    3.96    3.73
  -3  -5  -4    2.68    1.11
   3   5   4    2.68    1.33
  -3  -5  -5  132.49    7.52
   3   5   5  129.56    6.55
   3   5   5  122.38    6.29
  -3  -5  -5  122.44    8.15
   3   5   5  142.88   12.31
  -3  -5  -6 1882.52   40.42
   3   5   6 1771.41   33.41
   3   5   6 1886.94   36.31
   3   5   6 1867.72   38.00
  -3  -5  -6 1907.09   42.57
  -3  -5  -7  471.87   16.74
   3   5   7  460.22   12.56
  -3  -5  -7  485.37   17.93
   3   5   7  455.25   15.04
  -3  -5  -8  247.08   12.29
   3   5   8  254.42    7.86
  -3  -5  -8  249.97   12.75
   3   5   8  242.83   11.16
   3   5   9 1988.15   44.65
  -3  -5  -9 2049.04   47.30
   3   5   9 2033.26   35.66
  -3  -5  -9 2111.65   47.49
  -3  -5 -10 1742.19   42.55
   3   5  10 1745.39   41.30
  -3  -5 -10 1724.82   43.53
  -3  -5 -11   10.02    3.92
  -3  -5 -11    7.56    3.21
   3   5  11    7.42    3.01
   3   5  12  779.34   26.35
  -3  -5 -12  772.47   27.86
  -3  -5 -12  805.49   26.52
   3   5  13  167.72   11.92
  -3  -5 -13  157.18   12.44
  -3  -5 -13  154.24   10.91
   3   5  14  168.55   12.65
  -3  -5 -14  198.42   12.79
  -3  -5 -14  203.55   14.65
  -3  -5 -14  178.49   16.08
  -3  -5 -15 1201.44   35.72
  -3  -5 -15 1130.23   39.12
   3   5  15 1154.89   37.27
  -3  -5 -15 1134.03   43.64
  -3  -5 -16   84.84   10.70
  -3  -5 -16   93.56   12.41
   3   5  16  109.17   10.97
   3   5  17  341.26   20.28
  -3  -5 -17  311.88   20.51
  -3  -5 -17  317.21   22.82
  -3  -5 -18   10.18    5.19
  -3  -5 -18    8.45    6.89
   3   5  18   14.62    5.36
  -3  -5 -19   17.95    7.86
  -3  -5 -19   15.48    6.30
   3   5  19    8.06    4.11
   3   6 -15  103.22   12.45
   3   6 -14  106.41   12.28
  -3  -6  14   95.59   16.10
   3   6 -13  149.93   13.95
  -3  -6  13  155.22   19.30
   3   6 -12   -0.77    3.75
  -3  -6  12    5.35    6.53
   3   6 -11   19.02    5.62
  -3  -6  11    7.82    6.13
   3   6 -10    6.75    3.66
  -3  -6  10    4.47    5.71
   3   6  -9  337.32   19.22
  -3  -6   9  317.45   24.46
   3   6  -8  139.87    8.36
   3   6  -8  147.06   12.02
  -3  -6   8  128.13   15.54
   3   6  -7  778.44   21.29
   3   6  -7  774.21   28.51
  -3  -6   7  783.77   20.02
  -3  -6   7  784.43   36.75
  -3  -6   6  133.04    8.44
   3   6  -6  149.01   11.41
   3   6  -6  121.26    6.77
  -3  -6   6  130.25    6.17
  -3  -6   6  138.21   15.25
  -3  -6   5  129.37    5.38
   3   6  -5  128.07   10.40
   3   6  -5  125.80    6.32
  -3  -6   5  133.92   14.32
  -3  -6   5  144.53   10.56
   3   6  -4  195.13    7.13
   3   6  -4  189.68   12.30
  -3  -6   4  195.28   12.62
  -3  -6   4  168.47    5.34
  -3  -6   4  179.12   15.93
  -3  -6   3   23.04    4.27
   3   6  -3   14.23    3.87
  -3  -6   3   20.01    3.97
  -3  -6   3   20.73    6.40
   3   6  -3   19.11    1.95
   3   6  -2   73.97    3.41
  -3  -6   2   82.56    5.72
  -3  -6   2   79.11    7.06
  -3  -6   2   91.13   10.73
   3   6  -2   83.44    4.45
   3   6  -2   75.58    7.41
  -3  -6   1   75.74    4.06
   3   6  -1   57.67    3.52
   3   6  -1   77.91    7.31
   3   6  -1   85.32    4.96
  -3  -6   1   85.44    7.04
  -3  -6   1   72.52    9.44
   3   6   0  134.48    4.86
   3   6   0  162.18   10.06
   3   6   0  151.11   15.47
   3   6   0  146.06    7.66
  -3  -6   0  157.91    9.05
  -3  -6   0  152.33    9.62
  -3  -6   0  167.56   13.29
   3   6   1 4786.58   77.29
   3   6   1 4786.85   87.84
   3   6   1 4394.54   76.75
   3   6   1 4505.47  106.82
   3   6   1 4548.33   88.76
  -3  -6  -1 4926.88   89.22
  -3  -6  -1 4924.46   87.65
  -3  -6  -1 4791.48   98.42
  -3  -6  -2   11.88    3.42
   3   6   2    7.11    1.53
  -3  -6  -2    5.48    2.82
   3   6   2    7.08    2.92
   3   6   2    1.32    4.81
   3   6   2    7.20    1.66
  -3  -6  -2   10.43    4.48
   3   6   3  504.63   13.05
  -3  -6  -3  515.59   18.58
   3   6   3  560.55   14.19
   3   6   3  533.24   17.56
   3   6   3  508.49   26.56
   3   6   3  528.77   11.85
  -3  -6  -3  524.62   23.35
   3   6   4  391.48   10.71
   3   6   4  398.37   12.28
   3   6   4  361.80   13.64
   3   6   4  347.17   21.72
  -3  -6  -4  384.14   15.88
   3   6   4  377.53   10.52
   3   6   5  555.26   17.01
   3   6   5  530.77   27.05
   3   6   5  559.38   15.00
  -3  -6  -5  568.91   20.05
  -3  -6  -6   57.18    6.20
  -3  -6  -6   61.50    6.44
   3   6   6   58.22    4.78
   3   6   6   50.32    4.36
   3   6   6   44.95    8.11
   3   6   7 2426.34   46.58
   3   6   7 2317.60   40.75
   3   6   7 2490.56   66.27
  -3  -6  -7 2456.27   53.94
   3   6   7 2427.08   47.97
  -3  -6  -7 2419.69   53.28
  -3  -6  -8  760.21   24.86
   3   6   8  723.51   18.31
  -3  -6  -8  699.17   24.07
   3   6   8  716.43   18.26
   3   6   8  731.26   21.09
   3   6   8  705.42   18.86
   3   6   9 1016.61   25.51
  -3  -6  -9  994.07   30.76
   3   6   9 1031.30   22.39
  -3  -6  -9 1037.35   30.88
   3   6   9 1016.36   27.56
  -3  -6 -10  593.93   23.08
   3   6  10  588.86   13.93
  -3  -6 -10  585.51   22.28
   3   6  10  571.92   20.25
   3   6  11   45.10    5.87
  -3  -6 -11   48.35    6.84
  -3  -6 -11   55.42    6.82
  -3  -6 -12  137.85   11.40
  -3  -6 -12  128.08   10.22
   3   6  12  129.30    9.97
  -3  -6 -13  460.81   22.36
  -3  -6 -13  469.21   20.84
   3   6  13  458.81   20.33
  -3  -6 -14  950.22   34.84
   3   6  14  940.19   31.97
  -3  -6 -15  192.17   15.22
   3   6  15  188.53   14.00
  -3  -6 -16   81.94   10.61
   3   6  16   73.08    9.13
  -3  -6 -16   78.16   11.98
  -3  -6 -17  114.70   12.58
   3   6  17  111.95   11.62
  -3  -6 -17  131.81   15.51
   3   6  18   93.59   11.23
  -3  -6 -18   96.73   12.29
  -3  -6 -18   69.32   11.92
  -3  -6 -19  395.43   25.64
   3   6  19  378.85   23.01
  -3  -6 -19  368.23   26.78
   3   7 -13   13.77    5.48
  -3  -7  13   10.87    9.02
  -3  -7  12   82.00   15.32
   3   7 -12   67.41    9.92
   3   7 -11    7.34    5.07
  -3  -7  11   17.06    9.14
   3   7 -10  334.42   20.45
  -3  -7  10  296.21   25.83
   3   7  -9  734.36   30.70
  -3  -7   9  729.80   39.37
  -3  -7   8  108.77   15.53
   3   7  -8  108.69   11.21
   3   7  -7    5.87    3.51
  -3  -7   7   17.25    7.44
  -3  -7   6  251.00   21.29
   3   7  -6  250.44   15.92
   3   7  -5  256.81   15.86
  -3  -7   5  290.03   17.40
  -3  -7   5  263.20   20.97
   3   7  -4   86.49    9.19
  -3  -7   4   80.68   11.79
   3   7  -4   76.68    4.73
  -3  -7   4   83.92    9.58
   3   7  -3 1098.04   23.45
  -3  -7   3 1115.51   36.44
   3   7  -3 1167.27   34.70
   3   7  -3 1124.19   24.96
  -3  -7   3 1117.09   42.69
  -3  -7   2  257.79   15.14
   3   7  -2  216.65   13.24
   3   7  -2  210.21    8.78
  -3  -7   2  214.69   17.47
   3   7  -1   11.76    3.86
   3   7  -1    7.89    1.99
  -3  -7   1   13.42    4.05
  -3  -7   1   11.87    5.36
   3   7  -1   12.79    2.52
   3   7   0   25.32    4.54
  -3  -7   0   31.02    5.08
   3   7   0   25.43    3.63
   3   7   0   25.42    2.80
  -3  -7   0   26.33    6.74
   3   7   1  183.93    7.30
   3   7   1  198.20   11.48
   3   7   1  171.47   18.01
   3   7   1  201.02   11.38
  -3  -7  -1  191.13   12.13
  -3  -7  -1  202.87   15.47
   3   7   2   87.81    5.02
   3   7   2   86.82    7.40
  -3  -7  -2   76.30    3.50
   3   7   2   80.59   12.40
   3   7   2   83.89    8.80
  -3  -7  -2   93.43    8.39
  -3  -7  -2   92.95   10.62
   3   7   3  529.84   23.99
   3   7   3  551.00   30.73
  -3  -7  -3  593.01   22.31
  -3  -7  -3  571.81   26.08
   3   7   3  527.20   10.67
   3   7   3  569.62   19.95
   3   7   3  565.37   15.50
  -3  -7  -4   52.12    6.23
   3   7   4   51.29    3.07
   3   7   4   50.21    5.49
  -3  -7  -4   51.83    6.62
   3   7   4   42.56    9.53
  -3  -7  -4   75.24    9.61
   3   7   4   41.39    2.91
  -3  -7  -5 1103.37   32.58
   3   7   5 1146.07   23.38
   3   7   5 1124.60   29.55
   3   7   5 1164.90   45.01
  -3  -7  -5 1121.57   34.28
   3   7   5 1166.49   24.50
   3   7   6  198.56   10.19
   3   7   6  169.19   16.72
  -3  -7  -6  202.49   12.38
   3   7   6  195.54    8.54
   3   7   7  552.35   17.70
   3   7   7  515.90   29.05
  -3  -7  -7  551.32   21.68
   3   7   7  541.21   16.70
   3   7   8  414.05   14.33
   3   7   8  415.65   26.21
  -3  -7  -8  416.14   18.82
   3   7   8  399.25   14.84
  -3  -7  -8  408.36   19.96
   3   7   9   77.00    6.74
  -3  -7  -9   67.86    7.76
   3   7   9   69.50    5.26
  -3  -7  -9   79.87    8.87
   3   7   9   91.85   12.38
   3   7  10    5.56    1.89
  -3  -7 -10    3.53    3.22
  -3  -7 -10   11.82    3.93
   3   7  10    4.89    2.64
  -3  -7 -11  240.58   15.64
   3   7  11  240.45   13.18
  -3  -7 -12   33.70    6.16
   3   7  12   28.89    5.18
  -3  -7 -13  432.33   22.86
   3   7  13  453.48   20.02
  -3  -7 -14    1.56    3.55
   3   7  14    2.55    3.56
  -3  -7 -15  406.11   23.62
   3   7  15  429.51   21.23
  -3  -7 -16    1.00    4.35
   3   7  16    6.52    4.45
  -3  -7 -17   34.41    8.33
   3   7  17   25.70    6.30
  -3  -7 -18   83.82   11.77
  -3  -7 -18   82.36   13.38
   3   7  18   77.44   10.43
  -3  -7 -19   80.99   13.61
  -3  -7 -19  111.79   13.26
   3   7  19  114.40   12.78
  -3  -7 -20   24.94    7.30
   3   8 -11  484.14   26.80
  -3  -8  11  462.42   35.47
  -3  -8  10   46.12   13.63
   3   8 -10   31.45    7.64
   3   8  -9  111.83   12.22
  -3  -8   9  117.77   17.09
   3   8  -8   33.73    7.49
  -3  -8   8   24.31    9.07
   3   8  -7    4.54    3.79
  -3  -8   7   22.95    9.54
  -3  -8   6   72.02   13.01
   3   8  -6   96.96   10.76
  -3  -8   5  642.73   34.95
   3   8  -5  616.94   26.80
   3   8  -4  186.20   14.09
  -3  -8   4  211.74   17.14
  -3  -8   4  213.88   19.59
   3   8  -3   72.40    8.68
  -3  -8   3   69.59    9.85
  -3  -8   3   81.65   12.40
   3   8  -2  146.76   11.77
   3   8  -2  124.09    7.40
  -3  -8   2  130.89   12.57
  -3  -8   2  119.72   14.04
  -3  -8   1  488.56   23.70
   3   8  -1  502.07   21.90
   3   8  -1  510.54   16.92
  -3  -8   1  523.72   28.30
   3   8   0   57.80    7.14
  -3  -8   0   49.96    7.70
   3   8   0   51.48    5.48
  -3  -8   0   60.32   10.14
   3   8   1  778.31   26.75
   3   8   1  719.87   24.34
  -3  -8  -1  771.81   28.83
  -3  -8  -1  776.74   33.73
  -3  -8  -2  101.62    9.81
   3   8   2   80.68    8.07
   3   8   2   73.11   14.00
   3   8   2   81.24    8.70
  -3  -8  -2   75.31   10.25
   3   8   3  112.72    9.17
   3   8   3  111.51   15.71
   3   8   3  124.24   12.11
  -3  -8  -3  135.62   11.32
  -3  -8  -3  140.51   13.96
   3   8   4   13.09    3.32
  -3  -8  -4   15.81    4.77
   3   8   4   18.37    7.66
   3   8   4    7.15    4.23
  -3  -8  -4   28.48    6.38
   3   8   5  284.18   14.15
   3   8   5  252.76   21.98
  -3  -8  -5  283.80   16.71
   3   8   5  290.36    9.02
   3   8   6  585.55   20.97
   3   8   6  567.10   33.56
  -3  -8  -6  622.16   25.83
   3   8   6  616.39   16.45
   3   8   7 1507.50   56.35
   3   8   7 1482.89   37.00
  -3  -8  -7 1452.89   43.70
   3   8   7 1512.68   33.07
   3   8   8   54.21    5.71
  -3  -8  -8   52.18    7.55
   3   8   8   50.82   11.09
   3   8   8   44.59    4.89
   3   8   9  166.31    9.48
   3   8   9  160.11   17.81
  -3  -8  -9  184.41   14.22
   3   8   9  173.64    9.91
   3   8  10  942.58   43.73
   3   8  10  911.35   27.10
  -3  -8 -10  902.77   33.95
   3   8  11  123.10   16.03
  -3  -8 -11  100.06   11.08
   3   8  11  115.48    9.00
  -3  -8 -12  775.25   32.89
   3   8  12  755.04   39.53
  -3  -8 -12  756.89   31.68
   3   8  12  749.05   26.11
  -3  -8 -13  727.20   32.63
   3   8  13  748.29   27.03
   3   8  13  755.19   39.88
  -3  -8 -13  695.02   30.85
  -3  -8 -14   77.54   10.16
  -3  -8 -14   90.60   11.93
   3   8  14   81.70    8.97
  -3  -8 -15   12.27    5.97
  -3  -8 -15   23.01    7.04
   3   8  15   15.64    4.53
  -3  -8 -16  278.11   21.19
  -3  -8 -16  278.24   20.00
   3   8  16  277.94   17.93
  -3  -8 -17   47.48    9.11
  -3  -8 -17   48.02    9.53
   3   8  17   41.75    7.75
  -3  -8 -18   12.68    6.05
  -3  -8 -18   26.31    8.38
   3   8  18   18.00    5.85
  -3  -8 -19  610.49   36.84
   3   9  -9   53.93    9.35
  -3  -9   9   56.49   13.83
   3   9  -8   -3.80    4.85
  -3  -9   8    6.56    5.98
  -3  -9   7    2.99    6.59
   3   9  -7    0.07    3.75
   3   9  -6   63.08    9.66
  -3  -9   6   42.86   10.86
  -3  -9   5  209.58   21.37
   3   9  -5  269.62   18.34
   3   9  -4  330.78   20.10
  -3  -9   4  342.79   26.19
   3   9  -3  336.78   19.66
  -3  -9   3  298.58   22.58
  -3  -9   3  298.41   24.03
  -3  -9   2  114.25   13.60
   3   9  -2   95.41   10.46
  -3  -9   2  105.15   14.27
   3   9  -1  141.15   12.07
  -3  -9   1  155.46   16.59
  -3  -9   1  124.35   13.31
   3   9   0   16.57    4.85
  -3  -9   0   18.37    5.64
   3   9   0   15.09    3.71
  -3  -9   0   13.40    5.64
   3   9   1    7.40    3.52
  -3  -9  -1   14.40    5.45
   3   9   1   14.97    4.10
  -3  -9  -1    5.69    5.36
  -3  -9  -2   68.65   11.19
  -3  -9  -2   43.37    7.26
   3   9   2   38.80    6.42
   3   9   2   54.54    7.40
  -3  -9  -3  947.25   35.16
   3   9   3  959.50   31.68
   3   9   3  936.09   48.56
   3   9   3  895.64   34.19
  -3  -9  -3  926.39   38.96
   3   9   4   17.98    4.61
  -3  -9  -4   20.40    6.04
   3   9   4   21.52    9.97
   3   9   4   22.91    6.61
  -3  -9  -4   22.18    7.19
   3   9   5  645.58   24.24
   3   9   5  609.88   38.22
   3   9   5  592.82   31.39
  -3  -9  -5  665.84   28.64
   3   9   6  146.72   10.74
   3   9   6  168.23   20.15
   3   9   6  154.48   16.00
  -3  -9  -6  135.28   12.83
   3   9   7   65.73    7.17
  -3  -9  -7   60.70    8.47
   3   9   7   58.02   12.04
   3   9   8  127.97    9.65
   3   9   8  129.71   17.28
  -3  -9  -8  120.86   12.38
   3   9   9   16.25    3.71
  -3  -9  -9   22.75    6.19
   3   9   9   11.49    6.99
  -3  -9 -10   93.39   11.08
   3   9  10  108.74   16.01
   3   9  11 1129.24   51.53
  -3  -9 -11 1136.86   41.42
   3   9  11 1141.95   32.56
  -3  -9 -12   40.96    8.28
   3   9  12   32.12    9.60
   3   9  12   52.92    6.65
   3   9  13  506.21   34.14
  -3  -9 -13  475.49   26.33
   3   9  13  465.70   20.77
   3   9  14  197.85   21.36
  -3  -9 -14  204.29   17.19
   3   9  14  220.34   14.75
  -3  -9 -15   16.81    6.23
   3   9  15   16.41    6.74
   3   9  15   21.90    5.43
  -3  -9 -16   63.44   10.53
   3   9  16   61.53   13.03
   3   9  16   68.39    9.15
   3   9  17  220.33   23.29
  -3  -9 -17  217.73   18.75
   3   9  17  203.03   15.85
   3   9  18   64.09    9.47
   3  10  -6  229.90   18.68
  -3 -10   6  246.31   24.77
   3  10  -5  352.95   22.35
  -3 -10   5  341.34   28.71
   3  10  -4   22.59    6.34
  -3 -10   4   34.21   10.61
   3  10  -3   28.08    7.28
  -3 -10   3   36.07   10.08
   3  10  -2  165.37   14.49
  -3 -10   2  162.94   18.55
  -3 -10   2  178.02   19.44
   3  10  -1   92.80   11.21
  -3 -10   1  106.30   14.53
  -3 -10   1  115.55   15.57
   3  10   0  289.21   18.64
  -3 -10   0  316.58   24.19
  -3 -10   0  275.54   21.49
   3  10   1  262.84   17.38
  -3 -10  -1  293.74   23.09
  -3 -10  -1  258.59   19.74
   3  10   2   17.94    4.87
  -3 -10  -2   26.88    7.18
  -3 -10  -2   43.34    9.91
   3  10   3   42.75    6.80
  -3 -10  -3   38.87    9.19
  -3 -10  -3   51.36    8.94
   3  10   3   55.51    8.33
   3  10   4    2.11    3.75
   3  10   4   -9.57    8.53
  -3 -10  -4    4.94    4.98
   3  10   4   -1.66    4.17
  -3 -10  -4   -1.34    4.98
   3  10   5  371.42   19.27
   3  10   5  332.07   30.19
   3  10   5  336.57   23.66
  -3 -10  -5  369.64   22.82
   3  10   6   26.01    5.57
  -3 -10  -6   23.56    6.66
   3  10   6   21.13    9.84
   3  10   6   26.77    8.05
   3  10   7  628.20   25.06
   3  10   7  613.62   40.10
   3  10   7  660.57   36.43
  -3 -10  -7  643.26   30.82
   3  10   8  158.04   11.65
   3  10   8  138.85   19.30
   3  10   8  171.04   18.12
  -3 -10  -8  182.48   16.25
  -3 -10  -9   12.61    5.39
   3  10   9    7.02    6.27
  -3 -10 -10   57.63    9.60
   3  10  10   51.06   12.71
   3  10  11  121.96   17.68
  -3 -10 -11  152.00   14.90
   3  10  12  230.42   24.16
  -3 -10 -12  205.13   17.54
   3  10  13  202.02   22.69
  -3 -10 -13  176.26   16.92
  -3 -10 -14   15.55    6.85
   3  10  14   11.51    6.80
   3  10  15   23.79    8.88
   3  10  16   46.47   11.83
   3  11  -3   40.73    8.37
   3  11  -2   74.62   10.60
  -3 -11   2   76.51   13.79
   3  11  -1  118.05   13.14
  -3 -11   1  128.38   17.40
   3  11   0    7.86    5.12
  -3 -11   0    3.17    5.51
  -3 -11   0   -6.67    6.60
   3  11   1  120.99   12.93
  -3 -11  -1   83.77   13.02
  -3 -11  -1   68.97   12.44
  -3 -11  -2   45.45    9.18
   3  11   2   33.76    7.16
  -3 -11  -2   33.72    8.58
   3  11   3  198.30   15.45
  -3 -11  -3  193.14   20.29
  -3 -11  -3  190.70   18.24
   3  11   4  284.74   18.57
  -3 -11  -4  295.44   23.91
  -3 -11  -4  281.68   22.08
   3  11   5  200.24   15.26
  -3 -11  -5  243.01   20.05
   3  11   6   -7.47    5.06
   3  11   6   10.92    8.71
  -3 -11  -6   -4.52    5.20
   3  11   6    4.86    5.84
   3  11   7    0.55    3.33
   3  11   7   10.68    9.70
  -3 -11  -7    2.01    4.81
   3  11   7    2.91    5.62
   3  11   8    5.45    8.42
  -3 -11  -8    5.02    5.20
   3  11   8    8.65    7.25
   3  11   9  344.09   31.54
   3  11   9  318.93   26.93
  -3 -11  -9  319.55   23.30
  -3 -11 -10  135.58   15.27
   3  11  10  163.34   21.32
   3  11  10  130.31   17.52
  -3 -11 -11  736.64   36.54
   3  11  11  676.66   44.06
   3  11  11  746.59   41.97
   3  11  12   29.22   11.91
   3  11  13  105.83   18.68
   3  11  14   13.23    9.68
  -3 -12  -1  113.97   17.39
   3  12   2    5.12    4.46
  -3 -12  -2   11.30    7.22
   3  12   3   -0.47    4.80
  -3 -12  -3    6.53    5.23
   3  12   4   21.94    5.82
  -3 -12  -4    9.88    6.59
   3  12   5  169.13   15.09
  -3 -12  -5  186.91   19.20
   3  12   6    5.65    4.39
  -3 -12  -6    9.05    6.60
   3  12   8  109.40   19.92
   3  12   9   74.73   15.94
   3  12   9  114.72   17.06
   3  12  10    4.57    7.69
   3  12  11   16.27    7.93
   4  -9   2    2.08    4.62
   4  -9   3    9.33    5.91
  -4   8  12    1.93    5.38
  -4   8  11   13.20    7.02
   4  -8 -10   49.14   11.65
   4  -8  -9   64.08   12.98
   4  -8  -8  215.16   23.72
  -4   8   8  286.56   24.08
  -4   8   7   40.51    9.97
   4  -8  -7   28.57    9.57
  -4   8   6    7.68    5.72
   4  -8  -6   -1.72    5.94
  -4   8   5   63.20   12.06
   4  -8  -5   53.51   12.78
  -4   8   4   -1.61    6.27
   4  -8  -4    0.87    6.19
   4  -8  -3  233.32   24.89
  -4   8   3  290.21   24.61
   4  -8  -2  439.33   33.65
  -4   8   2  450.00   30.64
   4  -8  -2  505.44   26.25
   4  -8  -1   42.54    8.76
   4  -8  -1   46.94   12.19
  -4   8   1   32.97    9.04
   4  -8   0    3.45    6.17
  -4   8   0    1.33    5.33
   4  -8   0    6.42    4.85
   4  -8   1  118.07   18.40
   4  -8   1  117.41   12.82
  -4   8  -1  101.06   14.38
  -4   8  -2   13.42    6.85
   4  -8   2   28.14   11.34
   4  -8   2   28.28    7.59
   4  -8   3   84.63   16.58
  -4   8  -3   83.01   12.04
  -4   8  -3   71.80   11.75
   4  -8   3   70.39   10.68
   4  -8   4  251.07   27.13
  -4   8  -4  230.91   20.07
   4  -8   4  247.09   19.53
   4  -8   5  171.50   23.22
  -4   8  -5  167.12   17.51
   4  -8   5  202.01   18.01
  -4   8  -6    9.84    6.03
   4  -8   6    5.04    5.48
   4  -7 -14   23.98    8.99
   4  -7 -13    8.91    6.43
  -4   7  13    0.55    6.39
   4  -7 -12  101.41   15.08
  -4   7  12   84.31   13.26
  -4   7  11   75.68   13.06
   4  -7 -11   76.79   13.43
  -4   7  10   52.60   10.32
   4  -7 -10   70.23   12.60
  -4   7   9   62.72   12.30
   4  -7  -9   51.04   11.63
  -4   7   8    3.43    5.97
   4  -7  -8    9.79    7.22
   4  -7  -7   75.09   13.26
  -4   7   7   78.58   12.20
  -4   7   6   60.89   11.66
   4  -7  -6   50.70   11.60
  -4   7   5   54.97   11.01
   4  -7  -5   49.31   11.52
  -4   7   4  402.18   27.53
   4  -7  -4  376.54   28.66
   4  -7  -3  158.48   18.91
  -4   7   3  154.38   17.81
   4  -7  -2   46.61   11.27
   4  -7  -2   50.20    7.91
  -4   7   2   61.95   11.83
   4  -7  -1   23.56    9.49
  -4   7   1   25.46    8.82
   4  -7  -1   14.04    4.94
   4  -7   0   86.62   15.43
  -4   7   0   94.70   13.77
   4  -7   0   97.68   10.74
   4  -7   1   10.08    8.62
  -4   7  -1   26.73    7.44
   4  -7   1   27.66    6.61
   4  -7   2  291.82   27.71
  -4   7  -2  303.99   22.64
   4  -7   2  300.53   19.29
  -4   7  -3   86.81   12.27
   4  -7   3   79.74   15.21
   4  -7   3  102.51   11.89
   4  -7   4  164.76   15.10
  -4   7  -4  187.32   17.39
   4  -7   4  197.20   22.83
   4  -7   5    5.37    7.25
  -4   7  -5   -5.65    3.90
  -4   7  -5    2.75    4.73
   4  -7   5   10.65    6.09
  -4   7  -6    6.89    5.18
  -4   7  -6   -1.36    4.13
   4  -7   6   13.74    7.92
   4  -7   6   12.63    6.27
  -4   7  -7   -6.43    5.14
   4  -7   7    8.89    7.01
   4  -7   7   -4.03    5.28
  -4   7  -8   66.65   10.21
   4  -7   8   45.95    9.87
   4  -7   9   85.93   12.86
  -4   6  16    8.10    5.66
  -4   6  15  152.90   16.42
   4  -6 -15  168.68   18.13
  -4   6  14  327.74   22.88
  -4   6  14  308.87   26.02
  -4   6  14  273.69   23.62
   4  -6 -14  314.25   24.33
  -4   6  13   39.55    8.52
  -4   6  13   26.42    8.94
   4  -6 -13   16.44    6.42
  -4   6  13   18.39    7.68
   4  -6 -12   41.27    9.91
  -4   6  12   10.12    6.01
  -4   6  12   16.67    5.65
  -4   6  12   35.69    9.95
  -4   6  11   71.93   12.30
   4  -6 -11   74.37   11.80
  -4   6  10    4.87    5.82
   4  -6 -10   17.14    6.42
  -4   6   9    8.11    5.83
   4  -6  -9   18.13    7.08
   4  -6  -8  311.61   19.30
   4  -6  -8  317.00   24.49
  -4   6   8  380.96   25.24
   4  -6  -7   60.95    8.35
  -4   6   7   68.06   11.17
   4  -6  -7   56.16   11.38
   4  -6  -6    5.78    4.11
   4  -6  -6    9.27    5.90
  -4   6   6    4.86    5.35
   4  -6  -5   27.04    6.22
  -4   6   5   30.69    8.51
   4  -6  -5   26.14    8.03
   4  -6  -4  126.40   11.42
  -4   6   4  132.37   15.38
   4  -6  -4  115.03   15.55
   4  -6  -3   14.18    4.46
  -4   6   3   15.29    7.05
   4  -6  -3   19.11    7.67
   4  -6  -2  280.63   23.84
  -4   6   2  279.03   22.08
   4  -6  -2  308.20   17.07
   4  -6  -2  312.89   17.44
   4  -6  -1    2.19    5.74
   4  -6  -1   -1.13    3.11
   4  -6   0    4.81    6.55
  -4   6   0    2.79    4.75
   4  -6   0    5.31    3.85
  -4   6  -1   -1.08    5.56
   4  -6   1   -5.48    3.88
   4  -6   1   11.01    6.35
   4  -6   2  192.22   20.73
  -4   6  -2  145.41   15.01
   4  -6   2  154.18   13.06
   4  -6   3  237.67   23.50
   4  -6   3  257.08   17.19
  -4   6  -3  244.09   19.00
  -4   6  -4   22.65    6.11
   4  -6   4   22.44    8.88
   4  -6   4   19.95    5.70
  -4   6  -5   -2.40    4.04
   4  -6   5    2.95    3.80
  -4   6  -6   17.69    5.76
   4  -6   6    1.52    6.07
  -4   6  -6   20.46    6.63
   4  -6   6   20.54    6.32
  -4   6  -7   44.23    8.09
   4  -6   7   21.60    9.36
  -4   6  -7   37.78    8.06
   4  -6   7   31.65    7.72
  -4   6  -8  149.81   13.96
   4  -6   8  122.07   13.77
  -4   6  -9   83.93   11.00
   4  -6   9   83.50   11.87
  -4   6 -10   61.87    9.49
   4  -6  10   44.28   10.51
  -4   6 -11   12.29    5.54
   4  -6  11    5.81    6.35
  -4   6 -12    4.85    5.22
  -4   5  16  169.19   17.13
  -4   5  15   62.91   10.92
  -4   5  15   57.44   12.05
  -4   5  15   47.53    9.93
   4  -5 -15   60.82   11.71
  -4   5  14  138.55   15.25
  -4   5  14  136.21   16.43
  -4   5  14  112.15   15.54
   4  -5 -14  127.97   14.78
  -4   5  13    3.28    4.71
  -4   5  13    0.38    5.74
   4  -5 -13   -0.76    5.00
  -4   5  13    3.01    5.67
  -4   5  12   21.97    6.59
  -4   5  12   11.90    6.69
   4  -5 -12    7.80    5.28
  -4   5  11  105.39   12.32
  -4   5  11  105.88   14.14
   4  -5 -11   86.71   12.00
  -4   5  10  284.24   19.90
  -4   5  10  274.38   21.71
   4  -5 -10  232.66   19.87
   4  -5  -9    6.45    4.80
   4  -5  -9    4.74    4.50
  -4   5   9    5.44    5.45
  -4   5   9    0.67    5.54
  -4   5   8  103.74   13.30
   4  -5  -8   97.88   12.78
   4  -5  -8   98.41   10.92
   4  -5  -7   15.38    5.57
  -4   5   7    1.50    4.96
   4  -5  -7    7.67    6.10
  -4   5   6  202.61   17.68
   4  -5  -6  201.74   17.82
   4  -5  -6  196.63   14.82
   4  -5  -5  125.39   14.58
   4  -5  -5  114.35   11.08
  -4   5   5  136.76   14.76
   4  -5  -4  402.19   26.43
   4  -5  -4  490.04   22.66
  -4   5   4  524.25   27.89
   4  -5  -3    7.19    4.18
  -4   5   3   12.41    6.34
   4  -5  -3   10.05    6.07
   4  -5  -2  290.93   23.06
   4  -5  -2  376.68   19.11
  -4   5   2  332.25   22.30
   4  -5  -2  331.31   16.18
   4  -5  -1   14.92    6.98
   4  -5  -1   28.62    5.04
  -4   5   1   32.02    7.73
   4  -5  -1   16.53    4.92
   4  -5   0  258.61   22.13
  -4   5   0  293.36   20.60
   4  -5   0  290.74   15.61
   4  -5   0  298.72   16.59
   4  -5   1  307.41   16.18
   4  -5   1  307.37   24.52
  -4   5  -1  313.47   20.65
   4  -5   1  321.92   16.72
   4  -5   2 1391.20   37.73
   4  -5   2 1364.60   39.74
  -4   5  -2 1328.06   45.73
   4  -5   2 1398.68   54.83
   4  -5   3   11.56    4.16
   4  -5   3    8.70    3.20
   4  -5   3    7.79    6.99
  -4   5  -3   11.35    4.94
   4  -5   4   84.06    7.79
   4  -5   4   72.28   12.82
  -4   5  -4   67.32    9.37
   4  -5   4   82.90    9.46
   4  -5   5  397.25   21.27
   4  -5   5  363.96   27.87
   4  -5   5  440.35   18.28
  -4   5  -5  403.06   22.30
   4  -5   6   -0.75    2.71
   4  -5   6    5.72    4.94
   4  -5   6   13.73    6.87
  -4   5  -6    1.66    4.50
   4  -5   7  540.76   21.44
  -4   5  -7  578.22   25.31
   4  -5   7  457.83   30.48
  -4   5  -7  472.57   24.51
   4  -5   7  535.79   26.28
  -4   5  -8  413.32   21.49
  -4   5  -8  306.78   22.23
   4  -5   8  402.10   18.57
   4  -5   8  341.46   21.86
  -4   5  -9  108.56   12.01
   4  -5   9  127.92   13.86
  -4   5 -10   21.09    6.51
   4  -5  10   14.28    6.55
  -4   5 -11  272.56   18.17
   4  -5  11  233.99   20.42
   4  -5  12    5.65    6.16
  -4   5 -12    2.56    4.44
  -4   5 -12   10.37    5.68
  -4   5 -13   51.83   10.02
  -4   5 -13   50.27    8.79
   4  -5  13   55.02   11.51
  -4   4  17   15.46    7.32
  -4   4  16  285.14   22.74
  -4   4  16  230.57   21.43
   4  -4 -16  237.57   21.84
  -4   4  15  107.61   14.67
  -4   4  15  130.97   14.98
   4  -4 -15  114.08   14.63
  -4   4  14  340.45   23.45
   4  -4 -14  300.43   23.00
   4  -4 -14  346.29   21.96
  -4   4  14  281.04   22.56
  -4   4  13    7.39    5.03
   4  -4 -13   10.58    5.44
  -4   4  13    5.51    5.04
  -4   4  13   12.94    7.04
  -4   4  12   13.44    6.74
  -4   4  12   21.24    7.50
   4  -4 -12   12.02    5.76
  -4   4  11   79.13   10.69
  -4   4  11   85.86   11.93
   4  -4 -11   83.42   11.06
  -4   4  10  302.57   19.76
  -4   4  10  264.50   20.19
   4  -4 -10  304.49   20.12
   4  -4 -10  262.16   18.52
  -4   4   9  181.40   15.06
  -4   4   9  172.36   16.16
   4  -4  -9  179.98   15.83
   4  -4  -9  171.59   14.33
  -4   4   8  491.88   24.73
  -4   4   8  526.84   27.53
   4  -4  -8  487.48   26.06
   4  -4  -8  475.83   23.96
  -4   4   7  297.28   18.73
  -4   4   7  291.12   20.40
   4  -4  -7  307.87   20.34
   4  -4  -7  298.93   18.29
  -4   4   6  289.10   19.94
   4  -4  -6  282.35   17.59
   4  -4  -6  255.21   19.40
   4  -4  -5   69.88    8.64
   4  -4  -5   49.91    9.21
  -4   4   5   80.07   10.76
   4  -4  -4   28.00    5.93
  -4   4   4   35.67    8.38
   4  -4  -4   24.56    7.15
   4  -4  -3   29.92    6.05
  -4   4   3   33.32    7.46
   4  -4  -3   28.35    6.92
   4  -4  -2  153.33   12.16
   4  -4  -2  143.90    8.51
  -4   4   2  154.49   14.47
   4  -4  -2  162.46    9.89
   4  -4  -2  126.21   14.48
   4  -4  -1   38.11    5.91
  -4   4   1   48.61    9.07
   4  -4  -1   44.20    5.32
   4  -4  -1   36.54    8.46
   4  -4   0  763.09   26.81
   4  -4   0  789.66   36.54
  -4   4   0  730.53   31.85
   4  -4   0  796.99   25.16
   4  -4   1  404.97   17.74
   4  -4   1  390.85   17.29
   4  -4   1  396.13   25.94
  -4   4  -1  354.96   21.20
  -4   4  -2   39.39    7.62
   4  -4   2   25.58    8.08
   4  -4   2   29.88    4.65
   4  -4   2   31.35    5.50
   4  -4   3   30.41    4.94
   4  -4   3   25.94    7.99
  -4   4  -3   16.57    4.49
   4  -4   3   30.89    5.34
   4  -4   4   12.54    3.77
   4  -4   4    9.36    3.81
   4  -4   4   10.32    6.15
  -4   4  -4    6.03    3.60
   4  -4   5   34.87    5.36
  -4   4  -5   20.92    5.96
   4  -4   5   23.15    8.31
   4  -4   5   33.89    6.43
   4  -4   6  802.88   26.13
   4  -4   6  643.22   34.18
  -4   4  -6  743.08   29.09
   4  -4   6  749.64   28.97
   4  -4   7  159.03   13.43
  -4   4  -8  197.52   13.81
  -4   4  -8  190.24   15.39
   4  -4   8  178.39   14.81
  -4   4  -9   39.29    6.72
  -4   4  -9   44.08    8.01
   4  -4   9   40.81    8.12
  -4   4 -10    6.35    3.56
   4  -4  10    3.76    4.17
  -4   4 -11   49.21    7.83
   4  -4  11   59.19    8.08
   4  -4  11   46.75    9.43
  -4   4 -12   18.47    5.89
   4  -4  12   12.00    5.55
   4  -4  12   24.85    8.11
  -4   4 -12   24.31    5.92
  -4   4 -13   25.72    6.91
  -4   4 -13   25.65    5.65
   4  -4  13   25.74    6.53
   4  -4  13   56.28   11.54
  -4   4 -14  132.16   14.15
   4  -4  14  107.41   12.05
   4  -4  14   85.52   14.41
   4  -4  15   31.90    7.77
  -4   3  17  168.43   18.08
  -4   3  16  501.35   29.98
  -4   3  16  462.50   29.51
   4  -3 -16  506.97   30.72
  -4   3  15    4.52    4.70
  -4   3  15   13.45    5.53
   4  -3 -15   15.75    6.57
  -4   3  14   30.44    8.15
  -4   3  14   25.31    7.96
   4  -3 -14   32.23    8.60
  -4   3  13   97.23   11.96
   4  -3 -13  116.53   11.87
  -4   3  13   77.47   11.84
   4  -3 -13   86.79   12.23
  -4   3  12  191.57   17.43
  -4   3  12  218.42   17.58
   4  -3 -12  273.84   18.00
   4  -3 -12  211.84   18.15
  -4   3  11  134.08   13.26
   4  -3 -11  142.95   13.32
  -4   3  10  788.69   32.58
  -4   3  10  708.61   32.12
   4  -3 -10  780.59   31.02
   4  -3 -10  716.86   31.20
   4  -3  -9   43.00    7.53
  -4   3   9   56.61    8.28
  -4   3   9   38.75    7.62
   4  -3  -9   51.90    8.21
   4  -3  -8   -2.95    4.35
  -4   3   8    5.06    4.66
  -4   3   8    3.45    4.27
   4  -3  -8    3.02    3.30
   4  -3  -7  105.30   10.61
  -4   3   7  146.23   12.83
   4  -3  -7  141.96   12.83
  -4   3   7  132.34   12.86
  -4   3   6  617.46   26.33
   4  -3  -6  606.41   26.40
  -4   3   6  570.68   27.62
   4  -3  -6  599.52   26.99
   4  -3  -5  467.30   24.23
  -4   3   5  445.19   21.87
  -4   3   5  538.84   25.54
   4  -3  -5  532.38   23.66
   4  -3  -4  256.09   17.78
  -4   3   4  265.41   18.00
   4  -3  -4  270.22   16.59
   4  -3  -3   12.45    5.00
  -4   3   3    7.26    4.26
   4  -3  -3    7.12    4.47
   4  -3  -2   97.02   11.62
   4  -3  -2   80.36    5.10
  -4   3   2   91.38   10.66
   4  -3  -2   85.55    9.00
   4  -3  -2   87.21    6.50
   4  -3  -1   13.22    5.17
   4  -3  -1   18.83    4.46
   4  -3  -1   17.09    3.13
  -4   3   1   21.70    6.93
   4  -3  -1   16.32    3.07
   4  -3   0 1181.77   33.17
   4  -3   0 1159.40   43.08
   4  -3   0 1114.22   31.00
  -4   3   0 1076.34   37.63
   4  -3   0 1167.93   29.30
   4  -3   1  414.08   25.04
   4  -3   1  420.76   17.51
   4  -3   1  422.60   16.17
  -4   3  -1  404.76   20.89
   4  -3   2  341.16   14.86
   4  -3   2  312.13   22.12
  -4   3  -2  316.54   17.87
   4  -3   2  321.31   14.42
   4  -3   3  414.30   16.24
   4  -3   3  360.03   23.93
  -4   3  -3  404.10   19.88
   4  -3   3  400.14   16.81
   4  -3   4   56.31    6.30
   4  -3   4   45.88    9.28
  -4   3  -4   66.35    8.06
   4  -3   4   46.80    6.08
   4  -3   5   56.80    6.10
   4  -3   5   58.81    7.09
   4  -3   5   56.39   10.18
  -4   3  -5   53.68    7.45
   4  -3   6  172.04   16.03
  -4   3  -6  185.85   13.46
   4  -3   6  171.04   12.72
   4  -3   7  518.39   23.20
  -4   3  -7  463.05   23.66
  -4   3  -8  546.36   24.58
   4  -3   8  599.47   26.37
   4  -3   8  580.56   23.36
  -4   3  -9  158.11   12.02
  -4   3  -9  150.46   11.80
   4  -3   9  161.58   12.03
   4  -3   9  172.21   14.73
   4  -3  10    7.07    4.96
   4  -3  10    1.39    3.52
  -4   3 -10    7.23    3.81
  -4   3 -10    6.45    3.19
   4  -3  11   24.51    7.58
  -4   3 -11   26.73    5.43
   4  -3  11   35.86    6.83
  -4   3 -12  165.66   14.67
  -4   3 -12  194.17   13.22
   4  -3  12  185.36   14.13
   4  -3  12  152.76   16.27
   4  -3  13   50.93   10.70
  -4   3 -13   47.03    8.68
  -4   3 -13   44.47    7.00
   4  -3  13   41.87    7.54
   4  -3  14   65.16    9.16
  -4   3 -14   55.40    9.46
   4  -3  14   65.74   12.34
   4  -3  15   66.41   12.89
  -4   3 -15   40.29    8.68
   4  -3  15   59.40    9.47
   4  -3  16   -1.46    4.53
  -4   2  17    4.75    4.88
  -4   2  17    4.98    6.36
   4  -2 -17   12.69    6.82
  -4   2  16  113.39   14.68
  -4   2  16  122.40   14.55
   4  -2 -16  108.30   14.32
  -4   2  15   -2.15    4.52
  -4   2  15    2.04    4.65
   4  -2 -15    0.07    4.63
  -4   2  14   31.30    7.62
   4  -2 -14   40.24    8.73
  -4   2  14   30.40    7.76
  -4   2  13   -1.23    4.18
  -4   2  13   -0.37    5.22
   4  -2 -13    1.13    4.22
  -4   2  12  523.25   27.37
   4  -2 -12  558.14   24.08
  -4   2  12  510.23   27.43
   4  -2 -12  547.17   28.05
   4  -2 -11   34.25    5.91
  -4   2  11   37.53    7.72
   4  -2 -11   26.32    6.45
  -4   2  10  135.07   12.96
   4  -2 -10  123.13   12.53
   4  -2 -10  141.39   11.70
   4  -2 -10  125.94   12.38
   4  -2  -9    3.78    3.08
   4  -2  -9    0.48    4.14
  -4   2   9    9.54    5.40
  -4   2   8  369.06   20.39
  -4   2   8  341.39   19.52
   4  -2  -8  320.54   19.15
   4  -2  -8  375.51   19.10
   4  -2  -7   -2.75    3.47
  -4   2   7   -4.94    4.27
  -4   2   7    2.35    3.58
   4  -2  -7   -1.08    3.17
   4  -2  -6  183.44   13.69
  -4   2   6  188.09   13.94
  -4   2   6  209.78   14.76
   4  -2  -6  184.89   14.22
   4  -2  -5   32.64    6.39
  -4   2   5   20.42    5.42
  -4   2   5   40.82    7.42
   4  -2  -5   25.07    5.94
  -4   2   5   32.84    4.38
  -4   2   4   46.20    4.72
   4  -2  -4   34.84    6.64
  -4   2   4   36.37    6.17
  -4   2   4   43.38    7.40
   4  -2  -4   35.42    6.46
   4  -2  -3   12.29    4.48
   4  -2  -3   12.50    4.34
  -4   2   3   13.96    5.23
  -4   2   3   21.20    3.44
   4  -2  -2 1514.74   39.99
   4  -2  -2 1472.07   43.67
  -4   2   2 1553.21   32.32
  -4   2   2 1498.14   42.50
   4  -2  -1  882.60   33.73
  -4   2   1  876.89   24.10
   4  -2  -1  830.84   20.43
   4  -2  -1  819.53   27.40
  -4   2   1  796.32   30.41
   4  -2  -1  858.53   20.72
   4  -2   0  304.99   14.63
   4  -2   0  338.58   20.35
  -4   2   0  300.40   16.90
   4  -2   0  315.78   11.36
   4  -2   1   53.22    5.69
   4  -2   1   49.28    8.84
  -4   2  -1   55.61    7.25
   4  -2   1   51.94    4.77
   4  -2   2    6.92    2.42
   4  -2   2    8.78    5.07
  -4   2  -2    6.43    3.53
   4  -2   2    8.21    2.50
   4  -2   3  152.71    9.55
   4  -2   3  152.59   14.31
  -4   2  -3  153.66   11.20
   4  -2   3  173.48    9.62
   4  -2   4 1091.11   39.30
   4  -2   4 1124.01   30.51
  -4   2  -4 1165.67   33.64
   4  -2   4 1155.63   31.12
   4  -2   5  901.10   34.85
  -4   2  -5  969.97   30.09
   4  -2   5  953.47   28.72
  -4   2  -6 1134.81   37.29
   4  -2   6 1174.77   34.41
   4  -2   7  135.64   10.34
  -4   2  -7  120.84   10.54
  -4   2  -8  201.39   13.05
   4  -2   8  228.55   13.55
   4  -2   9   13.10    4.57
  -4   2  -9   22.14    4.54
  -4   2 -10   41.54    5.99
   4  -2  10   32.32    6.05
  -4   2 -10   40.28    5.81
  -4   2 -11  349.65   19.53
  -4   2 -11  351.00   16.29
  -4   2 -11  312.06   15.13
   4  -2  11  353.35   18.63
  -4   2 -12  974.29   36.45
  -4   2 -12 1117.65   32.18
   4  -2  12 1085.97   36.04
  -4   2 -13   38.89    8.17
  -4   2 -13   27.87    5.17
   4  -2  13   26.49    6.24
  -4   2 -14    4.65    5.11
   4  -2  14    1.36    3.65
  -4   2 -15  104.69   12.01
   4  -2  15   91.34   11.20
   4  -2  16   78.69   10.45
  -4   2 -16   72.37   10.73
   4  -2  17   75.78   10.60
  -4   1  17  161.56   16.59
  -4   1  17  153.48   16.64
   4  -1 -17  163.25   17.96
  -4   1  16    8.32    5.99
  -4   1  16    3.25    6.24
   4  -1 -16    9.37    6.40
  -4   1  15  202.34   18.08
   4  -1 -15  196.10   18.73
  -4   1  15  200.86   17.73
  -4   1  14    8.26    5.59
   4  -1 -14    6.63    4.76
  -4   1  14   10.03    5.07
  -4   1  13   14.79    6.54
  -4   1  13    9.09    5.55
   4  -1 -13   12.95    6.35
  -4   1  12 1193.53   42.51
  -4   1  12 1204.27   42.40
   4  -1 -12 1236.32   44.32
  -4   1  11  677.25   30.42
   4  -1 -11  781.88   33.03
   4  -1 -11  744.97   25.80
  -4   1  10  342.12   20.22
   4  -1 -10  370.02   20.84
   4  -1 -10  342.09   21.02
   4  -1 -10  377.82   17.32
   4  -1  -9  475.58   23.08
  -4   1   9  415.09   22.02
   4  -1  -9  485.93   23.81
   4  -1  -9  463.77   19.52
   4  -1  -8    6.21    4.04
   4  -1  -8    9.57    3.37
  -4   1   8    8.57    3.84
   4  -1  -8    7.09    3.81
   4  -1  -7   43.61    6.94
   4  -1  -7   25.27    4.93
  -4   1   7   28.82    6.04
  -4   1   7   23.53    5.49
   4  -1  -7   25.21    5.85
   4  -1  -6  484.68   20.34
  -4   1   6  505.38   23.06
  -4   1   6  499.88   22.01
   4  -1  -6  522.21   23.74
   4  -1  -5  638.10   24.51
  -4   1   5  675.76   26.78
  -4   1   5  651.89   25.72
  -4   1   5  701.66   19.01
   4  -1  -5  681.91   27.04
   4  -1  -4 1484.35   41.76
  -4   1   4 1522.32   42.66
  -4   1   4 1616.17   44.11
  -4   1   4 1583.28   32.49
   4  -1  -4 1598.49   44.36
   4  -1  -3   12.42    4.31
  -4   1   3    7.31    1.87
   4  -1  -3    3.28    3.24
  -4   1   3    5.20    3.28
  -4   1   3    5.48    3.60
   4  -1  -2   14.55    4.61
   4  -1  -2    3.09    3.43
  -4   1   2    8.09    4.06
  -4   1   2    6.38    1.66
   4  -1  -1   40.69    5.94
   4  -1  -1   51.82    7.91
  -4   1   1   44.07    6.56
   4  -1   0  192.01   11.07
   4  -1   0  204.16   14.29
  -4   1   0  173.74   11.91
   4  -1   0  194.43    6.89
   4  -1   1   42.17    5.21
   4  -1   1   43.66    7.12
   4  -1   1   45.91    3.74
  -4   1  -1   43.47    5.86
   4  -1   2 1018.47   26.58
   4  -1   2  903.10   32.80
  -4   1  -2 1002.53   29.00
   4  -1   2  982.43   23.34
   4  -1   3  641.98   20.17
   4  -1   3  622.56   25.92
  -4   1  -3  664.27   22.25
   4  -1   3  638.64   18.80
  -4   1  -4  400.18   19.95
  -4   1  -4  418.05   17.32
   4  -1   5   57.85    6.06
  -4   1  -5   55.11    6.71
  -4   1  -5   58.59    7.79
  -4   1  -6  589.69   22.40
   4  -1   6  567.47   16.65
   4  -1   6  583.63   20.69
   4  -1   7  239.96   13.16
  -4   1  -7  232.97   13.14
  -4   1  -8  132.81    9.49
   4  -1   8  116.23    9.59
   4  -1   9   10.07    3.50
  -4   1  -9    2.41    2.30
   4  -1  10  758.26   26.33
  -4   1 -10  762.39   23.02
  -4   1 -10  663.16   22.67
  -4   1 -11   58.09    8.00
  -4   1 -11   79.01    6.79
  -4   1 -11   59.49    6.10
   4  -1  11   57.66    8.04
  -4   1 -12   52.58    8.12
  -4   1 -12   58.10    6.28
  -4   1 -12   57.35    6.15
   4  -1  12   48.16    7.51
  -4   1 -13   34.18    7.01
   4  -1  13   36.55    6.83
  -4   1 -14   15.32    5.19
   4  -1  14   12.15    4.78
  -4   1 -15   18.78    5.81
   4  -1  15   19.92    6.01
  -4   1 -16  354.31   22.26
   4  -1  16  338.22   21.51
  -4   1 -17    0.48    4.10
   4  -1  17   -7.50    4.57
   4   0 -18  219.78   19.69
  -4   0  17   47.02    9.33
  -4   0  17   33.14    8.30
   4   0 -17   51.35    9.65
   4   0 -17   50.14   10.99
  -4   0  16    4.44    5.00
   4   0 -16   12.07    5.96
  -4   0  16    1.99    3.99
   4   0 -16    8.43    5.78
  -4   0  15   29.01    5.99
  -4   0  15   46.00    8.98
   4   0 -15   38.39    8.24
  -4   0  15   47.88    8.73
   4   0 -15   56.69   10.30
  -4   0  14  604.34   29.73
   4   0 -14  565.90   28.57
  -4   0  14  576.63   28.39
   4   0 -14  597.61   31.66
  -4   0  13  523.87   27.34
   4   0 -13  593.35   27.71
  -4   0  13  552.76   26.99
   4   0 -13  563.08   29.71
  -4   0  12  402.76   22.33
  -4   0  12  310.89   19.47
   4   0 -12  347.10   22.30
  -4   0  11   39.07    7.20
  -4   0  11   42.52    6.98
   4   0 -11   50.62    5.44
   4   0 -11   54.48    8.82
  -4   0  10    3.88    3.44
   4   0 -10   14.45    6.44
   4   0 -10    4.48    2.37
   4   0  -9  316.76   13.91
  -4   0   9  299.23   18.00
   4   0  -9  317.77   19.29
   4   0  -9  332.98   18.91
   4   0  -8  486.15   17.92
  -4   0   8  466.40   22.55
   4   0  -8  515.56   23.93
   4   0  -8  499.87   22.97
   4   0  -7  727.92   28.03
   4   0  -7  666.77   21.93
  -4   0   7  690.16   26.58
   4   0  -7  649.29   26.48
   4   0  -6 1011.75   28.59
  -4   0   6 1050.72   33.52
  -4   0   6  976.06   30.18
   4   0  -6 1019.27   32.88
   4   0  -6 1016.69   34.20
   4   0  -5   85.54    7.60
  -4   0   5   87.38    8.85
  -4   0   5   83.12    4.51
  -4   0   5  101.22    8.82
   4   0  -5   94.14    9.27
   4   0  -5  106.05   10.33
   4   0  -4  219.69   12.57
  -4   0   4  233.19   14.32
  -4   0   4  247.80   13.68
   4   0  -4  221.12   13.07
   4   0  -4  270.29   15.76
   4   0  -3   52.74    7.40
   4   0  -3   59.30    6.77
  -4   0   3   47.37    6.59
  -4   0   3   44.53    6.06
  -4   0   3   40.96    2.65
   4   0  -2  603.82   23.89
   4   0  -2  661.07   23.09
  -4   0   2  593.14   22.01
  -4   0   2  612.66   22.04
   4   0  -1   62.74    7.27
   4   0  -1   77.19    7.87
   4   0  -1   60.87    3.09
  -4   0   1   76.69    7.10
   4   0   0  407.78   16.16
   4   0   0  393.17   17.90
  -4   0   0  411.08   16.15
   4   0   1  501.41   16.99
   4   0   1  460.85   19.64
  -4   0  -1  489.40   17.24
   4   0   1  456.09   10.99
  -4   0  -2   15.97    3.47
   4   0   2   12.35    3.29
  -4   0  -2   18.27    4.77
  -4   0  -3  323.74   16.06
  -4   0  -3  339.14   13.96
   4   0   3  348.08   13.57
  -4   0  -4 3058.80   66.12
  -4   0  -4 3222.31   63.28
   4   0   4 3190.99   62.85
   4   0   5   73.00    6.38
  -4   0  -5   78.33    7.44
   4   0   5   68.89    3.99
  -4   0  -6  194.22   11.42
   4   0   6  198.44   11.02
   4   0   6  208.19    8.27
  -4   0  -7  312.42   14.18
   4   0   7  319.86   14.61
   4   0   7  325.08   12.07
   4   0   8  129.08    8.40
  -4   0  -8  137.98    9.12
   4   0   8  127.49    9.82
   4   0   9   28.50    4.91
  -4   0  -9   21.93    4.09
  -4   0 -10 2356.30   56.63
  -4   0 -10 2386.79   48.27
  -4   0 -10 2306.92   50.96
   4   0  10 2485.62   55.72
  -4   0 -11  428.33   20.53
  -4   0 -11  430.12   14.81
  -4   0 -11  420.15   16.34
   4   0  11  410.60   19.07
  -4   0 -12  332.52   13.00
  -4   0 -12  307.74   14.03
   4   0  12  322.33   17.62
  -4   0 -12  344.50   18.54
  -4   0 -13  219.59   15.27
  -4   0 -13  190.39   10.84
   4   0  13  217.74   14.39
   4   0  14    3.52    3.64
  -4   0 -14    0.87    3.53
  -4   0 -15   11.13    5.09
   4   0  15   15.50    5.44
  -4   0 -16  117.89   12.96
   4   0  16  140.00   13.02
  -4   0 -17  370.91   23.16
   4   0  17  372.50   22.58
  -4   0 -18   52.10   10.39
   4   0  18   64.84    9.96
   4   1 -18   81.89   12.19
   4   1 -17   12.83    6.14
  -4  -1  17   -0.97    4.21
   4   1 -17    8.65    6.90
   4   1 -16  173.72   18.45
  -4  -1  16  160.45   15.17
   4   1 -16  142.33   14.62
  -4  -1  15   91.70   10.65
   4   1 -15   83.08   10.86
  -4  -1  15   93.87   11.56
   4   1 -15   86.19   13.07
   4   1 -14  357.32   21.31
  -4  -1  14  374.61   21.66
   4   1 -14  378.03   25.03
  -4  -1  14  351.72   20.02
   4   1 -13   95.30   10.48
  -4  -1  13   95.25   10.47
  -4  -1  13   84.10    9.55
   4   1 -13   98.69   12.98
   4   1 -12  421.50   21.45
   4   1 -12  407.59   24.95
  -4  -1  12  442.82   22.23
   4   1 -11   17.64    5.11
  -4  -1  11    4.06    3.15
   4   1 -11    4.91    4.81
  -4  -1  10   56.32    7.24
   4   1 -10   53.52    7.53
  -4  -1  10   72.99    6.31
   4   1 -10   69.61   10.00
   4   1  -9   20.29    5.21
   4   1  -9    6.03    4.25
  -4  -1   9   16.69    4.42
   4   1  -9   13.20    2.16
  -4  -1   8   80.54    8.57
   4   1  -8   86.01    5.47
   4   1  -8   75.81    9.14
   4   1  -8   83.77    9.61
   4   1  -7   39.86    6.26
   4   1  -7   42.56    4.04
  -4  -1   7   50.93    6.90
   4   1  -7   32.81    6.57
  -4  -1   6 1441.24   39.33
   4   1  -6 1539.21   32.59
   4   1  -6 1428.71   40.65
  -4  -1   6 1311.20   30.95
   4   1  -6 1412.52   40.90
   4   1  -5    0.72    3.95
  -4  -1   5   10.15    3.38
   4   1  -5    9.87    2.45
  -4  -1   5   12.49    3.04
  -4  -1   5   13.39    2.97
  -4  -1   5    7.65    2.71
   4   1  -5    6.35    3.89
   4   1  -4  347.46   17.91
  -4  -1   4  319.67   16.20
   4   1  -4  327.85   13.14
  -4  -1   4  363.51   15.90
  -4  -1   4  353.72   12.48
   4   1  -4  340.97   15.92
  -4  -1   4  385.54   15.57
  -4  -1   4  379.79   14.99
   4   1  -3   12.08    4.80
  -4  -1   3    5.17    3.38
  -4  -1   3    5.69    1.44
   4   1  -3    9.41    2.86
  -4  -1   3    6.73    2.99
  -4  -1   3    7.28    3.46
  -4  -1   3    7.84    2.93
   4   1  -3   11.38    3.53
  -4  -1   3    7.66    1.85
   4   1  -2  354.64   17.54
  -4  -1   2  379.09   15.49
  -4  -1   2  370.73   16.69
  -4  -1   2  373.63   16.15
  -4  -1   2  344.26   13.97
   4   1  -2  376.52   14.73
   4   1  -1  426.16   17.83
  -4  -1   1  413.67   16.28
  -4  -1   1  405.74   16.47
  -4  -1   1  444.17   17.66
   4   1  -1  417.35   12.51
   4   1  -1  416.89   15.03
  -4  -1   1  436.16   15.04
   4   1  -1  464.81   15.01
  -4  -1   0  740.40   23.84
   4   1   0  750.10   22.77
   4   1   0  772.30   20.37
  -4  -1   0  750.34   20.39
   4   1   0  779.81   19.20
   4   1   1  450.15   16.05
  -4  -1  -1  451.27   17.47
   4   1   1  480.72   14.80
  -4  -1  -1  480.60   14.83
   4   1   1  445.23   11.70
   4   1   2 1141.25   27.79
  -4  -1  -2 1101.10   29.82
  -4  -1  -2 1130.96   26.81
   4   1   3  234.82   10.51
  -4  -1  -3  225.91   11.62
  -4  -1  -4  601.69   19.85
   4   1   4  629.15   19.16
  -4  -1  -5  399.81   15.79
   4   1   5  454.05   16.14
  -4  -1  -6  103.21    7.79
   4   1   6  110.23    7.95
  -4  -1  -7   33.82    4.55
   4   1   7   30.69    4.78
   4   1   8 1956.89   45.30
  -4  -1  -8 1891.25   42.87
  -4  -1  -9  205.84   12.65
  -4  -1  -9  210.59   10.95
   4   1   9  192.59   12.06
  -4  -1 -10  678.73   24.28
  -4  -1 -10  633.34   16.84
  -4  -1 -10  636.90   20.76
   4   1  10  643.52   23.30
  -4  -1 -11    3.99    3.17
  -4  -1 -11    1.18    1.33
   4   1  11    5.89    3.64
  -4  -1 -11    7.24    3.08
  -4  -1 -12   57.88    4.39
  -4  -1 -12   57.70    7.56
  -4  -1 -12   54.66    5.89
   4   1  12   43.04    6.84
  -4  -1 -13  148.03   12.26
  -4  -1 -13  132.72    9.10
   4   1  13  141.87   11.24
  -4  -1 -14  705.56   29.13
  -4  -1 -14  690.34   22.78
   4   1  14  702.01   28.00
   4   1  15  142.64   12.74
  -4  -1 -15  160.17   14.02
  -4  -1 -16  322.85   20.82
   4   1  16  336.14   20.31
  -4  -1 -17   23.80    6.78
   4   1  17   10.86    5.36
  -4  -1 -18   15.07    6.36
   4   1  18   11.81    4.94
   4   2 -18    3.82    5.61
   4   2 -17   77.09   11.09
  -4  -2  17   54.87    8.99
   4   2 -16   71.24   10.33
  -4  -2  16   53.61    8.46
   4   2 -16   66.59   12.05
   4   2 -15  274.10   18.64
  -4  -2  15  282.12   18.20
  -4  -2  15  284.05   19.22
   4   2 -15  301.15   23.05
   4   2 -14  668.11   30.13
   4   2 -14  659.46   28.24
  -4  -2  14  678.61   28.47
  -4  -2  14  663.28   28.64
   4   2 -14  621.87   33.22
   4   2 -13   24.51    6.22
   4   2 -13   29.15    5.86
  -4  -2  13   32.78    6.51
  -4  -2  13   36.68    6.82
   4   2 -13   29.26    7.61
   4   2 -12  127.17   11.02
  -4  -2  12  124.45   10.87
   4   2 -12  133.48   14.35
   4   2 -12  154.22   13.06
  -4  -2  12  132.26   11.76
   4   2 -11  880.28   32.63
   4   2 -11  920.38   30.71
  -4  -2  11  844.52   30.19
  -4  -2  11  871.23   31.16
   4   2 -11  891.15   36.48
   4   2 -10   39.09    7.04
   4   2 -10   37.58    6.27
  -4  -2  10   35.01    6.23
   4   2 -10   44.54    8.02
  -4  -2  10   36.69    5.78
   4   2  -9  467.89   21.34
  -4  -2   9  410.09   13.05
  -4  -2   9  461.47   20.03
   4   2  -9  466.15   19.41
   4   2  -9  471.23   23.64
   4   2  -8 2597.28   60.06
   4   2  -8 2498.96   59.95
   4   2  -8 2468.37   62.96
   4   2  -8 2634.91   56.58
  -4  -2   8 2434.96   48.49
   4   2  -7  449.54   19.76
   4   2  -7  438.49   17.53
  -4  -2   7  429.84   14.42
   4   2  -7  430.38   20.68
   4   2  -7  432.42   19.64
   4   2  -6   72.15    7.82
   4   2  -6   71.80    7.77
  -4  -2   6   75.62    5.87
  -4  -2   6   59.09    3.11
   4   2  -6   65.32    7.61
  -4  -2   5  433.45   17.59
  -4  -2   5  357.35   13.64
  -4  -2   5  404.35   16.23
  -4  -2   5  356.23   11.38
   4   2  -5  385.55   17.28
  -4  -2   5  387.67   13.81
   4   2  -5  379.29   17.26
   4   2  -5  408.58   19.02
  -4  -2   4  175.23   10.92
  -4  -2   4  181.43    9.27
  -4  -2   4  201.81    8.90
  -4  -2   4  180.44    9.86
  -4  -2   4  201.82   11.31
  -4  -2   4  180.67    9.33
   4   2  -4  171.67   11.38
  -4  -2   4  200.76    9.24
   4   2  -4  174.14   10.83
   4   2  -4  171.22   12.10
   4   2  -3   13.75    4.38
   4   2  -3   12.95    3.99
  -4  -2   3    8.56    2.70
  -4  -2   3   14.97    3.75
  -4  -2   3   10.05    3.26
  -4  -2   3   13.75    2.59
  -4  -2   3    8.01    2.05
  -4  -2   3    9.89    2.92
   4   2  -3    9.50    3.20
  -4  -2   3   13.69    2.79
   4   2  -2 4099.95   80.82
  -4  -2   2 4052.56   73.49
  -4  -2   2 4211.62   81.18
  -4  -2   2 4504.46   78.88
  -4  -2   2 4065.33   76.35
   4   2  -2 3996.66   78.29
  -4  -2   2 4130.11   71.80
  -4  -2   2 3962.91   72.85
   4   2  -2 4040.16   75.69
   4   2  -2 4349.80   85.21
   4   2  -1  708.68   24.19
   4   2  -1  706.68   23.40
  -4  -2   1  752.45   23.20
  -4  -2   1  720.35   19.11
   4   2  -1  688.22   20.82
  -4  -2   1  729.01   21.03
   4   2  -1  705.54   18.09
  -4  -2   1  730.91   17.07
  -4  -2   1  692.62   17.08
   4   2  -1  715.65   18.66
  -4  -2   1  741.51   19.12
   4   2   0  395.16   15.35
   4   2   0  420.41   15.65
  -4  -2   0  395.28   14.45
   4   2   0  376.14   13.94
  -4  -2   0  397.00   14.62
   4   2   0  383.17   11.48
  -4  -2   0  382.75   11.30
   4   2   0  392.58   10.16
  -4  -2   0  400.19   11.81
   4   2   1  349.04   13.30
   4   2   1  359.04   13.03
  -4  -2  -1  341.24   13.52
   4   2   1  350.29   10.95
   4   2   1  341.80    9.63
  -4  -2  -1  340.75    9.59
   4   2   2  347.05   12.84
  -4  -2  -2  333.87   14.64
   4   2   2  372.88   12.26
  -4  -2  -2  352.52   13.67
   4   2   2  363.47   11.57
   4   2   2  352.60   10.72
  -4  -2  -2  323.60    8.08
   4   2   3  258.23   11.11
  -4  -2  -3  250.74   12.30
  -4  -2  -3  255.15   11.53
   4   2   3  258.53   10.80
   4   2   4 1420.97   33.34
  -4  -2  -4 1483.60   34.10
  -4  -2  -4 1485.47   35.47
  -4  -2  -5  352.78   14.14
  -4  -2  -5  354.71   13.79
   4   2   5  335.73   13.39
   4   2   6  211.38   10.44
  -4  -2  -6  211.34   10.70
  -4  -2  -6  202.58   10.56
  -4  -2  -6  187.19    5.75
  -4  -2  -7   18.01    2.05
  -4  -2  -7   17.75    3.54
   4   2   7   11.98    3.47
  -4  -2  -7   22.16    3.82
  -4  -2  -8  522.51   19.31
  -4  -2  -8  544.24   18.47
   4   2   8  541.14   19.82
  -4  -2  -8  543.38   14.38
  -4  -2  -9   54.36    4.47
  -4  -2  -9   50.49    6.02
   4   2   9   47.10    5.95
  -4  -2  -9   53.83    5.70
  -4  -2 -10  209.02   12.37
  -4  -2 -10  173.32    6.14
  -4  -2 -10  210.40    9.53
  -4  -2 -10  227.07   11.39
   4   2  10  216.83   12.46
  -4  -2 -11   63.50    3.27
  -4  -2 -11   67.04    6.54
   4   2  11   63.91    7.55
  -4  -2 -11   73.55    7.92
  -4  -2 -11   76.11    6.11
  -4  -2 -12  366.68   18.23
  -4  -2 -12  343.72   15.21
   4   2  12  353.60   17.41
  -4  -2 -12  335.43   14.26
  -4  -2 -13   64.38    8.49
  -4  -2 -13   81.35    7.36
  -4  -2 -13   82.14    7.42
   4   2  13   72.45    8.48
  -4  -2 -14  247.28   16.16
  -4  -2 -14  238.53   12.80
   4   2  14  231.94   14.95
  -4  -2 -14  231.13   12.85
  -4  -2 -15  197.30   15.10
  -4  -2 -15  192.79   11.54
   4   2  15  218.49   15.04
  -4  -2 -15  190.84   12.35
  -4  -2 -16  100.32   11.67
   4   2  16  108.25   11.20
  -4  -2 -17   18.44    5.86
   4   2  17   26.54    6.67
  -4  -2 -18   99.13   12.71
   4   2  18  108.92   12.14
  -4  -3  17   -2.59    5.11
   4   3 -16  395.92   23.85
  -4  -3  16  390.16   22.79
  -4  -3  15   78.28    9.89
   4   3 -15   78.84   10.72
   4   3 -15   79.93   10.09
  -4  -3  15   89.12   10.17
   4   3 -14   94.59   10.31
  -4  -3  14   86.51    9.88
   4   3 -14   76.96   10.32
  -4  -3  14   83.44    9.42
   4   3 -13   95.27    9.81
   4   3 -13   83.45   10.11
  -4  -3  13   87.66    9.78
  -4  -3  13  109.56   10.53
  -4  -3  12   10.37    3.61
   4   3 -12    6.26    3.81
   4   3 -12   11.45    3.91
  -4  -3  12   17.86    4.98
   4   3 -12   -3.88    5.36
   4   3 -11  106.86   12.26
   4   3 -11  102.30   10.42
   4   3 -11  109.71    9.68
  -4  -3  11  108.55   10.32
  -4  -3  11  101.68    9.52
  -4  -3  10  701.02   27.01
   4   3 -10  709.63   27.44
   4   3 -10  746.40   25.03
  -4  -3  10  720.99   25.41
   4   3 -10  659.02   29.75
   4   3  -9  259.54   15.15
   4   3  -9  252.64   13.15
  -4  -3   9  230.05   13.10
   4   3  -9  224.55   15.88
  -4  -3   9  211.02   13.68
   4   3  -8 1698.39   44.43
   4   3  -8 1764.34   40.53
  -4  -3   8 1609.13   30.67
  -4  -3   8 1716.25   41.77
   4   3  -8 1704.28   47.50
  -4  -3   8 1797.33   48.96
  -4  -3   8 1565.56   43.07
   4   3  -7  385.31   17.87
   4   3  -7  411.49   15.78
  -4  -3   7  396.81   11.31
  -4  -3   7  418.19   16.88
  -4  -3   7  383.18   17.91
   4   3  -7  410.29   19.73
  -4  -3   7  410.66   20.31
   4   3  -7  420.12   18.46
   4   3  -6   12.99    4.05
   4   3  -6   13.44    4.00
   4   3  -6    7.12    2.39
   4   3  -6   11.74    4.42
  -4  -3   6    7.78    1.93
  -4  -3   6    7.96    3.71
   4   3  -5   14.47    4.04
  -4  -3   5   13.29    2.43
   4   3  -5   13.08    3.69
  -4  -3   5   14.08    2.18
  -4  -3   5   13.32    2.43
  -4  -3   5    6.69    3.22
  -4  -3   4  880.79   20.67
  -4  -3   4  858.89   18.74
   4   3  -4  890.78   26.68
  -4  -3   4  871.00   21.37
  -4  -3   4  841.34   18.02
  -4  -3   4  939.87   28.07
   4   3  -4  891.35   28.19
  -4  -3   3  474.55   13.06
  -4  -3   3  477.26   17.51
   4   3  -3  497.66   18.40
  -4  -3   3  498.14   12.73
   4   3  -3  493.60   15.21
  -4  -3   3  476.77   14.79
  -4  -3   3  499.96   18.61
   4   3  -3  461.18   19.43
  -4  -3   2  593.29   19.69
  -4  -3   2  591.68   14.65
   4   3  -2  587.43   19.94
  -4  -3   2  594.30   17.25
  -4  -3   2  556.32   19.18
   4   3  -2  621.80   22.76
   4   3  -1   79.46    6.76
  -4  -3   1   67.45    6.40
  -4  -3   1   57.93    4.20
   4   3  -1   81.37    7.90
  -4  -3   1   73.27    5.54
   4   3  -1   64.61    3.49
   4   3  -1   76.21    7.68
   4   3  -1   72.83    5.15
  -4  -3   1   69.19    6.14
   4   3   0  247.23   12.19
   4   3   0  238.14   11.51
  -4  -3   0  230.63   10.87
   4   3   0  248.31   12.86
  -4  -3   0  252.86   10.70
   4   3   0  252.79    7.32
  -4  -3   0  217.39   10.47
   4   3   0  239.82    9.41
  -4  -3   0  259.40    9.40
   4   3   1   64.59    5.46
   4   3   1   62.22    5.31
   4   3   1   55.71    5.33
  -4  -3  -1   61.12    4.73
   4   3   1   56.53    6.15
  -4  -3  -1   55.71    5.08
   4   3   1   59.81    3.60
  -4  -3  -1   60.50    4.56
  -4  -3  -1   62.90    4.03
   4   3   1   59.29    4.56
   4   3   2 2679.95   55.66
   4   3   2 2831.34   52.52
  -4  -3  -2 2750.22   54.56
   4   3   2 2810.92   50.12
   4   3   2 2781.26   53.59
  -4  -3  -2 2783.29   52.03
   4   3   2 2773.41   52.55
   4   3   3   23.88    3.31
   4   3   3   23.30    3.94
  -4  -3  -3   23.01    3.22
   4   3   3   22.54    2.63
   4   3   3   27.79    3.43
  -4  -3  -3   24.96    3.89
   4   3   3   26.25    3.56
   4   3   4    9.00    2.57
  -4  -3  -4   15.31    2.52
  -4  -3  -4   12.48    2.42
  -4  -3  -4   11.74    3.12
  -4  -3  -5  354.43   12.44
  -4  -3  -5  335.34   10.88
  -4  -3  -5  352.74   13.87
   4   3   5  335.19   12.85
  -4  -3  -6 1114.94   23.30
  -4  -3  -6 1101.08   28.67
   4   3   6 1109.24   28.10
  -4  -3  -6 1087.56   27.24
  -4  -3  -7  137.20    8.43
   4   3   7  128.52    8.31
  -4  -3  -7  135.64    5.37
  -4  -3  -7  131.22    8.56
  -4  -3  -8 2405.88   49.37
  -4  -3  -8 2380.70   49.36
   4   3   8 2520.09   49.92
  -4  -3  -8 2468.91   47.06
  -4  -3  -9  201.36   11.46
  -4  -3  -9  221.98   11.43
  -4  -3  -9  185.21    9.81
   4   3   9  208.88   11.39
  -4  -3 -10   44.05    5.88
   4   3  10   42.13    5.59
  -4  -3 -10   39.86    4.85
  -4  -3 -10   38.10    4.95
  -4  -3 -11  908.20   29.22
   4   3  11  895.67   28.19
  -4  -3 -11  933.04   27.23
  -4  -3 -11  864.54   25.75
  -4  -3 -12   44.45    5.43
  -4  -3 -12   35.28    6.06
   4   3  12   46.78    6.40
  -4  -3 -12   43.37    5.48
  -4  -3 -13  325.94   17.82
  -4  -3 -13  342.95   15.58
   4   3  13  320.83   16.87
  -4  -3 -13  340.99   15.97
  -4  -3 -14 1266.25   39.30
  -4  -3 -14 1220.71   33.97
   4   3  14 1238.26   37.66
  -4  -3 -14 1165.40   34.75
  -4  -3 -15   62.20    6.85
  -4  -3 -15   65.48    8.85
   4   3  15   60.68    8.17
  -4  -3 -15   57.60    7.27
   4   3  16  158.60   13.67
  -4  -3 -16  141.03   13.36
  -4  -3 -16  169.85   11.44
  -4  -3 -16  159.45   12.29
  -4  -3 -17  406.96   23.50
   4   3  17  416.24   22.90
  -4  -3 -18   17.50    6.71
   4   3  18    7.01    4.61
  -4  -3 -19   50.11    9.19
   4   3  19   51.86    9.30
  -4  -4  16  101.74   14.59
   4   4 -16  120.28   13.33
   4   4 -15   26.99    7.14
  -4  -4  15   55.88   10.82
  -4  -4  15   31.81    5.89
   4   4 -14  485.08   25.26
  -4  -4  14  479.65   22.86
  -4  -4  14  513.83   30.83
  -4  -4  13  121.39   14.48
   4   4 -13  141.01   13.03
   4   4 -13  130.13   10.99
  -4  -4  13  139.23   13.11
  -4  -4  13  124.24   10.90
   4   4 -12   -3.42    4.08
   4   4 -12    8.45    3.07
  -4  -4  12    5.77    3.56
  -4  -4  12    3.70    2.85
  -4  -4  11    8.00    5.34
  -4  -4  11    2.22    3.16
   4   4 -11    8.61    3.48
  -4  -4  11    7.88    3.53
   4   4 -11    7.96    3.93
   4   4 -10  602.52   21.55
   4   4 -10  585.90   24.89
  -4  -4  10  594.90   29.87
  -4  -4  10  573.36   24.52
  -4  -4  10  578.51   21.77
   4   4  -9  557.67   19.77
   4   4  -9  583.92   24.07
  -4  -4   9  561.67   23.56
  -4  -4   9  569.52   20.51
  -4  -4   9  561.16   27.67
   4   4  -8  549.49   18.56
   4   4  -8  558.98   22.75
  -4  -4   8  519.25   22.10
  -4  -4   8  529.37   19.08
  -4  -4   8  594.43   27.60
   4   4  -7   31.72    5.08
   4   4  -7   29.10    3.85
  -4  -4   7   29.66    2.40
  -4  -4   7   25.87    5.00
  -4  -4   7   33.28    7.01
  -4  -4   7   30.25    4.29
   4   4  -6   34.70    5.21
  -4  -4   6   26.50    6.03
   4   4  -6   30.57    5.21
   4   4  -6   35.58    3.98
  -4  -4   6   25.55    2.16
  -4  -4   6   31.84    2.94
  -4  -4   6   26.48    4.92
  -4  -4   6   37.08    4.34
  -4  -4   5  756.42   18.17
  -4  -4   5  747.19   25.07
   4   4  -5  762.87   24.41
   4   4  -5  758.25   25.22
   4   4  -5  753.17   19.49
  -4  -4   5  741.79   18.33
  -4  -4   5  753.35   28.72
  -4  -4   4 1749.75   32.69
  -4  -4   4 1750.71   42.57
   4   4  -4 1797.93   42.83
   4   4  -4 1813.00   36.06
  -4  -4   4 1651.09   32.22
  -4  -4   4 1781.40   35.48
  -4  -4   4 1692.71   46.50
   4   4  -4 1714.42   41.50
   4   4  -3  264.26   13.12
  -4  -4   3  258.09   10.12
  -4  -4   3  263.87   15.08
  -4  -4   3  249.12   12.79
   4   4  -3  268.28   13.35
  -4  -4   2 1776.29   38.62
   4   4  -2 1736.96   40.86
  -4  -4   2 1811.70   36.76
  -4  -4   2 1711.85   40.75
  -4  -4   2 1684.83   43.81
   4   4  -2 1676.44   41.92
  -4  -4   1  231.87   10.62
   4   4  -1  257.72   12.04
   4   4  -1  240.00   15.55
  -4  -4   1  223.49   11.41
  -4  -4   1  237.15   10.02
  -4  -4   1  234.07   12.92
   4   4  -1  246.74   13.37
   4   4   0  295.69   13.97
  -4  -4   0  307.67   12.23
   4   4   0  294.95   12.74
  -4  -4   0  283.35   14.10
   4   4   0  277.75   16.01
  -4  -4   0  286.95    9.52
  -4  -4   0  284.71   11.42
   4   4   0  272.63    6.66
  -4  -4   0  305.69   12.72
   4   4   1  215.96   10.27
  -4  -4  -1  185.49    5.03
  -4  -4  -1  207.68    7.80
   4   4   1  240.23   10.83
  -4  -4  -1  212.96    8.52
   4   4   1  222.05   13.73
  -4  -4  -1  213.35   10.18
  -4  -4  -1  218.34   10.02
  -4  -4  -1  189.03   11.30
   4   4   2    8.43    2.59
  -4  -4  -2    7.62    2.30
  -4  -4  -2   10.83    1.52
   4   4   2    8.86    2.66
   4   4   2    8.31    3.44
  -4  -4  -2    9.79    1.94
  -4  -4  -2    8.51    2.63
   4   4   3   63.20    4.59
   4   4   3   66.76    5.22
  -4  -4  -3   66.78    3.94
  -4  -4  -3   67.53    5.15
   4   4   3   68.47    4.48
   4   4   3   64.11    5.41
   4   4   3   62.30    7.51
  -4  -4  -3   70.47    6.13
  -4  -4  -3   66.84    4.56
  -4  -4  -4 1004.33   22.58
   4   4   4  985.34   24.60
  -4  -4  -4  974.29   23.00
   4   4   4 1010.47   20.60
   4   4   4  963.30   23.40
  -4  -4  -4 1035.35   26.98
  -4  -4  -4  996.18   23.35
   4   4   5   38.48    4.00
  -4  -4  -5   41.30    3.46
  -4  -4  -5   32.64    3.56
   4   4   5   39.00    4.14
  -4  -4  -5   50.77    5.42
  -4  -4  -5   34.63    3.35
  -4  -4  -6 2840.54   50.93
  -4  -4  -6 2925.91   55.84
   4   4   6 2889.09   55.16
  -4  -4  -6 2839.57   50.74
  -4  -4  -6 2824.24   58.71
   4   4   6 2839.58   55.75
  -4  -4  -7   80.68    6.46
  -4  -4  -7   75.46    3.84
  -4  -4  -7   77.63    3.92
  -4  -4  -7   82.23    7.06
   4   4   7   79.91    6.25
  -4  -4  -8   84.87    7.01
   4   4   8   89.85    6.96
  -4  -4  -8   73.39    3.15
  -4  -4  -8   75.83    6.98
  -4  -4  -9  438.94   17.32
   4   4   9  439.37   16.90
  -4  -4  -9  437.01   17.49
  -4  -4 -10  274.97   14.15
  -4  -4 -10  244.96   13.23
   4   4  10  262.54   13.36
  -4  -4 -11   25.76    4.82
  -4  -4 -11   20.08    4.75
   4   4  11   16.49    4.21
  -4  -4 -11   25.29    5.07
  -4  -4 -12  795.80   27.93
   4   4  12  783.27   26.55
  -4  -4 -12  772.94   25.65
  -4  -4 -12  827.84   28.70
  -4  -4 -13  440.89   20.92
   4   4  13  463.09   20.38
  -4  -4 -13  457.95   19.13
  -4  -4 -13  470.22   21.36
  -4  -4 -14  222.72   15.25
  -4  -4 -14  243.07   13.97
   4   4  14  233.55   14.92
  -4  -4 -14  248.03   15.57
  -4  -4 -15   84.48    9.87
   4   4  15   82.81    9.79
  -4  -4 -15   83.07    8.29
  -4  -4 -15   98.15   10.09
  -4  -4 -16    2.44    3.17
  -4  -4 -16    0.02    3.90
   4   4  16    3.72    3.83
  -4  -4 -16    7.57    3.94
  -4  -4 -17    4.79    3.55
  -4  -4 -17    2.71    3.97
   4   4  17    1.38    3.49
  -4  -4 -18  179.57   15.75
   4   4  18  173.03   15.22
  -4  -4 -19    1.19    4.24
   4   4  19    0.22    4.95
   4   5 -16  359.12   23.69
   4   5 -15    5.42    4.29
  -4  -5  15    5.55    7.44
   4   5 -14   15.72    5.89
  -4  -5  14   15.10    7.39
   4   5 -13   20.78    6.23
  -4  -5  13   20.02    6.76
   4   5 -12   51.57    8.43
  -4  -5  12   61.98   11.37
   4   5 -11  167.36   14.03
  -4  -5  11  155.82   10.80
  -4  -5  11  154.51   16.67
  -4  -5  10 1600.37   46.69
   4   5 -10 1561.25   39.14
   4   5 -10 1582.11   46.64
  -4  -5  10 1616.65   40.16
  -4  -5  10 1703.35   56.44
   4   5  -9   35.88    6.84
   4   5  -9   30.06    4.50
  -4  -5   9   39.07    6.69
  -4  -5   9   30.99    8.48
  -4  -5   9   36.09    5.18
  -4  -5   8   65.58   10.16
   4   5  -8   68.80    5.82
   4   5  -8   60.00    8.00
  -4  -5   8   58.83    7.60
  -4  -5   8   58.48    5.70
   4   5  -7  440.50   14.67
   4   5  -7  408.57   19.51
  -4  -5   7  431.20   20.08
  -4  -5   7  433.46   15.21
  -4  -5   7  440.78   24.92
  -4  -5   6  199.34    7.80
   4   5  -6  220.93    9.02
   4   5  -6  208.50   13.07
  -4  -5   6  207.77   13.12
  -4  -5   6  202.77    9.40
  -4  -5   6  194.18   15.99
   4   5  -5  897.79   20.40
   4   5  -5  860.62   28.30
   4   5  -5  901.89   21.45
  -4  -5   5  860.87   28.47
  -4  -5   5  873.38   21.06
  -4  -5   5  860.14   21.67
  -4  -5   5  829.89   33.54
  -4  -5   5  891.68   21.05
  -4  -5   4 1537.64   33.83
   4   5  -4 1655.38   41.69
  -4  -5   4 1627.85   41.62
  -4  -5   4 1686.72   34.52
  -4  -5   4 1663.67   33.29
  -4  -5   4 1645.40   48.73
   4   5  -4 1571.12   37.74
   4   5  -3  556.07   18.44
  -4  -5   3  545.97   20.61
  -4  -5   3  539.13   15.97
  -4  -5   3  549.23   16.54
  -4  -5   3  554.99   24.83
   4   5  -3  554.99   20.49
  -4  -5   2   15.73    3.04
   4   5  -2   18.05    3.62
   4   5  -2   11.66    3.88
  -4  -5   2   13.96    3.65
  -4  -5   2    7.21    4.22
   4   5  -1 2051.77   45.31
  -4  -5   1 2039.83   45.32
   4   5  -1 2047.81   57.24
  -4  -5   1 1944.34   35.86
  -4  -5   1 1971.27   41.55
  -4  -5   1 1830.76   49.76
   4   5  -1 1900.21   43.83
  -4  -5   0 1217.53   27.49
  -4  -5   0 1199.06   27.80
   4   5   0 1307.76   32.02
  -4  -5   0 1247.87   31.47
   4   5   0 1242.31   41.23
   4   5   0 1142.14   24.24
  -4  -5   0 1230.31   29.66
  -4  -5   0 1206.40   36.41
  -4  -5   0 1204.20   23.50
   4   5   0 1285.79   32.87
   4   5   1  185.54   10.36
   4   5   1  203.79   10.55
  -4  -5  -1  203.17    8.22
  -4  -5  -1  202.78    6.71
  -4  -5  -1  204.59   10.43
   4   5   1  188.41   14.48
  -4  -5  -1  205.21   10.29
  -4  -5  -1  196.46   13.09
   4   5   2 2066.54   43.17
   4   5   2 2183.69   45.36
   4   5   2 2118.06   55.51
  -4  -5  -2 2107.31   44.77
  -4  -5  -2 2201.19   46.05
  -4  -5  -2 2113.24   38.83
  -4  -5  -2 2090.86   51.72
   4   5   3  168.54    7.81
  -4  -5  -3  145.52    6.13
   4   5   3  140.26    8.29
   4   5   3  143.22   12.25
  -4  -5  -3  154.18    8.25
  -4  -5  -3  158.12    9.27
   4   5   3  161.02    6.91
  -4  -5  -3  146.45    6.38
   4   5   4   77.05    5.37
  -4  -5  -4   78.58    4.84
   4   5   4   73.37    5.69
   4   5   4   78.89    9.24
  -4  -5  -4   83.85    6.96
   4   5   4   73.14    4.83
  -4  -5  -4   75.37    5.43
  -4  -5  -4   69.07    4.65
  -4  -5  -5  166.68    7.80
   4   5   5  173.45    8.26
   4   5   5  133.41    4.62
  -4  -5  -5  166.43    7.56
  -4  -5  -5  161.17    9.63
   4   5   5  170.89    7.94
  -4  -5  -5  159.05    7.54
  -4  -5  -6   73.95    5.63
   4   5   6   78.39    5.40
  -4  -5  -6   72.27    4.67
  -4  -5  -6   75.28    6.77
   4   5   6   77.76    5.74
  -4  -5  -7  496.00   17.05
   4   5   7  496.25   14.55
  -4  -5  -7  497.86   13.22
  -4  -5  -7  515.93   19.03
   4   5   7  509.54   16.66
   4   5   8 1469.77   30.96
  -4  -5  -8 1457.24   37.41
   4   5   8 1510.48   35.28
  -4  -5  -8 1456.54   35.86
  -4  -5  -9  144.42    9.60
  -4  -5  -9  132.73    9.74
   4   5   9  132.34    8.77
  -4  -5 -10  301.86   15.04
  -4  -5 -10  295.47   14.93
   4   5  10  270.63   13.49
  -4  -5 -11   39.13    5.51
  -4  -5 -11   36.68    5.59
   4   5  11   37.37    5.36
  -4  -5 -12  347.22   17.77
  -4  -5 -12  356.25   16.92
   4   5  12  343.83   16.70
  -4  -5 -13   64.04    7.23
  -4  -5 -13   71.47    8.33
   4   5  13   66.31    7.75
  -4  -5 -14  840.26   31.10
  -4  -5 -14  825.93   28.41
   4   5  14  814.14   29.29
  -4  -5 -14  761.30   32.32
  -4  -5 -15   14.58    4.16
  -4  -5 -15   10.88    5.14
   4   5  15   14.08    4.83
  -4  -5 -15   19.69    5.79
  -4  -5 -16    4.00    2.77
  -4  -5 -16   -1.36    3.68
   4   5  16    9.34    4.57
  -4  -5 -16   -0.73    4.21
  -4  -5 -17    1.21    3.03
  -4  -5 -17   -5.73    4.98
   4   5  17   -1.70    4.79
  -4  -5 -17   -2.10    3.89
  -4  -5 -18  141.91   14.53
   4   5  18  175.34   15.08
  -4  -5 -19    1.26    4.65
   4   5  19   14.14    6.09
   4   6 -15    6.27    5.16
   4   6 -14  147.18   14.60
  -4  -6  14  114.12   15.98
   4   6 -13    8.75    5.00
  -4  -6  13    1.04    5.62
   4   6 -12  357.12   21.80
  -4  -6  12  341.37   26.28
   4   6 -11   13.94    5.04
  -4  -6  11   22.95    8.53
  -4  -6  10   23.52    6.53
   4   6 -10   17.52    5.32
   4   6  -9    4.07    3.95
  -4  -6   9   -1.86    5.22
   4   6  -8    7.39    4.21
  -4  -6   8   13.25    6.12
   4   6  -7   11.45    3.83
  -4  -6   7   12.85    5.88
   4   6  -6 1341.77   28.58
   4   6  -6 1435.41   40.74
  -4  -6   6 1340.81   29.09
  -4  -6   6 1285.89   47.24
  -4  -6   5   94.27    9.06
   4   6  -5   91.92    4.76
   4   6  -5   90.02    8.72
  -4  -6   5  102.30    7.47
  -4  -6   5   92.71    5.06
  -4  -6   5   89.91   11.75
  -4  -6   4  208.24   13.00
   4   6  -4  180.44    5.86
   4   6  -4  200.23   12.93
  -4  -6   4  216.57    9.75
  -4  -6   4  208.35    7.02
  -4  -6   4  210.52   11.09
  -4  -6   4  209.32   16.68
  -4  -6   3   63.99    3.17
  -4  -6   3   60.03    7.05
   4   6  -3   71.48    7.70
  -4  -6   3   65.29    5.40
  -4  -6   3   61.11    5.84
  -4  -6   3   58.68    9.40
   4   6  -3   64.86    5.37
  -4  -6   2   68.63    7.14
   4   6  -2   52.28    6.47
  -4  -6   2   46.75    2.25
  -4  -6   2   62.74    5.79
  -4  -6   2   64.46    5.57
  -4  -6   2   54.95    2.35
   4   6  -2   64.03    5.17
  -4  -6   2   62.06    9.25
  -4  -6   1   14.92    2.91
   4   6  -1   10.95    2.56
  -4  -6   1   13.46    2.61
   4   6  -1   11.02    3.46
  -4  -6   1   11.09    2.96
  -4  -6   1    7.38    3.05
   4   6  -1   11.65    1.24
  -4  -6   1   11.32    5.03
  -4  -6   0  395.50   16.65
   4   6   0  384.20   23.91
   4   6   0  391.62   11.26
   4   6   0  406.68   16.69
  -4  -6   0  424.59   15.76
  -4  -6   0  444.01   22.00
   4   6   0  388.28   14.11
  -4  -6  -1  332.34   10.68
   4   6   1  322.73   21.01
   4   6   1  328.62   13.12
  -4  -6  -1  357.41   14.47
  -4  -6  -1  300.50    7.24
  -4  -6  -1  337.49   18.96
   4   6   1  355.13   14.80
   4   6   1  333.22   13.78
   4   6   2  778.08   22.35
   4   6   2  814.48   24.04
   4   6   2  823.94   34.48
  -4  -6  -2  833.48   24.64
  -4  -6  -2  837.12   30.88
  -4  -6  -2  803.17   16.47
   4   6   3  302.31   11.18
   4   6   3  317.83   13.57
   4   6   3  342.67   20.83
  -4  -6  -3  318.73   14.29
  -4  -6  -3  330.39   18.70
  -4  -6  -3  319.28    9.27
   4   6   4 1333.04   26.91
   4   6   4 1318.92   28.56
   4   6   4 1298.29   27.16
   4   6   4 1311.19   31.85
  -4  -6  -4 1286.98   30.56
   4   6   4 1280.03   43.84
  -4  -6  -4 1321.14   34.51
  -4  -6  -4 1308.47   27.17
   4   6   5   73.03    4.87
  -4  -6  -5   65.60    5.64
   4   6   5   79.96    6.03
   4   6   5   75.14   10.03
  -4  -6  -5   77.72    7.18
   4   6   5   69.50    4.82
  -4  -6  -6  512.19   17.53
   4   6   6  533.78   16.46
   4   6   6  503.81   26.21
   4   6   6  528.76   15.84
  -4  -6  -6  531.59   20.01
  -4  -6  -7    8.97    3.05
   4   6   7    6.25    1.85
  -4  -6  -7   14.08    3.38
   4   6   7    5.56    1.95
  -4  -6  -8   77.29    7.06
   4   6   8   89.52    5.56
   4   6   8   80.96    6.53
  -4  -6  -8   92.15    8.31
   4   6   9   48.45    3.84
  -4  -6  -9   42.51    5.60
  -4  -6  -9   40.20    5.75
   4   6   9   49.81    5.47
   4   6  10  228.00   12.19
  -4  -6 -10  238.89   13.56
  -4  -6 -10  242.49   13.83
  -4  -6 -11  523.27   21.84
  -4  -6 -11  556.46   22.17
   4   6  11  532.58   20.31
  -4  -6 -12 1012.98   32.54
  -4  -6 -12 1015.04   33.37
   4   6  12 1028.79   31.19
  -4  -6 -13   56.07    7.19
  -4  -6 -13   61.02    8.08
   4   6  13   65.73    7.49
  -4  -6 -14    9.95    3.80
  -4  -6 -14   11.69    4.78
   4   6  14   12.47    3.91
  -4  -6 -15  139.54   12.82
   4   6  15  120.77   11.03
  -4  -6 -15  133.32   11.33
  -4  -6 -16  201.72   16.05
  -4  -6 -16  201.31   14.28
   4   6  16  200.46   14.97
  -4  -6 -16  202.82   17.99
  -4  -6 -17   70.92    9.39
  -4  -6 -17   59.62    9.28
   4   6  17   77.70   10.08
  -4  -6 -17   62.88   10.58
  -4  -6 -18  862.05   37.56
   4   6  18  976.22   37.09
  -4  -6 -19    5.65    5.85
   4   6  19    7.06    5.73
   4   7 -13   12.79    6.02
  -4  -7  13   26.99   10.14
   4   7 -12  557.97   28.71
  -4  -7  12  588.64   36.74
   4   7 -11   82.34   11.01
  -4  -7  11   99.05   15.54
   4   7 -10  130.12   13.05
  -4  -7  10  120.64   15.98
   4   7  -9  261.81   17.90
  -4  -7   9  234.45   21.59
   4   7  -8   26.51    6.84
  -4  -7   8   11.75    7.70
   4   7  -7   26.10    6.48
  -4  -7   7   18.08    7.00
   4   7  -6  804.20   30.37
  -4  -7   6  742.76   36.93
   4   7  -5 1297.51   39.62
  -4  -7   5 1258.50   48.30
   4   7  -4  336.49   17.75
  -4  -7   4  358.58   23.86
  -4  -7   4  294.98   15.92
   4   7  -3  704.44   26.06
  -4  -7   3  684.49   32.89
  -4  -7   3  686.72   24.80
   4   7  -2   32.48    5.44
  -4  -7   2   29.70    4.94
  -4  -7   2   28.91    7.38
   4   7  -1  257.29   14.22
   4   7  -1  257.44    8.29
  -4  -7   1  268.94   14.08
  -4  -7   1  254.01   12.58
  -4  -7   1  261.87   18.80
   4   7   0  819.70   26.60
   4   7   0  836.26   39.57
   4   7   0  801.66   19.63
  -4  -7   0  805.32   26.16
  -4  -7   0  825.35   25.16
  -4  -7   0  796.70   33.38
   4   7   0  799.41   18.16
  -4  -7  -1  721.82   17.47
   4   7   1  770.54   24.97
   4   7   1  771.96   37.40
   4   7   1  772.77   22.50
  -4  -7  -1  811.80   26.07
  -4  -7  -1  765.22   24.49
  -4  -7  -1  741.98   31.70
   4   7   1  793.84   18.26
   4   7   2 1412.46   26.17
  -4  -7  -2 1573.15   38.53
   4   7   2 1537.00   38.06
   4   7   2 1522.56   53.05
   4   7   2 1483.54   39.47
  -4  -7  -2 1608.38   40.39
  -4  -7  -2 1574.80   47.83
   4   7   2 1498.83   31.85
   4   7   3   21.53    3.35
   4   7   3   22.44    2.13
  -4  -7  -3   26.69    4.31
   4   7   3   21.09    3.76
   4   7   3   20.52    7.03
  -4  -7  -3   18.30    6.00
   4   7   4  126.66    6.52
   4   7   4  119.02    5.78
   4   7   4  126.48    8.58
   4   7   4  124.84   13.89
  -4  -7  -4  125.93    9.48
   4   7   4  127.90    5.52
   4   7   5  127.58    6.49
   4   7   5  134.20    8.68
  -4  -7  -5  133.34   10.01
   4   7   5  119.96   13.91
   4   7   5  132.05    6.30
   4   7   6  560.49   18.29
   4   7   6  528.97   28.91
  -4  -7  -6  542.98   21.35
   4   7   6  526.12   15.58
  -4  -7  -7   34.45    5.86
   4   7   7   32.51    4.20
  -4  -7  -7   37.76    5.69
   4   7   7   42.67    9.09
   4   7   7   35.80    4.13
  -4  -7  -8 1938.97   48.65
  -4  -7  -8 1994.06   47.91
   4   7   8 1922.52   41.03
   4   7   8 1949.47   62.17
   4   7   8 1933.33   42.20
  -4  -7  -9  140.24   10.68
   4   7   9  121.15    7.00
   4   7   9  134.87   15.04
  -4  -7  -9  127.31   10.34
   4   7   9  133.90    8.63
  -4  -7 -10  263.80   15.15
  -4  -7 -10  273.58   15.56
   4   7  10  260.27   12.95
  -4  -7 -11    4.79    3.72
  -4  -7 -11    1.36    2.80
   4   7  11   -0.38    2.99
  -4  -7 -12   55.98    7.42
  -4  -7 -12   62.02    8.04
   4   7  12   52.73    6.54
  -4  -7 -13   -0.59    3.21
  -4  -7 -13    3.58    3.81
   4   7  13    4.21    3.18
  -4  -7 -14   16.42    4.83
   4   7  14   17.41    4.85
  -4  -7 -14   16.61    5.12
  -4  -7 -15   13.08    4.30
  -4  -7 -15   28.68    6.42
   4   7  15   24.14    5.59
  -4  -7 -16  596.55   28.98
   4   7  16  566.42   25.85
  -4  -7 -17    9.79    6.65
   4   7  17   -3.08    4.13
  -4  -7 -17    8.79    6.61
  -4  -7 -18  280.84   21.05
   4   7  18  266.00   18.65
   4   7  19   27.83    7.80
   4   8 -11   16.86    6.33
  -4  -8  11   23.05    8.42
   4   8 -10   57.09    9.68
  -4  -8  10   48.88   11.46
   4   8  -9   40.42    8.26
  -4  -8   9   53.62   12.19
   4   8  -8  583.60   28.09
  -4  -8   8  520.81   33.85
   4   8  -7  341.92   20.69
  -4  -8   7  360.50   27.54
   4   8  -6  767.42   31.32
  -4  -8   6  791.59   40.34
   4   8  -5   32.17    6.68
  -4  -8   5   33.18    9.21
   4   8  -4    3.28    3.78
  -4  -8   4    3.62    5.53
   4   8  -3  168.72   12.82
  -4  -8   3  184.31   17.98
  -4  -8   3  151.59   12.60
   4   8  -2  130.02   11.16
  -4  -8   2  140.98   11.88
  -4  -8   2  132.92   15.18
   4   8  -1 1059.42   33.69
  -4  -8   1 1067.31   34.65
  -4  -8   1 1040.29   42.44
  -4  -8   0 1289.84   38.46
   4   8   0 1219.52   36.61
   4   8   0 1257.31   28.90
  -4  -8   0 1284.46   46.66
   4   8   1   46.87    6.57
  -4  -8  -1   52.50    7.05
   4   8   1   38.73   10.51
   4   8   1   35.64    4.52
  -4  -8  -1   31.84    7.87
  -4  -8  -2   21.27    4.51
   4   8   2   19.84    4.48
  -4  -8  -2   13.92    4.54
   4   8   2   15.93    8.26
   4   8   2   22.49    4.71
  -4  -8  -2    9.90    5.24
   4   8   3  246.07   13.51
   4   8   3  246.06   22.00
   4   8   3  241.99   15.91
  -4  -8  -3  246.87   14.95
  -4  -8  -3  255.32   14.27
  -4  -8  -3  242.13   18.40
   4   8   4  195.20   11.68
   4   8   4  191.45   19.42
  -4  -8  -4  201.33   13.48
  -4  -8  -4  192.99   12.57
  -4  -8  -4  162.67   15.42
   4   8   5  145.93    6.07
   4   8   5  145.32    9.83
   4   8   5  130.48   15.84
  -4  -8  -5  146.23   11.65
  -4  -8  -5  149.66   11.23
   4   8   6  949.18   21.95
  -4  -8  -6  949.20   31.22
   4   8   6  908.63   27.26
   4   8   6  918.86   43.06
   4   8   6  941.60   22.02
  -4  -8  -7    9.91    3.91
   4   8   7    2.65    2.24
   4   8   7    3.83    6.47
   4   8   7    0.43    1.67
  -4  -8  -8    3.07    3.07
   4   8   8   11.13    3.30
   4   8   8   10.03    6.36
   4   8   8    6.65    2.50
  -4  -8  -9    6.45    3.76
   4   8   9    4.63    1.83
   4   8   9   16.49    8.65
   4   8   9    2.25    2.03
  -4  -8 -10  930.79   33.60
   4   8  10  893.88   42.82
  -4  -8 -10  914.49   32.33
   4   8  10  938.30   27.37
  -4  -8 -11   51.57    7.74
  -4  -8 -11   48.25    7.61
   4   8  11   72.11   13.74
   4   8  11   49.86    6.11
   4   8  12  488.97   20.34
  -4  -8 -12  483.80   24.15
  -4  -8 -12  494.12   23.40
  -4  -8 -13   31.24    6.90
   4   8  13   29.25    5.60
  -4  -8 -14    3.97    4.14
   4   8  14    7.47    3.84
  -4  -8 -15   15.54    5.72
   4   8  15   14.26    4.99
  -4  -8 -16  529.65   28.32
   4   8  16  488.68   24.15
  -4  -8 -17  211.16   18.47
   4   8  17  208.56   16.01
  -4  -8 -18  137.29   15.50
   4   8  18  141.90   13.54
   4   9  -9    3.55    4.90
  -4  -9   9   -1.88    7.10
   4   9  -8    4.90    4.90
  -4  -9   8    7.65    8.07
   4   9  -7  214.39   17.17
  -4  -9   7  185.36   21.54
   4   9  -6  113.51   12.39
  -4  -9   6  131.33   17.64
   4   9  -5    6.46    4.32
  -4  -9   5    4.02    6.06
   4   9  -4  161.90   14.03
  -4  -9   4  176.93   19.01
   4   9  -3    9.03    4.49
  -4  -9   3    8.58    6.91
   4   9  -2  374.60   20.22
  -4  -9   2  374.93   26.78
  -4  -9   2  355.06   21.63
   4   9  -1   17.57    4.87
  -4  -9   1   19.71    5.61
  -4  -9   1   22.02    7.24
   4   9   0  563.39   24.31
  -4  -9   0  570.74   26.20
  -4  -9   0  544.19   31.31
   4   9   1   34.08    6.34
  -4  -9  -1   29.78    6.69
  -4  -9  -1   40.87    9.33
   4   9   2    7.01    3.34
  -4  -9  -2   16.38    4.76
   4   9   2   12.76    8.59
   4   9   2   18.36    4.03
  -4  -9  -2   26.08    8.49
   4   9   3   36.37    6.12
  -4  -9  -3   51.56    7.43
   4   9   3   76.53   14.27
   4   9   3   49.07    7.41
  -4  -9  -3   43.71    8.82
   4   9   4  352.83   17.25
   4   9   4  347.07   28.37
   4   9   4  341.34   20.95
  -4  -9  -4  338.24   19.23
  -4  -9  -4  387.44   25.29
   4   9   5   28.72    5.54
  -4  -9  -5   32.03    6.44
   4   9   5   37.33   10.81
   4   9   5   24.60    6.47
   4   9   6  342.84   16.54
   4   9   6  348.60   27.80
  -4  -9  -6  320.04   18.97
   4   9   7    3.71    2.91
  -4  -9  -7   -1.07    3.11
   4   9   7    6.18    8.63
   4   9   8  195.36   11.53
   4   9   8  170.76   19.65
  -4  -9  -8  208.98   15.50
  -4  -9  -9   10.84    4.55
   4   9   9   12.05    7.62
   4   9  10  228.47   22.74
  -4  -9 -10  214.98   16.45
  -4  -9 -11   -0.29    3.42
   4   9  11   11.92    7.06
   4   9  12   10.09    7.50
  -4  -9 -12    5.38    4.86
   4   9  12    6.55    3.40
   4   9  13   18.23    9.32
  -4  -9 -13    3.30    3.74
   4   9  13    7.82    3.92
  -4  -9 -14  588.15   30.37
   4   9  14  605.71   38.84
  -4  -9 -14  594.58   29.95
   4   9  14  560.50   24.17
  -4  -9 -15   20.00    6.73
  -4  -9 -15   17.76    7.16
   4   9  15   34.49   11.01
   4   9  15   21.62    5.53
  -4  -9 -16  354.70   24.94
   4   9  16  385.46   31.91
  -4  -9 -16  355.33   24.09
   4   9  16  363.08   20.58
  -4  -9 -17    0.83    4.74
   4   9  17    7.41    4.15
   4   9  18   -2.30    4.25
   4  10  -6   39.59    8.26
  -4 -10   6   34.94   10.62
   4  10  -5   81.46   11.22
  -4 -10   5   76.49   14.18
   4  10  -4   69.69   10.03
  -4 -10   4   75.12   14.26
   4  10  -3  409.67   23.21
  -4 -10   3  417.36   30.64
   4  10  -2  936.59   36.04
  -4 -10   2  991.32   47.06
   4  10  -1  240.28   16.91
  -4 -10   1  218.77   21.77
  -4 -10   1  229.61   18.88
   4  10   0  170.35   14.07
  -4 -10   0  161.93   18.37
  -4 -10   0  145.36   14.57
   4  10   1  505.26   24.06
  -4 -10  -1  508.26   31.63
  -4 -10  -1  495.00   26.83
   4  10   2   12.07    5.42
  -4 -10  -2    9.34    4.17
  -4 -10  -2    4.72    5.80
   4  10   3    3.43    3.57
  -4 -10  -3    9.86    4.83
  -4 -10  -3    7.17    6.14
   4  10   4 1415.88   41.88
   4  10   4 1307.34   62.07
  -4 -10  -4 1401.97   53.93
  -4 -10  -4 1383.62   46.60
   4  10   5  901.39   31.13
   4  10   5  816.94   47.37
   4  10   5  807.68   36.76
  -4 -10  -5  867.45   35.27
   4  10   6  143.21   11.36
   4  10   6  124.64   18.84
   4  10   6  143.83   15.70
  -4 -10  -6  126.53   13.04
   4  10   7   13.25    4.04
  -4 -10  -7   21.02    6.57
   4  10   7   20.83   10.08
   4  10   7   30.51    9.12
   4  10   8    3.86    2.78
  -4 -10  -8   -4.22    4.86
  -4 -10  -9   92.15   11.51
   4  10   9   93.36   16.76
   4  10  10  384.74   32.43
  -4 -10 -10  398.42   23.83
   4  10  11  163.03   20.65
  -4 -10 -11  166.10   15.54
   4  10  12  191.69   22.70
  -4 -10 -12  190.15   16.90
  -4 -10 -13    1.57    4.60
   4  10  13    7.22    6.58
  -4 -10 -14   55.29    9.78
   4  10  14   48.72   12.54
   4  10  15    1.58    7.78
   4  11  -3  155.95   15.27
  -4 -11   3  148.41   19.81
   4  11  -2  280.41   19.96
  -4 -11   2  294.46   26.79
   4  11  -1    4.13    4.42
  -4 -11   1   12.14    8.26
   4  11   0  200.37   16.14
  -4 -11   0  215.43   22.47
  -4 -11   0  194.59   18.87
   4  11   1    1.27    3.95
  -4 -11  -1    1.77    4.83
  -4 -11  -1    8.92    8.32
   4  11   2  340.65   20.58
  -4 -11  -2  311.33   22.79
  -4 -11  -2  333.79   26.41
   4  11   3  167.96   14.20
  -4 -11  -3  201.63   20.35
  -4 -11  -3  193.62   17.56
   4  11   4  631.95   27.68
  -4 -11  -4  648.37   32.70
   4  11   5   17.22    5.01
  -4 -11  -5    7.48    5.22
   4  11   5   16.93   11.57
   4  11   6   15.75    4.87
  -4 -11  -6   11.06    5.83
   4  11   6   21.18   11.34
   4  11   7   56.76    7.70
  -4 -11  -7   63.02   10.72
   4  11   7   72.29   16.19
   4  11   8  261.39   28.41
   4  11   8  301.89   25.16
  -4 -11  -8  298.56   21.55
   4  11   9  259.76   28.00
   4  11   9  291.98   24.98
  -4 -11  -9  276.66   21.53
  -4 -11 -10   42.10    8.81
   4  11  10   44.62   12.74
  -4 -11 -11    6.47    4.86
   4  11  11    6.13    6.99
  -4 -11 -12   70.76   10.96
   4  11  12   88.54   16.82
   4  11  13   13.15   10.37
   4  12   1   54.29    8.99
   4  12   2  123.07   13.47
  -4 -12  -2  118.79   15.70
   4  12   3  227.49   17.71
  -4 -12  -3  221.08   20.90
   4  12   4   84.35   10.97
  -4 -12  -4   86.48   13.51
   4  12   5   72.29   10.16
  -4 -12  -5  105.01   14.15
   4  12   6   36.85    7.73
  -4 -12  -6   46.13    9.80
   4  12   7   14.76   12.10
  -4 -12  -7   37.73    8.51
   4  12   8   78.30   17.58
  -4 -12  -8   84.46   12.52
   4  12   9    5.20    9.41
   4  12  11    9.17    8.08
   4  12  12  116.22   18.26
   5  -7 -11   74.50   14.97
   5  -7 -10   19.73   10.32
   5  -7  -9   49.54   12.40
  -5   7   8   67.52   11.89
   5  -7  -8   32.76    9.86
   5  -7  -7   -1.91    5.50
  -5   7   7   10.24    6.43
  -5   7   6   -5.93    6.75
   5  -7  -6   -3.34    6.15
   5  -7  -5   16.40    7.20
  -5   7   5   33.75    9.32
   5  -7  -4   -2.63    6.68
  -5   7   4    1.95    6.21
   5  -7  -3   30.55   10.01
  -5   7   3   27.89    9.01
   5  -7  -2    8.65    6.79
  -5   7   2   10.71    6.64
   5  -7  -1  179.86   20.55
  -5   7   1  133.98   17.08
   5  -7   0   69.97   14.05
  -5   7   0   31.22    9.28
  -5   7  -1   28.26    8.01
   5  -7   1   26.08   10.16
  -5   7  -2    6.76    6.49
   5  -7   2    7.71    6.59
   5  -7   3   23.86    8.99
  -5   7  -3    2.41    4.95
   5  -7   3   19.17    6.55
   5  -7   4   10.82    7.32
  -5   7  -4   17.50    6.99
   5  -7   4    2.84    4.25
   5  -7   5   63.76   13.95
  -5   7  -5   70.42   11.67
   5  -7   5   65.55   10.49
   5  -7   6  160.03   15.84
  -5   7  -6  174.52   17.68
   5  -7   6  160.72   21.42
   5  -7   7  102.71   13.57
   5  -7   8    7.34    5.58
  -5   6  14   24.48    8.32
   5  -6 -14    3.48    6.19
   5  -6 -13   42.24   10.39
  -5   6  12   19.36    7.82
   5  -6 -12   24.33    6.96
   5  -6 -11  286.24   24.97
  -5   6  11  327.57   25.45
   5  -6 -10  409.55   29.13
  -5   6  10  424.78   28.59
   5  -6  -9  157.94   19.04
  -5   6   9  179.58   18.02
   5  -6  -9  143.71   14.26
   5  -6  -8   55.84    9.01
  -5   6   8   80.16   12.48
   5  -6  -8   77.62   14.15
   5  -6  -7   15.72    5.56
  -5   6   7   27.00    8.38
   5  -6  -7    6.29    6.85
  -5   6   6   68.16   11.61
   5  -6  -6  103.40   15.60
  -5   6   5   73.93   12.06
   5  -6  -5   74.28   13.35
   5  -6  -4  463.81   31.89
  -5   6   4  508.59   29.90
   5  -6  -3  192.78   20.48
  -5   6   3  228.54   20.26
   5  -6  -2    5.89    5.95
  -5   6   2   14.03    6.88
   5  -6  -1   -5.60    7.24
  -5   6   1   -1.13    5.78
   5  -6  -1   -0.26    2.98
  -5   6   0    2.52    5.61
   5  -6   0   15.64    8.42
   5  -6   0    1.56    3.90
   5  -6   1   26.11    9.26
  -5   6  -1    7.35    5.88
   5  -6   1   23.57    5.39
  -5   6  -2   10.63    6.16
   5  -6   2   11.42    7.69
   5  -6   2   10.47    4.79
   5  -6   3  135.32   18.92
  -5   6  -3  132.27   15.68
   5  -6   3  150.99   13.13
   5  -6   4   13.55    7.75
  -5   6  -4   20.73    7.48
   5  -6   4   20.85    6.36
   5  -6   5   17.83    8.70
  -5   6  -5    7.96    4.92
   5  -6   5   14.21    5.32
   5  -6   6   90.47   15.62
  -5   6  -6   75.94   11.62
   5  -6   6   66.61   10.57
  -5   6  -7   27.54    7.32
   5  -6   7   17.28    7.71
   5  -6   7   29.81    7.64
  -5   6  -8    0.39    4.59
   5  -6   8  -11.00    6.18
  -5   6  -9    1.15    4.87
   5  -6   9   -2.06    5.72
   5  -6  10   -6.72    6.00
  -5   5  15   10.81    6.21
  -5   5  14   21.12    7.59
  -5   5  14   13.65    7.29
  -5   5  13  341.21   23.45
  -5   5  13  352.18   26.50
  -5   5  13  301.34   24.78
   5  -5 -13  340.96   25.30
   5  -5 -12  104.10   14.40
  -5   5  12   87.89   12.29
  -5   5  12  124.20   15.77
   5  -5 -11  402.54   27.15
  -5   5  11  375.00   24.09
  -5   5  11  353.35   26.07
   5  -5 -10   35.39    7.76
  -5   5  10   24.33    8.04
   5  -5 -10   31.71   10.71
   5  -5  -9   20.77    6.75
  -5   5   9   29.37    7.96
   5  -5  -9   26.45    8.25
   5  -5  -8   23.50    6.74
  -5   5   8   27.52    7.79
   5  -5  -8   25.13    7.54
   5  -5  -7   87.71   10.74
  -5   5   7   86.75   12.16
   5  -5  -7   88.37   13.40
   5  -5  -6  306.99   24.26
  -5   5   6  378.08   24.00
   5  -5  -6  344.05   20.95
   5  -5  -5  310.98   24.81
  -5   5   5  363.07   24.16
   5  -5  -5  331.12   19.86
   5  -5  -4   17.02    8.03
   5  -5  -4    8.35    4.18
  -5   5   4   19.27    7.36
   5  -5  -3   25.00    9.15
   5  -5  -3   30.25    6.32
  -5   5   3   32.24    8.87
   5  -5  -2   45.14    7.53
   5  -5  -2   39.74    9.70
  -5   5   2   37.61    9.21
   5  -5  -2   41.10    5.73
   5  -5  -1   41.25   10.09
   5  -5  -1   43.04    7.56
  -5   5   1   48.26   10.01
   5  -5  -1   48.12    6.37
   5  -5   0  324.28   18.84
   5  -5   0  347.46   26.25
  -5   5   0  313.48   22.73
   5  -5   0  338.88   16.99
   5  -5   1   86.62    9.47
   5  -5   1   71.18   13.20
   5  -5   1   99.78    9.44
  -5   5  -1   67.88   11.65
   5  -5   2   21.14    5.03
   5  -5   2   33.26   10.23
   5  -5   2   20.44    5.17
  -5   5  -2   18.28    6.93
   5  -5   3    3.65    3.28
   5  -5   3    2.61    5.55
  -5   5  -3    2.79    4.32
   5  -5   3    3.07    3.39
   5  -5   4   -3.86    4.40
   5  -5   4   11.86    7.63
  -5   5  -4   18.09    6.44
   5  -5   4    6.51    4.25
   5  -5   5  351.45   17.92
   5  -5   5  294.45   26.03
  -5   5  -5  318.61   21.49
   5  -5   5  297.93   18.44
   5  -5   6   92.23    9.24
   5  -5   6   79.19   15.12
  -5   5  -6  107.74   12.88
   5  -5   6  109.43   11.44
   5  -5   7  136.05   11.23
  -5   5  -7  107.66   15.21
  -5   5  -7  126.58   13.69
   5  -5   7  129.71   13.28
  -5   5  -8   20.00    5.53
  -5   5  -8    7.74    6.06
   5  -5   8   18.79    6.25
  -5   5  -9   84.61   11.06
   5  -5   9   59.89   10.08
  -5   5 -10    9.17    5.50
   5  -5  10    3.10    4.93
  -5   5 -11  142.54   13.77
   5  -5  11  113.49   15.35
  -5   5 -12   82.62   11.90
   5  -5  12   79.31   13.07
  -5   4  15    9.72    5.52
  -5   4  15    5.76    5.39
  -5   4  14   -1.70    4.97
  -5   4  14    8.56    6.73
  -5   4  14    5.61    6.63
   5  -4 -14   -4.13    6.11
  -5   4  13   47.54    9.22
  -5   4  13   49.33   10.50
  -5   4  13   42.55    9.94
   5  -4 -13   63.70   10.44
   5  -4 -13   50.62   10.58
   5  -4 -12  170.65   16.65
  -5   4  12  185.93   16.83
  -5   4  12  207.27   19.51
   5  -4 -11  193.39   17.71
   5  -4 -11  154.98   15.45
  -5   4  11  193.64   17.05
  -5   4  11  165.32   17.11
   5  -4 -10    8.64    5.79
  -5   4  10    7.89    5.80
  -5   4  10    6.34    5.76
   5  -4 -10    9.12    6.09
  -5   4   9   99.51   11.89
  -5   4   9  123.70   14.13
   5  -4  -9  105.36   13.55
   5  -4  -9  117.04   13.11
  -5   4   8  100.64   11.95
  -5   4   8  103.66   12.84
   5  -4  -8   93.64   11.54
   5  -4  -8  112.12   13.83
   5  -4  -7  124.74   14.79
  -5   4   7  116.32   13.05
   5  -4  -7  126.26   12.95
   5  -4  -6  363.27   25.12
  -5   4   6  384.03   23.78
   5  -4  -6  396.79   22.74
   5  -4  -5  337.20   23.45
  -5   4   5  359.05   22.65
   5  -4  -5  344.45   19.97
   5  -4  -4   88.89   13.10
  -5   4   4  106.94   12.69
   5  -4  -4  116.12   11.55
   5  -4  -3   24.68    7.72
   5  -4  -3   31.71    6.49
  -5   4   3   35.77    8.15
   5  -4  -2   -1.28    3.35
   5  -4  -2   -4.51    5.12
   5  -4  -1   36.07    6.81
   5  -4  -1   41.82    9.50
  -5   4   1   36.08    8.18
   5  -4  -1   40.36    5.25
   5  -4   0   19.40    5.89
   5  -4   0   35.29    9.39
  -5   4   0   19.36    6.88
   5  -4   0   27.21    4.87
   5  -4   1  348.09   18.34
   5  -4   1  333.70   24.71
  -5   4  -1  329.36   21.86
   5  -4   1  347.08   16.21
   5  -4   2   32.77    5.95
   5  -4   2   24.73    7.75
  -5   4  -2   41.36    8.49
   5  -4   2   38.77    5.73
   5  -4   3   73.76    8.09
   5  -4   3   72.36    7.76
   5  -4   3   57.05   10.95
  -5   4  -3   56.49    9.17
   5  -4   4  159.07   11.61
   5  -4   4  144.88   16.72
  -5   4  -4  143.15   13.83
   5  -4   4  138.09   11.19
   5  -4   5   45.32    6.52
   5  -4   5   16.44    6.65
  -5   4  -5   39.79    7.82
   5  -4   5   38.59    6.66
   5  -4   6   41.68    6.41
   5  -4   6   43.32   10.38
  -5   4  -6   44.54    8.09
   5  -4   6   41.83    6.77
   5  -4   7   10.01    4.16
  -5   4  -7   -3.97    5.28
   5  -4   7    0.32    3.64
   5  -4   8    6.21    3.55
  -5   4  -8   -2.90    5.02
   5  -4   8    4.18    4.46
  -5   4  -9  240.24   16.59
  -5   4  -9  177.48   15.94
   5  -4   9  200.65   16.28
  -5   4 -10   60.73    8.77
   5  -4  10   46.33    8.89
  -5   4 -11  184.86   15.09
   5  -4  11  162.22   16.46
  -5   4 -12    3.97    3.82
   5  -4  12    3.90    5.95
  -5   4 -13   28.05    8.33
   5  -4  13   54.80   11.01
  -5   3  16   85.61   13.46
  -5   3  16   78.98   12.63
  -5   3  15   92.65   14.12
   5  -3 -15  114.86   14.83
  -5   3  15   80.48   13.02
  -5   3  15   91.47   13.50
  -5   3  14   29.57    8.06
  -5   3  14   26.71    7.64
  -5   3  14   20.73    7.78
   5  -3 -14   32.81    8.51
  -5   3  13  894.10   38.67
  -5   3  13  861.65   39.11
  -5   3  13  742.05   38.07
   5  -3 -13  835.61   37.88
  -5   3  12  230.17   18.71
  -5   3  12  231.18   19.21
   5  -3 -12  207.58   17.91
   5  -3 -12  194.48   16.49
   5  -3 -11    7.33    5.18
  -5   3  11   -2.27    4.09
  -5   3  11   12.76    6.55
   5  -3 -11    0.05    4.18
   5  -3 -11   13.73    6.08
   5  -3 -10  344.61   22.25
  -5   3  10  343.52   21.96
  -5   3  10  326.93   22.48
   5  -3 -10  323.03   21.68
  -5   3   9  143.90   13.76
   5  -3  -9  146.30   14.19
  -5   3   9  148.16   14.75
   5  -3  -9  131.90   13.47
   5  -3  -8  387.62   23.21
  -5   3   8  373.03   22.21
  -5   3   8  329.55   21.94
   5  -3  -8  419.97   23.48
   5  -3  -7 1374.49   46.93
  -5   3   7 1370.67   45.27
  -5   3   7 1409.10   46.49
   5  -3  -7 1417.68   46.06
   5  -3  -6  392.37   23.78
  -5   3   6  397.19   22.01
  -5   3   6  431.33   23.44
   5  -3  -6  394.03   22.30
   5  -3  -5  539.81   27.92
   5  -3  -5  611.44   26.86
  -5   3   5  590.36   27.89
   5  -3  -4  773.45   34.72
  -5   3   4  856.90   34.61
   5  -3  -4  953.05   33.62
   5  -3  -3  177.36   16.66
  -5   3   3  216.67   16.70
   5  -3  -3  205.07   14.63
   5  -3  -2   73.11    8.98
   5  -3  -2   75.22   10.64
  -5   3   2   73.67    9.78
   5  -3  -1  804.34   30.53
   5  -3  -1  917.88   37.88
  -5   3   1  849.07   34.64
   5  -3  -1  870.27   23.59
   5  -3   0  981.05   32.66
   5  -3   0  935.10   39.71
  -5   3   0  880.73   35.91
   5  -3   0 1003.51   26.45
   5  -3   1  341.28   17.34
   5  -3   1  319.27   22.33
   5  -3   1  346.83   14.43
  -5   3  -1  331.88   20.36
  -5   3  -2   -3.04    4.54
   5  -3   2   -7.74    3.90
   5  -3   2    2.79    4.49
   5  -3   2   -3.01    2.60
   5  -3   3   -5.82    3.77
   5  -3   3    3.11    5.96
  -5   3  -3    5.52    4.50
   5  -3   3    2.61    2.41
   5  -3   4  164.39   11.17
   5  -3   4  142.76   15.81
  -5   3  -4  149.85   13.29
   5  -3   4  161.88   11.12
   5  -3   5  381.00   25.51
  -5   3  -5  441.54   22.21
   5  -3   5  384.31   18.56
   5  -3   5  418.61   18.15
   5  -3   6   61.63    6.90
  -5   3  -6   72.70    9.07
  -5   3  -6   54.46    9.24
   5  -3   6   71.89    8.19
   5  -3   7    7.91    3.64
  -5   3  -7    9.05    5.38
   5  -3   7    8.11    3.52
  -5   3  -8   30.74    7.26
   5  -3   8   20.44    5.69
  -5   3  -9   75.22    9.80
   5  -3   9   97.36   11.05
  -5   3 -10   10.77    4.60
  -5   3 -10   -0.69    3.06
   5  -3  10   -0.53    4.47
  -5   3 -11   97.24   10.32
   5  -3  11   74.70    9.81
   5  -3  11   74.06   11.10
   5  -3  12    5.90    4.84
  -5   3 -12   -4.67    3.84
   5  -3  12    0.84    3.88
   5  -3  13   21.12    7.55
  -5   3 -13   16.27    6.36
   5  -3  13   13.98    5.33
   5  -3  14   19.75    7.73
  -5   3 -14   17.45    7.32
   5  -3  14   26.93    6.93
   5  -3  15   38.90   10.34
   5  -3  15   51.96    9.93
  -5   2  16    1.90    6.61
  -5   2  16    1.66    6.41
   5  -2 -16    1.00    5.43
  -5   2  15  161.36   17.04
  -5   2  15  150.12   16.63
   5  -2 -15  177.09   17.55
  -5   2  14  220.02   19.08
  -5   2  14  188.40   17.23
  -5   2  14  169.14   17.66
   5  -2 -14  188.97   17.44
  -5   2  13   90.49   12.03
  -5   2  13   88.92   11.82
  -5   2  13   81.50   12.53
   5  -2 -13   83.32   11.67
  -5   2  12  121.53   13.80
  -5   2  12  103.24   12.67
   5  -2 -12  132.42   13.92
   5  -2 -11   84.69   11.86
  -5   2  11   72.80   10.69
   5  -2 -11   90.29   10.42
  -5   2  11   73.56   11.01
   5  -2 -11   80.00   11.27
   5  -2 -10   60.31    9.95
  -5   2  10   68.33   10.24
  -5   2  10   72.57   10.61
   5  -2 -10   56.70    8.87
   5  -2 -10   74.43    9.51
   5  -2  -9  458.18   23.32
  -5   2   9  473.04   24.62
  -5   2   9  441.83   24.80
   5  -2  -9  450.01   23.71
   5  -2  -9  445.38   24.61
   5  -2  -8  603.88   27.42
  -5   2   8  690.11   29.50
  -5   2   8  667.72   29.26
   5  -2  -8  594.74   28.26
   5  -2  -7  395.76   21.64
  -5   2   7  420.97   22.33
  -5   2   7  402.33   22.20
   5  -2  -7  380.11   22.30
   5  -2  -6    4.78    4.63
   5  -2  -6    5.08    4.73
  -5   2   6    7.33    3.73
  -5   2   6    2.70    3.99
   5  -2  -5  100.44   11.05
  -5   2   5  102.13   10.91
  -5   2   5  114.55   11.65
  -5   2   5  108.86    7.00
   5  -2  -5  143.73   12.72
   5  -2  -4   13.58    5.33
   5  -2  -4    9.51    4.82
  -5   2   4   10.81    5.47
  -5   2   4    3.60    1.80
   5  -2  -3  270.99   18.33
  -5   2   3  384.77   20.55
  -5   2   3  338.09   12.51
   5  -2  -3  328.53   18.65
   5  -2  -2    9.78    4.86
   5  -2  -2    4.05    4.20
  -5   2   2    6.24    4.47
   5  -2  -1 1372.04   44.51
   5  -2  -1 1152.40   26.03
  -5   2   1 1317.07   41.80
   5  -2  -1 1321.83   39.06
   5  -2  -1 1316.57   27.74
   5  -2   0   21.48    4.77
   5  -2   0   24.11    6.75
  -5   2   0   15.82    4.92
   5  -2   0   15.58    2.61
   5  -2   1   18.72    4.39
   5  -2   1   31.15    8.22
  -5   2  -1   13.20    4.58
   5  -2   1   22.56    3.26
   5  -2   2  136.71   10.08
   5  -2   2  142.27   14.57
  -5   2  -2  119.59   11.21
   5  -2   2  145.31    8.56
   5  -2   3  431.82   18.16
   5  -2   3  413.27   24.46
  -5   2  -3  400.10   20.35
   5  -2   3  407.29   15.73
   5  -2   4  130.73   10.23
   5  -2   4  145.88   14.55
  -5   2  -4  143.97   12.05
   5  -2   4  151.28    9.72
   5  -2   5   45.18    5.74
  -5   2  -5   38.09    6.82
  -5   2  -5   35.17    8.37
   5  -2   5   40.96    5.81
   5  -2   6    7.05    3.47
  -5   2  -6   15.63    4.65
  -5   2  -6    8.33    4.54
   5  -2   6    5.77    3.27
  -5   2  -7  111.23   11.98
   5  -2   7  116.41   10.23
   5  -2   8    0.82    3.54
  -5   2  -8    0.81    3.58
  -5   2  -9  826.02   30.81
   5  -2   9  926.58   31.81
  -5   2 -10  142.81   11.67
   5  -2  10  155.32   12.63
  -5   2 -11   13.38    4.12
   5  -2  11    5.48    3.75
  -5   2 -11   12.31    4.03
  -5   2 -12  105.75   11.80
  -5   2 -12  105.66    9.37
   5  -2  12  109.30   11.41
  -5   2 -13    5.16    4.26
   5  -2  13    6.52    4.52
   5  -2  14    4.52    4.77
  -5   2 -14    8.03    5.18
  -5   2 -15  332.81   22.19
   5  -2  15  317.45   21.13
   5  -2  16  127.79   14.00
  -5   1  16   57.66   10.94
  -5   1  16   52.19   10.76
   5  -1 -16   42.25    8.79
  -5   1  15  173.83   17.90
  -5   1  15  152.66   16.43
   5  -1 -15  220.92   19.30
  -5   1  14  127.01   14.45
  -5   1  14   92.30   12.83
   5  -1 -14  116.98   13.87
  -5   1  13  385.67   24.77
  -5   1  13  349.15   23.95
   5  -1 -13  372.84   24.07
  -5   1  12   -2.07    5.25
   5  -1 -12    4.25    4.64
   5  -1 -11   41.05    6.05
   5  -1 -11   36.30    7.99
   5  -1 -11   42.37    7.90
  -5   1  11   44.74    8.83
  -5   1  11   38.68    7.78
   5  -1 -10    7.21    4.00
   5  -1 -10    4.39    4.25
  -5   1  10   10.23    5.32
  -5   1  10    0.88    3.82
   5  -1 -10   21.25    6.36
   5  -1  -9  258.71   15.56
  -5   1   9  261.16   18.06
  -5   1   9  269.48   17.42
   5  -1  -9  273.86   17.66
   5  -1  -9  257.07   18.37
   5  -1  -8  171.40   12.65
  -5   1   8  166.33   14.18
  -5   1   8  164.68   13.72
   5  -1  -8  163.19   13.62
   5  -1  -8  195.67   15.69
   5  -1  -7 1734.72   47.84
  -5   1   7 1996.43   53.81
  -5   1   7 1867.46   51.43
   5  -1  -7 1747.61   49.05
   5  -1  -7 1934.35   54.87
   5  -1  -6   88.22   10.74
   5  -1  -6   60.85    8.14
  -5   1   6   47.77    8.30
  -5   1   6   73.94    8.95
  -5   1   6   60.29    5.01
   5  -1  -5   29.22    6.24
   5  -1  -5   28.31    5.72
  -5   1   5   29.11    6.11
  -5   1   5   31.87    6.46
  -5   1   5   34.05    3.49
   5  -1  -4   87.27    9.61
  -5   1   4   86.63    4.90
   5  -1  -4   83.31    9.00
  -5   1   4   84.64    9.53
  -5   1   4  108.06   10.22
   5  -1  -3  120.73   11.31
  -5   1   3  108.85   10.26
  -5   1   3  133.88   11.49
  -5   1   3  115.83    5.30
   5  -1  -3  127.45   11.56
   5  -1  -2  747.86   28.45
   5  -1  -2  756.62   29.43
  -5   1   2  769.00   29.06
   5  -1  -1  557.50   23.06
   5  -1  -1  552.03   25.01
  -5   1   1  528.64   23.59
   5  -1   0  297.28   15.82
   5  -1   0  329.68   19.02
  -5   1   0  302.27   16.93
   5  -1   0  277.68    8.55
   5  -1   1  113.08    8.70
   5  -1   1  131.82   12.25
  -5   1  -1   98.64    9.74
   5  -1   1  132.39    6.25
   5  -1   2 1045.87   31.09
   5  -1   2 1085.44   38.18
  -5   1  -2 1066.07   33.31
   5  -1   2 1097.68   25.21
   5  -1   3  527.48   19.41
   5  -1   3  489.76   24.76
  -5   1  -3  486.42   24.72
  -5   1  -3  533.62   21.79
   5  -1   3  515.41   16.42
   5  -1   4    3.51    2.39
   5  -1   4    2.18    2.39
  -5   1  -4   13.82    4.43
  -5   1  -4    2.76    4.48
   5  -1   5  285.67   13.71
  -5   1  -5  217.03   16.03
  -5   1  -5  243.25   14.48
  -5   1  -6  313.61   18.24
   5  -1   6  328.53   11.97
  -5   1  -7  239.83   15.30
   5  -1   7  283.20   15.06
  -5   1  -8   65.40    7.99
   5  -1   8   67.46    7.79
   5  -1   9   44.02    7.25
  -5   1  -9   41.40    6.29
   5  -1  10    4.67    3.55
  -5   1 -10    2.26    2.95
  -5   1 -11  178.07   11.17
  -5   1 -11  167.24   11.66
   5  -1  11  183.97   13.61
  -5   1 -12   66.66    9.37
  -5   1 -12   65.32    6.97
  -5   1 -12   53.33    6.98
   5  -1  12   56.09    8.35
  -5   1 -13  235.09   17.78
   5  -1  13  257.04   17.98
  -5   1 -14   79.59   11.05
   5  -1  14   83.85   10.46
  -5   1 -15   10.20    5.66
   5  -1  15   27.97    6.86
  -5   1 -16    3.83    4.78
   5  -1  16    0.90    3.96
   5  -1  17    7.12    4.52
  -5   0  16  152.81   17.04
  -5   0  16  158.24   16.55
   5   0 -16  148.45   16.75
  -5   0  15  163.22   16.78
  -5   0  15  192.10   17.85
   5   0 -15  188.04   18.06
  -5   0  14    8.52    6.20
  -5   0  14    0.21    5.16
   5   0 -14   -0.83    5.07
  -5   0  13   59.39    9.79
  -5   0  13   58.92   10.04
   5   0 -13   57.79   10.17
  -5   0  12  161.19   15.30
  -5   0  12  126.47   13.68
   5   0 -12  197.73   16.95
  -5   0  11  243.10   18.35
   5   0 -11  313.72   20.39
   5   0 -11  260.51   19.09
   5   0 -10  472.26   18.17
  -5   0  10  459.53   24.94
  -5   0  10  451.47   22.08
   5   0 -10  481.77   24.91
   5   0 -10  447.82   24.61
   5   0  -9 1334.30   35.09
  -5   0   9 1301.88   43.34
  -5   0   9 1325.33   40.54
   5   0  -9 1336.98   43.38
   5   0  -9 1267.91   43.80
   5   0  -8   58.27    8.51
   5   0  -8   54.50    6.16
  -5   0   8   54.59    8.03
  -5   0   8   40.30    6.21
   5   0  -8   45.85    7.95
   5   0  -7  371.21   16.78
  -5   0   7  324.26   19.06
  -5   0   7  360.72   18.64
   5   0  -7  413.34   20.78
   5   0  -7  433.54   22.80
   5   0  -6  367.80   16.90
  -5   0   6  378.24   20.15
  -5   0   6  404.63   19.21
   5   0  -6  373.45   19.11
   5   0  -6  385.82   21.31
   5   0  -5   68.07    8.79
   5   0  -5   65.05    7.13
   5   0  -5   56.73    7.30
  -5   0   5   55.59    8.09
  -5   0   5   63.75    7.60
   5   0  -4  127.28   10.04
  -5   0   4  139.50   11.73
  -5   0   4  148.62   11.26
  -5   0   4  124.63    4.99
   5   0  -4  142.28   10.57
   5   0  -4  147.90   12.48
   5   0  -3 5797.91  110.61
  -5   0   3 5455.09  112.17
  -5   0   3 5966.28  111.20
   5   0  -3 5576.81  106.80
   5   0  -3 5885.78  115.32
   5   0  -2  259.36   16.06
   5   0  -2  289.55   16.10
  -5   0   2  320.49   16.47
  -5   0   2  309.53   16.24
   5   0  -1   15.01    4.39
   5   0  -1   18.79    1.84
   5   0  -1   17.04    4.31
  -5   0   1   19.77    4.67
   5   0   0  636.14   23.16
   5   0   0  629.58   25.18
  -5   0   0  613.20   22.91
   5   0   1  111.20    8.72
  -5   0  -1  101.61   10.53
  -5   0  -1   98.52    8.41
   5   0   1  101.58    4.13
   5   0   2  445.76   17.32
  -5   0  -2  405.00   20.70
  -5   0  -2  417.14   17.53
   5   0   2  433.95   12.00
   5   0   3 1432.46   35.23
  -5   0  -3 1363.31   40.92
  -5   0  -3 1370.53   36.48
   5   0   4  612.12   21.44
  -5   0  -4  599.15   24.55
  -5   0  -4  623.90   22.13
  -5   0  -5  444.03   20.45
   5   0   5  457.74   11.84
  -5   0  -6 1473.54   40.76
   5   0   6 1582.51   38.97
   5   0   6 1431.22   29.82
   5   0   7  195.26   13.00
  -5   0  -7  215.05   13.44
   5   0   7  202.46    8.98
   5   0   8   30.95    5.73
  -5   0  -8   46.38    6.39
  -5   0  -9  297.97   15.36
   5   0   9  343.80   17.16
  -5   0 -10  185.02   11.88
   5   0  10  199.51   13.36
  -5   0 -11   37.88    7.07
   5   0  11   36.55    6.99
  -5   0 -11   44.75    6.07
  -5   0 -12    1.63    3.36
  -5   0 -12    3.54    2.20
   5   0  12    4.15    3.55
  -5   0 -12   -1.85    2.75
  -5   0 -13   55.15    8.38
   5   0  13   50.68    8.04
  -5   0 -13   52.60    6.43
  -5   0 -14   77.49   10.04
   5   0  14   98.17   11.30
  -5   0 -15  422.42   23.93
   5   0  15  478.32   24.27
  -5   0 -16   31.73    7.92
   5   0  16   30.48    7.60
  -5   0 -17    3.40    4.45
   5   0  17   11.24    6.08
  -5  -1  17   73.44   11.85
  -5  -1  16   25.54    8.04
  -5  -1  16   22.08    8.69
   5   1 -16   28.27    9.00
  -5  -1  15  166.96   16.56
  -5  -1  15  151.69   15.20
  -5  -1  15  128.44   13.69
   5   1 -15  178.96   18.01
  -5  -1  14   -2.91    4.69
  -5  -1  14   -0.78    4.17
  -5  -1  14    3.85    4.45
   5   1 -14    2.70    5.55
  -5  -1  13   65.08    9.94
  -5  -1  13   59.96    9.35
   5   1 -13   99.99   12.84
  -5  -1  12  255.01   19.12
  -5  -1  12  241.82   17.82
   5   1 -12  278.84   20.65
  -5  -1  11  228.03   17.11
  -5  -1  11  201.43   16.02
   5   1 -11  241.99   18.56
   5   1 -10   10.30    4.97
  -5  -1  10   16.31    4.83
  -5  -1  10   14.00    3.33
   5   1 -10   18.89    6.11
  -5  -1   9  521.21   25.07
   5   1  -9  554.93   16.78
  -5  -1   9  553.58   20.92
   5   1  -9  529.30   26.10
   5   1  -9  500.16   25.27
  -5  -1   8  102.32   10.91
   5   1  -8  119.30    7.51
  -5  -1   8   95.94    8.57
  -5  -1   8   97.13    8.87
   5   1  -8  118.80   11.62
   5   1  -8  123.54   12.12
   5   1  -7   55.99    8.47
   5   1  -7   62.08    5.66
  -5  -1   7   55.26    6.80
  -5  -1   7   47.87    7.34
  -5  -1   7   36.06    4.63
  -5  -1   7   53.72    5.38
  -5  -1   7   50.97    6.38
   5   1  -7   53.10    7.77
   5   1  -6    2.08    3.85
  -5  -1   6    8.45    3.83
  -5  -1   6    0.71    2.63
  -5  -1   6    3.82    2.03
   5   1  -6    4.14    2.15
  -5  -1   6    3.22    3.24
   5   1  -6    6.88    3.91
  -5  -1   5  966.94   32.82
   5   1  -5 1013.18   28.15
  -5  -1   5 1017.65   31.61
  -5  -1   5  987.39   23.51
  -5  -1   5 1008.91   29.86
   5   1  -5  973.04   32.04
   5   1  -5 1075.65   35.96
  -5  -1   4  579.27   23.82
   5   1  -4  581.35   20.51
  -5  -1   4  567.18   22.96
  -5  -1   4  586.56   15.04
  -5  -1   4  616.99   21.63
   5   1  -4  587.26   22.44
   5   1  -4  605.54   25.81
   5   1  -3  218.23   12.44
  -5  -1   3  214.95   13.67
  -5  -1   3  208.16   13.47
  -5  -1   3  230.20   12.39
   5   1  -3  207.34   14.56
   5   1  -2   62.94    8.37
   5   1  -2   76.61    7.01
  -5  -1   2   55.79    6.97
  -5  -1   2   71.68    7.03
  -5  -1   2   60.11    7.53
   5   1  -1   29.13    5.66
   5   1  -1   32.20    3.26
  -5  -1   1   26.48    4.86
  -5  -1   1   27.04    4.40
  -5  -1   1   27.78    5.53
   5   1  -1   33.20    4.47
   5   1   0 1165.88   32.75
  -5  -1   0 1057.54   33.66
  -5  -1   0 1139.25   29.97
   5   1   0 1158.95   27.28
   5   1   1 1844.13   42.71
  -5  -1  -1 1576.75   44.30
  -5  -1  -1 1739.41   40.05
   5   1   1 1797.38   35.23
   5   1   2   75.00    7.12
  -5  -1  -2   83.32    8.50
  -5  -1  -2   87.87    7.05
   5   1   2   70.14    3.80
   5   1   3  717.88   22.03
  -5  -1  -3  683.77   24.62
  -5  -1  -3  671.10   21.58
   5   1   4  141.48    9.47
  -5  -1  -4  152.78   10.86
   5   1   5   54.71    6.48
  -5  -1  -5   60.86    6.87
  -5  -1  -6  159.17   11.01
   5   1   6  151.28   10.48
   5   1   7   38.02    5.85
  -5  -1  -7   33.14    5.47
  -5  -1  -8    0.44    2.82
   5   1   8    1.70    2.70
  -5  -1  -9  413.87   17.77
   5   1   9  496.88   20.26
  -5  -1 -10  742.24   26.91
  -5  -1 -10  686.90   23.82
   5   1  10  757.22   26.63
  -5  -1 -11  546.47   24.23
  -5  -1 -11  581.56   21.32
   5   1  11  611.62   24.99
  -5  -1 -12  192.99   14.51
  -5  -1 -12  218.15   12.64
   5   1  12  212.91   14.51
  -5  -1 -13  221.56   15.87
  -5  -1 -13  230.59   13.14
   5   1  13  251.13   16.34
   5   1  14   65.84    8.77
  -5  -1 -14   56.18    8.87
  -5  -1 -14   58.99    6.71
  -5  -1 -15    5.54    4.63
   5   1  15   10.72    4.62
  -5  -1 -16   50.26    8.74
   5   1  16   49.52    8.21
  -5  -1 -17    5.71    5.26
   5   1  17   21.51    6.56
   5   1  18   48.83    8.94
  -5  -2  17   84.81   12.21
  -5  -2  16   53.06    9.88
  -5  -2  16   65.45   10.58
  -5  -2  16   59.56    9.62
   5   2 -16   76.37   12.87
  -5  -2  15  363.96   23.99
  -5  -2  15  336.47   21.64
  -5  -2  15  353.80   22.61
   5   2 -15  330.83   25.00
  -5  -2  14   23.75    7.07
  -5  -2  14   38.65    8.28
  -5  -2  14   33.64    7.09
   5   2 -14   17.05    7.14
  -5  -2  13   35.72    7.61
  -5  -2  13   22.76    6.12
  -5  -2  13   14.07    5.02
   5   2 -13   44.57    9.38
  -5  -2  12   28.77    6.75
  -5  -2  12   23.16    6.10
  -5  -2  12   14.55    4.22
   5   2 -12   19.89    7.07
  -5  -2  11 1001.51   37.28
  -5  -2  11 1000.36   36.10
   5   2 -11 1058.39   41.30
  -5  -2  10  359.10   20.54
  -5  -2  10  315.75   18.66
   5   2 -10  340.33   21.71
  -5  -2   9  131.41   12.01
   5   2  -9  141.88   12.81
  -5  -2   9  125.59    8.48
   5   2  -9  130.00   12.93
   5   2  -9  131.85   12.80
   5   2  -8    5.11    3.83
   5   2  -8   -1.66    3.85
  -5  -2   8    0.89    1.86
  -5  -2   8    3.99    3.63
  -5  -2   8    2.91    2.49
   5   2  -8    1.45    3.66
  -5  -2   7  213.77   14.44
   5   2  -7  229.83   15.75
  -5  -2   7  203.23   11.39
  -5  -2   7  231.97   11.88
  -5  -2   7  184.23    7.69
   5   2  -7  210.67   14.93
   5   2  -7  225.50   15.51
   5   2  -6  177.87   13.15
  -5  -2   6  152.98   12.01
   5   2  -6  142.34   12.20
  -5  -2   6  173.04   10.72
  -5  -2   6  170.14    9.92
  -5  -2   6  165.57    8.18
  -5  -2   6  167.47   10.01
   5   2  -6  160.42   13.39
  -5  -2   5 2599.68   63.68
  -5  -2   5 2615.95   59.36
  -5  -2   5 2925.28   58.13
  -5  -2   5 2926.80   57.84
  -5  -2   5 2983.69   57.12
   5   2  -5 2783.97   64.08
   5   2  -5 2886.60   68.22
  -5  -2   4 1346.03   39.09
  -5  -2   4 1455.95   34.36
  -5  -2   4 1335.30   35.90
  -5  -2   4 1413.44   33.45
  -5  -2   4 1464.83   32.34
   5   2  -4 1306.38   37.00
  -5  -2   4 1426.08   34.53
   5   2  -4 1394.62   41.79
  -5  -2   3 2002.86   45.17
  -5  -2   3 2037.76   50.79
  -5  -2   3 1918.85   46.67
  -5  -2   3 1901.85   42.50
  -5  -2   3 2118.94   40.27
   5   2  -3 2016.50   46.50
   5   2  -3 2203.91   54.16
   5   2  -2  400.00   19.58
  -5  -2   2  372.41   17.47
  -5  -2   2  355.89   16.18
   5   2  -2  385.62   14.75
   5   2  -2  381.31   14.86
  -5  -2   2  362.09   13.28
  -5  -2   2  339.83   10.18
   5   2  -1  251.49   14.53
   5   2  -1  268.09   10.95
  -5  -2   1  219.74   12.58
   5   2  -1  264.20   11.52
  -5  -2   1  252.23   13.14
   5   2  -1  242.65   10.92
  -5  -2   1  245.98   10.45
   5   2   0  285.49   14.69
   5   2   0  299.04   12.27
  -5  -2   0  303.71   14.68
   5   2   0  311.03   11.67
  -5  -2   0  306.59   11.50
   5   2   0  267.26    7.36
   5   2   0  297.27   10.35
   5   2   1  165.02   10.03
   5   2   1  152.23    5.58
  -5  -2  -1  170.11   10.79
  -5  -2  -1  174.84    8.44
   5   2   2 2198.81   46.81
  -5  -2  -2 2109.38   48.42
   5   2   2 2074.59   39.07
   5   2   3 3290.79   64.48
  -5  -2  -3 3206.44   66.91
   5   2   4  471.03   16.77
  -5  -2  -4  447.71   17.92
   5   2   5  228.97   12.17
  -5  -2  -5  232.99   12.58
  -5  -2  -6  398.33   16.69
   5   2   6  388.09   15.86
  -5  -2  -7   75.38    7.18
   5   2   7   75.41    7.27
  -5  -2  -8  224.75   12.99
  -5  -2  -8  245.18   12.90
   5   2   8  254.87   13.38
  -5  -2  -9  464.79   19.08
  -5  -2  -9  446.87   17.92
   5   2   9  440.19   19.79
  -5  -2 -10  250.27   14.24
  -5  -2 -10  226.19   12.56
   5   2  10  208.12   13.70
  -5  -2 -11   14.97    4.35
   5   2  11   26.18    5.04
  -5  -2 -11   25.30    4.47
  -5  -2 -12    5.37    3.77
   5   2  12    7.98    3.60
  -5  -2 -12    4.04    2.59
  -5  -2 -13  521.73   20.51
  -5  -2 -13  513.87   23.55
   5   2  13  514.52   22.79
  -5  -2 -14  224.68   16.14
  -5  -2 -14  241.12   13.79
   5   2  14  258.67   16.67
   5   2  15  148.99   13.00
  -5  -2 -15  172.51   14.53
  -5  -2 -15  160.31   11.43
  -5  -2 -16    7.05    4.49
   5   2  16   -1.82    4.53
   5   2  17   41.34    8.25
  -5  -2 -17   42.73    8.23
   5   2  18   46.65    8.59
  -5  -2 -18   34.70    8.38
  -5  -3  17  126.83   13.98
  -5  -3  16   -4.71    5.90
  -5  -3  16   -3.15    4.22
  -5  -3  16   -6.13    6.07
   5   3 -15    9.40    5.12
  -5  -3  15   20.21    5.40
  -5  -3  15   24.70    6.78
  -5  -3  14   72.05   10.10
   5   3 -14   68.16   10.08
   5   3 -14   45.82    7.95
  -5  -3  14   73.17    9.80
  -5  -3  13  126.53   12.70
   5   3 -13  115.04   11.52
   5   3 -13  119.47   13.06
  -5  -3  13  150.77   13.25
   5   3 -13  123.21   14.78
   5   3 -12   48.23    8.58
   5   3 -12   53.77    7.77
  -5  -3  12   62.02    8.84
  -5  -3  12   56.04    7.79
   5   3 -12   51.46   10.09
   5   3 -11  549.92   26.72
   5   3 -11  519.83   28.37
  -5  -3  11  601.26   25.57
  -5  -3  11  623.49   27.63
  -5  -3  11  571.56   26.60
  -5  -3  10   34.83    6.58
   5   3 -10   34.41    6.67
  -5  -3  10   36.06    6.50
  -5  -3  10   51.04    7.29
   5   3 -10   43.97    8.04
  -5  -3   9   24.28    5.00
   5   3  -9   25.08    6.27
   5   3  -9   24.71    5.40
  -5  -3   9   17.34    4.60
  -5  -3   9   20.38    4.73
   5   3  -9   22.22    6.02
  -5  -3   8  205.54   14.21
   5   3  -8  216.02   14.96
   5   3  -8  211.93   15.38
  -5  -3   8  196.93    9.10
  -5  -3   8  222.43   10.77
  -5  -3   8  209.90   14.00
   5   3  -8  215.98   15.19
  -5  -3   7 1054.55   34.30
   5   3  -7 1061.27   34.97
  -5  -3   7 1018.46   26.08
  -5  -3   7 1089.66   26.82
  -5  -3   7 1060.92   33.14
   5   3  -7 1039.93   35.44
   5   3  -7 1010.09   34.73
  -5  -3   6  872.24   29.53
   5   3  -6  937.22   30.93
  -5  -3   6  886.84   23.49
  -5  -3   6  981.95   22.58
  -5  -3   6  971.06   29.20
   5   3  -6  870.04   30.04
   5   3  -6  828.89   30.35
  -5  -3   5  641.44   24.05
   5   3  -5  644.35   25.09
  -5  -3   5  609.11   19.94
  -5  -3   5  686.14   17.50
  -5  -3   5  691.63   23.50
   5   3  -5  609.17   23.66
   5   3  -5  606.01   25.63
  -5  -3   5  668.11   17.52
  -5  -3   4  197.20    9.02
  -5  -3   4  180.85    9.25
  -5  -3   4  185.34   12.30
   5   3  -4  199.07   13.14
  -5  -3   4  181.41    9.97
  -5  -3   4  178.98    7.33
  -5  -3   4  213.88   11.50
   5   3  -4  198.61   11.84
   5   3  -4  198.46   13.88
   5   3  -3  163.08   11.53
  -5  -3   3  135.54    8.00
  -5  -3   3  144.94    7.75
  -5  -3   3  149.24   10.75
  -5  -3   3  152.43    9.20
  -5  -3   3  141.83    5.92
  -5  -3   3  146.25    8.93
   5   3  -3  172.05   12.63
   5   3  -2 1422.81   38.51
  -5  -3   2 1356.14   32.40
  -5  -3   2 1462.40   38.37
  -5  -3   2 1423.67   31.52
   5   3  -2 1378.49   37.55
  -5  -3   2 1428.64   34.59
  -5  -3   2 1383.01   27.28
  -5  -3   2 1403.89   32.95
   5   3  -2 1485.55   41.19
   5   3  -1 1238.44   36.60
   5   3  -1 1226.00   35.45
  -5  -3   1 1262.33   34.58
   5   3  -1 1279.07   34.40
  -5  -3   1 1261.38   32.22
   5   3  -1 1256.77   27.39
  -5  -3   1 1250.77   29.45
   5   3  -1 1328.56   27.73
   5   3   0  986.25   29.38
   5   3   0  952.60   29.66
  -5  -3   0  926.82   26.93
   5   3   0  930.67   27.83
  -5  -3   0  969.48   27.07
   5   3   0  994.72   22.13
   5   3   0 1002.17   22.44
  -5  -3   0 1016.31   23.55
   5   3   1 3897.86   76.87
   5   3   1 3880.13   69.08
   5   3   1 3850.47   79.50
   5   3   1 3704.78   76.47
  -5  -3  -1 4039.05   68.73
  -5  -3  -1 3857.57   75.88
   5   3   1 4014.02   69.59
   5   3   2    4.57    2.79
   5   3   2    5.33    2.00
   5   3   2    4.26    1.50
  -5  -3  -2    6.50    1.47
  -5  -3  -2    8.07    3.20
   5   3   3    5.21    2.56
   5   3   3   13.62    2.85
  -5  -3  -3    6.23    2.90
  -5  -3  -3    5.78    1.17
   5   3   4  338.40   13.43
   5   3   4  327.91   12.76
  -5  -3  -4  318.62   13.83
   5   3   5    5.97    2.68
  -5  -3  -5    4.63    2.97
  -5  -3  -6  736.32   20.84
  -5  -3  -6  723.95   19.89
  -5  -3  -6  717.75   22.15
   5   3   6  768.05   22.15
  -5  -3  -7 2740.99   53.65
  -5  -3  -7 2531.95   48.91
  -5  -3  -7 2689.47   54.90
   5   3   7 2673.59   54.79
  -5  -3  -8  242.24   12.55
  -5  -3  -8  228.38    9.52
   5   3   8  245.53   12.80
  -5  -3  -8  255.88   13.03
  -5  -3  -8  223.69    7.55
  -5  -3  -9  181.81   11.37
  -5  -3  -9  147.62    6.96
  -5  -3  -9  171.85   10.93
   5   3   9  178.62   11.84
  -5  -3  -9  169.62    7.11
  -5  -3 -10  121.60    9.97
  -5  -3 -10  115.53    9.10
   5   3  10  108.18    9.39
  -5  -3 -10  108.84    6.19
  -5  -3 -11  145.34   10.38
  -5  -3 -11  159.26   11.37
   5   3  11  162.34   11.36
  -5  -3 -11  139.73    7.71
  -5  -3 -12  324.81   17.94
  -5  -3 -12  366.14   17.05
   5   3  12  351.25   17.84
  -5  -3 -12  328.51   13.19
  -5  -3 -13  291.54   17.19
  -5  -3 -13  292.59   15.37
   5   3  13  312.59   17.06
  -5  -3 -13  285.08   12.85
  -5  -3 -14   39.08    7.08
   5   3  14   19.91    5.17
  -5  -3 -14   34.64    5.69
  -5  -3 -15   36.93    5.71
  -5  -3 -15   33.30    7.18
   5   3  15   27.17    6.06
  -5  -3 -16  131.92   13.08
  -5  -3 -16  107.47    9.68
   5   3  16  128.28   12.34
  -5  -3 -17  561.34   28.53
   5   3  17  644.94   28.86
  -5  -3 -18   11.84    6.49
   5   3  18    4.59    4.73
   5   4 -16   72.44   11.53
  -5  -4  16   92.41   13.14
   5   4 -15  111.38   13.65
  -5  -4  15  100.68   12.12
  -5  -4  15   85.25   10.15
  -5  -4  15  110.03   13.82
   5   4 -14   50.28    9.51
  -5  -4  14   58.03    8.77
  -5  -4  14   46.02    7.66
  -5  -4  14   43.09    8.90
   5   4 -13   23.33    7.01
  -5  -4  13   27.58    6.35
  -5  -4  13   18.91    4.68
  -5  -4  13   43.25    8.96
   5   4 -12    6.51    4.21
  -5  -4  12    4.31    3.64
  -5  -4  12   10.15    3.95
  -5  -4  12    9.52    6.05
   5   4 -11  119.06   12.23
   5   4 -11  110.45    9.99
  -5  -4  11  106.44   11.38
  -5  -4  11  121.06   10.57
  -5  -4  11   97.29   12.16
   5   4 -10  309.32   18.74
  -5  -4  10  304.80   18.50
   5   4 -10  295.18   15.86
  -5  -4  10  305.38   16.35
  -5  -4  10  316.95   20.06
  -5  -4   9  214.74   15.04
   5   4  -9  232.62   15.61
  -5  -4   9  211.99   13.00
  -5  -4   9  241.92   16.65
   5   4  -8   14.86    5.33
  -5  -4   8    8.90    3.54
  -5  -4   8    8.55    3.59
   5   4  -8   17.01    4.94
  -5  -4   8   10.06    4.43
   5   4  -7  496.30   22.37
  -5  -4   7  502.16   14.76
  -5  -4   7  522.42   23.76
  -5  -4   7  537.98   23.19
   5   4  -7  507.18   22.73
   5   4  -6   13.88    4.34
  -5  -4   6   17.36    4.31
   5   4  -6   17.34    4.68
  -5  -4   6   18.43    2.96
  -5  -4   6   22.33    4.86
  -5  -4   5  638.93   15.63
  -5  -4   5  718.41   24.90
   5   4  -5  748.72   26.47
  -5  -4   5  712.52   19.66
  -5  -4   5  678.14   17.89
  -5  -4   5  704.52   26.01
  -5  -4   5  763.95   27.42
   5   4  -5  703.08   26.44
  -5  -4   4  168.55    7.12
  -5  -4   4  184.30   11.46
   5   4  -4  196.35   12.61
  -5  -4   4  172.58    7.12
  -5  -4   4  183.89    9.29
  -5  -4   4  186.94   12.44
   5   4  -4  180.36   12.76
  -5  -4   3  386.99   10.90
  -5  -4   3  377.45   16.65
   5   4  -3  381.64   17.62
  -5  -4   3  407.35   14.77
  -5  -4   3  390.56   17.88
   5   4  -3  433.67   19.85
   5   4  -2    3.40    3.71
   5   4  -2    6.21    3.31
  -5  -4   2    2.80    0.88
  -5  -4   2    4.36    3.20
  -5  -4   2    5.61    2.31
  -5  -4   2    8.47    3.53
   5   4  -1  124.51   10.43
   5   4  -1  106.13    8.80
  -5  -4   1  115.59    5.33
  -5  -4   1  139.45    9.58
   5   4  -1  116.54   10.45
  -5  -4   1  122.97    8.01
  -5  -4   1  138.80    9.54
   5   4   0 1267.90   35.90
   5   4   0 1296.13   34.74
  -5  -4   0 1231.35   32.59
   5   4   0 1308.09   37.89
  -5  -4   0 1313.59   32.48
   5   4   0 1333.27   25.13
  -5  -4   0 1258.12   33.46
   5   4   0 1361.18   31.12
   5   4   1  999.21   28.23
   5   4   1  970.26   28.40
  -5  -4  -1  952.41   24.63
   5   4   1  983.02   31.12
  -5  -4  -1  987.82   26.99
   5   4   1 1026.17   21.17
  -5  -4  -1  976.52   28.14
   5   4   1  985.76   25.18
   5   4   2  165.20    9.57
   5   4   2  160.92    9.17
   5   4   2  171.17   10.47
   5   4   2  175.45   11.95
  -5  -4  -2  160.33    9.60
   5   4   2  161.60    7.00
  -5  -4  -3  363.35   11.49
   5   4   3  390.94   14.71
   5   4   3  375.49   15.89
   5   4   3  380.32   13.58
   5   4   3  400.70   18.64
  -5  -4  -3  377.32   15.43
  -5  -4  -4  213.84    8.92
   5   4   4  224.19   10.77
   5   4   4  213.03   11.77
   5   4   4  211.92    8.89
  -5  -4  -4  217.06   11.68
   5   4   4  214.96   10.09
  -5  -4  -5  783.45   21.22
  -5  -4  -5  810.47   24.59
   5   4   5  768.00   22.34
  -5  -4  -6   13.23    3.05
  -5  -4  -6   17.67    2.74
   5   4   6   13.93    2.98
  -5  -4  -6   11.14    3.57
  -5  -4  -7  897.62   25.02
  -5  -4  -7  850.72   20.57
  -5  -4  -7  898.10   27.33
   5   4   7  981.48   26.51
  -5  -4  -8  285.84   13.06
  -5  -4  -8  262.94    8.63
  -5  -4  -8  257.80   13.64
   5   4   8  278.07   13.71
  -5  -4  -9   17.79    3.86
  -5  -4  -9   16.26    1.83
  -5  -4  -9   14.38    1.69
   5   4   9   24.18    4.44
  -5  -4  -9   23.29    4.75
  -5  -4 -10    2.15    0.61
  -5  -4 -10    3.37    2.94
   5   4  10    7.82    3.10
  -5  -4 -10   11.85    3.11
  -5  -4 -10   10.27    3.89
  -5  -4 -11  624.27   23.54
   5   4  11  588.05   22.72
  -5  -4 -11  625.25   23.16
  -5  -4 -11  589.96   19.96
  -5  -4 -12  254.61   15.30
  -5  -4 -12  237.77   12.29
  -5  -4 -12  256.91   14.43
   5   4  12  241.52   14.38
   5   4  13  239.41   15.08
  -5  -4 -13  243.38   15.70
  -5  -4 -13  264.99   14.99
  -5  -4 -13  250.65   12.94
  -5  -4 -14   10.09    4.14
  -5  -4 -14   26.77    6.27
   5   4  14   13.30    4.40
  -5  -4 -15  177.01   14.45
  -5  -4 -15  188.68   12.83
   5   4  15  180.16   14.42
  -5  -4 -16   84.43   10.20
  -5  -4 -16   88.54    8.93
   5   4  16   85.71   10.38
  -5  -4 -17  146.22   14.29
  -5  -4 -17  150.44   11.82
   5   4  17  159.17   14.28
  -5  -4 -18    7.71    3.87
   5   4  18    1.98    3.53
   5   5 -16   14.98    7.10
   5   5 -15   14.99    6.52
  -5  -5  15   11.63    6.13
   5   5 -14   14.08    5.86
  -5  -5  14   18.68    7.14
   5   5 -13  266.55   19.57
  -5  -5  13  254.37   18.79
  -5  -5  13  273.90   21.59
   5   5 -12   77.97   10.03
  -5  -5  12   88.09   12.25
  -5  -5  12   53.06    8.50
   5   5 -11   83.21   10.39
  -5  -5  11   88.12   10.42
  -5  -5  11   83.93    8.40
  -5  -5  11   82.15   11.23
   5   5 -10  153.38   13.47
  -5  -5  10  174.39   14.18
  -5  -5  10  162.78   11.28
  -5  -5  10  141.15   14.37
   5   5  -9   72.54    9.40
  -5  -5   9   95.85   10.51
  -5  -5   9   85.53    7.72
  -5  -5   9   93.16   12.15
   5   5  -8  102.83   10.44
  -5  -5   8   93.70   10.00
  -5  -5   8  108.47    8.42
  -5  -5   8  129.90   13.28
   5   5  -7  624.89   25.82
  -5  -5   7  651.84   26.40
  -5  -5   7  625.60   21.10
  -5  -5   7  666.47   29.64
   5   5  -6  750.56   27.99
  -5  -5   6  682.12   26.88
  -5  -5   6  734.39   19.30
  -5  -5   6  723.65   22.33
  -5  -5   6  785.20   31.50
   5   5  -6  716.55   26.02
  -5  -5   5   91.46    9.24
   5   5  -5  100.49    9.40
  -5  -5   5   89.68    6.12
  -5  -5   5   72.77    4.18
  -5  -5   5  123.59   11.97
   5   5  -5  102.86    9.09
  -5  -5   4 1439.18   39.85
   5   5  -4 1440.63   39.59
  -5  -5   4 1375.32   29.58
  -5  -5   4 1448.76   32.78
  -5  -5   4 1428.85   43.46
   5   5  -4 1354.89   38.13
   5   5  -3    7.28    3.64
   5   5  -3   17.42    4.74
  -5  -5   3   17.75    3.88
  -5  -5   3   15.09    4.22
  -5  -5   3   22.93    5.71
  -5  -5   3   13.84    3.15
   5   5  -2   41.10    6.08
   5   5  -2   42.56    5.98
  -5  -5   2   39.18    5.29
  -5  -5   2   34.74    5.19
  -5  -5   2   37.34    6.54
  -5  -5   2   38.33    4.66
  -5  -5   1 4155.61   76.44
  -5  -5   1 4195.63   82.66
   5   5  -1 4478.05   85.57
   5   5  -1 4390.05   95.30
  -5  -5   1 4348.96   81.04
  -5  -5   1 4168.58   88.64
  -5  -5   1 4356.77   85.13
   5   5  -1 4543.61   88.47
   5   5   0  824.89   27.55
   5   5   0  881.66   26.49
  -5  -5   0  914.12   24.90
   5   5   0  871.33   32.31
   5   5   0  739.85   14.95
  -5  -5   0  936.35   25.08
  -5  -5   0  867.07   20.37
  -5  -5   0  865.97   28.82
  -5  -5   0  899.63   26.28
   5   5   1  787.26   25.28
   5   5   1  835.37   25.50
  -5  -5  -1  784.45   20.94
   5   5   1  798.09   30.43
  -5  -5  -1  831.74   24.45
   5   5   1  822.96   17.10
  -5  -5  -1  782.23   19.65
  -5  -5  -1  784.66   27.41
  -5  -5  -1  837.19   24.97
   5   5   2  440.99   16.58
  -5  -5  -2  455.90   10.62
   5   5   2  471.50   17.69
   5   5   2  457.20   22.12
  -5  -5  -2  449.50   17.34
  -5  -5  -2  470.25   17.11
   5   5   3 1454.91   34.53
  -5  -5  -3 1494.37   28.99
   5   5   3 1487.35   36.21
   5   5   3 1477.42   43.82
  -5  -5  -3 1483.63   36.84
  -5  -5  -3 1448.02   34.84
   5   5   4    7.47    2.54
  -5  -5  -4   10.25    2.12
   5   5   4    6.90    3.18
   5   5   4    8.25    1.96
   5   5   4   15.97    5.49
  -5  -5  -4    9.17    2.36
   5   5   4    7.91    2.28
  -5  -5  -4   11.46    3.53
  -5  -5  -5 2685.76   52.30
   5   5   5 2716.62   54.01
  -5  -5  -5 2730.29   51.36
   5   5   5 2635.61   55.04
   5   5   5 2627.16   48.67
  -5  -5  -5 2677.28   57.94
   5   5   5 2589.89   52.67
  -5  -5  -6  739.03   20.58
  -5  -5  -6  703.08   18.98
   5   5   6  704.53   21.79
   5   5   6  709.88   16.86
  -5  -5  -6  725.90   24.32
   5   5   6  708.46   21.04
  -5  -5  -7 2072.47   44.97
  -5  -5  -7 2002.62   39.92
  -5  -5  -7 2100.50   40.51
  -5  -5  -7 2164.93   49.25
   5   5   7 2080.34   45.54
  -5  -5  -8  219.88   11.48
  -5  -5  -8  202.96    7.56
  -5  -5  -8  207.96   12.82
  -5  -5  -8  223.37    8.00
   5   5   8  214.38   11.44
  -5  -5  -9   13.76    3.59
   5   5   9    7.30    2.89
  -5  -5  -9    8.96    3.55
  -5  -5 -10  304.99   15.27
   5   5  10  320.64   15.19
  -5  -5 -10  311.76   15.82
  -5  -5 -11  387.85   17.97
  -5  -5 -11  359.72   17.41
   5   5  11  378.84   17.55
  -5  -5 -12  712.84   26.39
  -5  -5 -12  711.36   25.73
   5   5  12  700.38   25.38
  -5  -5 -12  676.42   26.29
  -5  -5 -13  198.46   14.10
  -5  -5 -13  211.40   13.52
   5   5  13  218.83   14.25
  -5  -5 -13  209.95   14.00
  -5  -5 -14    4.87    3.48
  -5  -5 -14   -1.15    3.40
   5   5  14    6.07    3.76
  -5  -5 -14    2.84    3.28
  -5  -5 -15  302.37   18.74
  -5  -5 -15  316.49   17.46
   5   5  15  306.20   18.29
  -5  -5 -16  126.43   12.56
  -5  -5 -16  145.15   11.92
   5   5  16  134.27   12.33
  -5  -5 -17  269.46   19.18
  -5  -5 -17  265.13   16.31
   5   5  17  248.84   17.58
  -5  -5 -18   -4.76    4.78
   5   5  18    6.85    4.39
   5   6 -14    5.86    5.44
  -5  -6  14   10.65    6.53
   5   6 -13   38.71    8.28
  -5  -6  13   48.60   10.34
   5   6 -12    1.50    4.13
  -5  -6  12   19.75    7.13
   5   6 -11  178.53   15.48
  -5  -6  11  178.57   17.79
   5   6 -10    5.03    4.21
  -5  -6  10   10.16    5.33
  -5  -6  10    2.20    4.40
   5   6  -9  474.17   24.15
  -5  -6   9  519.43   29.26
  -5  -6   9  507.52   24.95
   5   6  -8  110.01   11.40
  -5  -6   8  140.48   15.00
  -5  -6   8  123.32   11.82
   5   6  -7  167.34   13.18
  -5  -6   7  159.38   12.98
  -5  -6   7  173.86   16.18
   5   6  -6  230.60   15.22
  -5  -6   6  228.29   15.23
  -5  -6   6  241.91   10.60
  -5  -6   6  259.43   18.83
  -5  -6   5   21.01    3.41
   5   6  -5   27.81    5.81
  -5  -6   5   23.41    3.26
  -5  -6   5   25.20    7.07
   5   6  -5   21.21    4.42
  -5  -6   5   21.17    5.06
  -5  -6   4    3.82    2.13
   5   6  -4   -0.91    2.44
   5   6  -4    0.75    3.09
  -5  -6   4    1.84    2.12
  -5  -6   4    3.09    2.76
  -5  -6   4    1.79    1.42
  -5  -6   4    2.33    4.84
   5   6  -3  331.49   17.00
  -5  -6   3  342.36   20.64
  -5  -6   3  333.29   17.12
  -5  -6   3  351.72   13.65
  -5  -6   3  329.86   13.52
   5   6  -3  319.14   14.99
  -5  -6   2 1020.85   27.59
   5   6  -2 1055.60   31.61
  -5  -6   2  976.95   30.84
  -5  -6   2 1015.44   27.30
  -5  -6   2  946.70   21.79
  -5  -6   2  994.85   36.25
   5   6  -2 1002.96   29.32
  -5  -6   1 1198.15   30.33
   5   6  -1 1225.61   34.17
   5   6  -1 1119.82   42.71
  -5  -6   1 1202.39   33.95
  -5  -6   1 1233.11   30.98
  -5  -6   1 1132.90   23.89
  -5  -6   1 1155.94   38.96
   5   6  -1 1117.73   32.45
  -5  -6   0  319.81   13.20
   5   6   0  327.67   15.45
   5   6   0  308.04   20.51
  -5  -6   0  315.54   15.13
  -5  -6   0  304.94   13.78
  -5  -6   0  288.42    8.98
  -5  -6   0  302.88   18.07
   5   6   0  324.72   15.63
  -5  -6  -1    9.56    3.60
   5   6   1   11.90    3.74
   5   6   1    7.46    3.25
   5   6   1    2.89    5.21
  -5  -6  -1    9.66    2.14
  -5  -6  -1   15.03    3.71
  -5  -6  -1   11.20    1.86
  -5  -6  -1    7.37    4.18
   5   6   2  376.70   15.65
   5   6   2  376.59   16.01
   5   6   2  397.79   22.68
  -5  -6  -2  379.68   15.75
  -5  -6  -2  383.64   16.16
  -5  -6  -2  367.07   11.03
  -5  -6  -2  371.81   20.00
   5   6   3 1094.79   28.31
   5   6   3 1119.16   30.18
  -5  -6  -3 1068.34   22.97
   5   6   3 1074.69   38.72
  -5  -6  -3 1123.60   29.40
  -5  -6  -3 1146.46   31.29
  -5  -6  -3 1054.21   23.92
   5   6   4  179.70    9.36
  -5  -6  -4  190.58    7.95
   5   6   4  165.69    9.84
   5   6   4  185.12   14.95
  -5  -6  -4  196.13   11.53
  -5  -6  -4  184.03    9.99
   5   6   5 1706.88   37.94
  -5  -6  -5 1758.58   36.25
   5   6   5 1660.19   39.05
  -5  -6  -5 1725.34   38.04
   5   6   5 1670.37   51.67
  -5  -6  -5 1678.89   42.46
   5   6   5 1718.30   36.58
  -5  -6  -6  225.61   10.40
   5   6   6  204.57   10.56
   5   6   6  215.28   16.71
  -5  -6  -6  219.91   12.66
   5   6   6  210.74   10.02
  -5  -6  -7  150.29    8.94
   5   6   7  151.04    8.72
   5   6   7  140.73    5.22
  -5  -6  -7  174.40   11.31
   5   6   7  168.50    9.24
  -5  -6  -8    4.38    2.92
   5   6   8    7.37    2.38
  -5  -6  -8    6.77    2.92
   5   6   8    7.38    2.74
  -5  -6  -9  599.61   21.54
  -5  -6  -9  604.62   23.23
   5   6   9  618.51   21.03
  -5  -6 -10   18.50    5.09
  -5  -6 -10   26.96    5.15
   5   6  10   20.51    4.40
  -5  -6 -11  746.30   26.56
  -5  -6 -11  784.96   27.75
   5   6  11  761.85   25.62
  -5  -6 -12   45.97    6.87
  -5  -6 -12   45.92    6.79
   5   6  12   45.02    6.26
  -5  -6 -13   89.53    9.70
  -5  -6 -13  109.00   10.16
   5   6  13   69.98    8.14
  -5  -6 -14   36.66    6.56
  -5  -6 -14   33.58    6.35
   5   6  14   31.32    5.61
  -5  -6 -15  395.33   21.60
  -5  -6 -15  406.46   20.58
   5   6  15  378.42   20.10
  -5  -6 -16  281.37   18.81
  -5  -6 -16  264.89   16.97
   5   6  16  299.04   18.43
  -5  -6 -17  118.71   11.41
  -5  -6 -17  107.01   12.29
   5   6  17   97.98   11.28
  -5  -6 -18   92.48   10.42
  -5  -6 -18  125.79   13.79
   5   6  18  111.49   12.55
  -5  -7  13  297.38   25.30
   5   7 -12   54.22    9.78
  -5  -7  12   58.14   12.37
   5   7 -11  108.13   12.83
  -5  -7  11  145.85   17.09
   5   7 -10   67.61   10.08
  -5  -7  10   57.07   11.94
   5   7  -9    9.41    4.97
  -5  -7   9    3.13    5.94
   5   7  -8  119.36   12.13
  -5  -7   8  115.33   14.91
   5   7  -7  732.81   30.37
  -5  -7   7  705.27   35.49
   5   7  -6   18.63    5.37
  -5  -7   6   29.24    7.91
   5   7  -5  137.23   11.86
  -5  -7   5  170.95   16.87
  -5  -7   4   28.81    4.11
  -5  -7   4   25.34    5.61
   5   7  -4   29.19    5.91
  -5  -7   4   28.11    8.20
  -5  -7   3  251.53   15.44
   5   7  -3  252.09   15.31
  -5  -7   3  268.53   12.50
  -5  -7   3  259.66   13.36
  -5  -7   3  263.94   19.68
   5   7  -3  263.21   12.08
  -5  -7   2   22.24    4.05
   5   7  -2   16.17    3.10
   5   7  -2   14.37    4.59
  -5  -7   2   17.67    3.71
  -5  -7   2   17.41    4.33
  -5  -7   2   17.90    6.04
  -5  -7   1  795.71   27.57
  -5  -7   1  791.45   22.67
   5   7  -1  810.15   27.75
  -5  -7   1  794.43   25.41
  -5  -7   1  802.78   24.85
  -5  -7   1  767.12   33.50
   5   7  -1  778.46   23.03
  -5  -7   0  105.15    9.17
  -5  -7   0  103.19    6.91
   5   7   0  113.42    9.32
   5   7   0   81.27   12.01
   5   7   0   87.10    3.82
  -5  -7   0  105.84    8.32
  -5  -7   0  118.22   12.65
   5   7   0   98.59    7.38
  -5  -7  -1   97.09    8.51
   5   7   1   99.97    8.64
  -5  -7  -1   75.45    4.90
   5   7   1  107.78   13.50
   5   7   1   81.77    5.65
  -5  -7  -1   97.77    8.11
  -5  -7  -1   66.70    9.52
   5   7   1  108.21    8.11
  -5  -7  -2   43.03    5.75
   5   7   2   32.82    4.74
   5   7   2   43.06    5.75
   5   7   2   46.38    9.54
  -5  -7  -2   32.31    6.65
   5   7   3  582.30   19.83
   5   7   3  622.74   21.89
   5   7   3  596.88   30.45
  -5  -7  -3  645.62   22.95
  -5  -7  -3  605.05   28.50
  -5  -7  -4    5.97    3.86
   5   7   4    2.66    1.83
   5   7   4    6.60    2.87
   5   7   4    5.27    5.69
   5   7   5 1691.40   37.12
   5   7   5 1680.38   40.12
  -5  -7  -5 1679.10   38.41
   5   7   5 1622.52   54.53
  -5  -7  -5 1699.68   43.85
   5   7   5 1675.05   35.24
  -5  -7  -6    9.48    3.50
   5   7   6   10.52    2.96
   5   7   6    4.90    2.61
  -5  -7  -6   12.62    3.32
   5   7   6    2.39    4.94
   5   7   6    7.48    2.30
  -5  -7  -7  181.79   10.59
   5   7   7  181.45    9.96
   5   7   7  203.57   18.00
  -5  -7  -7  184.78   12.33
   5   7   7  174.81    9.23
  -5  -7  -8  216.66   12.19
   5   7   8  224.76   10.81
   5   7   8  235.36   19.48
  -5  -7  -8  242.59   14.48
   5   7   8  217.03   10.97
  -5  -7  -9   83.37    8.61
  -5  -7  -9   82.67    7.86
   5   7   9   70.33    5.79
   5   7   9   69.16    6.65
   5   7  10  597.05   21.33
  -5  -7 -10  621.98   23.41
  -5  -7 -10  621.37   24.93
  -5  -7 -11  164.60   12.13
   5   7  11  157.51   10.95
  -5  -7 -11  182.42   13.04
  -5  -7 -12   71.70    8.43
  -5  -7 -12   77.92    8.94
   5   7  12   63.61    7.13
  -5  -7 -13  460.86   22.11
  -5  -7 -13  441.16   21.85
   5   7  13  444.63   20.18
   5   7  14  151.88   12.09
  -5  -7 -14  163.99   13.72
  -5  -7 -14  147.27   12.35
  -5  -7 -15  283.46   17.70
  -5  -7 -15  279.31   18.56
   5   7  15  308.80   17.88
  -5  -7 -16   19.03    5.61
  -5  -7 -16   13.17    5.29
   5   7  16    7.99    4.43
  -5  -7 -17  236.96   18.30
  -5  -7 -17  246.80   17.02
   5   7  17  219.86   16.65
  -5  -7 -18    2.48    3.78
  -5  -7 -18   12.42    6.05
   5   7  18    2.80    4.55
   5   8 -11   26.66    7.81
  -5  -8  11   18.55    8.33
   5   8 -10   57.02   10.21
  -5  -8  10   48.34   11.72
   5   8  -9  213.00   17.35
  -5  -8   9  192.42   20.27
   5   8  -8    1.27    4.60
  -5  -8   8    2.51    6.07
   5   8  -7  166.40   14.56
  -5  -8   7  161.84   18.27
   5   8  -6   23.68    5.96
  -5  -8   6   25.77    8.63
   5   8  -5   78.01   10.16
  -5  -8   5   81.64   12.95
   5   8  -4  269.25   17.28
  -5  -8   4  264.16   22.13
   5   8  -3 1209.99   39.00
  -5  -8   3 1284.70   49.13
  -5  -8   2   37.71    5.34
   5   8  -2   29.47    6.12
  -5  -8   2   33.59    5.70
  -5  -8   2   30.60    7.40
  -5  -8   1   10.09    3.38
   5   8  -1    5.12    3.52
  -5  -8   1   13.77    4.23
  -5  -8   1   -3.65    5.54
   5   8   0  365.79   18.37
  -5  -8   0  388.62   18.50
  -5  -8   0  387.99   17.48
  -5  -8   0  377.40   24.20
   5   8   1   94.63    9.09
   5   8   1   63.75   12.04
  -5  -8  -1   88.19    8.85
  -5  -8  -1  102.78    8.80
  -5  -8  -1   89.89   11.98
   5   8   2  127.10   10.34
   5   8   2  116.49   14.94
   5   8   2  134.56    9.40
  -5  -8  -2  139.17   10.81
  -5  -8  -2  133.16   14.36
  -5  -8  -2  129.23   10.15
   5   8   3 2554.02   57.81
   5   8   3 2536.12   76.90
  -5  -8  -3 2517.31   58.41
  -5  -8  -3 2532.31   70.70
   5   8   3 2480.32   52.94
   5   8   4  733.85   22.30
   5   8   4  784.10   25.79
   5   8   4  688.58   36.74
  -5  -8  -4  751.28   26.72
   5   8   5   60.03    5.46
  -5  -8  -5   66.30    7.66
   5   8   5   66.55    6.97
   5   8   5   68.19   11.51
   5   8   6  800.48   21.80
   5   8   6  808.46   25.39
   5   8   6  738.11   37.64
  -5  -8  -6  817.93   28.58
   5   8   6  765.45   20.24
  -5  -8  -7   21.16    5.30
   5   8   7   18.97    3.23
   5   8   7   19.36    3.73
   5   8   7   11.63    6.63
   5   8   7   13.67    2.81
  -5  -8  -8   13.30    4.73
   5   8   8    7.56    2.91
  -5  -8  -8    6.67    3.57
   5   8   8   18.80    8.34
   5   8   8   10.22    2.95
  -5  -8  -9 2122.94   52.90
   5   8   9 2051.79   68.73
  -5  -8  -9 2042.00   53.65
   5   8   9 2073.12   46.17
  -5  -8 -10  368.64   18.67
   5   8  10  343.60   26.46
  -5  -8 -10  352.98   19.26
   5   8  10  348.46   15.50
  -5  -8 -11  398.98   20.36
   5   8  11  476.36   31.17
  -5  -8 -11  431.08   21.49
   5   8  11  411.96   17.89
  -5  -8 -12  470.52   23.14
  -5  -8 -12  514.14   23.97
   5   8  12  522.55   21.14
  -5  -8 -13   50.44    7.96
  -5  -8 -13   47.32    7.67
   5   8  13   46.86    6.66
  -5  -8 -14  118.66   12.15
  -5  -8 -14  149.07   13.19
   5   8  14  119.14   10.76
  -5  -8 -15  290.31   19.67
  -5  -8 -15  276.34   18.30
   5   8  15  265.76   16.70
  -5  -8 -16  149.94   14.56
  -5  -8 -16  145.55   13.66
   5   8  16  136.17   12.42
  -5  -8 -17  374.24   23.98
   5   8  17  378.16   21.71
  -5  -8 -18  161.31   16.45
   5   8  18  160.66   14.56
  -5  -9   9   59.53   13.09
   5   9  -8    4.40    4.87
  -5  -9   8    7.35    8.04
   5   9  -7  226.41   17.82
  -5  -9   7  256.13   24.11
   5   9  -6  199.72   16.35
  -5  -9   6  159.07   19.00
   5   9  -5  264.78   18.60
  -5  -9   5  263.24   23.68
   5   9  -4   11.90    5.16
  -5  -9   4    3.43    6.17
   5   9  -3  131.30   12.44
  -5  -9   3  148.82   17.41
   5   9  -2   11.26    4.67
  -5  -9   2   10.61    6.81
   5   9  -1   10.59    4.27
  -5  -9   1   23.10    5.66
  -5  -9   1   15.64    7.07
   5   9   0   20.23    5.25
  -5  -9   0   29.88    6.15
  -5  -9   0   28.41    8.49
   5   9   1  935.38   32.20
  -5  -9  -1  937.26   33.58
  -5  -9  -1  894.36   40.82
   5   9   2  195.99   13.40
   5   9   2  183.65   20.69
  -5  -9  -2  200.97   14.53
  -5  -9  -2  198.25   13.48
  -5  -9  -2  190.22   18.17
   5   9   3  462.43   20.70
   5   9   3  436.18   31.60
  -5  -9  -3  503.82   23.28
  -5  -9  -3  451.71   20.96
  -5  -9  -3  462.89   28.34
  -5  -9  -4    7.93    4.11
   5   9   4   11.69    4.05
  -5  -9  -4    8.25    3.75
   5   9   4   12.58    7.40
   5   9   4    0.78    3.79
  -5  -9  -5   21.02    5.39
   5   9   5   24.95    5.04
  -5  -9  -5   28.33    6.06
   5   9   5   19.35    8.05
   5   9   6  120.92    9.70
   5   9   6  105.98   16.00
  -5  -9  -6  114.87   11.31
  -5  -9  -6  124.78   11.22
   5   9   7  286.20   14.81
   5   9   7  261.28   24.48
  -5  -9  -7  287.25   17.09
   5   9   8  560.98   20.93
   5   9   8  532.25   35.11
  -5  -9  -8  581.52   25.45
   5   9   9  214.06   22.45
  -5  -9  -9  204.00   14.92
  -5  -9 -10    0.66    3.77
   5   9  10    9.06    8.22
  -5  -9 -11  132.19   13.03
   5   9  11  133.08   18.29
  -5  -9 -11  127.31   12.10
  -5  -9 -12  139.24   13.39
   5   9  12  113.42   17.77
   5   9  12  145.58   10.60
  -5  -9 -12  130.78   12.33
  -5  -9 -13  340.95   21.42
   5   9  13  319.76   28.00
   5   9  13  362.28   17.91
  -5  -9 -13  336.15   20.48
  -5  -9 -14   -3.16    4.24
   5   9  14    5.68    4.33
  -5  -9 -15  297.17   20.85
   5   9  15  278.03   17.19
  -5  -9 -16   19.54    6.62
   5   9  16   18.94    5.10
  -5  -9 -17   24.03    7.11
   5   9  17   13.05    5.16
   5   9  18  102.21   11.43
  -5 -10   7    6.93    6.98
   5  10  -6   28.66    7.64
  -5 -10   6   23.02   10.00
   5  10  -5  122.33   13.46
  -5 -10   5  128.57   17.93
   5  10  -4  160.03   14.94
  -5 -10   4  141.31   18.37
   5  10  -3  282.44   19.24
  -5 -10   3  287.01   25.31
   5  10  -2    6.92    4.38
  -5 -10   2    5.89    6.90
   5  10  -1   11.01    4.88
  -5 -10   1    7.64    6.55
   5  10   0  133.08   12.24
  -5 -10   0  151.73   14.18
  -5 -10   0  148.42   18.02
   5  10   1  508.89   24.19
  -5 -10  -1  525.57   26.67
  -5 -10  -1  525.38   32.78
   5  10   2  458.70   22.55
  -5 -10  -2  461.18   24.96
  -5 -10  -2  491.32   31.25
   5  10   3  439.91   21.61
   5  10   3  393.19   32.47
  -5 -10  -3  470.44   24.67
  -5 -10  -3  474.06   30.21
   5  10   4    1.96    3.27
  -5 -10  -4   14.81    5.36
   5  10   4   17.75    8.92
   5  10   5   -2.62    3.56
  -5 -10  -5    3.74    3.92
   5  10   5    1.51    8.36
   5  10   6   93.74    9.25
  -5 -10  -6   94.23   10.76
   5  10   6   91.80   16.37
   5  10   7  238.17   14.25
   5  10   7  231.38   24.28
  -5 -10  -7  234.25   17.37
   5  10   8  453.00   34.65
  -5 -10  -8  426.95   24.24
   5  10   9  934.23   50.46
  -5 -10  -9  987.11   38.88
  -5 -10 -10   -2.93    4.69
   5  10  10   -5.26    7.91
  -5 -10 -11    3.81    3.91
   5  10  11   20.36    9.57
  -5 -10 -12    9.25    4.76
   5  10  12   44.19   13.34
   5  10  13   55.04   14.33
  -5 -10 -13   42.42    8.76
   5  10  14   22.47    9.25
  -5 -10 -14   28.12    7.75
   5  10  15  457.04   36.48
   5  11  -3    5.86    5.16
  -5 -11   3    5.01    7.95
   5  11  -2   14.89    6.30
  -5 -11   2   10.79    7.63
   5  11  -1  209.22   16.90
  -5 -11   1  212.81   22.32
   5  11   0  154.18   14.31
  -5 -11   0  162.32   19.27
   5  11   1  311.32   19.99
  -5 -11  -1  323.22   27.39
  -5 -11  -1  327.48   22.86
   5  11   2   28.34    6.55
  -5 -11  -2   16.59    5.26
  -5 -11  -2   21.92    8.44
   5  11   3    1.23    3.67
  -5 -11  -3   -0.25    3.85
  -5 -11  -3   -3.71    6.60
   5  11   4  242.99   16.53
   5  11   4  239.29   27.09
  -5 -11  -4  250.36   19.58
   5  11   5  182.41   13.95
   5  11   5  144.59   21.07
  -5 -11  -5  189.73   16.95
   5  11   6  470.83   22.48
   5  11   6  406.66   35.66
  -5 -11  -6  430.13   25.93
   5  11   7  591.33   42.62
  -5 -11  -7  634.37   31.51
  -5 -11  -8   23.53    7.21
   5  11   8   53.65   13.79
  -5 -11  -9    4.99    5.35
   5  11   9   11.04    8.95
   5  11  10  213.50   25.81
  -5 -11 -10  182.70   17.03
  -5 -11 -11   57.68   10.15
   5  11  11   36.30   12.83
   5  11  12  179.62   23.52
  -5 -11 -12  157.04   16.24
   5  11  13  948.92   54.84
   5  12   1   19.12    6.32
   5  12   2    2.86    4.99
  -5 -12  -2   -1.18    5.41
   5  12   3  109.11   12.21
  -5 -12  -3   99.90   13.91
  -5 -12  -3  109.47   16.75
   5  12   4   29.37    6.72
  -5 -12  -4   26.11    7.19
   5  12   5  120.70   12.24
  -5 -12  -5  129.47   14.97
   5  12   6   74.56    9.57
  -5 -12  -6   81.38   12.25
   5  12   6   80.66   19.11
   5  12   7  197.19   26.05
  -5 -12  -7  199.86   18.67
  -5 -12  -8   19.06    6.94
   5  12   8   25.90   12.41
   6  -6 -12   86.55   14.96
   6  -6 -11    6.43    6.53
   6  -6 -10  -13.13    8.77
   6  -6  -9   -8.14    7.74
   6  -6  -8   22.95    9.27
  -6   6   8   33.62    8.71
   6  -6  -7  139.95   19.09
  -6   6   7  170.38   18.00
   6  -6  -6  215.09   23.06
  -6   6   6  221.39   20.61
   6  -6  -5    0.58    6.15
  -6   6   5   -2.38    5.03
   6  -6  -4   29.42    9.40
  -6   6   4   42.44   10.51
   6  -6  -3   18.12    8.47
  -6   6   3   20.82    7.41
   6  -6  -2   11.89    6.49
  -6   6   2   22.84    8.49
   6  -6  -1   59.32   12.42
  -6   6   1   94.13   14.27
   6  -6   0  327.19   27.02
  -6   6   0  279.60   23.76
   6  -6   1   35.99   10.66
  -6   6  -1   18.23    7.17
   6  -6   2    6.27    7.35
  -6   6  -2   -8.26    6.90
   6  -6   3   11.58    7.81
  -6   6  -3   21.23    8.20
   6  -6   4    2.64    7.01
  -6   6  -4    6.55    6.63
   6  -6   5   37.63   11.10
  -6   6  -5   57.11   11.29
   6  -6   6   53.61   12.91
  -6   6  -6   60.07   11.27
  -6   6  -7   26.95   10.13
   6  -5 -12   -3.66    5.55
   6  -5 -11   35.05    9.70
  -6   5  11   38.68    9.86
   6  -5 -11   38.96    9.73
   6  -5 -10   52.94   11.33
   6  -5 -10   40.46    8.86
  -6   5  10   60.01   11.06
   6  -5  -9  226.03   22.58
  -6   5   9  257.41   21.38
   6  -5  -9  280.91   20.66
   6  -5  -8  497.97   32.42
  -6   5   8  493.39   29.58
   6  -5  -8  506.77   27.59
   6  -5  -7   86.68   11.42
   6  -5  -7   62.87   11.89
  -6   5   7   61.08   11.15
   6  -5  -6    7.14    4.70
   6  -5  -6    2.78    4.91
  -6   5   6   15.16    6.80
   6  -5  -5  123.99   16.70
  -6   5   5  169.60   17.08
   6  -5  -5  168.28   14.73
   6  -5  -4   28.64    6.70
   6  -5  -4   23.75    8.52
  -6   5   4   33.69    8.13
   6  -5  -3  146.66   17.62
  -6   5   3  179.50   17.52
   6  -5  -3  190.14   15.11
   6  -5  -2  853.20   42.26
  -6   5   2  993.01   42.78
   6  -5  -2  948.54   35.75
   6  -5  -1  277.22   23.66
  -6   5   1  253.40   21.27
   6  -5  -1  263.57   18.18
   6  -5   0   -5.88    5.30
   6  -5   0   11.75    7.36
  -6   5   0   -3.71    6.11
   6  -5   1  110.91   11.85
  -6   5  -1  122.09   15.83
   6  -5   1  112.64   16.43
   6  -5   2   43.74    7.68
   6  -5   2   39.11   10.26
  -6   5  -2   49.49   10.15
   6  -5   3    6.81    4.56
   6  -5   3    1.67    5.37
  -6   5  -3    1.85    4.92
   6  -5   4  412.61   30.68
  -6   5  -4  340.11   24.79
   6  -5   5  181.58   21.55
  -6   5  -5  189.68   18.50
   6  -5   6    5.96    6.63
  -6   5  -6    8.11    7.74
  -6   5  -6   24.90    8.04
  -6   5  -7   17.88    8.68
   6  -5   7    9.69    5.17
  -6   5  -8   -2.21    6.26
   6  -5   8    7.07    4.71
  -6   5  -9   17.38    6.22
   6  -5   9    5.05    5.33
  -6   5 -10   43.13    8.96
   6  -5  10   38.41    9.10
  -6   5 -11   36.92    9.05
   6  -5  11   37.36    8.91
  -6   4  14   28.83    9.46
  -6   4  13    5.21    5.07
  -6   4  13   -4.35    6.74
   6  -4 -13    2.50    5.01
   6  -4 -12  112.37   14.45
  -6   4  12  112.84   13.50
  -6   4  12  137.67   16.65
   6  -4 -12  100.78   13.59
   6  -4 -11   70.26   11.50
   6  -4 -11   51.64    9.60
  -6   4  11   78.57   11.57
  -6   4  11   79.27   12.29
   6  -4 -10   30.45    8.11
   6  -4 -10   27.26    7.28
  -6   4  10   40.19    8.73
  -6   4  10   39.86    8.92
   6  -4  -9   57.82   10.85
   6  -4  -9   50.01    9.21
  -6   4   9   51.38    9.59
   6  -4  -8  111.70   14.93
   6  -4  -8  115.99   12.95
  -6   4   8  109.31   13.16
   6  -4  -7   15.71    6.03
   6  -4  -7   -1.87    5.17
  -6   4   7   17.40    6.58
   6  -4  -6   -4.16    4.91
  -6   4   6    0.90    4.32
   6  -4  -5    2.31    3.81
   6  -4  -5    4.29    4.83
  -6   4   5    7.35    5.08
   6  -4  -4  143.21   16.29
  -6   4   4  176.85   16.88
   6  -4  -4  188.70   15.08
   6  -4  -3  138.55   15.52
  -6   4   3  138.35   14.80
   6  -4  -3  147.90   13.52
   6  -4  -2  323.36   24.47
  -6   4   2  337.16   23.50
   6  -4  -2  353.46   20.88
   6  -4  -1   45.63    8.10
   6  -4  -1   56.02   11.29
  -6   4   1   53.51   10.13
   6  -4   0    0.93    4.45
   6  -4   0   -0.01    4.33
  -6   4   0   -2.85    5.48
   6  -4   1   15.27    5.22
   6  -4   1   10.86    6.25
  -6   4  -1   10.56    5.80
   6  -4   2   80.45    9.89
   6  -4   2   70.44   12.58
  -6   4  -2   55.42   10.29
   6  -4   2   78.52    7.81
  -6   4  -3   44.81    8.91
   6  -4   3   47.07    7.90
   6  -4   3   51.55   11.04
   6  -4   3   43.74    6.55
   6  -4   4   46.02    7.75
   6  -4   4   47.92   11.21
  -6   4  -4   60.51   10.09
   6  -4   4   63.40    7.76
   6  -4   5   40.30    6.96
   6  -4   5   32.03    9.97
  -6   4  -5   37.12    8.67
   6  -4   5   42.14    7.04
   6  -4   6   67.56    8.80
  -6   4  -6   43.27    9.47
  -6   4  -6   40.13   10.10
   6  -4   6   51.84    7.84
   6  -4   7    8.27    4.23
  -6   4  -7    2.94    5.35
   6  -4   7   10.92    5.39
   6  -4   8   55.78    8.61
  -6   4  -8   63.17   11.52
   6  -4   8   59.05    8.90
   6  -4   9   14.24    5.36
  -6   4  -9    1.09    5.18
   6  -4   9   19.23    6.18
   6  -4  10   -8.93    4.74
  -6   4 -10   -9.06    5.45
   6  -4  10   -1.77    4.78
   6  -4  11    1.07    4.05
  -6   4 -11    5.19    3.85
   6  -4  11   -3.72    4.86
  -6   4 -12   14.58    5.47
   6  -4  12   16.08    6.47
   6  -4  13   33.81    9.53
  -6   3  15  100.06   14.22
  -6   3  14  220.63   19.76
  -6   3  14  203.29   20.04
   6  -3 -14  188.83   18.42
  -6   3  13   -0.40    4.78
  -6   3  13    4.84    5.78
   6  -3 -13    2.51    4.70
  -6   3  12    2.63    4.87
  -6   3  12    6.17    5.30
   6  -3 -12   -8.83    5.60
   6  -3 -12   -0.55    5.63
   6  -3 -11   -2.44    4.63
   6  -3 -11   -0.35    5.10
  -6   3  11    5.42    4.77
  -6   3  11    4.57    4.81
   6  -3 -11    4.50    4.94
   6  -3 -10  185.30   17.60
  -6   3  10  259.25   19.27
  -6   3  10  224.16   18.71
   6  -3 -10  246.50   19.57
   6  -3  -9  134.24   14.58
  -6   3   9  138.11   14.32
  -6   3   9  167.81   15.91
   6  -3  -9  151.64   15.10
   6  -3  -8  335.72   22.79
  -6   3   8  351.47   22.20
  -6   3   8  355.64   22.17
   6  -3  -8  329.55   21.84
   6  -3  -7    0.37    4.47
   6  -3  -7    4.97    3.94
  -6   3   7    2.92    4.91
   6  -3  -6  110.30   13.11
  -6   3   6  137.31   13.52
   6  -3  -6  131.78   13.29
   6  -3  -5   20.95    5.88
   6  -3  -5   20.84    6.61
  -6   3   5   25.34    7.24
   6  -3  -4  505.83   28.68
  -6   3   4  550.02   27.78
   6  -3  -4  596.16   27.28
   6  -3  -3  399.19   25.06
  -6   3   3  495.02   26.37
   6  -3  -3  478.39   24.01
   6  -3  -2  456.99   26.60
  -6   3   2  434.38   25.38
   6  -3  -2  423.43   22.84
   6  -3  -1   -5.43    5.04
   6  -3  -1   -5.42    4.68
  -6   3   1    1.14    4.81
   6  -3   0   57.68    8.49
   6  -3   0   55.35   10.32
  -6   3   0   53.40    9.56
   6  -3   0   51.34    5.14
   6  -3   1  155.65   13.17
   6  -3   1  149.67   16.13
  -6   3  -1  132.56   14.53
   6  -3   1  148.42    9.21
   6  -3   2  261.64   16.23
   6  -3   2  222.99   20.07
  -6   3  -2  194.46   16.55
   6  -3   2  214.60   11.78
   6  -3   3  723.60   27.45
   6  -3   3  637.32   22.55
   6  -3   3  582.72   33.18
  -6   3  -3  624.07   30.26
   6  -3   4  510.09   22.80
   6  -3   4  487.52   30.05
  -6   3  -4  505.95   26.51
   6  -3   4  500.03   20.44
   6  -3   5    4.06    3.48
  -6   3  -5    1.18    5.10
   6  -3   5    8.93    3.76
   6  -3   6    3.77    3.20
  -6   3  -6   11.96    5.83
  -6   3  -6    3.66    5.99
   6  -3   6    4.52    3.26
   6  -3   7   56.72    7.67
  -6   3  -7   48.79    9.73
   6  -3   7   50.72    7.53
   6  -3   8   -4.19    3.93
  -6   3  -8   -4.32    5.54
   6  -3   8    6.87    4.32
   6  -3   9  105.04   10.30
  -6   3  -9   64.75   10.96
   6  -3   9  100.24   11.19
  -6   3 -10  238.16   18.32
   6  -3  10  250.68   18.41
  -6   3 -11    9.37    4.35
   6  -3  11    5.85    5.31
  -6   3 -12    5.76    3.78
   6  -3  12   17.90    7.31
  -6   3 -13    4.16    4.55
   6  -3  13   -0.81    5.47
   6  -3  14   16.29    6.62
  -6   2  15   10.15    6.89
  -6   2  15    1.12    5.36
  -6   2  14  122.86   15.51
  -6   2  14  130.32   15.42
  -6   2  14  130.48   16.40
   6  -2 -14  145.70   15.65
  -6   2  13   58.44   10.44
  -6   2  13   47.09    9.88
   6  -2 -13   60.10   10.72
  -6   2  12   65.22   10.74
  -6   2  12   50.33    9.96
   6  -2 -12   54.77    9.52
   6  -2 -12   50.04    9.78
   6  -2 -11   94.96   12.92
  -6   2  11  106.34   12.80
  -6   2  11  101.75   12.41
   6  -2 -11   86.81   11.24
   6  -2 -10  137.34   13.14
  -6   2  10  136.49   14.15
  -6   2  10  131.01   14.05
   6  -2 -10  127.63   12.90
   6  -2 -10  135.37   14.70
   6  -2  -9   27.30    7.34
   6  -2  -9   20.83    6.18
  -6   2   9   19.62    6.33
  -6   2   9   31.57    7.20
   6  -2  -9   19.41    6.19
   6  -2  -8   -0.66    4.70
   6  -2  -8   12.46    4.64
  -6   2   8   -0.16    3.93
  -6   2   8    5.79    4.38
   6  -2  -7    0.47    4.15
   6  -2  -7    3.79    3.95
  -6   2   7   16.26    6.00
  -6   2   7    4.65    4.06
   6  -2  -6  430.89   23.73
  -6   2   6  405.70   23.68
  -6   2   6  510.21   25.47
   6  -2  -6  540.29   26.10
   6  -2  -5  305.91   20.55
  -6   2   5  339.49   20.69
   6  -2  -5  371.03   21.36
   6  -2  -4  640.98   29.37
  -6   2   4  712.41   30.36
   6  -2  -4  683.90   29.18
   6  -2  -3   49.20    8.01
   6  -2  -3   42.52    8.26
  -6   2   3   48.30    8.91
   6  -2  -2  163.64   13.92
   6  -2  -2  135.20   13.85
  -6   2   2  159.89   14.25
   6  -2  -1  367.69   20.67
   6  -2  -1  398.21   23.81
  -6   2   1  420.90   23.31
   6  -2   0  218.76   15.33
   6  -2   0  215.42   17.79
  -6   2   0  204.71   16.41
   6  -2   0  209.32    8.77
   6  -2   1  392.75   19.68
   6  -2   1  350.01   22.87
  -6   2  -1  341.20   20.97
   6  -2   1  336.56   12.44
   6  -2   2  934.00   31.44
   6  -2   2  862.35   37.88
  -6   2  -2  787.15   32.89
   6  -2   2  892.87   24.04
   6  -2   3  192.83   13.78
   6  -2   3  189.21   17.35
  -6   2  -3  216.16   16.22
   6  -2   3  219.17   11.24
   6  -2   4   -2.33    3.55
  -6   2  -4    3.75    4.52
  -6   2  -4    5.06    4.90
   6  -2   4    4.63    2.68
   6  -2   5  330.82   17.75
  -6   2  -5  287.19   21.78
  -6   2  -5  356.82   20.54
   6  -2   5  342.79   15.94
   6  -2   6    6.62    3.75
  -6   2  -6   10.69    4.97
  -6   2  -6    4.28    4.96
   6  -2   6   10.44    4.08
   6  -2   7  237.33   15.14
  -6   2  -7  218.43   17.80
   6  -2   7  241.59   14.69
   6  -2   8  700.28   26.37
  -6   2  -8  532.65   27.95
   6  -2   8  596.16   25.72
   6  -2   9   71.87    9.54
  -6   2  -9   65.54    9.84
   6  -2  10   16.59    5.52
  -6   2 -10   22.45    6.18
   6  -2  11   22.30    6.48
  -6   2 -11   21.26    5.58
   6  -2  12    0.45    4.49
  -6   2 -12   10.44    4.24
   6  -2  12    8.06    4.62
   6  -2  13   26.06    7.94
  -6   2 -13   42.24    9.27
   6  -2  13   39.10    8.24
  -6   2 -14  283.14   21.40
   6  -2  14  269.96   20.13
   6  -2  14  243.22   21.09
   6  -2  15   -4.49    5.76
   6  -2  15   -1.86    4.78
  -6   1  15  200.96   19.56
  -6   1  15  174.93   18.53
   6  -1 -15  210.02   18.85
  -6   1  14  262.11   21.53
  -6   1  14  250.16   19.71
  -6   1  14  229.15   21.16
   6  -1 -14  272.79   20.89
  -6   1  13   21.64    7.49
  -6   1  13    8.27    4.99
  -6   1  13   13.48    6.38
   6  -1 -13    6.10    5.00
  -6   1  12   31.80    8.19
  -6   1  12   18.97    6.95
   6  -1 -12   25.70    6.81
   6  -1 -12   32.02    8.42
  -6   1  11  122.72   14.30
  -6   1  11  129.96   13.29
   6  -1 -11  133.49   14.00
   6  -1 -11  135.77   15.06
   6  -1 -10  160.15   12.56
  -6   1  10  163.87   15.51
  -6   1  10  164.44   14.43
   6  -1 -10  151.30   14.34
   6  -1 -10  162.66   15.97
   6  -1  -9  174.20   13.16
  -6   1   9  193.51   16.16
  -6   1   9  197.90   15.31
   6  -1  -9  180.57   14.75
   6  -1  -9  179.90   15.99
   6  -1  -8  112.74   12.72
   6  -1  -8   91.96    9.43
  -6   1   8  111.47   12.11
  -6   1   8  101.44   10.71
   6  -1  -8   86.94    9.91
   6  -1  -7   72.02   10.18
   6  -1  -7   46.75    7.10
  -6   1   7   59.36    8.98
  -6   1   7   63.70    8.65
   6  -1  -7   42.68    6.97
   6  -1  -6  206.13   14.52
  -6   1   6  234.93   16.82
  -6   1   6  240.90   16.03
   6  -1  -6  204.90   14.47
   6  -1  -6  234.40   17.21
   6  -1  -5    8.33    4.31
   6  -1  -5   13.88    4.94
  -6   1   5    8.20    4.38
  -6   1   5    9.65    4.44
   6  -1  -4  147.50   12.76
  -6   1   4  144.35   13.02
  -6   1   4  159.81   13.21
   6  -1  -4  158.38   13.62
   6  -1  -3    1.22    3.52
   6  -1  -3    2.37    3.56
  -6   1   3    5.97    5.08
   6  -1  -2  102.82   11.15
   6  -1  -2  109.57   11.54
  -6   1   2  120.50   12.14
   6  -1  -1   61.44    8.84
   6  -1  -1   76.84   10.20
  -6   1   1   52.49    8.20
   6  -1   0  182.72   13.65
   6  -1   0  183.52   15.16
  -6   1   0  170.67   13.75
   6  -1   1  542.59   22.58
   6  -1   1  506.82   25.68
  -6   1  -1  448.36   22.46
   6  -1   1  431.07   12.27
   6  -1   2  622.50   23.72
   6  -1   2  515.44   27.10
  -6   1  -2  533.49   27.83
  -6   1  -2  531.00   24.32
   6  -1   2  552.18   15.82
   6  -1   3   -5.67    4.61
  -6   1  -3    5.50    4.21
  -6   1  -3   -3.42    4.97
   6  -1   3    1.43    1.70
   6  -1   4   88.65    8.52
  -6   1  -4   84.00    9.74
  -6   1  -4   73.01   10.65
   6  -1   4   84.24    6.82
   6  -1   5  134.55   10.62
  -6   1  -5  129.37   13.10
  -6   1  -5  125.33   11.58
   6  -1   5  144.43    9.37
   6  -1   6    1.98    2.29
   6  -1   6   -1.58    3.16
  -6   1  -6   -1.12    5.01
   6  -1   7   73.38    8.89
  -6   1  -7   76.18   10.03
  -6   1  -8  474.05   24.04
  -6   1  -9   56.72    8.27
  -6   1 -10   91.70   10.14
   6  -1  10   93.97   10.22
   6  -1  11   15.45    5.34
  -6   1 -11    2.12    3.28
   6  -1  12   32.11    6.92
  -6   1 -12   36.30    6.38
  -6   1 -13    0.23    4.02
   6  -1  13    3.17    4.07
  -6   1 -14   48.62    9.27
   6  -1  14   38.23    7.84
  -6   1 -15   21.67    6.90
   6  -1  15   28.86    7.46
  -6   0  15   35.69    9.25
  -6   0  15    3.24    5.10
   6   0 -15   33.31    9.25
  -6   0  14   10.26    6.19
  -6   0  14    9.28    6.20
   6   0 -14    2.73    5.29
  -6   0  13   11.21    5.73
  -6   0  13   10.64    5.73
  -6   0  13   -7.09    6.13
   6   0 -13    2.64    4.43
  -6   0  12  156.04   15.91
  -6   0  12  134.87   13.29
   6   0 -12  158.12   15.18
   6   0 -11  111.69   13.35
  -6   0  11  100.25   12.73
  -6   0  11  110.91   11.59
   6   0 -11  116.98   12.74
  -6   0  10  180.03   15.82
  -6   0  10  177.45   14.28
   6   0 -10  178.17   15.23
   6   0 -10  187.32   16.65
   6   0  -9   45.53    8.93
   6   0  -9   43.25    5.82
  -6   0   9   44.14    8.52
  -6   0   9   45.59    7.34
   6   0  -9   42.50    7.74
   6   0  -8  198.45   12.35
  -6   0   8  196.08   15.79
  -6   0   8  192.43   14.10
   6   0  -8  190.44   14.98
   6   0  -8  198.65   16.97
   6   0  -7   11.97    5.72
   6   0  -7   18.00    4.57
  -6   0   7   20.27    5.93
  -6   0   7   17.02    3.97
   6   0  -7   12.77    4.97
   6   0  -6  835.81   28.67
  -6   0   6  843.71   33.20
  -6   0   6  888.18   30.96
   6   0  -6  863.17   30.98
   6   0  -6  965.96   35.71
   6   0  -5  880.48   28.89
  -6   0   5  913.54   32.54
  -6   0   5  944.11   30.75
   6   0  -5  866.58   29.05
   6   0  -5  988.41   34.77
   6   0  -4   21.41    6.10
   6   0  -4   13.57    4.42
  -6   0   4   26.97    6.34
  -6   0   4   25.50    5.79
   6   0  -4   22.51    4.78
   6   0  -3  342.82   18.34
  -6   0   3  332.39   18.75
  -6   0   3  347.26   18.31
   6   0  -3  342.94   16.23
   6   0  -3  354.71   20.11
   6   0  -2   28.48    6.26
   6   0  -2   47.25    7.33
  -6   0   2   36.85    6.52
   6   0  -2   36.01    5.12
   6   0  -1   10.19    5.00
  -6   0   1   21.93    6.37
   6   0  -1   12.88    1.68
   6   0  -1   15.40    5.02
  -6   0   1   26.30    5.86
   6   0   0 1479.48   42.66
  -6   0   0 1460.16   45.93
  -6   0   0 1439.98   41.67
   6   0   1 1324.49   34.12
  -6   0  -1 1153.26   37.62
  -6   0  -1 1202.14   33.22
   6   0   2  996.13   30.91
  -6   0  -2  863.87   34.30
  -6   0  -2  954.65   30.90
   6   0   2  887.45   19.76
   6   0   3  376.04   17.71
  -6   0  -3  373.82   21.27
  -6   0  -3  394.29   18.94
   6   0   3  394.24   12.59
   6   0   4  561.57   21.00
  -6   0  -4  484.55   24.61
  -6   0  -4  516.83   22.18
   6   0   5   28.73    5.32
  -6   0  -5   22.02    5.87
   6   0   5   20.69    2.13
   6   0   6  731.43   25.57
  -6   0  -6  677.99   28.56
  -6   0  -7  417.05   21.53
  -6   0  -8 1018.86   35.07
   6   0   8 1124.00   34.64
   6   0   9    7.78    4.21
  -6   0  -9    6.02    3.88
  -6   0 -10  163.70   12.57
   6   0  10  195.26   14.53
  -6   0 -11   41.12    6.39
   6   0  11   50.36    8.64
  -6   0 -12  171.77   14.63
  -6   0 -12  166.73   12.42
   6   0  12  201.66   15.06
  -6   0 -13  114.16   12.56
  -6   0 -13  105.33    9.80
   6   0  13  111.57   11.82
  -6   0 -14  176.53   15.77
   6   0  14  170.94   14.69
  -6   0 -15   -2.67    4.13
   6   0  15    8.75    5.02
  -6   0 -16   31.56    8.28
   6   0  16   27.63    7.23
  -6  -1  16  189.38   18.76
  -6  -1  15   33.61    7.84
  -6  -1  15   47.72    9.70
  -6  -1  15   25.51    7.38
   6   1 -15   38.60    8.78
  -6  -1  14  225.64   20.02
  -6  -1  14  177.87   17.51
   6   1 -14  212.66   19.46
  -6  -1  13  139.62   16.47
  -6  -1  13  135.26   15.03
   6   1 -13  171.39   16.65
  -6  -1  12   51.48    9.58
  -6  -1  12   34.83    7.99
   6   1 -12   50.51    9.59
   6   1 -11   56.26    9.33
  -6  -1  11   73.34   10.94
  -6  -1  11   54.45    8.08
   6   1 -11   60.30   10.37
   6   1 -10   68.33   10.52
  -6  -1  10   66.90   10.03
  -6  -1  10   76.01    8.92
  -6  -1  10   68.70    7.52
   6   1 -10   78.47   10.57
  -6  -1   9  217.91   16.97
  -6  -1   9  231.70   13.90
  -6  -1   9  247.99   15.40
   6   1  -9  255.16   17.77
   6   1  -9  221.60   17.76
  -6  -1   8  355.13   21.18
  -6  -1   8  372.39   18.56
  -6  -1   8  410.59   19.26
   6   1  -8  337.77   20.13
   6   1  -8  377.86   22.53
   6   1  -7   39.47    7.86
  -6  -1   7   33.93    6.52
  -6  -1   7   39.42    5.75
  -6  -1   7   48.66    7.29
   6   1  -7   37.62    6.72
  -6  -1   6  171.51   13.61
  -6  -1   6  150.40   11.98
  -6  -1   6  186.36   12.06
  -6  -1   6  164.43    7.86
   6   1  -6  172.65   13.06
   6   1  -6  184.70   14.97
  -6  -1   5  106.85   11.05
  -6  -1   5  117.96   10.99
  -6  -1   5  111.67    9.42
  -6  -1   5  112.37    5.21
   6   1  -5  122.96   10.66
   6   1  -5  142.04   13.06
  -6  -1   4  524.67   23.72
  -6  -1   4  461.57   22.36
  -6  -1   4  504.82   20.71
   6   1  -4  532.08   21.84
   6   1  -4  567.28   25.59
   6   1  -3   58.96    8.73
  -6  -1   3   40.89    7.29
  -6  -1   3   38.58    5.84
  -6  -1   3   38.32    7.18
   6   1  -3   60.28    6.99
   6   1  -2  499.85   23.93
  -6  -1   2  505.96   22.64
  -6  -1   2  495.46   23.46
  -6  -1   2  493.61   20.36
   6   1  -2  578.23   20.45
   6   1  -1  983.07   33.71
  -6  -1   1  979.20   34.21
   6   1  -1  931.49   22.50
  -6  -1   1  919.72   29.64
   6   1  -1 1105.56   28.34
   6   1   0  295.16   16.63
   6   1   0  306.43   11.16
  -6  -1   0  274.95   17.42
  -6  -1   0  304.75   15.27
   6   1   0  324.84   12.85
   6   1   1   24.58    5.27
  -6  -1  -1   32.57    6.43
  -6  -1  -1   41.75    5.87
   6   1   1   33.58    3.62
   6   1   2   -3.14    3.47
  -6  -1  -2    3.80    3.08
  -6  -1  -2    1.67    3.40
   6   1   2    5.07    1.40
   6   1   3  165.32   11.55
  -6  -1  -3  155.16   12.75
  -6  -1  -3  185.87   11.68
   6   1   4  240.64   13.53
  -6  -1  -4  250.59   16.04
   6   1   5  329.05   15.49
  -6  -1  -5  308.32   17.40
   6   1   6 1559.69   39.43
  -6  -1  -6 1410.88   41.67
   6   1   7   -2.08    3.59
  -6  -1  -7    1.45    2.97
   6   1   8   16.39    4.65
  -6  -1  -8   23.71    5.13
   6   1   9   18.87    5.00
  -6  -1  -9   29.51    5.66
  -6  -1 -10  151.90   11.42
   6   1  10  161.61   13.06
  -6  -1 -11   53.96    7.65
   6   1  11   35.73    6.46
  -6  -1 -11   47.13    6.61
  -6  -1 -12  452.96   22.82
   6   1  12  459.90   23.15
  -6  -1 -12  430.15   19.75
  -6  -1 -13    6.55    4.17
   6   1  13    2.24    3.74
  -6  -1 -13   13.70    4.48
  -6  -1 -14   32.00    7.05
   6   1  14   11.59    4.47
  -6  -1 -14   13.10    4.09
  -6  -1 -15   32.46    7.92
   6   1  15   32.22    7.52
  -6  -1 -16  165.99   15.88
   6   1  16  176.78   16.39
  -6  -1 -17   35.25    8.41
   6   1  17   50.63    9.20
  -6  -2  16   28.18    8.03
  -6  -2  16   31.89    8.45
  -6  -2  15   67.30   11.93
  -6  -2  15   58.85    9.96
  -6  -2  15   71.01   10.99
   6   2 -15   73.04   12.48
  -6  -2  14   14.74    5.65
  -6  -2  14   30.94    8.07
  -6  -2  14    9.33    5.09
   6   2 -14   20.37    6.31
  -6  -2  13   39.32    8.47
  -6  -2  13   28.03    7.19
   6   2 -13   49.71    9.60
  -6  -2  13   32.72    7.60
  -6  -2  12  612.33   30.91
  -6  -2  12  537.14   28.29
   6   2 -12  571.56   30.45
  -6  -2  11  341.23   22.10
  -6  -2  11  304.36   20.45
   6   2 -11  392.42   24.19
   6   2 -11  361.30   23.18
  -6  -2  10  808.35   34.29
   6   2 -10  823.68   35.12
   6   2 -10  795.51   35.22
  -6  -2   9  386.97   22.83
  -6  -2   9  372.88   17.24
  -6  -2   9  396.56   18.02
  -6  -2   9  394.08   17.82
   6   2  -9  435.44   24.14
   6   2  -9  366.66   22.78
  -6  -2   8   11.02    3.43
   6   2  -8   12.68    5.15
  -6  -2   8   18.48    5.53
  -6  -2   8   14.01    3.23
  -6  -2   8   12.55    3.96
   6   2  -8   10.83    5.17
   6   2  -7   40.72    7.29
  -6  -2   7   32.94    6.65
  -6  -2   7   44.83    5.64
  -6  -2   7   43.48    6.01
   6   2  -7   59.45    8.66
  -6  -2   7   45.48    5.23
  -6  -2   6  193.75   14.43
  -6  -2   6  182.64   12.58
  -6  -2   6  209.51   11.49
  -6  -2   6  202.11   10.12
   6   2  -6  168.68   13.24
   6   2  -6  215.35   15.97
  -6  -2   5  418.34   20.93
  -6  -2   5  381.92   18.68
  -6  -2   5  425.65   16.89
  -6  -2   5  428.11   14.09
   6   2  -5  408.69   19.98
   6   2  -5  450.38   22.81
  -6  -2   4  332.74   18.18
  -6  -2   4  322.07   17.22
  -6  -2   4  319.99   14.43
  -6  -2   4  341.06   10.65
   6   2  -4  301.72   16.27
   6   2  -4  340.92   19.70
   6   2  -3    6.69    3.59
  -6  -2   3   10.63    4.02
  -6  -2   3   10.49    3.18
  -6  -2   3    5.53    3.82
  -6  -2   3    6.50    1.05
   6   2  -3    6.99    3.16
   6   2  -2  335.36   19.08
  -6  -2   2  325.52   17.42
  -6  -2   2  312.36   17.17
   6   2  -2  338.78   13.61
  -6  -2   2  322.75   14.22
   6   2  -2  345.93   15.04
   6   2  -1    0.99    3.45
   6   2  -1    2.80    2.30
  -6  -2   1    3.14    2.69
  -6  -2   1    2.33    2.60
  -6  -2   1    1.42    3.38
   6   2  -1    3.38    2.42
   6   2   0 2351.37   56.80
   6   2   0 2335.15   48.83
  -6  -2   0 2290.40   56.54
  -6  -2   0 2406.14   50.39
   6   2   0 2337.05   46.46
   6   2   1   11.05    4.15
  -6  -2  -1   23.26    4.38
  -6  -2  -1   23.79    5.90
   6   2   2   10.18    3.53
  -6  -2  -2   19.29    4.75
   6   2   2   15.19    1.89
   6   2   3   15.38    4.26
  -6  -2  -3    9.66    3.87
   6   2   4   92.34    8.02
  -6  -2  -4   92.43    8.95
   6   2   5  167.68   11.58
  -6  -2  -5  184.29   12.49
  -6  -2  -6 1385.35   38.75
   6   2   6 1427.36   37.32
   6   2   7   20.56    4.75
  -6  -2  -7   14.79    4.30
   6   2   8    8.42    4.17
  -6  -2  -8    4.58    3.11
  -6  -2  -9  262.76   15.00
   6   2   9  269.71   15.89
  -6  -2 -10  165.11   12.28
  -6  -2 -10  159.56   11.59
   6   2  10  159.64   12.90
  -6  -2 -11   84.47    9.14
  -6  -2 -11   90.56    8.72
   6   2  11   93.62   10.26
  -6  -2 -12  366.37   19.48
  -6  -2 -12  311.22   16.62
   6   2  12  341.71   18.97
  -6  -2 -13   92.64   10.59
   6   2  13   87.49   10.03
  -6  -2 -13   90.57    9.16
  -6  -2 -14  130.49   12.67
  -6  -2 -14  125.58   10.56
   6   2  14  137.03   12.49
  -6  -2 -15  121.66   12.70
  -6  -2 -15  106.73    9.95
   6   2  15  112.06   12.96
  -6  -2 -16   36.06    7.82
   6   2  16   36.32    7.55
  -6  -2 -17    5.70    4.92
   6   2  17    4.47    4.78
  -6  -3  16   34.74    7.73
  -6  -3  16   42.31    8.79
  -6  -3  15  104.13   12.93
  -6  -3  15  128.41   14.30
  -6  -3  14  143.46   15.99
  -6  -3  14  110.98   13.06
  -6  -3  14  137.52   14.10
   6   3 -14  134.39   16.13
  -6  -3  13   64.16   10.38
  -6  -3  13   57.78    9.60
  -6  -3  13   77.02   10.11
   6   3 -13   94.35   13.20
  -6  -3  12  166.88   15.70
  -6  -3  12  175.26   15.15
   6   3 -12  190.24   17.79
  -6  -3  12  162.44   15.09
  -6  -3  11   44.84    7.99
  -6  -3  11   36.35    7.53
  -6  -3  11   44.25    7.75
   6   3 -11   43.97    8.72
  -6  -3  11   39.59    6.94
   6   3 -10   59.78    9.76
  -6  -3  10   84.66   10.54
  -6  -3  10   85.09    8.89
  -6  -3  10   67.31    8.83
   6   3 -10   60.69    9.03
   6   3 -10   75.42   10.40
   6   3  -9   37.33    7.91
   6   3  -9   56.31    8.83
  -6  -3   9   45.53    7.80
   6   3  -9   41.92    8.05
  -6  -3   9   45.62    6.53
  -6  -3   8  237.01   16.58
   6   3  -8  240.98   17.56
  -6  -3   8  227.39   11.99
  -6  -3   8  254.88   14.36
   6   3  -8  210.79   16.16
   6   3  -8  221.68   16.64
   6   3  -7    1.72    4.06
   6   3  -7    0.10    4.24
  -6  -3   7    1.54    3.08
  -6  -3   7    1.44    1.63
  -6  -3   7   -0.08    2.61
   6   3  -7    1.59    4.26
  -6  -3   7    1.17    2.60
   6   3  -6  774.59   31.43
  -6  -3   6  690.25   28.55
  -6  -3   6  728.18   24.93
  -6  -3   6  814.09   21.75
  -6  -3   6  836.26   25.65
   6   3  -6  760.32   29.45
   6   3  -6  807.59   32.29
   6   3  -5  300.14   18.35
  -6  -3   5  248.49   15.93
  -6  -3   5  268.83   14.18
  -6  -3   5  285.00   11.46
  -6  -3   5  308.71   13.85
   6   3  -5  306.21   17.10
   6   3  -5  344.58   20.04
   6   3  -4  144.59   12.82
  -6  -3   4  135.68   11.30
  -6  -3   4  144.22   10.60
  -6  -3   4  140.93    7.59
  -6  -3   4  147.27    8.68
   6   3  -4  154.71   11.20
   6   3  -4  166.10   13.33
  -6  -3   3  900.13   30.41
  -6  -3   3  836.97   27.66
  -6  -3   3  842.96   21.67
  -6  -3   3  901.70   22.83
   6   3  -3  845.21   26.86
   6   3  -3  921.32   32.85
  -6  -3   2  789.46   27.80
   6   3  -2  749.63   25.24
  -6  -3   2  739.03   25.77
  -6  -3   2  757.59   19.92
  -6  -3   2  822.93   20.05
   6   3  -2  754.37   29.33
   6   3  -1  219.65   14.89
  -6  -3   1  244.97   14.05
   6   3  -1  242.44   12.95
  -6  -3   1  253.77   14.26
   6   3  -1  231.59   10.74
  -6  -3   1  253.87   10.19
   6   3   0    6.68    3.78
   6   3   0    6.33    2.94
   6   3   0    6.56    2.28
  -6  -3   0   10.06    3.59
   6   3   0    7.50    1.64
   6   3   1  890.21   28.55
   6   3   1  872.28   26.53
  -6  -3  -1  817.22   27.55
   6   3   1  867.28   19.74
   6   3   2   33.36    4.97
   6   3   2   46.74    3.76
  -6  -3  -2   50.43    6.68
   6   3   3   18.53    4.06
  -6  -3  -3   32.95    5.61
   6   3   3   24.72    3.21
   6   3   4 5935.38  106.04
  -6  -3  -4 5736.04  108.36
   6   3   4 5519.10  100.28
   6   3   5  694.98   23.24
  -6  -3  -5  715.59   24.76
   6   3   6   10.88    3.14
  -6  -3  -6    5.59    3.23
  -6  -3  -7  258.42   14.44
   6   3   7  286.61   14.36
  -6  -3  -8  395.49   17.23
  -6  -3  -8  365.48   17.38
   6   3   8  411.82   18.53
  -6  -3  -9    9.05    3.41
   6   3   9    6.08    3.22
  -6  -3  -9   13.10    3.92
  -6  -3 -10 1353.80   38.88
  -6  -3 -10 1335.34   38.27
   6   3  10 1493.13   41.07
  -6  -3 -11  826.66   28.82
  -6  -3 -11  764.03   27.19
   6   3  11  851.53   29.48
  -6  -3 -12  375.92   19.41
  -6  -3 -12  372.30   18.05
   6   3  12  369.98   20.02
  -6  -3 -13  231.26   16.27
  -6  -3 -13  239.11   14.51
   6   3  13  238.19   16.23
  -6  -3 -14    1.31    3.49
   6   3  14    2.41    4.62
  -6  -3 -14   13.84    4.60
  -6  -3 -15   35.34    7.37
   6   3  15   33.23    6.76
  -6  -3 -15   39.89    6.89
  -6  -3 -16  181.98   16.42
  -6  -3 -16  183.54   13.40
   6   3  16  185.89   15.70
  -6  -3 -17   95.91   12.21
   6   3  17   94.07   11.37
  -6  -3 -18  224.23   18.71
   6   4 -15   11.97    5.61
  -6  -4  15    8.62    5.09
  -6  -4  14    7.97    4.27
   6   4 -14    6.59    5.70
  -6  -4  14    3.80    4.86
  -6  -4  14   16.69    5.60
  -6  -4  13  129.92   14.06
   6   4 -13  139.25   15.21
  -6  -4  13  113.92   13.21
  -6  -4  13  143.19   13.34
  -6  -4  12  931.82   37.97
   6   4 -12  906.94   38.31
  -6  -4  12  857.61   36.71
  -6  -4  12  845.05   33.47
  -6  -4  12  910.67   35.84
   6   4 -11   28.71    7.82
  -6  -4  11   27.69    7.30
  -6  -4  11   21.58    6.44
  -6  -4  11   14.98    5.24
  -6  -4  11   20.79    5.97
   6   4 -10   37.29    7.75
  -6  -4  10   36.15    7.19
  -6  -4  10   25.69    6.35
  -6  -4  10   30.21    6.27
  -6  -4  10   31.15    6.49
   6   4  -9   86.62   10.83
  -6  -4   9  103.83   11.21
   6   4  -9   80.45   10.57
  -6  -4   9   93.68    9.73
  -6  -4   9  106.49   10.53
  -6  -4   9   99.69   11.12
   6   4  -8    4.87    3.70
  -6  -4   8    2.42    3.91
   6   4  -8    3.78    4.05
  -6  -4   8   15.49    5.27
  -6  -4   8    2.50    3.68
   6   4  -7   60.04    8.79
   6   4  -7   77.08    9.87
  -6  -4   7   71.53    8.97
  -6  -4   7   60.61    5.69
  -6  -4   7   56.70    7.49
  -6  -4   6  588.19   25.19
   6   4  -6  628.11   27.01
  -6  -4   6  608.86   19.87
  -6  -4   6  647.08   24.63
   6   4  -6  567.39   26.19
  -6  -4   5  369.27   19.36
   6   4  -5  392.37   20.55
  -6  -4   5  378.97   15.73
  -6  -4   5  433.69   18.97
   6   4  -5  411.60   21.62
  -6  -4   4  385.02   13.96
   6   4  -4  416.82   20.86
  -6  -4   4  389.80   19.12
  -6  -4   4  399.83   16.21
  -6  -4   4  443.66   18.40
   6   4  -4  412.04   21.07
   6   4  -3   74.84    9.14
  -6  -4   3   50.74    4.62
   6   4  -3   56.22    7.64
  -6  -4   3   52.49    7.06
  -6  -4   3   60.96    6.50
  -6  -4   3   56.86    6.15
   6   4  -2  890.25   31.10
  -6  -4   2  795.99   22.05
  -6  -4   2  911.44   29.58
  -6  -4   2  914.23   27.05
  -6  -4   2  937.92   26.48
   6   4  -2  979.83   33.04
   6   4  -1  184.72   13.46
   6   4  -1  198.09   13.31
  -6  -4   1  171.21   11.64
   6   4  -1  186.42   12.84
  -6  -4   1  167.28   10.76
   6   4  -1  178.46    7.68
  -6  -4   1  179.22   10.12
   6   4  -1  184.93    9.05
   6   4   0   64.33    7.67
   6   4   0   62.92    7.54
   6   4   0   60.85    7.26
  -6  -4   0   61.31    6.73
  -6  -4   0   54.80    6.20
   6   4   0   62.18    4.34
   6   4   0   62.29    5.05
   6   4   1  272.87   14.83
   6   4   1  280.27   15.92
   6   4   1  246.80   14.76
  -6  -4  -1  275.51   14.01
   6   4   1  287.45   10.34
   6   4   1  268.70   11.00
   6   4   2  366.36   16.42
   6   4   2  316.84   17.04
   6   4   2  383.34   18.19
  -6  -4  -2  337.57   15.64
   6   4   2  350.13   13.03
  -6  -4  -2  373.40   11.63
   6   4   3  228.62   12.63
   6   4   3  245.88   14.55
  -6  -4  -3  209.55   12.34
  -6  -4  -3  236.19    8.13
   6   4   4  599.61   21.13
  -6  -4  -4  608.22   22.01
  -6  -4  -4  585.45   13.62
  -6  -4  -5    1.55    2.08
   6   4   5    7.32    3.25
  -6  -4  -5    1.42    0.79
  -6  -4  -5    8.00    3.60
  -6  -4  -6  190.29   10.21
   6   4   6  212.82   11.64
  -6  -4  -6  184.89   11.89
   6   4   6  175.57   10.95
  -6  -4  -7  355.78   14.66
  -6  -4  -7  358.29   16.84
   6   4   7  377.27   16.27
  -6  -4  -8  995.67   27.05
   6   4   8  964.38   28.62
  -6  -4  -8  937.43   28.96
  -6  -4  -9  128.83   10.01
  -6  -4  -9  139.93   10.60
   6   4   9  163.01   11.31
  -6  -4  -9  115.51    5.19
  -6  -4 -10  179.56   11.79
  -6  -4 -10  172.76   11.78
   6   4  10  148.84   11.65
  -6  -4 -11  166.46   12.13
  -6  -4 -11  161.35   11.97
   6   4  11  179.28   13.07
  -6  -4 -12   46.63    7.36
   6   4  12   45.29    6.86
  -6  -4 -12   41.46    6.27
  -6  -4 -13   43.97    7.24
   6   4  13   37.64    6.54
  -6  -4 -13   40.11    6.52
  -6  -4 -14  187.70   14.44
  -6  -4 -14  178.10   13.17
   6   4  14  182.78   14.01
  -6  -4 -15   24.68    5.44
  -6  -4 -15   25.11    6.12
   6   4  15   16.07    5.39
  -6  -4 -16  206.57   16.37
  -6  -4 -16  194.00   13.92
   6   4  16  217.58   16.14
  -6  -4 -17   47.50    7.45
  -6  -4 -17   43.65    8.57
   6   4  17   42.91    7.80
  -6  -4 -18  116.39   13.50
   6   4  18  115.74   12.74
   6   5 -15   83.40   13.31
   6   5 -14  465.47   28.63
  -6  -5  14  479.81   28.23
   6   5 -13   92.10   12.62
  -6  -5  13  122.67   14.16
  -6  -5  13  120.40   13.97
  -6  -5  12   13.66    5.67
   6   5 -12   11.35    5.71
  -6  -5  12    8.52    5.61
   6   5 -11   28.51    7.19
  -6  -5  11   28.08    6.71
  -6  -5  11   31.10    5.80
  -6  -5  11   22.68    6.38
  -6  -5  10   10.50    4.95
   6   5 -10   14.04    5.71
  -6  -5  10   22.26    5.28
  -6  -5  10   27.12    6.92
  -6  -5   9   64.13    8.96
   6   5  -9   37.93    7.61
  -6  -5   9   44.91    6.80
  -6  -5   9   43.05    7.93
  -6  -5   9   40.38    7.56
  -6  -5   8 1721.84   49.39
  -6  -5   8 1641.74   50.44
   6   5  -8 1667.60   50.58
  -6  -5   8 1623.00   44.24
  -6  -5   8 1816.36   51.72
   6   5  -8 1625.38   48.61
   6   5  -7   20.09    5.59
   6   5  -7   18.70    5.68
  -6  -5   7   19.07    6.19
  -6  -5   7   18.16    5.63
  -6  -5   7   17.80    4.59
  -6  -5   7   28.26    6.62
   6   5  -6   79.29    9.32
  -6  -5   6   98.93    9.76
   6   5  -6   83.33    9.54
  -6  -5   6   83.85    9.45
  -6  -5   6   95.23    6.90
  -6  -5   6  102.40   10.75
  -6  -5   5  134.66   10.90
   6   5  -5  141.27   11.93
  -6  -5   5  129.03    8.28
  -6  -5   5  149.74   12.38
  -6  -5   5  109.56   10.55
   6   5  -5  142.60   12.12
   6   5  -4    9.34    4.40
  -6  -5   4   13.97    4.48
   6   5  -4    7.45    3.64
  -6  -5   4    8.29    3.56
  -6  -5   4    6.51    3.55
  -6  -5   4    8.35    2.65
  -6  -5   3  147.93   11.22
   6   5  -3  146.68   11.76
  -6  -5   3  148.95    9.50
  -6  -5   3  146.64   11.81
  -6  -5   3  164.89   12.33
   6   5  -3  179.07   13.23
   6   5  -2  798.49   26.49
  -6  -5   2  806.12   25.14
  -6  -5   2  775.98   22.10
  -6  -5   2  760.19   25.87
  -6  -5   2  789.97   25.80
   6   5  -2  807.21   27.83
   6   5  -1  218.40   13.55
  -6  -5   1  238.10   13.12
   6   5  -1  213.27   14.94
  -6  -5   1  218.02   11.55
  -6  -5   1  224.59   13.04
   6   5  -1  217.02   14.24
   6   5   0   95.30    9.73
   6   5   0  118.25   10.01
  -6  -5   0  105.08    4.71
  -6  -5   0  134.42    9.42
   6   5   0  107.51   10.82
   6   5   0  103.19    4.47
  -6  -5   0  111.90    8.59
  -6  -5   0  131.76    9.93
   6   5   1  573.87   22.58
   6   5   1  618.53   22.98
   6   5   1  608.56   25.47
  -6  -5  -1  590.83   21.05
   6   5   1  621.90   14.47
   6   5   2 1333.97   36.79
  -6  -5  -2 1342.43   27.32
   6   5   2 1403.63   38.22
   6   5   2 1415.62   42.34
  -6  -5  -2 1399.89   36.70
   6   5   2 1435.55   29.18
   6   5   3  172.34   10.82
  -6  -5  -3  186.65    7.67
   6   5   3  184.83   10.32
   6   5   3  175.94   11.82
   6   5   3  191.58   14.20
  -6  -5  -3  199.87   11.80
   6   5   4  653.70   21.76
  -6  -5  -4  638.23   17.42
   6   5   4  620.80   23.50
   6   5   4  608.59   19.70
   6   5   4  643.65   26.99
  -6  -5  -4  671.88   23.41
   6   5   5  242.69   12.33
  -6  -5  -5  253.36   10.66
   6   5   5  260.33   14.52
   6   5   5  232.02   10.39
  -6  -5  -5  242.03   13.50
   6   5   6   56.07    6.04
  -6  -5  -6   48.58    5.04
   6   5   6   51.69    5.95
  -6  -5  -6   53.53    6.55
  -6  -5  -7  240.92   11.72
   6   5   7  240.83   12.53
  -6  -5  -7  256.29   14.42
  -6  -5  -7  228.68   10.22
  -6  -5  -8  248.97   12.74
  -6  -5  -8  275.25   15.12
   6   5   8  255.88   13.76
  -6  -5  -8  262.88   10.29
  -6  -5  -9  364.54   16.66
  -6  -5  -9  367.31   17.71
   6   5   9  353.82   16.80
  -6  -5  -9  344.86   11.21
  -6  -5 -10 1559.56   41.38
  -6  -5 -10 1580.27   43.42
   6   5  10 1643.45   42.67
  -6  -5 -11   43.13    6.25
   6   5  11   39.26    6.27
  -6  -5 -11   40.62    6.73
  -6  -5 -12  128.22   11.09
  -6  -5 -12  135.95   11.42
   6   5  12  127.97   11.00
  -6  -5 -13  143.95   12.05
  -6  -5 -13  145.80   11.78
   6   5  13  154.74   12.17
  -6  -5 -14   14.34    5.08
  -6  -5 -14   13.12    4.81
   6   5  14   22.33    5.32
  -6  -5 -15  159.45   13.81
  -6  -5 -15  159.80   12.70
   6   5  15  153.39   13.50
  -6  -5 -16  509.96   25.63
  -6  -5 -16  463.34   22.78
   6   5  16  452.07   23.85
  -6  -5 -17    4.93    4.12
  -6  -5 -17    1.13    3.79
   6   5  17   -4.57    4.57
  -6  -5 -18   29.16    6.20
  -6  -5 -18   27.41    7.03
   6   5  18   27.23    7.19
   6   6 -13   24.24    8.19
  -6  -6  13   19.07    6.79
  -6  -6  13   22.95    7.51
   6   6 -12   92.26   12.22
  -6  -6  12   88.67   13.05
  -6  -6  12  110.79   12.98
   6   6 -11    5.41    4.57
  -6  -6  11    6.84    4.64
  -6  -6  11   16.03    7.27
   6   6 -10  116.85   13.05
  -6  -6  10  113.10   12.89
  -6  -6  10  121.78   13.57
   6   6  -9  117.43   12.49
  -6  -6   9   96.58   11.37
  -6  -6   9   79.40   11.29
   6   6  -8  220.39   16.44
  -6  -6   8  189.93   15.61
  -6  -6   8  220.09   17.86
   6   6  -7  283.76   18.20
  -6  -6   7  273.99   18.07
  -6  -6   7  271.15   19.07
  -6  -6   6   96.52    9.60
  -6  -6   6   93.38   10.19
   6   6  -6   87.30   10.28
  -6  -6   6   96.76    7.67
  -6  -6   6  116.82   12.52
   6   6  -6   99.80    9.74
  -6  -6   5   44.57    4.99
   6   6  -5   43.41    7.09
  -6  -6   5   42.26    7.15
   6   6  -5   43.13    6.92
  -6  -6   5   41.93    6.40
  -6  -6   5   52.63    8.68
  -6  -6   4  565.80   22.79
   6   6  -4  591.70   25.17
  -6  -6   4  574.78   25.11
  -6  -6   4  583.14   19.84
  -6  -6   4  662.62   28.46
   6   6  -4  557.58   23.61
  -6  -6   3  198.12   14.10
  -6  -6   3  167.23   11.80
   6   6  -3  196.46   13.76
  -6  -6   3  214.57   11.45
  -6  -6   3  220.09   15.75
   6   6  -3  200.49   13.76
  -6  -6   2   92.71    9.51
  -6  -6   2   78.18    8.01
   6   6  -2   91.01    9.30
  -6  -6   2   97.16    7.87
  -6  -6   2   91.55    9.98
   6   6  -2   81.23    8.69
   6   6  -1   14.69    4.15
   6   6  -1   19.81    4.91
  -6  -6   1   18.46    4.30
   6   6  -1   21.37    6.79
  -6  -6   1   16.00    4.33
  -6  -6   1   17.58    5.04
  -6  -6   1   19.73    4.52
  -6  -6   0  500.23   20.68
   6   6   0  495.64   21.25
  -6  -6   0  508.76   18.79
   6   6   0  467.21   25.06
  -6  -6   0  516.47   19.59
  -6  -6   0  519.66   23.37
   6   6   0  497.82   22.05
   6   6   1  296.06   16.13
  -6  -6  -1  305.18   15.48
   6   6   1  291.08   15.65
   6   6   1  308.95   19.76
   6   6   1  295.21    8.27
  -6  -6  -1  324.45   15.45
  -6  -6  -1  297.11   17.42
   6   6   2  577.84   22.15
  -6  -6  -2  584.94   21.48
   6   6   2  576.38   22.40
   6   6   2  567.75   27.36
  -6  -6  -2  616.50   22.46
   6   6   2  608.45   15.12
   6   6   3   10.54    2.95
   6   6   3   14.24    3.88
  -6  -6  -3    9.13    1.62
   6   6   3    5.49    3.86
  -6  -6  -3   13.16    3.35
  -6  -6  -3    6.58    3.62
   6   6   4    4.18    3.19
  -6  -6  -4    6.31    1.81
   6   6   4   10.07    3.42
   6   6   4   -0.22    4.68
  -6  -6  -4    8.41    2.60
  -6  -6  -4    9.93    3.29
   6   6   5  955.16   27.54
  -6  -6  -5 1016.14   24.38
   6   6   5  950.98   29.33
  -6  -6  -5  998.15   27.31
   6   6   5  971.94   37.01
  -6  -6  -5  986.78   31.20
   6   6   6  788.20   24.07
  -6  -6  -6  804.89   21.93
   6   6   6  753.26   25.20
  -6  -6  -6  763.87   22.27
   6   6   6  760.75   32.54
  -6  -6  -6  742.96   26.55
   6   6   6  751.96   22.90
  -6  -6  -7  580.54   19.24
   6   6   7  570.86   21.60
  -6  -6  -7  583.10   17.85
  -6  -6  -7  568.15   23.04
   6   6   7  566.35   19.78
  -6  -6  -8 1010.89   28.90
  -6  -6  -8 1034.90   33.29
  -6  -6  -8 1048.42   25.03
   6   6   8 1026.76   29.57
  -6  -6  -9  573.07   21.02
  -6  -6  -9  617.20   24.50
   6   6   9  560.63   21.44
  -6  -6 -10    5.28    2.90
  -6  -6 -10    6.21    3.78
   6   6  10    5.37    2.97
  -6  -6 -11  697.07   25.65
  -6  -6 -11  671.79   26.37
   6   6  11  697.27   25.50
  -6  -6 -12   16.44    5.15
  -6  -6 -12   10.45    4.24
   6   6  12   11.84    4.35
  -6  -6 -13   26.68    6.30
  -6  -6 -13   24.56    5.53
   6   6  13   24.03    5.45
  -6  -6 -14 1664.13   48.74
  -6  -6 -14 1654.67   47.91
   6   6  14 1748.08   47.96
  -6  -6 -15   20.46    5.80
  -6  -6 -15   31.56    6.74
   6   6  15   27.01    6.31
  -6  -6 -16  182.14   15.53
  -6  -6 -16  189.84   14.76
   6   6  16  192.98   15.01
  -6  -6 -17   90.30   10.39
  -6  -6 -17   85.30   11.01
   6   6  17   81.21   10.41
  -6  -6 -18   27.52    6.30
  -6  -6 -18   37.84    7.81
   6   6  18   39.74    8.21
  -6  -7  13   21.62    8.15
   6   7 -12  120.03   14.56
  -6  -7  12  121.39   15.37
   6   7 -11  103.82   13.20
  -6  -7  11  116.33   14.58
   6   7 -10  608.30   30.51
  -6  -7  10  552.95   31.47
  -6  -7   9  186.34   16.03
   6   7  -9  166.01   15.34
  -6  -7   9  170.60   17.19
   6   7  -8 1099.41   40.55
  -6  -7   8 1068.20   44.08
  -6  -7   8 1086.71   40.25
  -6  -7   7   24.35    7.33
   6   7  -7   31.90    7.20
  -6  -7   7   29.78    8.37
   6   7  -6   18.13    6.09
  -6  -7   6   11.09    5.51
  -6  -7   6   13.72    6.46
  -6  -7   5  112.51    9.98
   6   7  -5   88.11   10.18
  -6  -7   5   96.44   10.33
  -6  -7   5  122.14   13.35
   6   7  -5  108.88    9.51
  -6  -7   4    7.64    2.77
   6   7  -4    5.48    3.00
  -6  -7   4   12.92    4.86
   6   7  -4   12.92    4.91
  -6  -7   4   14.41    3.94
  -6  -7   4   -4.41    4.51
  -6  -7   3  727.25   25.54
   6   7  -3  765.74   29.35
  -6  -7   3  747.77   29.08
  -6  -7   3  802.85   24.61
  -6  -7   3  742.19   33.06
   6   7  -3  718.96   25.69
  -6  -7   2  895.03   28.17
   6   7  -2  907.43   31.63
  -6  -7   2  914.98   31.67
  -6  -7   2  912.51   27.60
  -6  -7   2  954.25   37.07
   6   7  -2  859.70   29.09
  -6  -7   1    6.10    3.53
   6   7  -1   -0.01    2.53
   6   7  -1   -0.10    3.22
  -6  -7   1    5.89    3.58
  -6  -7   1    0.41    2.72
  -6  -7   1    5.71    4.64
   6   7   0  877.73   29.59
  -6  -7   0  803.62   24.15
   6   7   0  773.14   36.03
  -6  -7   0  789.32   28.37
  -6  -7   0  810.72   26.52
  -6  -7   0  816.00   33.26
   6   7   0  844.61   28.43
   6   7   1  362.76   18.14
  -6  -7  -1  341.45   12.13
   6   7   1  371.53   24.04
  -6  -7  -1  383.19   17.98
  -6  -7  -1  388.59   17.46
  -6  -7  -1  347.15   20.92
   6   7   1  386.92   18.62
   6   7   2   92.09    8.78
   6   7   2   87.14    8.47
   6   7   2   93.73   12.02
  -6  -7  -2   91.97    8.50
  -6  -7  -2   87.60    8.40
  -6  -7  -2   81.96   10.47
  -6  -7  -3   29.03    5.51
   6   7   3   34.20    5.24
  -6  -7  -3   33.92    5.05
   6   7   3   35.45    5.89
   6   7   3   25.54    7.13
   6   7   4  156.79    9.92
   6   7   4  159.61   10.94
  -6  -7  -4  161.04    7.33
   6   7   4  134.50   14.30
  -6  -7  -4  161.15   11.54
  -6  -7  -4  162.83   10.33
  -6  -7  -5   57.78    7.16
  -6  -7  -5   48.01    5.50
   6   7   5   41.68    5.25
  -6  -7  -5   51.41    4.55
   6   7   5   44.70    5.67
   6   7   5   56.48    9.45
   6   7   6  123.89    8.52
  -6  -7  -6  111.20    7.85
  -6  -7  -6  105.91    7.12
   6   7   6  108.07    8.65
   6   7   6  118.21   13.70
   6   7   6   95.16    7.03
  -6  -7  -6  112.43    9.82
   6   7   7  158.19    9.91
  -6  -7  -7  166.02    9.57
   6   7   7  154.32   10.18
   6   7   7  179.97   16.83
  -6  -7  -7  159.57   12.18
   6   7   7  151.75    9.26
  -6  -7  -8  746.48   23.51
   6   7   8  711.51   23.65
   6   7   8  746.44   35.11
  -6  -7  -8  718.52   27.35
   6   7   8  719.95   23.08
  -6  -7  -9  127.92    9.55
  -6  -7  -9  123.37   10.92
   6   7   9  123.74    9.36
  -6  -7 -10  350.20   16.93
  -6  -7 -10  376.60   19.66
   6   7  10  353.88   16.66
  -6  -7 -11   34.08    6.26
  -6  -7 -11   40.24    6.34
   6   7  11   33.46    5.70
  -6  -7 -12   26.11    6.16
  -6  -7 -12   26.20    5.77
   6   7  12   22.31    5.22
  -6  -7 -13  151.94   12.55
  -6  -7 -13  167.48   13.40
   6   7  13  149.93   11.95
  -6  -7 -14  428.26   22.27
  -6  -7 -14  450.34   22.87
   6   7  14  450.89   21.49
  -6  -7 -15   13.49    4.65
  -6  -7 -15   10.90    4.69
   6   7  15    2.64    3.55
  -6  -7 -16  112.61   12.15
  -6  -7 -16  140.59   12.91
   6   7  16  125.41   12.16
  -6  -7 -17   40.80    7.40
  -6  -7 -17   48.03    8.90
   6   7  17   43.20    7.75
  -6  -7 -18  181.73   16.87
  -6  -7 -18  198.81   15.88
   6   7  18  186.49   15.88
  -6  -7 -19   17.36    6.28
  -6  -8  11   94.67   14.07
   6   8 -10  235.60   19.51
  -6  -8  10  224.11   21.18
   6   8  -9  175.64   16.40
  -6  -8   9  180.92   18.83
   6   8  -8   14.05    5.96
  -6  -8   8    8.15    5.90
   6   8  -7  175.82   15.61
  -6  -8   7  178.67   18.02
   6   8  -6  408.48   23.35
  -6  -8   6  403.10   27.04
   6   8  -5   10.74    4.90
  -6  -8   5    2.82    6.31
   6   8  -4  742.12   30.42
  -6  -8   4  715.48   35.65
  -6  -8   3   55.44    6.32
   6   8  -3   58.34    8.50
  -6  -8   3   69.97   11.45
  -6  -8   2   44.19    5.90
   6   8  -2   47.25    7.28
  -6  -8   2   33.74    5.24
  -6  -8   2   39.43    6.75
  -6  -8   2   41.26    8.23
  -6  -8   1    2.37    2.67
  -6  -8   1   -0.13    3.03
   6   8  -1   -2.94    3.48
  -6  -8   1   -1.65    2.56
  -6  -8   1   -3.70    5.12
   6   8   0  112.32   10.26
   6   8   0   95.23   13.90
  -6  -8   0  108.83    9.65
  -6  -8   0  106.72    9.51
  -6  -8   0  102.72   12.79
   6   8   0   93.45    7.97
   6   8   1  673.92   25.94
   6   8   1  721.85   36.73
  -6  -8  -1  643.40   24.41
  -6  -8  -1  624.66   31.32
   6   8   1  674.60   23.23
   6   8   2  668.70   25.51
   6   8   2  638.26   34.10
  -6  -8  -2  670.31   25.06
  -6  -8  -2  695.34   32.83
   6   8   2  638.52   23.84
   6   8   3  231.39   13.54
   6   8   3  271.43   15.14
   6   8   3  259.77   21.48
  -6  -8  -3  258.83   15.36
   6   8   4  117.14    9.17
   6   8   4  128.08   10.28
   6   8   4  135.06   15.99
  -6  -8  -4  116.80   10.40
   6   8   5  165.85   10.25
   6   8   5  166.44   11.42
   6   8   5  214.03   19.68
  -6  -8  -5  174.62   12.67
   6   8   6  445.97   17.18
   6   8   6  462.10   19.21
   6   8   6  444.94   28.45
  -6  -8  -6  463.43   21.48
   6   8   7  751.48   23.46
   6   8   7  803.02   25.70
   6   8   7  805.04   39.09
   6   8   7  803.14   22.99
  -6  -8  -7  805.52   29.85
   6   8   8  634.88   21.29
   6   8   8  626.90   20.70
   6   8   8  641.89   22.36
  -6  -8  -8  684.03   23.69
   6   8   8  638.18   35.07
  -6  -8  -8  666.97   26.76
  -6  -8  -9   31.91    6.20
  -6  -8  -9   42.74    6.08
   6   8   9   29.00    8.89
   6   8   9   39.20    5.14
  -6  -8 -10  158.72   11.63
   6   8  10  122.62   15.83
  -6  -8 -10  128.84   11.90
   6   8  10  141.26   10.01
  -6  -8 -11  152.53   11.96
  -6  -8 -11  136.02   12.70
   6   8  11  154.85   10.95
  -6  -8 -12  608.75   25.67
  -6  -8 -12  590.36   26.79
   6   8  12  604.20   23.69
  -6  -8 -13   74.91    9.73
  -6  -8 -13   71.13    9.29
   6   8  13   77.63    8.50
  -6  -8 -14  979.29   36.24
  -6  -8 -14  976.82   36.26
   6   8  14  989.99   33.75
  -6  -8 -15    5.31    4.22
  -6  -8 -15    9.82    4.87
   6   8  15   -1.21    3.44
  -6  -8 -16   43.76    7.62
  -6  -8 -16   48.17    8.75
   6   8  16   37.19    7.26
  -6  -8 -17   35.18    7.45
  -6  -8 -17   24.93    7.09
   6   8  17   44.83    7.93
  -6  -8 -18  136.70   15.21
   6   8  18  144.68   14.06
  -6  -8 -18  137.29   13.83
  -6  -9   9   52.27   12.19
   6   9  -8   43.96    9.04
  -6  -9   8   28.44    9.12
   6   9  -7   17.76    6.53
  -6  -9   7   -2.71    6.10
   6   9  -6    4.00    4.75
  -6  -9   6    1.96    5.27
   6   9  -5  252.24   18.33
  -6  -9   5  229.93   22.08
   6   9  -4  313.11   20.05
  -6  -9   4  327.42   25.10
   6   9  -3   12.45    5.56
  -6  -9   3   13.08    6.59
   6   9  -2  677.18   29.05
  -6  -9   2  725.08   26.10
  -6  -9   2  720.95   37.40
   6   9  -1  150.73   12.96
  -6  -9   1  134.51   11.66
  -6  -9   1  129.18   10.70
  -6  -9   1  124.74   15.95
   6   9   0  117.01   11.21
  -6  -9   0  138.90   12.00
  -6  -9   0  114.30   10.19
  -6  -9   0  111.61   14.36
  -6  -9  -1    4.84    3.43
   6   9   1    5.25    4.31
  -6  -9  -1    3.62    3.12
   6   9   1    4.81    6.74
  -6  -9  -1   -2.96    6.40
   6   9   2  146.88   11.90
   6   9   2  122.75   16.47
  -6  -9  -2  144.12   12.43
  -6  -9  -2  125.53   10.74
  -6  -9  -2  118.43   14.81
   6   9   3  245.86   15.24
   6   9   3  267.27   23.67
  -6  -9  -3  262.76   15.88
  -6  -9  -3  252.95   21.07
   6   9   4   84.99    8.75
   6   9   4   76.99   13.07
  -6  -9  -4   97.84   10.01
  -6  -9  -5  458.47   21.89
   6   9   5  470.60   20.61
   6   9   5  463.11   31.50
   6   9   6  431.09   19.45
   6   9   6  460.23   31.35
  -6  -9  -6  439.36   21.66
   6   9   7  271.59   14.69
   6   9   7  265.94   24.23
  -6  -9  -7  280.91   17.33
   6   9   8  275.60   24.66
  -6  -9  -8  273.84   17.36
   6   9   9  148.68   18.18
  -6  -9  -9  129.59   12.39
   6   9  10  253.65   24.19
  -6  -9 -10  242.98   16.86
   6   9  11  260.06   25.00
  -6  -9 -11  272.46   18.04
   6   9  12  441.05   32.94
  -6  -9 -12  439.02   23.53
   6   9  12  457.30   19.99
  -6  -9 -13   12.24    4.78
   6   9  13   11.57    7.46
   6   9  13   17.87    4.64
  -6  -9 -14    5.26    3.95
  -6  -9 -14   16.38    5.87
   6   9  14    5.33    7.01
   6   9  14    9.24    4.20
  -6  -9 -15  127.05   13.31
   6   9  15  108.41   11.03
  -6  -9 -15  117.24   12.65
  -6  -9 -16  216.18   17.95
   6   9  16  221.55   15.94
  -6  -9 -16  213.71   17.26
  -6  -9 -17    9.09    5.45
  -6  -9 -17   10.55    5.64
   6   9  17    3.35    4.66
   6   9  18  425.60   24.06
  -6 -10   7   14.40   10.07
  -6 -10   6  548.45   35.75
   6  10  -5  440.62   25.52
  -6 -10   5  399.79   30.45
   6  10  -4  414.86   24.23
  -6 -10   4  423.41   31.06
   6  10  -3   60.33    9.50
  -6 -10   3   37.51   10.79
   6  10  -2  244.91   17.77
  -6 -10   2  218.42   22.04
   6  10  -1    8.21    4.89
  -6 -10   1   17.56    8.67
   6  10   0  344.42   20.17
  -6 -10   0  309.40   25.36
   6  10   1  146.76   13.08
  -6 -10  -1  146.63   13.49
  -6 -10  -1  127.75   16.44
   6  10   2 1226.64   39.90
   6  10   2 1195.64   56.54
  -6 -10  -2 1165.63   41.06
  -6 -10  -2 1206.18   39.11
  -6 -10  -2 1237.19   52.02
  -6 -10  -3   27.00    6.73
   6  10   3   21.53    6.04
  -6 -10  -3   20.45    5.54
   6  10   3   10.27    7.91
  -6 -10  -3   13.20    7.07
  -6 -10  -4   11.38    5.02
   6  10   4   17.31    5.17
  -6 -10  -4   19.91    5.78
   6  10   4    8.85    7.60
  -6 -10  -5    2.97    3.58
   6  10   5    7.14    3.86
  -6 -10  -5    3.42    3.73
   6  10   5    8.63    7.82
   6  10   6  155.85   11.87
   6  10   6  137.26   18.90
  -6 -10  -6  133.60   12.90
  -6 -10  -6  128.96   12.38
   6  10   7  250.14   14.86
   6  10   7  197.51   22.71
  -6 -10  -7  234.80   16.53
  -6 -10  -8   49.05    8.14
   6  10   8   82.65   15.34
  -6 -10  -9   30.79    6.67
   6  10   9   38.24   11.60
   6  10  10  321.56   29.56
  -6 -10 -10  307.83   19.97
  -6 -10 -11   39.33    7.96
   6  10  11   32.31   10.54
   6  10  12  740.78   45.84
  -6 -10 -12  731.86   32.55
  -6 -10 -13    8.16    4.58
   6  10  13   14.74   10.12
  -6 -10 -14   41.61    8.06
   6  10  14   36.53   11.38
  -6 -11   4   55.41   12.75
   6  11  -3   41.69    8.71
  -6 -11   3   30.04   10.24
   6  11  -2  103.69   12.34
  -6 -11   2   88.22   16.11
   6  11  -1   30.93    7.00
  -6 -11   1   30.48   10.08
   6  11   0  230.35   17.46
  -6 -11   0  213.37   22.72
   6  11   1   22.88    6.67
  -6 -11  -1   36.77   10.40
   6  11   2   -0.13    3.91
  -6 -11  -2    3.08    3.99
  -6 -11  -2   -0.62    6.24
   6  11   3   94.92   10.71
  -6 -11  -3  113.28   13.01
  -6 -11  -3  107.41   16.34
   6  11   4  331.33   19.88
   6  11   4  359.30   32.80
  -6 -11  -4  363.04   23.20
   6  11   5    3.37    4.59
  -6 -11  -5    4.96    4.95
   6  11   5    2.02    8.13
   6  11   6  353.87   19.68
   6  11   6  336.95   32.09
  -6 -11  -6  336.17   22.60
   6  11   7  140.61   21.32
  -6 -11  -7  162.70   15.53
  -6 -11  -8   13.53    5.94
   6  11   8   11.35    8.66
  -6 -11  -9   20.84    7.46
   6  11   9   11.42    8.75
   6  11  10  589.75   42.47
  -6 -11 -10  575.82   30.72
   6  11  11  479.57   38.40
  -6 -11 -11  505.15   29.12
  -6 -11 -12   48.99    9.74
   6  11  12   46.70   14.63
   6  12   1   82.24   11.23
   6  12   2   72.80   10.59
  -6 -12  -2   84.36   15.46
   6  12   3    4.97    4.02
  -6 -12  -3    4.06    4.70
   6  12   4    8.00    3.91
  -6 -12  -4   13.85    6.35
   6  12   5    7.44    4.59
  -6 -12  -5    6.34    4.59
  -6 -12  -6   25.44    7.45
  -6 -12  -7   81.85   11.87
  -6 -12  -8  342.25   24.57
   7  -5 -11   51.42   10.08
   7  -5 -11   42.21   10.78
   7  -5 -10   16.45    6.75
   7  -5 -10   35.89   10.46
   7  -5  -9   98.70   12.99
   7  -5  -9   93.79   15.14
   7  -5  -8   29.75    7.54
   7  -5  -8   26.45    8.93
  -7   5   8   41.46    9.98
   7  -5  -7    1.17    4.15
   7  -5  -7   -8.04    7.75
  -7   5   7    6.82    6.35
   7  -5  -6    4.45    5.21
   7  -5  -6    2.61    5.63
   7  -5  -5  120.68   16.53
  -7   5   5  117.53   15.15
   7  -5  -5  139.55   13.86
   7  -5  -4  151.07   18.37
  -7   5   4  160.15   16.98
   7  -5  -4  120.41   13.06
   7  -5  -3   49.42    9.09
   7  -5  -3   61.47   12.62
  -7   5   3   61.39   11.62
   7  -5  -2   24.63    6.59
   7  -5  -2   14.17    6.96
  -7   5   2   28.55    8.59
   7  -5  -1   -0.14    4.12
   7  -5  -1   -0.88    5.16
  -7   5   1    6.24    5.64
   7  -5   0   16.65    7.46
  -7   5   0    3.99    6.31
   7  -5   1  134.32   17.41
  -7   5  -1   77.27   13.45
   7  -5   2  329.88   27.17
  -7   5  -2  290.86   24.68
   7  -5   3   55.53   12.64
  -7   5  -3   27.42    8.72
   7  -5   4    7.65    6.70
  -7   5  -4   19.83    8.70
  -7   5  -5   32.31   10.74
  -7   5  -5   25.19    9.06
  -7   5  -6   29.11   11.94
  -7   5  -7   51.22   12.38
  -7   5  -8   82.46   15.00
   7  -4 -12   13.66    7.03
   7  -4 -11   -0.08    5.43
  -7   4  11    2.43    5.48
   7  -4 -11   -2.60    4.78
   7  -4 -10   33.12    8.07
   7  -4 -10   10.23    6.51
  -7   4  10   18.87    7.92
   7  -4  -9  115.45   13.79
   7  -4  -9  107.71   14.49
  -7   4   9  130.91   14.90
   7  -4  -8  106.66   12.57
   7  -4  -8   64.51   11.56
  -7   4   8   99.44   13.30
   7  -4  -7  170.81   18.38
  -7   4   7  208.89   18.33
   7  -4  -7  200.03   17.53
   7  -4  -6    7.52    4.84
   7  -4  -6    4.63    4.60
  -7   4   6    2.18    4.89
   7  -4  -5   -0.87    4.04
   7  -4  -5   -1.49    5.50
  -7   4   5    3.49    4.67
   7  -4  -4   15.65    5.41
   7  -4  -4    5.95    4.63
  -7   4   4    8.21    6.00
   7  -4  -3   -1.05    4.27
   7  -4  -3  -11.56    6.94
  -7   4   3    0.85    4.63
   7  -4  -2   63.94    9.54
   7  -4  -2   44.87   10.42
  -7   4   2   50.53   10.67
   7  -4  -1  177.63   18.64
  -7   4   1  213.89   19.64
   7  -4  -1  176.99   16.01
   7  -4   0  135.14   13.99
   7  -4   0  149.48   16.93
  -7   4   0  155.95   16.92
   7  -4   1  105.79   12.25
   7  -4   1   97.16   14.60
  -7   4  -1   91.21   13.33
   7  -4   2   12.64    6.13
   7  -4   2   11.71    7.48
  -7   4  -2    9.18    6.47
   7  -4   3    9.02    5.35
   7  -4   3    7.78    6.73
  -7   4  -3    3.35    5.60
   7  -4   4   23.71    6.63
   7  -4   4   15.14    7.94
  -7   4  -4   32.62    9.61
   7  -4   5   -1.72    4.17
  -7   4  -5   16.51    6.52
  -7   4  -5    6.10    6.63
   7  -4   6  220.45   16.54
  -7   4  -6  186.78   20.62
  -7   4  -6  203.06   19.09
   7  -4   7   98.16   11.17
  -7   4  -7   82.88   14.67
   7  -4   8   15.20    5.72
  -7   4  -8    5.71    5.80
   7  -4   9    0.82    3.90
  -7   4  -9    5.00    6.40
  -7   4 -11    5.22    4.59
  -7   3  13   28.94    8.43
   7  -3 -12   18.33    6.95
  -7   3  12   10.68    6.06
  -7   3  12   16.91    7.33
   7  -3 -12   23.41    7.34
  -7   3  11  226.32   19.44
  -7   3  11  212.90   18.90
   7  -3 -11  205.15   18.01
   7  -3 -11  226.99   19.61
   7  -3 -10  402.09   25.67
  -7   3  10  446.14   27.01
  -7   3  10  450.37   26.85
   7  -3 -10  360.58   23.57
   7  -3 -10  455.43   27.32
   7  -3  -9  137.07   15.37
  -7   3   9  167.21   15.94
   7  -3  -9  125.71   13.49
   7  -3  -9  166.72   16.12
   7  -3  -8    9.70    5.29
   7  -3  -8    1.77    4.21
  -7   3   8    3.38    4.70
   7  -3  -7   11.21    5.66
   7  -3  -7   11.17    5.80
  -7   3   7   16.46    6.98
   7  -3  -6    3.23    4.48
   7  -3  -6    9.20    6.30
  -7   3   6    4.53    4.41
   7  -3  -5   84.31   12.29
  -7   3   5   95.68   12.05
   7  -3  -5  118.05   12.76
   7  -3  -4   81.20   10.53
   7  -3  -4   75.58   11.68
  -7   3   4   88.78   12.17
   7  -3  -3  302.01   22.22
  -7   3   3  336.44   22.84
   7  -3  -3  323.15   20.84
   7  -3  -2    7.60    5.57
   7  -3  -2    8.76    5.75
  -7   3   2   21.13    7.29
   7  -3  -1    4.00    4.84
   7  -3  -1   -1.22    5.07
  -7   3   1   -4.78    6.14
   7  -3   0  108.64   12.84
   7  -3   0  115.47   14.87
  -7   3   0   91.45   12.82
   7  -3   1   90.64   11.26
   7  -3   1   81.02   12.80
  -7   3  -1   76.61   11.83
   7  -3   2   49.31    8.56
   7  -3   2   45.21    9.92
  -7   3  -2   48.59    9.50
   7  -3   3   16.99    5.59
   7  -3   3   14.39    8.51
  -7   3  -3    6.65    5.73
   7  -3   4   -0.34    4.64
  -7   3  -4    2.83    4.56
  -7   3  -4   11.19    6.53
   7  -3   5   17.74    5.28
  -7   3  -5   33.07    8.02
  -7   3  -5   33.68    9.86
   7  -3   6   10.64    4.57
  -7   3  -6   29.27    8.36
  -7   3  -6   21.42    7.52
   7  -3   7  475.36   23.27
  -7   3  -7  368.08   26.91
   7  -3   8   64.27    9.33
  -7   3  -8   62.18   11.32
   7  -3   9   11.92    5.16
  -7   3  -9   14.31    6.23
   7  -3  10   -2.05    4.22
  -7   3 -10    5.23    6.14
   7  -3  11    5.33    3.67
   7  -3  12    8.59    5.02
  -7   2  14   -7.75    7.47
  -7   2  13   44.90    9.69
  -7   2  13   21.90    6.80
   7  -2 -13   36.79    8.72
   7  -2 -12   58.98   10.68
  -7   2  12   29.63    7.97
  -7   2  12   44.76    9.79
   7  -2 -12   38.60    8.50
   7  -2 -11  114.44   14.21
  -7   2  11  111.23   13.57
  -7   2  11  124.99   13.83
   7  -2 -11   91.61   11.77
   7  -2 -10   30.80    8.25
  -7   2  10   41.23    8.66
  -7   2  10   23.41    7.85
   7  -2 -10   20.01    5.95
   7  -2  -9  152.95   14.08
  -7   2   9  118.61   13.82
  -7   2   9  168.77   15.61
   7  -2  -9  125.20   12.84
   7  -2  -9  148.34   15.11
   7  -2  -8   -4.40    5.27
   7  -2  -8    9.51    5.10
  -7   2   8   -2.19    4.20
  -7   2   8    0.19    4.01
   7  -2  -8   -2.55    4.94
   7  -2  -7   44.73    8.61
   7  -2  -7   37.98    7.87
  -7   2   7   40.51    8.24
  -7   2   7   49.87    8.72
   7  -2  -7   19.60    5.72
   7  -2  -6   53.87    9.06
   7  -2  -6   46.37    8.37
  -7   2   6   54.77    9.13
   7  -2  -5   22.97    6.90
   7  -2  -5   13.38    5.52
  -7   2   5   25.07    6.56
   7  -2  -4    6.93    5.32
   7  -2  -4    1.35    4.05
  -7   2   4   -5.37    4.99
   7  -2  -3   60.20    9.40
   7  -2  -3   51.64    9.10
  -7   2   3   57.47    9.53
   7  -2  -2  119.66   13.15
   7  -2  -2  128.47   13.93
  -7   2   2  128.06   14.00
   7  -2  -1  378.55   22.58
   7  -2  -1  350.25   22.72
  -7   2   1  351.08   22.81
   7  -2   0   34.01    7.43
   7  -2   0   30.52    7.97
  -7   2   0   29.20    7.70
   7  -2   1  136.18   13.43
   7  -2   1  109.00   13.95
  -7   2  -1  128.89   14.38
   7  -2   2  202.90   15.58
   7  -2   2  199.81   18.35
  -7   2  -2  175.97   16.13
   7  -2   3   58.85    8.33
  -7   2  -3   77.35   11.45
  -7   2  -3   73.36   12.24
   7  -2   4  123.87   12.21
  -7   2  -4  127.55   14.00
  -7   2  -4  116.82   14.82
   7  -2   5  388.02   20.11
  -7   2  -5  323.25   24.13
  -7   2  -5  353.93   22.72
   7  -2   6  394.60   20.40
  -7   2  -6  286.48   22.85
  -7   2  -6  372.32   23.30
   7  -2   7  114.94   11.22
  -7   2  -7   96.71   13.63
   7  -2   7  125.22   10.58
   7  -2   8   55.81    7.96
  -7   2  -8   43.74    9.47
   7  -2   8   41.46    6.73
   7  -2   9   30.14    6.82
  -7   2  -9   29.70    7.88
   7  -2   9   30.35    6.28
   7  -2  10   62.52    9.19
  -7   2 -10   52.12    9.62
   7  -2  10   45.79    8.28
   7  -2  11  304.29   19.98
  -7   2 -11  252.17   19.15
   7  -2  11  305.01   20.28
   7  -2  12  241.05   18.93
   7  -2  13   39.69    9.34
   7  -2  14    3.49    5.07
   7  -1 -14  107.25   13.67
  -7   1  13   19.64    7.57
   7  -1 -13   28.17    7.55
  -7   1  12  185.77   17.70
  -7   1  12  187.75   16.52
   7  -1 -12  184.13   16.39
   7  -1 -12  223.73   20.11
  -7   1  11  530.07   29.08
  -7   1  11  483.26   26.75
   7  -1 -11  493.21   26.35
   7  -1 -11  508.87   29.48
   7  -1 -10   86.54   12.12
  -7   1  10   99.05   12.69
  -7   1  10  108.89   12.06
   7  -1 -10   88.19   10.98
   7  -1  -9    4.19    4.88
   7  -1  -9    3.06    3.41
  -7   1   9    1.93    4.12
  -7   1   9    8.72    4.53
   7  -1  -9    7.11    4.45
   7  -1  -8   66.38   10.31
   7  -1  -8   58.33    8.22
  -7   1   8   75.03   10.68
  -7   1   8   82.98   10.81
   7  -1  -8   62.25    8.52
   7  -1  -7   22.57    6.20
   7  -1  -7   13.11    4.95
  -7   1   7   23.02    6.21
  -7   1   7   15.11    5.40
   7  -1  -7    9.50    4.45
   7  -1  -6   51.30    8.49
   7  -1  -6   27.96    5.90
  -7   1   6   42.31    8.10
  -7   1   6   36.62    6.80
   7  -1  -6   26.26    5.78
   7  -1  -5  980.38   35.82
  -7   1   5 1100.58   37.73
   7  -1  -5  916.83   32.23
   7  -1  -5 1149.56   40.43
   7  -1  -4  119.82   11.95
  -7   1   4  143.99   13.03
   7  -1  -4  112.29   12.27
   7  -1  -3   76.53   10.01
   7  -1  -3   73.92    9.70
  -7   1   3   90.30   10.95
   7  -1  -2    5.43    4.31
   7  -1  -2    1.32    3.24
  -7   1   2    1.36    4.55
   7  -1  -1    5.11    4.13
   7  -1  -1    9.86    5.33
  -7   1   1    6.79    3.99
   7  -1   0   -0.92    3.71
   7  -1   0   -0.01    4.03
  -7   1   0   -5.97    4.83
   7  -1   1  147.90   13.68
   7  -1   1  148.19   14.87
  -7   1  -1  145.24   15.25
  -7   1  -1  127.35   13.01
   7  -1   2  148.82   12.68
  -7   1  -2  140.55   15.05
  -7   1  -2  118.69   12.45
   7  -1   3  252.23   16.05
  -7   1  -3  222.03   18.66
  -7   1  -3  223.49   17.02
   7  -1   4   -8.38    4.40
  -7   1  -4    6.56    4.66
  -7   1  -4    2.97    5.34
   7  -1   4    4.68    2.45
   7  -1   5  324.10   18.62
  -7   1  -5  282.16   21.37
  -7   1  -5  331.52   20.46
   7  -1   5  320.13   14.29
   7  -1   6   -4.29    3.81
  -7   1  -6    3.64    4.75
   7  -1   6    1.82    2.38
   7  -1   7    3.74    3.56
  -7   1  -7    7.59    5.49
   7  -1   7    7.11    3.39
   7  -1   8   29.02    5.50
   7  -1   8   35.34    6.40
  -7   1  -8   48.99    9.06
   7  -1   9   16.59    4.95
   7  -1   9    6.89    3.36
  -7   1  -9   13.63    5.76
  -7   1 -10   34.88    8.03
  -7   1 -11  101.67   11.78
  -7   1 -12   13.97    5.02
  -7   1 -13   42.31    9.11
   7  -1  13   54.20    9.44
  -7   1 -14   36.23    8.48
   7  -1  14   39.72    8.56
  -7   0  14  109.34   15.06
   7   0 -14  109.02   13.65
  -7   0  13  417.86   27.51
   7   0 -13  397.70   24.88
  -7   0  12  165.76   16.93
   7   0 -12  140.37   14.66
   7   0 -12  173.70   17.45
  -7   0  11  107.58   13.23
  -7   0  11  109.30   11.86
   7   0 -11  119.59   13.09
   7   0 -11  132.09   15.22
  -7   0  10  251.86   19.63
  -7   0  10  265.96   17.03
  -7   0  10  276.74   18.43
   7   0 -10  279.92   19.09
   7   0 -10  306.84   21.98
   7   0  -9   45.16    9.19
  -7   0   9   54.54    9.46
  -7   0   9   49.37    8.01
   7   0  -9   53.17    8.74
   7   0  -8   62.43    9.79
  -7   0   8   40.78    8.10
   7   0  -8   49.39    6.69
  -7   0   8   49.39    7.61
   7   0  -8   58.72    8.42
   7   0  -7  777.83   28.25
  -7   0   7  776.14   33.42
  -7   0   7  848.17   30.93
   7   0  -7  791.67   30.71
   7   0  -7  874.66   35.76
   7   0  -6  415.03   20.30
  -7   0   6  434.92   23.57
  -7   0   6  449.91   21.58
   7   0  -6  408.67   20.76
   7   0  -6  400.32   23.14
   7   0  -5  213.72   14.54
  -7   0   5  229.18   16.81
  -7   0   5  229.05   15.54
   7   0  -5  203.67   13.75
   7   0  -5  239.02   17.41
   7   0  -4   24.46    6.72
  -7   0   4   23.38    6.27
   7   0  -4   21.16    5.40
  -7   0   4   22.56    5.38
   7   0  -4   11.66    4.16
   7   0  -3   41.78    7.99
  -7   0   3   44.61    8.52
   7   0  -3   41.52    7.17
  -7   0   3   53.19    7.78
   7   0  -3   38.05    5.93
   7   0  -2    2.56    4.24
   7   0  -2    9.34    4.52
  -7   0   2   11.04    4.88
  -7   0   2   11.62    4.91
   7   0  -2    8.96    3.01
   7   0  -1  943.79   36.23
  -7   0   1  990.43   37.51
  -7   0   1  967.77   34.66
   7   0  -1  938.19   27.74
   7   0   0  115.91   11.90
  -7   0   0  129.51   13.26
  -7   0   0  118.68   11.50
   7   0   0  109.49    7.99
   7   0   1   58.87    8.57
  -7   0  -1   54.06    8.32
  -7   0  -1   41.03    8.71
   7   0   2   -1.19    3.85
  -7   0  -2    3.93    3.43
  -7   0  -2    8.35    5.51
   7   0   3    9.39    3.78
  -7   0  -3   46.71    7.85
  -7   0  -3   36.78    8.51
   7   0   3   25.53    2.90
   7   0   4   83.96    9.09
  -7   0  -4   93.71   10.12
  -7   0  -4   78.57   11.17
   7   0   4   83.03    5.99
   7   0   5  323.88   18.08
  -7   0  -5  289.97   20.34
   7   0   5  311.14   13.21
   7   0   6   61.98    7.82
  -7   0  -6   41.65    8.37
   7   0   7   -0.65    3.62
  -7   0  -7   17.03    6.25
   7   0   8  287.63   16.82
  -7   0  -8  280.79   18.91
  -7   0  -9  202.43   15.93
  -7   0 -10  170.34   14.44
  -7   0 -11  122.11   11.97
   7   0  11  146.23   13.36
   7   0  12  104.25   12.77
  -7   0 -12   91.49   10.24
  -7   0 -13    6.31    4.65
   7   0  13   19.38    6.05
  -7   0 -13   10.09    4.31
  -7   0 -14   75.67   11.22
   7   0  14   84.89   11.40
  -7   0 -15    7.43    5.41
   7   0  15   25.33    7.19
  -7  -1  14   87.41   13.30
  -7  -1  14   76.05   12.72
   7   1 -14   74.05   11.33
  -7  -1  13  254.81   21.66
  -7  -1  13  254.15   21.32
   7   1 -13  253.96   20.42
  -7  -1  12   59.37   10.41
   7   1 -12   46.06    9.39
   7   1 -12   59.32   10.80
   7   1 -11   77.35   11.99
  -7  -1  11   72.22   11.18
   7   1 -11   67.89   10.28
   7   1 -10    5.17    5.08
  -7  -1  10   -7.53    5.48
   7   1 -10    1.00    4.54
   7   1  -9   -5.83    5.49
  -7  -1   9   -1.90    4.06
  -7  -1   9    2.48    3.69
  -7  -1   9   -0.11    3.07
   7   1  -9    3.65    4.02
   7   1  -8   -0.56    5.20
  -7  -1   8   -2.02    3.67
  -7  -1   8    5.10    3.09
  -7  -1   8    6.71    3.63
   7   1  -8    2.70    4.43
  -7  -1   7  747.34   31.77
  -7  -1   7  712.74   28.89
  -7  -1   7  751.46   27.40
   7   1  -7  755.93   30.09
   7   1  -7  802.99   34.14
  -7  -1   6  115.46   12.31
  -7  -1   6  127.51   11.97
  -7  -1   6  142.77   11.10
   7   1  -6  115.46   10.85
   7   1  -6  128.54   13.22
  -7  -1   5  274.72   18.11
  -7  -1   5  276.41   17.60
  -7  -1   5  280.27   15.69
   7   1  -5  273.39   16.15
   7   1  -5  293.46   19.12
   7   1  -4    4.28    4.30
  -7  -1   4    5.74    4.09
  -7  -1   4    0.94    2.69
  -7  -1   4    5.55    4.11
   7   1  -4    9.02    3.98
   7   1  -3   58.49    9.50
  -7  -1   3   59.28    8.26
  -7  -1   3   57.94    7.48
  -7  -1   3   63.00    9.19
   7   1  -3   68.54    7.26
   7   1  -2   21.21    5.98
  -7  -1   2   15.54    4.82
  -7  -1   2   20.87    5.76
   7   1  -2   30.91    5.22
   7   1  -1   17.08    5.10
   7   1  -1   32.66    3.32
  -7  -1   1   47.27    6.75
  -7  -1   1   42.02    7.89
   7   1  -1   28.20    4.58
   7   1   0  162.22   14.04
   7   1   0  164.77    8.23
  -7  -1   0  171.66   14.81
  -7  -1   0  156.23   12.17
   7   1   0  198.33   10.01
   7   1   1  326.55   18.63
  -7  -1  -1  303.50   19.79
  -7  -1  -1  300.29   16.82
   7   1   1  333.83   12.23
   7   1   2   72.63    8.54
  -7  -1  -2   64.46    7.93
  -7  -1  -2   62.78    9.90
   7   1   2   72.73    4.58
   7   1   3 1102.63   34.15
  -7  -1  -3 1048.19   37.35
  -7  -1  -3 1101.96   33.27
   7   1   3  983.71   20.10
   7   1   4   -1.75    2.99
  -7  -1  -4    5.86    4.89
   7   1   5   43.25    6.39
  -7  -1  -5   25.85    6.89
   7   1   6  113.02   10.40
  -7  -1  -6  105.52   11.32
   7   1   7    4.00    3.28
  -7  -1  -7    5.35    3.87
   7   1   8  225.34   14.32
  -7  -1  -8  176.74   14.39
  -7  -1  -9  589.98   26.36
   7   1   9  645.01   27.08
  -7  -1 -10  251.04   16.37
   7   1  10  268.93   17.84
  -7  -1 -11   91.20   10.15
   7   1  11   76.94   10.31
  -7  -1 -12  425.25   23.93
  -7  -1 -12  423.08   21.51
   7   1  12  515.60   25.10
  -7  -1 -13    3.17    4.66
   7   1  13    5.06    4.11
  -7  -1 -13   -1.16    3.18
  -7  -1 -14   17.59    6.42
   7   1  14    3.84    4.23
  -7  -1 -14    5.87    3.93
  -7  -1 -15  115.49   13.33
   7   1  15  123.16   13.46
  -7  -2  15   81.96   12.24
  -7  -2  15   93.43   13.33
  -7  -2  14  154.79   17.68
  -7  -2  14  156.24   16.29
  -7  -2  14  135.36   15.40
   7   2 -14  167.95   17.25
  -7  -2  13  576.95   32.59
  -7  -2  13  560.24   30.95
   7   2 -13  605.30   32.66
  -7  -2  12   14.93    6.32
  -7  -2  12    7.56    4.80
   7   2 -12   18.84    6.92
   7   2 -11   69.22   10.97
  -7  -2  11   79.04   11.37
   7   2 -11   97.05   12.66
   7   2 -10   96.46   12.54
  -7  -2  10   91.32   12.04
   7   2 -10   88.75   11.73
  -7  -2   9  201.51   17.62
  -7  -2   9  212.18   14.17
   7   2  -9  267.74   19.23
   7   2  -9  241.41   19.10
  -7  -2   8  552.04   27.65
  -7  -2   8  565.07   23.99
   7   2  -8  590.09   27.83
   7   2  -8  618.74   29.90
  -7  -2   7 1260.23   43.66
  -7  -2   7 1235.50   39.49
  -7  -2   7 1378.64   36.51
   7   2  -7 1361.09   43.61
   7   2  -7 1477.87   48.28
  -7  -2   6  163.24   13.76
  -7  -2   6  167.99   13.12
  -7  -2   6  181.60   11.43
   7   2  -6  159.56   13.19
   7   2  -6  175.73   14.98
   7   2  -5   61.75    9.19
  -7  -2   5   71.22    9.16
  -7  -2   5   67.01    7.08
  -7  -2   5   57.63    8.35
   7   2  -5   81.43    9.26
  -7  -2   4  790.26   30.95
  -7  -2   4  755.11   29.86
  -7  -2   4  778.63   25.89
   7   2  -4  808.00   28.51
   7   2  -4  810.56   32.41
  -7  -2   3  181.19   13.97
  -7  -2   3  174.59   14.19
  -7  -2   3  181.47   11.70
   7   2  -3  216.46   13.11
   7   2  -3  212.49   16.28
   7   2  -2  237.17   17.15
  -7  -2   2  221.23   15.08
  -7  -2   2  221.86   15.78
  -7  -2   2  233.03   13.10
   7   2  -2  234.50   12.88
   7   2  -1 1001.36   36.67
   7   2  -1 1049.67   27.22
  -7  -2   1 1012.99   36.10
  -7  -2   1 1002.80   30.49
   7   2  -1 1061.62   28.71
   7   2   0  261.51   16.84
   7   2   0  244.73   11.61
  -7  -2   0  252.76   16.94
  -7  -2   0  257.57   13.75
   7   2   0  238.32   10.82
   7   2   1  153.55   12.42
   7   2   1  135.37    8.85
  -7  -2  -1  125.08   12.01
  -7  -2  -1  156.71   10.85
   7   2   1  141.16    6.82
   7   2   2  106.30    9.92
  -7  -2  -2   88.67   10.24
   7   2   3   17.32    4.96
  -7  -2  -3    8.37    4.02
   7   2   3   15.99    2.18
   7   2   4  192.42   13.11
  -7  -2  -4  185.72   14.44
   7   2   5  333.08   17.09
  -7  -2  -5  325.27   18.90
   7   2   6    8.62    3.78
  -7  -2  -6   12.84    4.62
   7   2   7  376.94   18.02
  -7  -2  -7  341.19   19.19
   7   2   8   11.82    4.74
  -7  -2  -8    7.88    4.04
   7   2   9   86.78    9.45
  -7  -2  -9   80.25    9.17
   7   2  10   43.09    7.76
  -7  -2 -10   61.19    8.12
  -7  -2 -11   92.98   10.32
  -7  -2 -11   91.88    9.79
   7   2  11   88.75   10.59
  -7  -2 -12    4.61    4.20
   7   2  12   13.10    5.44
  -7  -2 -12   10.01    4.76
  -7  -2 -13   10.18    4.37
   7   2  13    6.81    4.32
  -7  -2 -13    7.16    3.63
  -7  -2 -14    3.09    4.42
   7   2  14    2.28    3.79
  -7  -2 -14   -4.66    4.06
  -7  -2 -15  286.02   19.77
  -7  -2 -15  241.84   15.94
   7   2  15  282.34   19.51
  -7  -2 -16    3.00    5.28
   7   2  16    3.82    4.78
  -7  -3  15  132.33   16.09
  -7  -3  15  102.89   13.16
  -7  -3  14    4.77    4.03
  -7  -3  14    3.06    4.24
   7   3 -14    3.72    5.30
  -7  -3  13    6.89    3.93
  -7  -3  13    9.02    5.90
  -7  -3  13    3.22    3.55
   7   3 -13    1.78    6.45
  -7  -3  12   35.70    8.79
  -7  -3  12   38.81    8.73
  -7  -3  12   38.21    7.77
   7   3 -12   40.53    9.30
  -7  -3  11   34.25    8.19
  -7  -3  11   33.13    7.21
   7   3 -11   54.47   10.00
   7   3 -11   33.57    7.86
   7   3 -10   45.28    9.22
  -7  -3  10   39.37    8.34
   7   3 -10   51.04    9.12
  -7  -3   9  921.16   37.97
   7   3  -9  988.20   39.05
   7   3  -9  967.39   39.26
   7   3  -8  101.40   12.15
  -7  -3   8  120.72   12.60
  -7  -3   8  128.93   10.19
   7   3  -8  104.32   12.04
   7   3  -7    1.41    4.42
  -7  -3   7    7.13    4.39
  -7  -3   7    2.60    2.97
   7   3  -7    7.33    4.66
   7   3  -6   74.55    9.92
  -7  -3   6   74.28    9.16
  -7  -3   6   69.11    8.12
   7   3  -6   74.88    9.34
   7   3  -5   77.87   10.26
  -7  -3   5   66.12    8.75
  -7  -3   5   67.08    6.31
  -7  -3   5   59.97    7.92
   7   3  -5   71.94    8.93
  -7  -3   4  135.66   11.77
  -7  -3   4  126.95   11.45
  -7  -3   4  128.48    8.28
  -7  -3   4  129.33    6.47
   7   3  -4  124.30   10.54
   7   3  -4  133.81   12.68
  -7  -3   3 1173.90   36.73
  -7  -3   3 1033.15   34.68
  -7  -3   3 1016.32   27.42
  -7  -3   3 1044.23   22.07
   7   3  -3 1003.89   31.34
   7   3  -3 1119.83   38.33
  -7  -3   2  426.51   20.99
  -7  -3   2  414.18   20.59
  -7  -3   2  386.98   15.17
   7   3  -2  401.89   21.86
   7   3  -1   58.09    8.93
   7   3  -1   60.83    6.69
  -7  -3   1   74.65    8.21
  -7  -3   1   83.37    6.70
  -7  -3   1   73.88    8.63
   7   3   0  420.50   21.92
   7   3   0  441.99   18.08
  -7  -3   0  444.33   21.43
   7   3   1  320.42   17.72
   7   3   1  301.57   14.67
  -7  -3  -1  276.77   16.69
   7   3   2   82.17    8.80
   7   3   2   57.49    6.77
   7   3   2   61.75    4.06
  -7  -3  -2   68.30    8.50
   7   3   3  636.33   24.07
  -7  -3  -3  596.06   24.76
   7   3   3  569.01   15.89
   7   3   4   49.61    6.47
   7   3   4   59.63    5.03
  -7  -3  -4   69.18    8.47
   7   3   5   55.03    7.05
  -7  -3  -5   38.33    6.46
   7   3   6   17.60    4.44
  -7  -3  -6   15.77    4.31
   7   3   7   56.88    7.22
  -7  -3  -7   55.94    7.38
   7   3   8  569.93   23.13
  -7  -3  -8  509.46   22.79
  -7  -3  -9  749.83   27.12
  -7  -3  -9  739.17   27.71
   7   3   9  758.91   28.95
  -7  -3 -10   86.55    9.40
  -7  -3 -10   79.26    9.29
   7   3  10   78.12    9.25
  -7  -3 -11   36.86    7.09
   7   3  11   50.82    7.64
  -7  -3 -11   33.16    6.08
  -7  -3 -12  101.22   10.59
  -7  -3 -12   96.70    9.92
   7   3  12   86.74   11.13
  -7  -3 -13   53.46    8.21
   7   3  13   40.65    7.42
  -7  -3 -13   48.74    7.18
  -7  -3 -14  181.26   15.26
  -7  -3 -14  164.17   13.07
   7   3  14  190.46   15.44
  -7  -3 -15  350.48   21.80
  -7  -3 -15  368.94   19.89
   7   3  15  415.91   23.68
  -7  -3 -16    7.32    4.55
   7   3  16    1.90    4.12
  -7  -3 -16    5.60    3.90
  -7  -3 -17    7.35    4.72
   7   3  17    4.88    5.49
  -7  -4  14   36.07    7.92
  -7  -4  14   46.57    8.62
  -7  -4  13   20.80    6.35
  -7  -4  13   16.21    6.17
  -7  -4  13   24.25    6.53
  -7  -4  12   -6.17    5.50
  -7  -4  12   -3.25    4.54
  -7  -4  12   -6.27    4.35
  -7  -4  11   62.26   10.32
  -7  -4  11   53.87    9.40
  -7  -4  11   56.54    9.11
   7   4 -10    8.77    5.41
   7   4 -10   25.13    7.21
  -7  -4  10   10.91    5.16
  -7  -4  10   18.13    5.90
  -7  -4  10   14.25    5.34
   7   4  -9  519.28   28.10
  -7  -4   9  464.28   26.07
   7   4  -9  448.72   25.80
   7   4  -8  100.28   11.72
   7   4  -8   95.21   11.61
  -7  -4   8   95.33   11.39
   7   4  -7   48.57    8.80
   7   4  -7   36.88    7.95
  -7  -4   7   44.50    8.23
  -7  -4   7   40.36    6.08
   7   4  -6  388.77   23.08
  -7  -4   6  386.75   21.39
  -7  -4   6  383.11   17.68
  -7  -4   6  441.66   18.17
   7   4  -6  449.19   24.28
   7   4  -5   50.05    8.44
   7   4  -5   41.88    7.91
  -7  -4   5   49.30    7.85
  -7  -4   5   51.45    6.98
  -7  -4   5   40.81    5.22
   7   4  -4   56.59    8.53
   7   4  -4   39.21    7.29
  -7  -4   4   59.63    7.96
  -7  -4   4   55.84    5.71
  -7  -4   4   45.72    6.42
   7   4  -3  638.51   28.76
  -7  -4   3  717.90   27.40
  -7  -4   3  649.38   24.83
  -7  -4   3  681.80   20.57
   7   4  -3  693.14   28.96
  -7  -4   2  654.53   25.86
  -7  -4   2  614.62   24.10
  -7  -4   2  639.44   18.98
   7   4  -2  624.48   27.39
   7   4  -1  559.77   26.13
  -7  -4   1  641.44   24.84
   7   4  -1  653.83   24.86
  -7  -4   1  616.85   24.19
   7   4  -1  585.85   18.35
   7   4   0   28.90    5.99
   7   4   0   35.52    5.84
  -7  -4   0   38.00    6.27
   7   4   0   29.47    3.46
   7   4   1    6.94    3.47
   7   4   1    8.83    3.34
  -7  -4  -1   14.49    4.30
   7   4   1    9.33    2.19
   7   4   2    3.95    3.61
   7   4   2    4.16    2.87
  -7  -4  -2   -0.84    2.75
   7   4   2    1.57    1.67
  -7  -4  -2    1.68    1.36
   7   4   3  419.60   19.19
   7   4   3  419.05   19.54
  -7  -4  -3  396.32   19.08
   7   4   4   -0.86    3.70
  -7  -4  -4   11.58    4.20
   7   4   5 1202.20   34.72
  -7  -4  -5 1199.28   36.18
   7   4   6  107.10    8.98
  -7  -4  -6   94.57    9.40
  -7  -4  -7   72.61    7.60
   7   4   7   98.25    8.71
  -7  -4  -7   91.94    9.14
   7   4   7   83.92    8.13
  -7  -4  -8   18.92    4.27
   7   4   8    4.96    3.67
  -7  -4  -8   18.57    5.20
  -7  -4  -9   14.44    4.13
   7   4   9   27.33    5.93
  -7  -4  -9   19.36    4.98
  -7  -4 -10    3.58    3.00
   7   4  10   -3.99    3.60
  -7  -4 -10    0.74    3.15
  -7  -4 -11   93.75    9.19
  -7  -4 -11   98.45    9.76
   7   4  11  102.00   10.12
  -7  -4 -12  209.81   14.95
  -7  -4 -12  210.27   14.74
   7   4  12  233.34   16.68
  -7  -4 -13  730.81   29.57
  -7  -4 -13  685.46   27.87
   7   4  13  785.56   30.53
  -7  -4 -14   32.06    7.05
   7   4  14   19.37    5.54
  -7  -4 -14   18.56    5.26
  -7  -4 -15   83.67   10.56
   7   4  15   74.20    9.98
  -7  -4 -15   74.04    9.34
  -7  -4 -16   47.65    8.70
   7   4  16   57.69    9.65
  -7  -4 -16   54.66    8.26
  -7  -4 -17   -2.28    3.44
  -7  -4 -17    6.51    5.87
   7   4  17   -2.00    3.89
   7   5 -13    0.77    6.91
  -7  -5  13    3.93    4.77
  -7  -5  13    2.18    4.31
  -7  -5  12   12.36    6.15
   7   5 -12    2.73    5.18
  -7  -5  12    5.56    5.61
  -7  -5  11  737.15   34.55
   7   5 -11  746.35   36.10
  -7  -5  11  698.44   34.70
  -7  -5  10  546.18   29.67
  -7  -5  10  589.68   30.16
   7   5 -10  574.73   30.57
  -7  -5  10  558.46   25.99
  -7  -5   9  215.90   18.10
  -7  -5   9  227.10   17.93
   7   5  -9  228.24   18.54
  -7  -5   9  223.12   15.65
   7   5  -9  219.62   17.87
   7   5  -8   82.16   10.98
   7   5  -8   84.71   11.15
  -7  -5   8   97.62   11.51
  -7  -5   8   76.20   11.31
  -7  -5   8   74.30    8.80
  -7  -5   7  129.44   13.18
   7   5  -7  133.86   13.63
  -7  -5   7  158.71   12.44
  -7  -5   7  127.47   13.11
   7   5  -7  118.46   12.60
   7   5  -6  207.02   16.50
  -7  -5   6  215.89   15.93
  -7  -5   6  212.55   11.99
  -7  -5   6  193.24   15.87
  -7  -5   6  244.92   14.97
   7   5  -6  200.49   16.02
   7   5  -5  638.63   28.76
  -7  -5   5  583.97   26.04
  -7  -5   5  588.00   21.83
  -7  -5   5  633.56   24.55
   7   5  -5  630.40   28.51
   7   5  -4 1179.62   40.39
  -7  -5   4 1148.92   37.49
  -7  -5   4 1168.25   33.52
  -7  -5   4 1228.05   35.32
   7   5  -4 1188.19   40.12
   7   5  -3 1512.93   46.89
  -7  -5   3 1613.80   44.60
  -7  -5   3 1490.93   40.38
  -7  -5   3 1682.59   41.76
   7   5  -3 1513.53   46.32
   7   5  -2  245.44   16.51
  -7  -5   2  215.80   14.00
  -7  -5   2  235.59   13.70
  -7  -5   2  233.18   12.91
   7   5  -2  241.71   16.28
   7   5  -1   68.43    8.99
  -7  -5   1   84.56    8.79
   7   5  -1   86.36    9.64
   7   5  -1   64.81    8.56
  -7  -5   1   80.67    7.90
  -7  -5   1   98.20    7.98
   7   5   0  334.09   19.24
   7   5   0  356.66   19.52
  -7  -5   0  350.83   16.90
   7   5   0  400.00   20.62
  -7  -5   0  384.18   18.09
   7   5   1   85.32    9.13
   7   5   1   80.80    9.25
   7   5   1   83.03    9.53
  -7  -5  -1   97.70    9.26
   7   5   1   80.40    5.33
   7   5   2  796.24   28.54
   7   5   2  757.18   29.26
   7   5   2  799.06   30.15
  -7  -5  -2  766.69   27.04
   7   5   3 1761.68   45.86
   7   5   3 1698.10   49.39
  -7  -5  -3 1831.62   46.43
  -7  -5  -4  106.45    6.95
   7   5   4  108.47    9.27
   7   5   4  106.28   10.77
  -7  -5  -4   98.91    9.10
   7   5   5    7.97    3.27
  -7  -5  -5    7.63    2.66
  -7  -5  -5    8.52    3.53
   7   5   6   18.95    4.54
  -7  -5  -6   18.50    3.86
  -7  -5  -6   13.03    4.30
  -7  -5  -7  334.35   14.57
   7   5   7  301.50   15.59
  -7  -5  -7  328.40   17.51
   7   5   7  333.35   15.95
  -7  -5  -8    7.39    2.78
   7   5   8    4.18    3.49
  -7  -5  -8   11.49    4.44
  -7  -5  -9  621.48   23.29
  -7  -5  -9  628.13   25.21
   7   5   9  654.58   25.27
  -7  -5 -10    9.71    3.56
   7   5  10    4.29    3.51
  -7  -5 -10   10.61    4.64
  -7  -5 -11   40.21    6.41
   7   5  11   36.06    7.19
  -7  -5 -11   54.62    7.52
  -7  -5 -12    5.37    4.31
   7   5  12    3.27    3.61
  -7  -5 -12    2.59    3.31
  -7  -5 -13  373.62   20.49
  -7  -5 -13  401.32   20.83
   7   5  13  384.32   21.29
  -7  -5 -14  140.64   12.94
  -7  -5 -14  152.50   13.24
   7   5  14  161.81   13.73
  -7  -5 -15   18.05    5.31
  -7  -5 -15   14.35    5.24
   7   5  15    6.80    4.50
  -7  -5 -16   15.51    5.48
  -7  -5 -16   26.12    6.65
   7   5  16   23.64    6.50
  -7  -5 -17   55.55    8.45
  -7  -5 -17   71.80   10.23
   7   5  17   64.83   10.22
  -7  -5 -18   31.47    6.84
  -7  -6  12    9.83    5.03
   7   6 -12    8.89    6.47
  -7  -6  12    6.01    4.85
  -7  -6  11  180.70   16.70
   7   6 -11  167.13   17.20
  -7  -6  11  175.15   16.93
   7   6 -10   22.03    6.83
  -7  -6  10   27.35    7.12
  -7  -6  10   21.74    6.32
  -7  -6   9   41.35    8.36
   7   6  -9   48.46    9.14
  -7  -6   9   56.60    8.91
  -7  -6   9   57.59    9.04
  -7  -6   8   29.01    7.37
   7   6  -8   24.29    6.62
  -7  -6   8   34.89    7.30
  -7  -6   8   37.20    7.51
   7   6  -8   32.52    7.41
  -7  -6   7  182.80   15.00
  -7  -6   7  189.32   16.35
   7   6  -7  184.61   15.95
  -7  -6   7  198.22   15.32
   7   6  -7  175.10   14.90
  -7  -6   6  229.45   17.16
  -7  -6   6  174.84   14.22
   7   6  -6  203.14   16.38
  -7  -6   6  228.04   16.11
   7   6  -6  195.20   15.24
  -7  -6   5  364.96   21.24
  -7  -6   5  381.25   20.49
   7   6  -5  394.17   22.08
  -7  -6   5  375.35   16.41
  -7  -6   5  415.09   21.54
   7   6  -5  341.54   20.19
   7   6  -4   70.69    9.14
   7   6  -4   55.36    8.62
  -7  -6   4   80.39    8.88
  -7  -6   4   71.43    9.22
  -7  -6   4   70.06    7.09
  -7  -6   4   90.50    9.78
   7   6  -3  243.11   16.40
  -7  -6   3  231.99   14.57
  -7  -6   3  229.52   13.11
  -7  -6   3  273.84   16.37
  -7  -6   3  232.37   16.30
   7   6  -3  246.73   16.42
   7   6  -2  146.23   12.70
  -7  -6   2  135.75   11.07
  -7  -6   2  114.61    9.33
  -7  -6   2  141.96   11.64
  -7  -6   2  113.46   11.02
   7   6  -2  139.61   12.16
   7   6  -1   68.90    9.12
   7   6  -1   58.37    8.48
  -7  -6   1   58.71    7.88
  -7  -6   1   58.34    7.11
   7   6  -1   58.14    9.43
  -7  -6   1   53.09    7.37
  -7  -6   1   60.91    6.91
   7   6   0   52.68    8.09
  -7  -6   0   54.40    7.37
   7   6   0   56.15    7.76
   7   6   0   61.11    8.67
  -7  -6   0   61.51    6.80
  -7  -6   0   56.50    7.34
  -7  -6   0   51.76    6.69
   7   6   1  573.67   25.32
   7   6   1  625.62   25.83
   7   6   1  613.07   28.32
  -7  -6  -1  589.73   23.24
  -7  -6  -1  602.30   24.00
   7   6   2    9.58    4.22
  -7  -6  -2   13.19    4.08
   7   6   2    8.31    3.66
   7   6   2   12.33    5.10
  -7  -6  -2   10.27    3.97
   7   6   3  145.03   11.25
  -7  -6  -3  140.96    6.42
   7   6   3  138.90   11.59
   7   6   3  134.45   13.02
  -7  -6  -3  134.30   10.64
  -7  -6  -3  133.55   10.41
   7   6   4    0.78    3.03
  -7  -6  -4    4.47    2.64
  -7  -6  -4    1.92    1.55
   7   6   4    0.48    3.50
   7   6   4    5.26    5.07
  -7  -6  -4    9.71    3.96
   7   6   5  132.79   10.00
  -7  -6  -5  128.50    7.61
   7   6   5  112.41   10.47
   7   6   5  131.37   13.25
  -7  -6  -5  138.05   11.06
  -7  -6  -5  119.92    9.06
   7   6   6  153.35   10.52
  -7  -6  -6  148.21    8.89
   7   6   6  153.91   14.29
  -7  -6  -6  151.94   11.58
  -7  -6  -6  137.90    9.28
   7   6   7  522.94   20.81
  -7  -6  -7  556.26   19.12
  -7  -6  -7  546.46   23.13
   7   6   7  528.59   20.28
  -7  -6  -7  515.86   18.19
   7   6   8   -0.08    2.86
  -7  -6  -8   -0.68    2.39
  -7  -6  -8    1.94    1.77
   7   6   8    4.74    3.31
  -7  -6  -8    3.70    3.42
  -7  -6  -9    5.07    2.95
   7   6   9    6.19    3.34
  -7  -6  -9    4.49    2.09
  -7  -6  -9    9.13    3.89
  -7  -6 -10    4.49    3.38
   7   6  10    3.22    3.00
  -7  -6 -10    1.83    3.45
  -7  -6 -11  830.09   29.56
  -7  -6 -11  898.20   32.41
   7   6  11  894.08   31.06
  -7  -6 -12   35.60    6.31
   7   6  12   30.00    6.19
  -7  -6 -12   27.84    6.59
  -7  -6 -13  595.24   25.81
  -7  -6 -13  590.41   26.33
   7   6  13  603.69   26.13
  -7  -6 -14   19.32    5.67
  -7  -6 -14   27.25    6.57
   7   6  14   24.70    5.89
  -7  -6 -15   30.66    6.50
  -7  -6 -15   36.60    7.27
   7   6  15   23.96    6.06
  -7  -6 -16   38.34    7.31
  -7  -6 -16   47.41    8.94
   7   6  16   35.71    7.99
  -7  -6 -17  160.37   15.05
  -7  -6 -17  161.13   14.30
   7   6  17  173.47   15.23
  -7  -6 -18  217.69   18.38
  -7  -6 -18  236.89   17.67
  -7  -7  12   32.54    8.22
  -7  -7  11  194.15   17.84
   7   7 -10   85.08   12.01
  -7  -7  10   80.28   11.17
  -7  -7  10   87.89   12.05
   7   7  -9   59.28   10.14
  -7  -7   9   69.84   10.12
  -7  -7   9   58.07   10.05
  -7  -7   9   61.70   10.21
  -7  -7   8  114.05   12.40
   7   7  -8   88.50   11.45
  -7  -7   8  114.70   13.43
  -7  -7   8  124.39   13.72
   7   7  -7   14.63    5.41
  -7  -7   7   17.66    5.54
  -7  -7   7   19.70    6.08
  -7  -7   7   15.92    6.90
  -7  -7   6  196.35   14.87
   7   7  -6  174.74   15.26
  -7  -7   6  185.74   15.75
  -7  -7   6  196.67   16.53
   7   7  -6  183.75   14.15
  -7  -7   5 1006.19   35.35
   7   7  -5 1045.33   38.85
  -7  -7   5 1055.04   38.69
  -7  -7   5 1124.23   40.57
   7   7  -5  980.70   35.04
   7   7  -4   72.34    8.78
  -7  -7   4   78.49    8.95
  -7  -7   4   81.97   10.10
   7   7  -4   75.70    9.65
  -7  -7   4   70.29    7.12
  -7  -7   4   88.77   11.08
   7   7  -3   72.36    8.83
   7   7  -3  104.11   11.16
  -7  -7   3   85.88    8.96
  -7  -7   3   89.02   10.22
  -7  -7   3   84.80    8.00
  -7  -7   3   92.86   11.03
   7   7  -2  129.96   12.04
  -7  -7   2  134.41   10.43
  -7  -7   2  124.31   11.46
  -7  -7   2  116.90    9.54
  -7  -7   2  142.82   13.16
   7   7  -2  117.81   10.91
  -7  -7   1    7.06    3.73
   7   7  -1    7.07    3.42
   7   7  -1    2.00    3.26
  -7  -7   1    9.90    3.58
  -7  -7   1    5.45    3.88
  -7  -7   1    7.25    3.24
   7   7   0  110.33   10.82
  -7  -7   0   94.66    9.62
  -7  -7   0   99.95    8.29
   7   7   0  100.40   12.22
  -7  -7   0   92.07    9.02
  -7  -7   0  111.54   11.39
   7   7   0  113.02   10.77
   7   7   1 1669.57   47.92
   7   7   1 1709.54   47.95
  -7  -7  -1 1686.99   46.25
   7   7   1 1706.64   55.31
  -7  -7  -1 1780.63   46.12
  -7  -7  -1 1827.03   51.48
   7   7   2  282.21   16.86
   7   7   2  286.80   16.81
  -7  -7  -2  316.00   16.50
   7   7   2  294.03   20.66
  -7  -7  -2  291.05   16.50
   7   7   3   65.83    7.61
   7   7   3   82.58    8.82
  -7  -7  -3   72.53    7.91
   7   7   3   81.19   11.50
  -7  -7  -3   73.84    8.46
   7   7   4  165.90   11.64
   7   7   4  153.01   11.83
  -7  -7  -4  162.18   11.07
   7   7   4  173.81   16.08
  -7  -7  -4  181.32   12.99
   7   7   5   12.21    3.65
  -7  -7  -5   14.09    3.58
   7   7   5   15.43    4.95
   7   7   5   14.07    6.51
  -7  -7  -5    8.06    3.76
  -7  -7  -6   68.48    5.79
   7   7   6   56.56    6.39
   7   7   6   52.84    7.26
  -7  -7  -6   55.48    6.18
   7   7   6   53.88   10.09
  -7  -7  -6   59.03    8.06
   7   7   7  559.45   21.39
  -7  -7  -7  593.28   19.52
   7   7   7  553.31   23.12
   7   7   7  543.30   29.46
  -7  -7  -7  586.63   19.89
  -7  -7  -7  622.08   25.47
   7   7   7  543.26   20.34
   7   7   8  223.46   12.97
  -7  -7  -8  231.29   12.26
   7   7   8  245.96   19.68
  -7  -7  -8  227.73   15.18
   7   7   8  244.99   13.40
  -7  -7  -8  244.03   11.45
   7   7   9  249.49   13.94
  -7  -7  -9  237.09   13.35
  -7  -7  -9  241.58   15.89
   7   7   9  219.56   13.13
  -7  -7 -10    3.10    3.35
  -7  -7 -10    7.86    3.06
   7   7  10    9.94    3.58
  -7  -7 -11  133.84   10.90
  -7  -7 -11  143.59   12.91
   7   7  11  130.01   10.94
  -7  -7 -12    6.69    3.99
  -7  -7 -12    0.54    2.95
   7   7  12   -1.75    3.72
  -7  -7 -13   38.27    7.12
  -7  -7 -13   38.73    7.06
   7   7  13   41.96    6.89
  -7  -7 -14    4.61    4.24
  -7  -7 -14    9.01    4.89
   7   7  14    5.06    4.22
  -7  -7 -15  364.76   21.59
  -7  -7 -15  391.65   22.12
   7   7  15  369.53   21.04
  -7  -7 -16   19.17    6.42
  -7  -7 -16    1.09    4.03
   7   7  16   14.46    5.92
  -7  -7 -17  229.18   18.42
  -7  -7 -17  226.30   17.56
   7   7  17  263.90   18.61
  -7  -7 -18   -1.32    4.41
  -7  -7 -18    6.80    5.77
  -7  -7 -19   11.12    5.24
   7   8  -9   34.23    9.09
  -7  -8   9   45.38   10.50
  -7  -8   8  151.17   16.00
   7   8  -8  139.25   14.94
  -7  -8   8  164.36   16.81
  -7  -8   7  530.77   28.74
   7   8  -7  504.16   28.02
  -7  -8   7  598.10   31.58
   7   8  -6  325.99   21.53
  -7  -8   6  359.42   24.14
  -7  -8   6  326.82   21.86
   7   8  -5  171.01   15.15
  -7  -8   5  159.93   15.73
  -7  -8   5  162.84   14.96
   7   8  -4  456.29   24.73
  -7  -8   4  480.94   27.46
  -7  -8   4  456.53   24.47
   7   8  -3  117.69   12.03
  -7  -8   3  115.73    9.59
  -7  -8   3  138.14   14.70
  -7  -8   3  115.82   12.04
  -7  -8   2    3.25    2.71
   7   8  -2    2.44    2.79
   7   8  -2   10.13    4.98
  -7  -8   2    7.78    4.47
  -7  -8   2    6.50    5.43
   7   8  -1 1587.78   47.09
  -7  -8   1 1546.09   42.40
  -7  -8   1 1576.50   46.65
  -7  -8   1 1638.45   52.61
   7   8  -1 1488.33   42.98
   7   8   0  897.38   32.68
   7   8   0  760.27   38.19
  -7  -8   0  900.35   30.11
  -7  -8   0  866.81   31.78
  -7  -8   0  878.01   36.59
   7   8   0  829.66   29.70
   7   8   1  557.94   24.86
   7   8   1  541.38   31.13
  -7  -8  -1  563.84   23.37
  -7  -8  -1  545.07   28.38
  -7  -8  -1  532.60   23.50
   7   8   1  538.69   23.50
  -7  -8  -2   32.81    5.93
   7   8   2   27.53    5.50
   7   8   2   26.22    5.86
   7   8   2   16.82    6.66
  -7  -8  -2   22.47    4.96
   7   8   3  231.19   15.04
   7   8   3  270.11   16.26
   7   8   3  261.04   21.16
  -7  -8  -3  284.30   16.62
  -7  -8  -3  261.57   15.05
   7   8   4   98.51    9.39
   7   8   4  115.51   10.48
   7   8   4  118.56   15.18
  -7  -8  -4  114.96   10.57
  -7  -8  -4  124.77    9.92
   7   8   5 1141.14   34.01
   7   8   5 1161.86   35.87
   7   8   5 1124.61   46.91
  -7  -8  -5 1180.81   37.44
  -7  -8  -5 1170.46   33.71
   7   8   6  460.18   19.23
   7   8   6  445.58   20.22
   7   8   6  434.80   28.02
  -7  -8  -6  434.14   21.75
   7   8   7  551.52   21.02
   7   8   7  528.92   22.02
   7   8   7  477.76   29.72
  -7  -8  -7  539.65   24.25
  -7  -8  -8   44.14    7.21
   7   8   8   31.20    5.04
   7   8   8   18.86    7.94
   7   8   8   38.06    5.22
  -7  -8  -9   19.58    5.67
   7   8   9   18.30    4.11
   7   8   9   50.28   11.01
   7   8   9   20.20    4.59
  -7  -8 -10   76.92    9.59
   7   8  10   77.16   13.07
   7   8  10   73.93    7.74
  -7  -8 -11  271.25   15.80
  -7  -8 -11  265.62   17.76
   7   8  11  272.21   15.41
  -7  -8 -12  121.27   11.07
  -7  -8 -12  126.51   12.65
   7   8  12  131.77   11.35
  -7  -8 -13  111.38   11.02
  -7  -8 -13  109.58   11.58
   7   8  13  105.28   10.68
  -7  -8 -14   52.19    8.75
  -7  -8 -14   68.71    9.62
   7   8  14   55.68    8.13
  -7  -8 -15   64.48    9.55
  -7  -8 -15   74.18    9.78
   7   8  15   67.49    9.10
  -7  -8 -16   40.42    8.02
  -7  -8 -16   33.28    7.37
   7   8  16   48.74    8.09
  -7  -8 -17  171.99   15.91
  -7  -8 -17  201.72   16.89
   7   8  17  191.58   16.08
  -7  -9   9   37.93    9.48
  -7  -9   8    8.44    6.37
   7   9  -7  328.01   23.00
  -7  -9   7  334.62   25.19
   7   9  -6    3.24    5.17
  -7  -9   6    0.83    5.12
   7   9  -5   99.07   12.65
  -7  -9   5  109.73   14.13
   7   9  -4    3.32    4.77
  -7  -9   4   -2.06    5.40
   7   9  -3   17.34    5.75
  -7  -9   3   17.42    7.31
  -7  -9   2   41.80    6.46
   7   9  -2   29.61    6.58
  -7  -9   2   40.87    9.39
   7   9  -1  567.56   26.73
  -7  -9   1  559.52   23.67
  -7  -9   1  611.10   32.79
   7   9   0  133.97   12.31
  -7  -9   0  145.04   12.03
  -7  -9   0  143.74   11.48
  -7  -9   0  145.73   15.80
  -7  -9  -1   69.41    8.20
   7   9   1   63.91    8.60
   7   9   1   78.33   13.83
  -7  -9  -1   79.63   12.22
  -7  -9  -2    5.12    3.54
   7   9   2    6.23    4.33
  -7  -9  -2    7.24    5.35
   7   9   3  126.75   11.49
   7   9   3  125.66   16.40
  -7  -9  -3  129.81   11.51
  -7  -9  -4    4.65    3.58
   7   9   4    1.68    3.31
   7   9   4    3.43    5.78
   7   9   5  315.13   17.54
   7   9   5  292.81   24.68
  -7  -9  -5  336.61   19.24
   7   9   6  178.70   12.86
   7   9   6  129.26   16.83
  -7  -9  -6  146.60   12.54
   7   9   7  260.72   15.37
   7   9   7  199.37   20.60
  -7  -9  -7  242.61   16.55
  -7  -9  -8   -1.23    4.21
   7   9   8   12.82    8.47
   7   9   9  455.01   31.71
  -7  -9  -9  436.89   23.25
  -7  -9 -10   -2.99    3.99
   7   9  10   27.62    9.87
  -7  -9 -11   52.77    8.29
   7   9  11   50.06   12.08
  -7  -9 -12   67.22    9.67
   7   9  12   60.99   13.72
   7   9  13  114.72   17.35
  -7  -9 -13  138.27   13.40
   7   9  13  133.19   11.48
  -7  -9 -14    6.43    4.72
   7   9  14    5.57    3.77
  -7  -9 -15  284.42   20.18
   7   9  15  305.88   18.84
  -7  -9 -16  119.24   13.32
   7   9  16  123.32   12.31
   7   9  17   37.58    7.58
  -7 -10   7  354.00   27.62
  -7 -10   6   20.15    7.81
   7  10  -5   18.49    7.06
  -7 -10   5   15.87    8.20
   7  10  -4  189.38   16.75
  -7 -10   4  201.46   20.70
   7  10  -3  199.62   16.81
  -7 -10   3  170.62   20.12
   7  10  -2  149.12   14.29
  -7 -10   2  136.72   17.08
   7  10  -1  867.22   35.49
  -7 -10   1  885.02   32.03
  -7 -10   1  894.70   43.43
   7  10   0  199.78   15.84
  -7 -10   0  197.32   14.38
  -7 -10   0  212.11   20.42
  -7 -10  -1   35.86    6.83
   7  10   1   36.81    7.39
  -7 -10  -1   22.91    5.84
  -7 -10  -1   18.26    7.36
   7  10   2  253.09   17.18
   7  10   2  231.41   24.08
  -7 -10  -2  269.38   18.23
  -7 -10  -2  246.65   16.45
  -7 -10  -2  247.63   22.47
  -7 -10  -3   51.41    7.90
   7  10   3   44.13    7.41
  -7 -10  -3   55.70    8.99
   7  10   3   43.96   11.70
   7  10   4  169.34   13.68
   7  10   4  175.66   20.96
  -7 -10  -4  186.17   14.74
   7  10   5  790.22   30.37
   7  10   5  729.58   42.82
  -7 -10  -5  777.94   31.35
   7  10   6  120.10   11.18
   7  10   6  104.72   16.60
  -7 -10  -6  126.80   12.32
   7  10   7  146.51   19.30
  -7 -10  -7  160.93   14.04
   7  10   8  202.83   22.90
  -7 -10  -8  199.88   15.62
  -7 -10  -9   15.52    5.26
   7  10   9   19.37    8.88
  -7 -10 -10  104.38   11.83
   7  10  10   86.87   16.64
   7  10  11  454.66   34.83
  -7 -10 -11  520.49   26.98
  -7 -10 -12   19.49    6.04
   7  10  12   24.72    9.52
   7  10  13  159.03   21.76
  -7 -10 -13  194.12   16.77
  -7 -11   4  148.50   19.46
  -7 -11   3  401.76   31.19
   7  11  -2  127.70   13.80
  -7 -11   2  113.28   16.37
   7  11  -1    5.32    5.06
  -7 -11   1   14.29    8.43
   7  11   0  189.29   15.94
  -7 -11   0  207.18   22.11
   7  11   1   44.62    8.74
  -7 -11  -1   39.35   11.25
   7  11   2    7.55    4.68
  -7 -11  -2   14.77    8.74
   7  11   3  779.62   32.33
   7  11   3  741.04   45.98
  -7 -11  -3  782.73   34.37
  -7 -11  -3  748.81   31.83
   7  11   4  358.29   20.92
   7  11   4  347.11   31.53
  -7 -11  -4  329.14   22.22
  -7 -11  -4  318.52   20.23
  -7 -11  -5   42.19    7.87
   7  11   5   66.41    8.94
  -7 -11  -5   60.49    9.96
   7  11   5   54.15   14.30
   7  11   6  184.18   22.98
  -7 -11  -6  167.94   16.13
  -7 -11  -6  186.70   15.56
  -7 -11  -7    4.44    4.24
  -7 -11  -7    4.93    4.24
   7  11   7    7.03    9.60
  -7 -11  -8   31.76    6.99
   7  11   8   24.06   11.07
  -7 -11  -8    8.91    5.08
   7  11   9  445.14   36.36
  -7 -11  -9  438.23   25.26
   7  11  10  104.62   18.26
  -7 -11 -10  122.95   13.41
   7  11  11  240.13   26.98
  -7 -11 -11  253.52   19.55
   7  12   1   32.65    7.65
   7  12   2   58.87    9.61
   7  12   3  254.96   18.80
   7  12   4   53.75    8.81
  -7 -12  -4   44.68    9.28
   7  12   5  254.06   18.27
  -7 -12  -5  276.99   21.54
  -7 -12  -6   94.97   12.67
  -7 -12  -7    7.33    5.18
  -7 -12  -8    7.98    6.04
   8  -4 -10   24.53    7.69
   8  -4  -9   -1.67    5.50
   8  -4  -9   -8.25    6.25
   8  -4  -8   10.63    6.16
   8  -4  -8    1.42    4.84
   8  -4  -7   12.19    5.79
   8  -4  -7   -0.14    5.20
  -8   4   7    6.95    5.40
   8  -4  -6  102.84   12.72
   8  -4  -6   83.81   13.88
  -8   4   6   84.73   12.69
   8  -4  -5   45.87    9.03
   8  -4  -5   44.67   10.36
  -8   4   5   50.41   10.51
   8  -4  -4   93.91   11.99
   8  -4  -4   79.92   13.76
  -8   4   4   99.37   13.60
   8  -4  -3    8.82    4.82
   8  -4  -3   11.73    6.39
  -8   4   3    6.44    5.64
   8  -4  -2   -2.63    4.61
   8  -4  -2   -6.50    6.04
  -8   4   2   -4.24    5.32
   8  -4  -1   -7.88    7.34
   8  -4  -1   -1.20    5.63
  -8   4   1    0.39    5.27
   8  -4   0   19.42    7.19
   8  -4   0   11.57    7.04
  -8   4   0   17.14    8.19
   8  -4   1   37.70    8.99
   8  -4   1   34.84    9.99
  -8   4  -1   39.75   10.27
   8  -4   2   41.57    8.93
   8  -4   2   22.97    9.67
  -8   4  -2   21.27    7.89
   8  -4   3   48.06    9.68
  -8   4  -3   74.55   13.75
  -8   4  -3   55.51   12.04
   8  -4   4   65.51   11.23
  -8   4  -4   48.01   11.79
  -8   4  -4   62.64   13.26
   8  -4   5    6.82    5.19
  -8   4  -5    1.45    6.20
   8  -4   6    6.04    4.43
  -8   4  -6   10.71    7.53
  -8   4  -7   -3.99    5.83
  -8   4  -8    0.52    6.43
  -8   4  -9    2.98    7.92
  -8   3  11    0.52    5.44
   8  -3 -11   15.93    7.28
   8  -3 -10   14.80    6.50
  -8   3  10   14.19    6.54
   8  -3 -10    3.33    5.39
   8  -3  -9   58.70   10.21
   8  -3  -9   64.91   11.53
  -8   3   9   56.05   10.30
   8  -3  -9   56.98    9.57
   8  -3  -8   46.08    9.18
   8  -3  -8   25.39    7.61
  -8   3   8   31.31    8.75
   8  -3  -8   20.48    6.41
   8  -3  -7  178.04   17.59
  -8   3   7  184.95   17.40
   8  -3  -7  227.14   18.84
   8  -3  -6  468.25   28.01
  -8   3   6  451.05   27.16
   8  -3  -6  471.82   26.75
   8  -3  -5  105.91   12.66
   8  -3  -5  109.92   13.75
  -8   3   5  109.15   13.32
   8  -3  -4   65.73   10.11
   8  -3  -4   64.21   10.75
  -8   3   4   62.71   10.45
   8  -3  -3  120.40   13.37
   8  -3  -3  111.14   14.26
  -8   3   3  116.27   14.18
   8  -3  -2    5.37    5.98
   8  -3  -2    2.43    4.37
  -8   3   2    6.13    5.50
   8  -3  -1   53.79   10.11
   8  -3  -1   54.91   11.22
  -8   3   1   59.72   11.37
   8  -3   0  407.81   25.67
   8  -3   0  394.54   27.41
  -8   3   0  409.01   27.12
   8  -3   1  181.93   16.78
   8  -3   1  161.79   17.61
  -8   3  -1  162.12   17.81
   8  -3   2   -1.81    4.61
  -8   3  -2    3.69    6.12
   8  -3   2    3.34    5.78
  -8   3  -2    2.05    6.15
   8  -3   3   50.41    9.70
  -8   3  -3   48.62   10.40
  -8   3  -3   43.57   10.93
   8  -3   4   -3.86    3.77
  -8   3  -4    2.36    5.79
   8  -3   5   74.14   10.15
  -8   3  -5   65.09   12.36
  -8   3  -5   39.17   10.93
   8  -3   6   89.18   11.14
  -8   3  -6   87.82   14.86
   8  -3   7   36.28    8.29
  -8   3  -7   28.24    9.31
   8  -3   8   26.07    6.58
  -8   3  -8   13.76    7.38
   8  -3   9    3.97    4.50
  -8   3  -9    1.02    5.50
   8  -3  10   17.73    5.92
  -8   3 -10   13.22    6.98
  -8   2  12    7.46    5.65
   8  -2 -12   -3.11    4.63
   8  -2 -11    3.45    5.23
  -8   2  11    0.52    4.50
   8  -2 -11    2.45    4.34
   8  -2 -10    3.67    5.67
  -8   2  10   -0.74    4.97
  -8   2  10   11.36    6.01
   8  -2 -10    0.87    4.48
  -8   2   9  167.61   16.64
  -8   2   9  171.48   16.25
   8  -2  -9  127.31   13.22
   8  -2  -9  174.63   16.96
   8  -2  -8  344.48   22.21
  -8   2   8  362.41   23.36
   8  -2  -8  323.35   20.39
   8  -2  -8  440.44   26.35
   8  -2  -7   52.31    9.86
   8  -2  -7   53.42    9.31
  -8   2   7   64.95   10.45
   8  -2  -7   47.20    7.95
   8  -2  -6   38.80    8.10
   8  -2  -6   28.14    7.21
  -8   2   6   37.64    7.79
   8  -2  -6   25.45    6.01
   8  -2  -5   99.27   12.19
   8  -2  -5   71.75   10.75
  -8   2   5   73.76   11.01
   8  -2  -4    8.28    4.93
   8  -2  -4    7.90    4.56
  -8   2   4   16.58    6.29
   8  -2  -3    7.79    4.99
   8  -2  -3   10.94    6.13
  -8   2   3    9.76    5.13
   8  -2  -2  278.53   21.08
  -8   2   2  298.85   21.77
   8  -2  -2  301.95   21.49
   8  -2  -1  340.63   23.36
   8  -2  -1  357.61   23.97
  -8   2   1  382.81   24.87
   8  -2   0   -1.00    5.50
  -8   2   0   12.53    6.71
   8  -2   0   17.60    7.34
  -8   2   0   11.16    5.90
   8  -2   1    9.64    5.47
   8  -2   1   11.58    5.16
  -8   2  -1   12.93    5.79
  -8   2  -1   23.62    8.70
   8  -2   2    4.47    4.78
  -8   2  -2    2.86    4.85
  -8   2  -2   -0.53    4.85
   8  -2   3    8.37    4.46
  -8   2  -3    3.71    5.56
  -8   2  -3   -2.20    5.24
   8  -2   4  137.81   13.31
  -8   2  -4  111.09   14.14
  -8   2  -4  110.67   15.23
   8  -2   5   97.67   11.40
  -8   2  -5  102.01   13.63
  -8   2  -5   93.63   14.31
   8  -2   6   21.55    6.01
  -8   2  -6   18.04    7.76
   8  -2   7    0.14    4.14
  -8   2  -7    0.47    5.57
   8  -2   8    8.34    4.24
  -8   2  -8    6.25    6.77
   8  -2   9   85.27   11.45
  -8   2  -9   60.97   11.36
   8  -2  10   65.02   10.11
  -8   2 -10   66.79   11.36
   8  -2  11   -4.20    4.89
  -8   2 -11    2.36    4.82
   8  -1 -12   66.71   10.09
   8  -1 -11    8.42    6.08
  -8   1  11    7.39    6.12
   8  -1 -11   10.47    5.23
   8  -1 -10   16.46    7.34
  -8   1  10   21.97    7.43
  -8   1  10   14.25    5.96
   8  -1 -10   12.28    5.96
   8  -1  -9   12.93    7.09
  -8   1   9    3.06    5.06
  -8   1   9    3.87    3.89
   8  -1  -9   -3.13    4.14
   8  -1  -8  319.78   19.36
  -8   1   8  332.41   22.52
  -8   1   8  345.80   21.00
   8  -1  -8  300.51   19.22
   8  -1  -8  397.60   25.17
   8  -1  -7  283.12   18.71
  -8   1   7  316.05   21.65
  -8   1   7  353.51   21.06
   8  -1  -7  264.26   17.50
   8  -1  -7  308.96   21.83
   8  -1  -6    1.16    4.52
   8  -1  -6   10.07    4.83
  -8   1   6    1.72    4.31
   8  -1  -6    7.57    4.69
   8  -1  -5   20.62    6.40
   8  -1  -5   14.82    5.93
  -8   1   5   20.73    6.03
   8  -1  -5   10.50    4.15
   8  -1  -4    9.86    5.33
   8  -1  -4   11.65    5.24
  -8   1   4    8.05    4.88
   8  -1  -4    9.76    3.83
   8  -1  -3    0.18    4.49
   8  -1  -3   13.79    5.52
  -8   1   3   15.46    5.75
   8  -1  -3   12.21    4.22
   8  -1  -2  540.76   28.60
   8  -1  -2  460.98   25.73
  -8   1   2  465.77   27.17
  -8   1   2  528.80   27.10
   8  -1  -1  315.27   22.16
   8  -1  -1  314.98   21.25
  -8   1   1  315.06   22.98
  -8   1   1  337.39   21.74
   8  -1   0  261.75   19.88
  -8   1   0  265.02   20.76
  -8   1   0  259.57   19.80
   8  -1   1    9.78    5.18
  -8   1  -1   25.76    6.95
  -8   1  -1   24.31    7.81
   8  -1   2   48.42    8.61
  -8   1  -2   27.61    7.43
  -8   1  -2   43.56    9.72
   8  -1   3    4.25    4.92
  -8   1  -3    0.77    4.38
  -8   1  -3   -4.27    5.52
   8  -1   4    6.94    4.95
  -8   1  -4   15.09    6.47
  -8   1  -4   19.82    7.49
   8  -1   5   88.00   10.83
  -8   1  -5   94.58   12.32
  -8   1  -5   77.43   12.66
   8  -1   6  304.95   20.09
  -8   1  -6  315.89   23.68
   8  -1   7    9.58    5.70
  -8   1  -7    3.39    5.90
   8  -1   8   31.91    6.68
  -8   1  -8    5.22    5.39
   8  -1   9    8.06    4.91
  -8   1  -9   -8.95    5.99
   8  -1  10    0.92    3.92
  -8   1 -10   -1.73    5.30
   8  -1  11    0.58    4.29
  -8   1 -11    0.71    4.18
   8  -1  12   30.15    7.13
  -8   1 -12    6.83    5.25
   8   0 -13   -2.12    5.24
   8   0 -12   60.62   10.90
  -8   0  12   59.24   10.84
   8   0 -12   37.46    7.94
   8   0 -11   13.59    6.11
  -8   0  11    7.90    6.64
   8   0 -11   18.44    6.38
  -8   0  10  265.34   20.66
  -8   0  10  255.58   17.77
   8   0 -10  268.63   18.80
   8   0 -10  314.16   22.86
  -8   0   9  327.87   22.51
  -8   0   9  299.42   19.23
  -8   0   9  314.16   18.95
   8   0  -9  273.51   18.90
   8   0  -9  290.87   21.83
  -8   0   8  505.11   27.43
  -8   0   8  438.60   24.05
  -8   0   8  477.17   23.37
   8   0  -8  409.35   22.22
   8   0  -8  473.05   27.42
   8   0  -7   60.99   10.69
  -8   0   7   33.95    7.77
  -8   0   7   43.11    7.39
   8   0  -7   48.86    7.61
  -8   0   7   36.50    7.77
   8   0  -7   39.30    7.48
   8   0  -6   87.66   11.23
  -8   0   6   69.40   10.37
  -8   0   6   79.98    9.91
  -8   0   6   73.81   10.41
   8   0  -6   75.13    9.18
  -8   0   5  245.32   18.26
  -8   0   5  281.31   17.61
   8   0  -5  227.89   14.88
   8   0  -5  259.52   19.30
  -8   0   4  194.71   16.35
  -8   0   4  208.26   15.43
   8   0  -4  186.74   13.08
   8   0  -4  199.54   16.93
  -8   0   3 1230.00   43.78
  -8   0   3 1201.12   40.93
   8   0  -3 1181.96   35.31
   8   0  -3 1260.91   44.82
   8   0  -2  472.09   26.54
  -8   0   2  469.48   26.30
  -8   0   2  488.71   25.11
   8   0  -2  478.99   19.66
   8   0  -1   12.05    5.93
  -8   0   1   29.98    7.21
  -8   0   1   22.27    6.75
   8   0  -1   34.59    5.33
   8   0   0   19.54    6.50
  -8   0   0   22.02    6.22
  -8   0   0   29.43    7.46
   8   0   1  458.33   25.26
  -8   0  -1  460.73   26.54
  -8   0  -1  421.51   23.71
   8   0   2   79.82   10.85
  -8   0  -2   91.55   11.67
  -8   0  -2   72.13   11.58
   8   0   3  296.38   19.41
  -8   0  -3  287.91   21.84
  -8   0  -3  281.04   19.49
   8   0   4  761.87   29.88
  -8   0  -4  605.40   32.31
  -8   0  -4  652.53   30.20
   8   0   5   10.18    4.58
  -8   0  -5    8.97    4.79
   8   0   6   18.45    5.55
  -8   0  -6    0.18    4.76
   8   0   7    5.05    4.50
  -8   0  -7   -0.61    4.93
   8   0   8    9.19    5.01
  -8   0  -8    2.34    4.94
   8   0   9   54.75    8.54
  -8   0  -9   41.50    8.41
   8   0  10  275.26   18.22
  -8   0 -10  227.42   18.36
   8   0  11    2.09    4.36
  -8   0 -11    2.07    4.20
  -8   0 -12   -1.25    4.26
  -8   0 -13   -9.06    6.08
  -8   0 -13    2.11    4.41
   8   1 -13   38.39    8.29
  -8  -1  12  228.22   20.70
   8   1 -12  192.67   17.29
   8   1 -12  236.63   20.78
   8   1 -11    6.97    6.45
  -8  -1  11    2.05    6.39
   8   1 -11    5.37    5.20
  -8  -1  10  149.89   15.57
   8   1 -10  145.26   14.06
   8   1 -10  159.67   16.16
   8   1  -9   38.24    9.05
  -8  -1   9   54.40    9.67
  -8  -1   9   38.52    6.99
   8   1  -9   43.80    8.24
   8   1  -8   10.78    6.07
  -8  -1   8    4.33    4.34
  -8  -1   8    2.80    4.24
   8   1  -8    1.93    4.25
   8   1  -7   12.34    6.00
  -8  -1   7   10.52    4.58
  -8  -1   7   15.39    4.80
  -8  -1   7    8.10    4.65
   8   1  -7    9.28    4.24
  -8  -1   6  104.22   12.13
  -8  -1   6  110.69   11.61
  -8  -1   6  114.61   10.47
   8   1  -6  113.07   11.00
   8   1  -6  131.76   13.73
   8   1  -5   47.57    8.83
  -8  -1   5   46.59    8.01
  -8  -1   5   54.47    7.40
  -8  -1   5   65.97    9.67
   8   1  -5   56.47    7.71
  -8  -1   4  537.49   26.67
  -8  -1   4  522.93   26.45
  -8  -1   4  536.58   24.01
   8   1  -4  548.07   22.88
   8   1  -4  536.98   27.79
   8   1  -3   57.06    9.37
  -8  -1   3   64.46    8.80
  -8  -1   3   68.56    9.99
   8   1  -3   58.07    6.92
   8   1  -2  133.82   14.04
  -8  -1   2  132.40   13.60
  -8  -1   2  131.67   12.19
   8   1  -2  133.68    9.99
   8   1  -1  142.11   14.89
  -8  -1   1  161.91   14.91
  -8  -1   1  127.69   12.04
   8   1  -1  172.77   10.53
   8   1   0   -5.02    5.50
  -8  -1   0    6.20    4.44
  -8  -1   0   -1.58    4.07
   8   1   0    3.24    2.20
   8   1   1  282.95   18.87
  -8  -1  -1  247.79   19.00
  -8  -1  -1  248.95   16.71
   8   1   2  151.24   14.00
  -8  -1  -2  117.89   13.62
  -8  -1  -2  146.67   13.02
   8   1   3  142.37   13.25
  -8  -1  -3  149.54   15.02
  -8  -1  -3  164.66   13.91
   8   1   4  195.70   14.39
  -8  -1  -4  174.31   16.36
   8   1   5   52.25    7.54
  -8  -1  -5   47.82    9.10
   8   1   6   51.26    7.36
  -8  -1  -6   40.21    8.08
   8   1   7   24.91    5.98
  -8  -1  -7    4.74    4.71
   8   1   8  272.00   16.86
  -8  -1  -8  209.89   17.40
   8   1   9   -5.28    4.35
  -8  -1  -9   -2.62    4.62
   8   1  10    5.98    4.42
  -8  -1 -10    4.34    4.39
  -8  -1 -11    6.67    4.65
  -8  -1 -12   20.93    6.79
  -8  -1 -12   33.24    7.38
  -8  -1 -13   27.46    7.92
   8   1  13   22.78    6.67
  -8  -1 -13   20.69    5.98
  -8  -1 -14  165.47   16.37
  -8  -1 -14  177.84   14.76
   8   1  14  191.90   17.80
  -8  -2  13  -10.44    6.82
   8   2 -13   -3.27    4.77
   8   2 -12    4.14    5.62
  -8  -2  12   -0.60    5.12
   8   2 -12    0.89    4.67
   8   2 -11   12.81    6.21
  -8  -2  11    7.86    5.39
   8   2 -11   17.49    6.56
  -8  -2  10  260.59   20.44
   8   2 -10  259.58   19.19
   8   2 -10  293.28   22.10
   8   2  -9   96.31   13.22
  -8  -2   9   80.67   11.28
   8   2  -9   69.25   10.27
  -8  -2   8  153.08   14.94
  -8  -2   8  143.45   12.43
   8   2  -8  150.71   14.14
   8   2  -8  142.02   14.90
  -8  -2   7  188.50   15.68
  -8  -2   7  174.21   14.36
   8   2  -7  197.90   15.45
   8   2  -7  205.60   17.34
   8   2  -6   47.46    8.39
  -8  -2   6   43.39    8.10
  -8  -2   6   30.86    6.94
   8   2  -6   40.94    7.18
  -8  -2   5  411.73   22.65
  -8  -2   5  389.15   22.03
  -8  -2   5  433.52   19.32
   8   2  -5  438.75   21.58
   8   2  -5  433.60   24.63
  -8  -2   4  537.46   25.71
  -8  -2   4  467.15   24.40
  -8  -2   4  485.54   21.03
   8   2  -4  505.60   22.40
   8   2  -4  529.43   26.96
  -8  -2   3  344.87   20.33
  -8  -2   3  330.82   20.64
  -8  -2   3  342.28   17.38
   8   2  -3  351.76   17.26
   8   2  -3  370.17   22.35
   8   2  -2   44.20    8.81
  -8  -2   2   65.66    7.84
  -8  -2   2   60.73    9.38
   8   2  -2   46.80    6.04
   8   2  -1  509.87   26.81
  -8  -2   1  497.88   25.92
  -8  -2   1  441.62   20.93
   8   2  -1  534.29   19.12
   8   2   0    5.67    5.23
   8   2   0    2.91    2.10
  -8  -2   0    7.30    3.71
  -8  -2   0    7.31    5.04
   8   2   0    4.94    2.32
   8   2   1   32.76    7.15
   8   2   1   26.88    4.41
  -8  -2  -1   24.85    5.60
  -8  -2  -1   23.56    6.88
   8   2   2 1514.77   46.09
  -8  -2  -2 1362.56   46.82
   8   2   3  463.22   22.66
  -8  -2  -3  403.29   23.76
   8   2   4   37.46    6.45
  -8  -2  -4   36.32    7.70
   8   2   5    3.22    3.65
  -8  -2  -5    1.33    4.36
   8   2   6  187.86   13.49
  -8  -2  -6  171.14   15.38
   8   2   7   16.31    4.95
  -8  -2  -7   14.27    5.26
   8   2   8  704.74   27.88
  -8  -2  -8  647.47   29.64
   8   2   9  132.94   12.10
  -8  -2  -9  112.95   11.83
   8   2  10  369.82   20.24
  -8  -2 -10  304.65   19.54
  -8  -2 -11   -2.11    3.69
   8   2  11   -1.26    3.84
  -8  -2 -11   -1.06    4.17
  -8  -2 -12   15.79    5.67
   8   2  12    8.76    5.59
  -8  -2 -12   14.04    5.29
  -8  -2 -13   14.95    5.58
   8   2  13   16.11    5.83
  -8  -2 -13   20.34    5.15
  -8  -2 -14    8.54    5.57
   8   2  14   -0.38    3.74
  -8  -2 -14    2.38    3.68
  -8  -2 -15   58.95   10.07
   8   2  15   66.89   10.41
  -8  -2 -15   34.53    6.93
  -8  -3  13   -4.27    4.07
  -8  -3  13   -5.30    4.65
   8   3 -13    8.27    5.87
  -8  -3  12  246.84   21.00
  -8  -3  12  221.11   19.19
   8   3 -12  261.08   21.14
   8   3 -11   74.75   11.51
  -8  -3  11   81.31   12.18
   8   3 -11   79.27   11.45
   8   3 -10    2.48    4.86
  -8  -3  10   -0.29    4.41
   8   3 -10    0.34    5.90
   8   3  -9   39.41    9.00
  -8  -3   9   40.69    8.41
   8   3  -9   38.59    7.64
   8   3  -8   11.44    5.46
  -8  -3   8    7.89    4.13
   8   3  -8    6.36    4.01
   8   3  -7   43.55    8.41
  -8  -3   7   12.08    5.00
  -8  -3   7   22.36    5.96
   8   3  -7   42.82    7.76
  -8  -3   6  844.49   33.90
  -8  -3   6  758.29   30.64
   8   3  -6  827.78   32.52
   8   3  -6  870.56   35.98
  -8  -3   5  477.25   24.09
  -8  -3   5  432.67   22.50
   8   3  -5  437.36   21.96
   8   3  -5  483.17   25.46
  -8  -3   4  550.97   25.89
  -8  -3   4  504.67   24.71
   8   3  -4  527.23   23.10
   8   3  -4  529.48   26.71
  -8  -3   3  489.38   23.77
  -8  -3   3  429.17   23.10
  -8  -3   3  416.66   17.43
   8   3  -3  476.37   20.48
   8   3  -3  487.41   25.42
  -8  -3   2  176.72   14.08
  -8  -3   2  158.19   14.09
  -8  -3   2  172.53   10.85
   8   3  -2  162.34   14.85
   8   3  -1   12.36    5.19
   8   3  -1   18.52    4.16
  -8  -3   1   21.16    4.51
  -8  -3   1   19.71    6.05
   8   3   0  499.44   25.59
   8   3   0  484.93   19.49
  -8  -3   0  506.55   25.27
   8   3   1 1197.69   40.79
   8   3   1 1117.71   32.81
  -8  -3  -1 1181.09   40.68
   8   3   2 1154.30   38.00
   8   3   2 1051.27   32.01
  -8  -3  -2 1076.91   38.62
   8   3   3   58.42    8.29
  -8  -3  -3   77.31   10.06
   8   3   4  118.75   11.01
  -8  -3  -4  126.70   12.64
   8   3   5  229.36   15.34
  -8  -3  -5  261.71   17.81
   8   3   6  461.22   21.28
  -8  -3  -6  441.13   23.36
   8   3   7  332.11   18.38
  -8  -3  -7  324.93   19.46
   8   3   8  285.92   16.96
  -8  -3  -8  270.97   17.77
   8   3   9  103.34   11.10
  -8  -3  -9   98.46   10.69
  -8  -3 -10   20.17    5.87
   8   3  10   10.83    4.94
  -8  -3 -10   21.62    5.67
  -8  -3 -11   55.96    8.88
   8   3  11   51.05    7.74
  -8  -3 -11   53.44    8.23
  -8  -3 -12  357.67   20.98
  -8  -3 -12  308.25   19.14
   8   3  12  414.44   22.72
  -8  -3 -13   31.17    7.21
   8   3  13   31.10    8.02
  -8  -3 -13   23.63    6.08
  -8  -3 -14  101.71   11.99
  -8  -3 -14  129.76   12.61
   8   3  14  125.46   14.17
  -8  -3 -15   13.22    5.39
   8   3  15    8.55    5.64
  -8  -3 -15   10.75    5.51
  -8  -3 -16    7.40    5.52
  -8  -3 -16   20.48    5.93
  -8  -4  13    3.74    4.08
  -8  -4  12    6.99    4.18
  -8  -4  12    4.31    4.72
  -8  -4  12    3.89    4.34
  -8  -4  11    7.24    4.45
  -8  -4  11    6.57    5.11
  -8  -4  11   17.12    6.12
   8   4 -11    4.51    5.65
  -8  -4  10  422.83   26.42
   8   4 -10  443.33   27.00
   8   4  -9    4.97    5.18
  -8  -4   9   -1.44    4.04
  -8  -4   8  172.00   15.55
   8   4  -8  162.89   15.76
   8   4  -7   45.32    8.79
  -8  -4   7   57.00    8.96
   8   4  -6   29.46    6.88
  -8  -4   6   24.11    5.96
  -8  -4   6   14.12    4.66
   8   4  -5   47.34    8.38
  -8  -4   5   75.59    9.50
  -8  -4   5   37.75    6.70
   8   4  -4   97.78   11.43
  -8  -4   4   98.25   10.45
  -8  -4   4   96.88   10.04
   8   4  -3   15.70    5.83
  -8  -4   3   11.58    4.31
  -8  -4   3    7.98    4.35
   8   4  -2   56.30    9.00
  -8  -4   2   51.68    7.60
  -8  -4   2   51.96    7.96
   8   4  -1   -3.29    5.60
   8   4  -1    7.83    3.88
  -8  -4   1    1.12    3.50
   8   4   0  888.29   35.15
   8   4   0  932.83   31.03
  -8  -4   0  903.90   33.54
   8   4   1   57.23    8.69
   8   4   1   57.63    7.69
  -8  -4  -1   64.28    8.77
   8   4   2  163.07   13.51
   8   4   2  149.34   11.98
  -8  -4  -2  160.52   13.46
   8   4   3  183.14   13.80
   8   4   3  161.26   12.53
  -8  -4  -3  153.63   13.18
   8   4   4    7.78    3.56
  -8  -4  -4   14.07    4.92
   8   4   5   -4.32    3.71
  -8  -4  -5    1.51    3.36
   8   4   6  471.64   21.11
  -8  -4  -6  463.51   22.77
   8   4   7    7.31    3.49
  -8  -4  -7   15.75    5.23
  -8  -4  -8  294.71   15.92
   8   4   8  310.45   17.78
  -8  -4  -8  293.46   17.81
   8   4   9    9.62    4.25
  -8  -4  -9    9.95    3.88
   8   4   9    6.96    4.86
  -8  -4  -9   11.24    5.16
  -8  -4 -10  198.14   14.16
  -8  -4 -10  192.38   14.81
   8   4  10  240.14   15.88
  -8  -4 -11    7.33    4.25
   8   4  11   12.54    4.92
  -8  -4 -11    7.02    3.70
   8   4  12    4.54    4.46
  -8  -4 -12    1.83    3.46
  -8  -4 -13   40.33    7.78
   8   4  13   49.48    9.12
  -8  -4 -13   53.53    8.30
  -8  -4 -14    8.49    4.83
   8   4  14   12.94    6.50
  -8  -4 -14   23.12    5.88
  -8  -4 -15   11.46    5.00
   8   4  15    7.84    5.23
  -8  -4 -15   13.93    5.61
  -8  -4 -16  255.65   19.76
  -8  -4 -16  277.06   18.92
   8   4  16  251.06   20.01
  -8  -4 -17   34.44    7.61
  -8  -5  12  124.88   15.13
  -8  -5  11  166.35   17.64
  -8  -5  11  161.52   17.39
  -8  -5  10   42.00    8.71
  -8  -5  10   48.35   10.12
   8   5 -10   43.59    8.95
   8   5  -9   -0.40    5.35
   8   5  -9   -7.86    6.85
  -8  -5   9    9.08    5.58
  -8  -5   9   11.22    5.57
   8   5  -8   30.51    7.87
   8   5  -8   34.94    8.51
  -8  -5   8   26.52    7.51
  -8  -5   8   28.82    7.25
   8   5  -7   31.89    7.56
   8   5  -7   43.74    9.51
  -8  -5   7   36.18    7.70
   8   5  -6 1111.78   43.78
  -8  -5   6 1154.55   40.56
   8   5  -6 1192.78   43.19
   8   5  -5   12.99    5.97
   8   5  -5   19.47    6.76
  -8  -5   5   26.36    6.47
  -8  -5   5   19.68    5.21
   8   5  -4   11.76    5.22
   8   5  -4   11.13    5.35
  -8  -5   4    9.22    4.16
  -8  -5   4   18.04    5.26
   8   5  -3   27.77    6.56
   8   5  -3   32.04    7.27
  -8  -5   3   32.26    6.28
  -8  -5   3   32.47    5.82
   8   5  -2   14.49    5.54
  -8  -5   2    9.00    4.25
  -8  -5   2   10.97    3.95
  -8  -5   1  386.68   19.86
   8   5  -1  429.17   22.09
  -8  -5   1  401.01   20.31
   8   5  -1  433.92   23.37
   8   5   0  998.55   37.60
   8   5   0 1018.38   35.59
  -8  -5   0 1072.94   35.24
   8   5   1   99.86   11.23
   8   5   1  102.04   10.92
  -8  -5  -1  105.94   10.44
   8   5   2   13.23    5.04
   8   5   2   20.78    5.21
  -8  -5  -2   15.06    5.03
   8   5   3  957.74   33.42
   8   5   3  915.81   33.61
  -8  -5  -3  930.76   32.96
   8   5   4  144.65   12.05
   8   5   4  128.97   12.42
  -8  -5  -4  119.57   10.94
   8   5   5  127.49   11.35
   8   5   5  155.45   13.20
  -8  -5  -5  154.72   12.85
  -8  -5  -6 1129.38   32.03
   8   5   6 1206.54   36.63
  -8  -5  -6 1192.13   38.36
  -8  -5  -7  848.27   27.38
   8   5   7  888.22   30.47
  -8  -5  -7  863.04   31.91
   8   5   8   -3.61    4.37
  -8  -5  -8    7.01    3.08
  -8  -5  -8    4.12    3.66
  -8  -5  -9  384.77   18.11
   8   5   9  405.22   19.81
  -8  -5  -9  378.15   20.61
   8   5   9  396.74   20.25
  -8  -5 -10   14.22    4.77
   8   5  10   22.69    6.01
  -8  -5 -10   14.93    5.01
  -8  -5 -11    5.24    3.82
   8   5  11    9.24    4.82
  -8  -5 -11    8.72    4.51
  -8  -5 -12  675.83   27.86
  -8  -5 -12  630.46   27.91
   8   5  12  696.71   30.17
  -8  -5 -13   56.32    8.35
   8   5  13   54.41    8.27
  -8  -5 -13   36.55    7.33
  -8  -5 -14  135.81   13.08
  -8  -5 -14  120.46   12.48
   8   5  14  124.25   12.98
  -8  -5 -15   16.34    5.62
   8   5  15    3.74    4.48
  -8  -5 -15   19.21    5.84
  -8  -5 -16   20.36    6.36
   8   5  16   26.52    7.20
  -8  -5 -16   26.53    6.46
  -8  -5 -17   57.19    9.07
  -8  -5 -17   43.52    8.95
  -8  -6  11    0.28    5.98
   8   6 -10  260.63   21.57
  -8  -6  10  289.72   22.36
  -8  -6  10  271.95   22.04
  -8  -6   9  135.44   15.36
  -8  -6   9  153.83   15.19
   8   6  -9  131.81   15.40
   8   6  -9  110.80   13.51
   8   6  -8   67.41   10.38
   8   6  -8   57.88    9.82
  -8  -6   8   42.33    8.35
  -8  -6   8   53.84    9.99
   8   6  -7   11.29    5.89
   8   6  -7   14.81    6.35
  -8  -6   7    7.37    4.11
  -8  -6   7    6.64    4.82
   8   6  -6    6.34    5.02
   8   6  -6    4.69    5.54
  -8  -6   6    5.16    3.49
  -8  -6   6    9.28    5.63
   8   6  -5    7.96    4.84
   8   6  -5   11.37    6.05
  -8  -6   5    4.08    4.12
  -8  -6   5   11.51    4.98
  -8  -6   4  140.50   12.32
   8   6  -4  110.44   12.65
  -8  -6   4  128.44   10.45
  -8  -6   4  116.18   12.70
   8   6  -4  133.61   13.18
   8   6  -3   82.56   10.33
   8   6  -3   80.23   10.73
  -8  -6   3   78.01    9.07
  -8  -6   3   71.79    8.35
  -8  -6   3   68.60    9.71
   8   6  -2 1977.86   57.69
  -8  -6   2 2059.83   52.48
  -8  -6   2 1899.67   50.19
  -8  -6   2 1871.37   55.32
  -8  -6   2 1912.75   48.02
   8   6  -2 1977.37   55.75
   8   6  -1   51.28    8.74
   8   6  -1   62.14    9.53
   8   6  -1   46.22    8.72
  -8  -6   1   57.17    7.21
  -8  -6   1   69.78    8.49
   8   6   0   34.26    7.42
   8   6   0   36.12    7.82
   8   6   0   34.07    7.33
  -8  -6   0   24.49    5.59
   8   6   1   47.22    8.08
   8   6   1   49.79    8.08
   8   6   1   37.45    7.48
  -8  -6  -1   50.89    7.37
   8   6   2  250.99   16.88
   8   6   2  258.09   17.84
   8   6   2  260.37   18.17
  -8  -6  -2  278.98   16.64
   8   6   3   48.46    7.46
   8   6   3   55.18    8.85
  -8  -6  -3   51.15    7.55
   8   6   4  924.65   32.32
  -8  -6  -4  892.45   23.79
   8   6   4  949.82   36.66
  -8  -6  -4  942.87   32.79
   8   6   5  562.53   23.44
  -8  -6  -5  515.24   17.43
   8   6   5  524.34   26.62
  -8  -6  -5  543.10   24.07
   8   6   6  392.04   19.42
  -8  -6  -6  406.48   15.92
   8   6   6  389.44   22.87
  -8  -6  -6  416.02   21.01
   8   6   7  591.66   24.36
  -8  -6  -7  608.31   21.21
  -8  -6  -7  616.94   26.06
   8   6   8   30.68    6.15
  -8  -6  -8   29.93    4.96
  -8  -6  -8   30.38    6.25
   8   6   9   67.47    8.63
  -8  -6  -9   44.35    6.44
   8   6   9   54.46    7.32
  -8  -6  -9   55.53    8.72
   8   6  10  288.35   16.82
  -8  -6 -10  263.12   15.47
  -8  -6 -10  243.89   16.78
   8   6  10  294.92   17.14
  -8  -6 -11  772.80   28.40
  -8  -6 -11  705.06   29.84
   8   6  11  769.92   30.09
  -8  -6 -12  193.32   14.31
  -8  -6 -12  169.03   14.49
   8   6  12  169.18   14.17
  -8  -6 -13   46.49    7.62
   8   6  13   44.93    7.33
  -8  -6 -13   41.56    7.85
  -8  -6 -14   26.06    6.36
   8   6  14   28.44    6.81
  -8  -6 -14   31.96    7.41
  -8  -6 -15    2.00    4.21
  -8  -6 -15    2.24    4.08
   8   6  15    0.91    4.61
  -8  -6 -16  282.44   19.79
  -8  -6 -16  267.12   18.88
   8   6  16  265.97   19.67
  -8  -6 -17    9.65    4.93
  -8  -6 -17    6.54    5.46
  -8  -6 -18   67.85   10.18
  -8  -7  11  138.60   15.67
  -8  -7  10   11.98    5.93
   8   7  -9   39.38    8.67
  -8  -7   9   41.89    8.51
  -8  -7   9   26.38    7.01
  -8  -7   8  159.98   15.21
   8   7  -8  192.44   18.51
  -8  -7   8  171.48   17.01
   8   7  -7   11.62    5.22
  -8  -7   7    3.58    4.23
   8   7  -7   -3.11    5.53
  -8  -7   7    8.93    5.53
   8   7  -6  372.77   24.19
  -8  -7   6  325.02   20.62
  -8  -7   6  347.81   23.01
   8   7  -6  353.13   21.52
   8   7  -5   90.97   11.14
  -8  -7   5   93.82   10.47
   8   7  -5   63.18   10.09
  -8  -7   5   85.52   11.44
   8   7  -4    8.33    4.22
   8   7  -4    0.86    4.09
  -8  -7   4    3.83    3.56
  -8  -7   4    5.20    4.24
   8   7  -3   37.45    7.33
   8   7  -3   25.30    6.53
  -8  -7   3   39.05    6.56
  -8  -7   3   21.88    6.46
  -8  -7   3   27.82    6.43
  -8  -7   3   35.80    6.12
  -8  -7   2  217.76   16.62
   8   7  -2  218.80   17.12
  -8  -7   2  236.74   14.89
  -8  -7   2  217.90   14.11
  -8  -7   2  235.32   15.58
   8   7  -2  231.54   16.51
  -8  -7   1  256.04   17.56
   8   7  -1  255.20   18.01
  -8  -7   1  267.24   15.99
  -8  -7   1  259.22   16.37
   8   7  -1  267.52   17.61
   8   7   0  236.18   17.20
   8   7   0  209.54   17.79
  -8  -7   0  244.80   15.32
  -8  -7   0  209.53   15.56
   8   7   0  223.02   16.19
   8   7   1  167.87   14.13
   8   7   1  187.40   15.03
   8   7   1  177.49   16.32
  -8  -7  -1  186.39   13.70
  -8  -7  -1  181.23   13.92
   8   7   2  251.49   17.11
   8   7   2  264.20   17.63
   8   7   2  272.94   20.34
  -8  -7  -2  261.10   16.48
  -8  -7  -2  268.87   16.48
   8   7   3   23.96    5.62
   8   7   3   30.81    6.70
   8   7   3   44.53    9.37
  -8  -7  -3   29.12    5.82
  -8  -7  -3   50.71    8.42
   8   7   4  508.67   23.29
   8   7   4  498.60   24.25
   8   7   4  490.77   27.81
  -8  -7  -4  533.41   24.03
  -8  -7  -4  497.30   21.74
  -8  -7  -5  773.81   27.02
   8   7   5  804.89   29.33
   8   7   5  784.41   31.09
   8   7   5  751.01   35.01
  -8  -7  -5  774.26   30.06
   8   7   6  125.87   10.90
  -8  -7  -6  134.49   10.07
   8   7   6  121.81   14.31
  -8  -7  -6  148.70   12.52
   8   7   7   16.44    4.59
   8   7   7   11.45    5.25
  -8  -7  -7   17.74    3.70
  -8  -7  -7   20.22    5.76
  -8  -7  -8   19.73    3.83
   8   7   8   10.34    3.76
   8   7   8    4.03    4.98
  -8  -7  -8   18.96    5.76
   8   7   9   61.92    7.86
  -8  -7  -9   55.65    6.61
   8   7   9   38.72    6.40
  -8  -7  -9   40.31    7.39
   8   7  10  280.24   16.41
  -8  -7 -10  272.72   15.52
  -8  -7 -10  256.12   17.42
   8   7  10  263.61   16.08
  -8  -7 -11    1.66    3.15
   8   7  11   -3.17    3.86
  -8  -7 -11    2.90    4.19
  -8  -7 -12  668.58   27.16
  -8  -7 -12  646.63   29.03
   8   7  12  681.61   28.25
  -8  -7 -13    4.11    4.90
  -8  -7 -13    2.87    3.43
   8   7  13    4.74    5.17
  -8  -7 -14   13.31    5.37
  -8  -7 -14    6.99    4.40
   8   7  14   14.07    4.83
  -8  -7 -15   27.15    6.83
  -8  -7 -15   23.06    6.14
   8   7  15   19.95    5.75
  -8  -7 -16   27.29    6.77
  -8  -7 -16   21.40    6.21
   8   7  16   26.30    7.08
  -8  -7 -17    0.38    4.40
  -8  -7 -17    5.12    4.68
   8   7  17    1.36    4.18
   8   8  -8  242.24   20.48
  -8  -8   8  231.91   20.03
   8   8  -7   48.91    9.63
  -8  -8   7   54.95   10.03
  -8  -8   6    5.33    5.53
   8   8  -6    6.30    5.06
   8   8  -5   48.72    9.11
  -8  -8   5   44.96    8.55
   8   8  -4  424.13   25.16
  -8  -8   4  476.68   26.15
  -8  -8   4  467.17   25.52
   8   8  -3  108.48   12.46
  -8  -8   3  107.46   12.16
  -8  -8   3  137.60   13.42
   8   8  -3  108.05   11.20
   8   8  -2  466.82   25.27
  -8  -8   2  473.30   25.27
  -8  -8   2  500.08   22.05
  -8  -8   2  503.09   25.86
   8   8  -2  483.06   23.89
  -8  -8   1   60.24    7.85
   8   8  -1   47.96    7.59
   8   8  -1   50.49    8.14
  -8  -8   1   53.11    8.35
  -8  -8   1   53.32    9.00
   8   8   0  123.66   12.55
  -8  -8   0  128.50   12.18
   8   8   0  108.34   14.31
  -8  -8   0  123.50   11.03
  -8  -8   0  118.67   12.50
   8   8   0  129.37   12.10
   8   8   1   97.95   10.67
   8   8   1  105.64   11.80
  -8  -8  -1  118.05   11.19
   8   8   1   91.99   12.85
  -8  -8  -1  109.70   10.55
   8   8   2  158.93   13.48
   8   8   2  164.81   13.93
  -8  -8  -2  177.69   13.45
   8   8   2  141.83   15.91
  -8  -8  -2  174.33   13.60
   8   8   3  681.22   29.16
   8   8   3  733.89   30.23
  -8  -8  -3  736.32   28.21
   8   8   3  756.71   36.63
  -8  -8  -3  729.98   29.14
   8   8   4 1398.50   43.32
   8   8   4 1504.11   45.34
   8   8   4 1465.20   53.65
  -8  -8  -4 1432.12   41.29
  -8  -8  -4 1479.56   44.68
   8   8   5   33.33    6.57
   8   8   5   29.20    6.43
   8   8   5   25.40    7.99
  -8  -8  -5   27.73    5.27
  -8  -8  -5   29.17    6.92
   8   8   6   72.57    8.35
   8   8   6   82.83    9.91
   8   8   6   92.77   13.30
  -8  -8  -6   98.42   10.82
  -8  -8  -6   80.48    8.22
   8   8   7  519.30   22.16
   8   8   7  501.00   23.88
   8   8   7  462.29   29.35
  -8  -8  -7  513.23   24.77
  -8  -8  -7  515.70   20.15
  -8  -8  -8   41.85    7.71
   8   8   8   21.63    5.45
   8   8   8   33.10    9.03
   8   8   9  696.59   26.41
   8   8   9  696.22   36.44
  -8  -8  -9  780.41   31.54
   8   8   9  711.72   25.75
   8   8  10  633.11   24.85
   8   8  10  597.91   33.96
  -8  -8 -10  610.24   28.09
   8   8  10  662.13   25.26
  -8  -8 -11   68.58    9.64
   8   8  11   61.33    7.81
   8   8  11   63.09    8.06
  -8  -8 -12    6.37    4.16
   8   8  12    4.87    4.10
  -8  -8 -13  204.82   16.49
   8   8  13  186.32   14.51
  -8  -8 -14   85.93   11.09
   8   8  14   80.78    9.91
  -8  -8 -15    6.46    5.28
   8   8  15    4.42    4.33
  -8  -8 -16  512.55   27.29
  -8  -8 -16  523.86   28.03
   8   8  16  517.95   27.02
  -8  -8 -17   13.50    5.89
   8   8  17   10.23    4.04
  -8  -9   6  180.56   17.33
   8   9  -6  190.08   17.63
  -8  -9   5   12.23    5.45
   8   9  -5    3.18    4.66
  -8  -9   5    8.82    4.91
   8   9  -4   20.97    6.78
  -8  -9   4   20.32    6.33
  -8  -9   4   23.59    7.07
   8   9  -3   16.24    5.52
  -8  -9   3   21.09    6.31
  -8  -9   3   17.74    6.38
   8   9  -2   20.18    6.18
  -8  -9   2   20.68    6.24
  -8  -9   2   34.92    7.94
  -8  -9   1   -1.91    3.34
  -8  -9   1    9.09    4.82
   8   9  -1    2.51    3.98
  -8  -9   1    7.54    5.93
   8   9   0  563.28   27.76
  -8  -9   0  596.25   25.86
  -8  -9   0  592.04   30.92
  -8  -9   0  617.64   27.99
  -8  -9  -1   45.79    7.53
   8   9   1   54.49    9.21
  -8  -9  -1   48.53    7.80
   8   9   1   28.85    9.33
   8   9   2  360.74   21.06
   8   9   2  376.99   27.62
  -8  -9  -2  350.19   20.00
  -8  -9  -2  351.60   19.85
   8   9   3   97.32   11.03
   8   9   3   68.03   12.38
  -8  -9  -3  100.68   10.49
  -8  -9  -3   91.29    9.61
  -8  -9  -4    7.77    4.92
  -8  -9  -4    5.29    3.03
   8   9   4    0.81    3.72
   8   9   4   -7.00    5.81
  -8  -9  -5   56.53    8.12
   8   9   5   52.22    8.17
   8   9   5   44.49   10.89
  -8  -9  -6   36.06    7.28
   8   9   6   41.19    7.18
   8   9   6   38.00   10.08
   8   9   7  122.55   16.34
  -8  -9  -7  103.12   11.54
   8   9   8  940.50   45.59
  -8  -9  -8  943.66   36.21
  -8  -9  -9    7.79    5.71
   8   9   9   19.45    8.64
   8   9  10  400.66   29.75
  -8  -9 -10  398.78   23.38
  -8  -9 -11   84.98   11.19
   8   9  11   88.80    9.47
   8   9  11   84.47   15.61
  -8  -9 -12    1.87    5.10
   8   9  12    4.14    3.71
   8   9  12    0.01    6.41
   8   9  13  128.04   18.41
  -8  -9 -13  120.59   13.53
  -8  -9 -14  202.74   16.81
   8   9  15   59.85    9.01
   8   9  16   49.38    8.56
  -8 -10   5   75.56   12.44
  -8 -10   4   79.49   13.00
   8  10  -3  127.37   14.03
  -8 -10   3  108.46   14.32
   8  10  -2  136.08   14.47
  -8 -10   2  176.45   18.17
   8  10  -1    3.36    4.64
  -8 -10   1    4.14    6.62
  -8 -10   0   24.25    5.79
   8  10   0   14.78    6.27
  -8 -10   0   28.72    9.01
  -8 -10  -1   60.70    8.62
   8  10   1   63.34    9.79
  -8 -10  -1   60.88   11.64
   8  10   2  412.84   23.28
   8  10   2  365.63   29.22
  -8 -10  -2  399.24   21.90
  -8 -10  -3   19.57    5.63
   8  10   3   21.25    6.68
   8  10   3   23.76    8.55
   8  10   4  305.93   19.49
   8  10   4  351.52   28.52
  -8 -10  -4  312.63   19.81
   8  10   5  118.41   12.01
   8  10   5  181.61   20.82
  -8 -10  -5  118.84   12.28
  -8 -10  -6   10.49    4.90
   8  10   6    6.84    4.23
   8  10   6   13.20    6.91
  -8 -10  -7   72.12    9.81
   8  10   7   61.37   13.64
   8  10   8  478.12   34.33
  -8 -10  -8  468.24   25.36
   8  10   9  268.50   25.84
  -8 -10  -9  271.75   19.58
   8  10  10  161.10   20.57
  -8 -10 -10  164.78   15.17
  -8 -10 -11   60.70    9.82
   8  10  11   57.85   14.13
  -8 -10 -12    9.41    5.64
   8  10  12    3.67    7.78
  -8 -11   4    1.93    5.67
  -8 -11   3   15.69    8.46
  -8 -11   2   84.18   14.58
   8  11  -1   11.76    6.07
  -8 -11   1    6.48    7.59
   8  11   0  333.68   22.43
  -8 -11   0  357.70   27.98
   8  11   1  197.60   16.77
  -8 -11  -1  203.86   15.91
  -8 -11  -1  199.39   21.12
   8  11   2  166.27   15.31
  -8 -11  -2  171.23   14.77
  -8 -11  -3   53.09    8.62
   8  11   3   48.48    8.53
   8  11   3   70.09   14.53
  -8 -11  -4   74.94   10.34
   8  11   4   58.67    8.96
  -8 -11  -4   67.98   10.21
   8  11   4   65.27   13.74
  -8 -11  -5   -2.95    4.04
   8  11   5   -1.30    3.81
   8  11   5    6.09    7.56
  -8 -11  -5    8.65    5.44
   8  11   6  403.41   33.76
  -8 -11  -6  423.84   24.37
   8  11   7  213.91   24.97
  -8 -11  -7  193.04   16.46
   8  11   8  987.05   53.16
  -8 -11  -8  856.70   36.61
  -8 -11  -9   21.31    7.79
   8  11   9   19.51   11.41
   8  12   2  275.28   20.35
   8  12   3   13.02    5.74
   8  12   4  104.73   12.71
  -8 -12  -4  127.32   13.48
  -8 -12  -5   20.15    6.22
  -8 -12  -5   12.77    6.23
  -8 -12  -6   82.22   11.96
  -8 -12  -7    2.60    4.59
   9  -4  -5   13.88    6.94
   9  -4  -4    9.54    5.73
   9  -4  -3   49.73    9.80
   9  -4  -2   49.16    9.62
   9  -4  -1   -2.28    4.63
   9  -4   0    1.42    5.40
   9  -4   1    4.19    5.37
   9  -4   2    4.02    5.36
   9  -3  -8   55.08   11.06
   9  -3  -7    1.89    5.33
   9  -3  -7   11.09    5.71
  -9   3   7    6.36    5.36
   9  -3  -6    5.39    5.65
   9  -3  -6   -2.46    5.23
  -9   3   6    2.00    4.69
   9  -3  -5    7.27    5.86
   9  -3  -5    1.83    4.31
  -9   3   5   -5.64    4.89
   9  -3  -4   38.13    9.09
   9  -3  -4   24.58    8.63
  -9   3   4   36.72    9.12
   9  -3  -3  125.68   16.42
  -9   3   3  155.64   16.84
   9  -3  -3  153.51   15.79
   9  -3  -2  124.36   14.62
   9  -3  -2  115.47   15.09
  -9   3   2  134.78   15.79
   9  -3  -1   21.21    7.28
  -9   3   1   20.48    8.28
   9  -3  -1   28.81    8.75
  -9   3   1   33.83    9.49
   9  -3   0   79.39   12.54
   9  -3   0   88.91   14.15
  -9   3   0   94.56   14.09
  -9   3   0  105.81   15.27
   9  -3   1   31.72    8.16
  -9   3  -1   44.99   11.18
  -9   3  -1   51.44   11.84
   9  -3   2    7.92    5.98
  -9   3  -2   30.05    9.66
  -9   3  -2   21.69    8.16
   9  -3   3  124.90   15.21
  -9   3  -3  103.23   15.59
  -9   3  -3  111.84   16.54
   9  -3   4  204.42   18.95
  -9   3  -4  193.44   22.40
   9  -3   5   80.27   12.54
  -9   3  -5   69.44   14.31
   9  -3   6    8.40    5.15
  -9   3  -6   15.14    8.47
   9  -3   7   12.32    5.99
  -9   2  10   19.69    6.93
   9  -2 -10   18.85    6.44
  -9   2   9    2.33    4.68
   9  -2  -9    2.48    4.27
   9  -2  -8    7.66    5.54
  -9   2   8   -3.12    4.27
   9  -2  -7    2.04    4.94
   9  -2  -7   10.27    5.42
  -9   2   7    1.55    4.08
   9  -2  -6    9.11    5.82
   9  -2  -6   -5.81    5.07
  -9   2   6    4.25    5.19
   9  -2  -5  185.99   16.99
  -9   2   5  173.38   16.50
   9  -2  -5  184.76   17.28
   9  -2  -4  218.30   19.05
  -9   2   4  239.33   19.76
   9  -2  -4  232.13   19.43
   9  -2  -3   55.38   10.52
  -9   2   3   41.54   10.97
   9  -2  -3   43.11    9.19
  -9   2   3   70.13   11.17
   9  -2  -2    7.49    5.53
   9  -2  -2   20.17    7.07
  -9   2   2   18.77    6.65
  -9   2   2   11.36    6.33
   9  -2  -1   23.70    8.20
  -9   2   1   35.06    8.64
  -9   2   1   41.32    9.14
   9  -2   0    1.74    5.25
  -9   2   0   10.33    6.75
  -9   2   0    3.19    6.30
   9  -2   1   72.85   11.48
  -9   2  -1   75.93   12.23
  -9   2  -1   81.64   13.47
   9  -2   2  254.44   21.41
  -9   2  -2  255.80   21.90
  -9   2  -2  213.24   20.75
   9  -2   3  272.57   21.90
  -9   2  -3  231.31   22.03
  -9   2  -3  250.93   22.40
   9  -2   4   10.92    6.00
  -9   2  -4    4.64    6.38
  -9   2  -4   14.31    8.72
   9  -2   5   64.42   11.07
  -9   2  -5   65.27   12.34
  -9   2  -5   55.09   11.88
   9  -2   6    3.34    4.64
  -9   2  -6   23.03    8.29
   9  -2   7    4.70    4.82
  -9   2  -7   -0.55    5.75
   9  -2   8  105.81   12.64
  -9   2  -8   74.21   13.76
   9  -2   9  169.85   16.09
  -9   2  -9  103.38   15.56
  -9   2 -10    5.26    6.92
   9  -1 -11   11.83    5.80
  -9   1  10    2.73    4.61
   9  -1 -10   13.43    4.94
   9  -1  -9  108.26   13.51
  -9   1   9   87.44   12.37
   9  -1  -9  104.23   11.86
   9  -1  -8   81.11   12.04
  -9   1   8  101.29   11.93
  -9   1   8   88.53   11.96
   9  -1  -8   76.46   10.33
   9  -1  -7  118.49   14.15
   9  -1  -7  101.31   11.80
  -9   1   7  125.30   13.33
  -9   1   7  112.82   13.55
   9  -1  -7  115.11   11.87
   9  -1  -6    7.67    5.89
   9  -1  -6    0.51    3.86
  -9   1   6   -2.59    3.96
  -9   1   6   -0.46    4.59
   9  -1  -5    2.91    5.21
  -9   1   5   -2.54    4.86
   9  -1  -5    1.72    3.46
  -9   1   5    5.84    5.11
   9  -1  -4   14.91    6.23
  -9   1   4   21.93    7.00
  -9   1   4    9.47    5.66
   9  -1  -3   67.72   11.36
  -9   1   3   87.19   11.59
  -9   1   3   60.96   10.53
   9  -1  -2    9.93    6.81
  -9   1   2    2.74    4.62
  -9   1   2    3.17    4.90
   9  -1  -1    5.93    5.04
  -9   1   1   16.12    6.78
  -9   1   1   18.13    7.08
   9  -1   0   24.04    7.25
  -9   1   0   18.90    7.29
  -9   1   0   34.62    8.79
   9  -1   1   72.02   11.45
  -9   1  -1   48.74    9.73
  -9   1  -1   73.53   12.26
   9  -1   2   46.59    9.93
  -9   1  -2   44.43    9.94
  -9   1  -2   39.03    9.61
   9  -1   3   64.90   10.52
  -9   1  -3   50.12   10.48
  -9   1  -3   61.20   11.14
   9  -1   4   11.18    5.47
  -9   1  -4    7.24    5.36
  -9   1  -4    5.37    6.36
   9  -1   5    3.33    4.39
  -9   1  -5    6.76    6.08
   9  -1   6   -1.40    5.16
  -9   1  -6    4.85    5.64
   9  -1   7  105.55   12.61
  -9   1  -7   74.37   12.98
   9  -1   8   18.22    6.08
  -9   1  -8   19.28    8.62
   9  -1   9   14.86    6.03
  -9   1  -9    8.46    5.97
   9  -1  10   22.70    6.82
  -9   1 -10    8.97    7.44
  -9   1 -11    6.19    5.32
  -9   1 -12    7.93    5.74
   9   0 -12   11.06    5.52
   9   0 -11   72.82   10.62
   9   0 -10  121.52   12.96
   9   0  -9   96.41   13.05
  -9   0   9  103.97   13.72
  -9   0   9   71.93   10.14
   9   0  -9   97.05   11.16
   9   0  -8    8.66    5.40
  -9   0   8    0.42    4.46
  -9   0   8   -3.36    4.58
   9   0  -8    0.81    3.52
   9   0  -7   -4.90    4.96
  -9   0   7   -1.54    3.57
  -9   0   7    0.41    3.89
   9   0  -7    2.98    4.09
   9   0  -6   83.84   11.22
  -9   0   6   80.97   10.01
  -9   0   6   62.93    9.69
   9   0  -6   74.58    9.54
  -9   0   5  186.12   16.50
  -9   0   5  179.34   15.07
   9   0  -5  233.70   18.83
   9   0  -4   21.49    7.03
  -9   0   4   30.43    6.91
  -9   0   4   22.79    7.04
   9   0  -3   13.85    6.89
  -9   0   3   23.22    6.65
  -9   0   3   18.62    6.32
   9   0  -2   25.26    7.68
  -9   0   2   38.47    7.45
  -9   0   2   40.75    8.72
   9   0  -1   -8.32    7.06
  -9   0   1    2.07    4.30
  -9   0   1    1.70    4.90
   9   0   0  198.29   18.53
  -9   0   0  189.30   17.90
  -9   0   0  170.66   16.17
   9   0   1  669.38   33.41
  -9   0  -1  668.43   33.92
  -9   0  -1  557.70   29.44
   9   0   2   71.16   10.60
  -9   0  -2   57.71    9.80
  -9   0  -2   91.36   12.88
   9   0   3   18.15    6.81
  -9   0  -3    9.39    5.38
  -9   0  -3   15.57    6.91
   9   0   4  131.45   13.64
  -9   0  -4  107.11   13.14
  -9   0  -4  103.32   14.30
   9   0   5   26.75    6.88
  -9   0  -5   33.50    9.10
   9   0   6   39.31    7.79
  -9   0  -6   32.00    9.05
   9   0   7  462.69   25.83
  -9   0  -7  388.17   27.36
   9   0   8  285.84   19.26
  -9   0  -8  205.98   20.58
   9   0   9   14.29    5.70
  -9   0  -9   10.04    6.24
   9   0  10  113.83   12.99
  -9   0 -10   87.20   13.37
   9   0  11   -1.96    4.14
  -9   0 -11   -0.65    4.87
  -9   0 -12    4.82    5.18
  -9   0 -13   37.45    8.54
   9   1 -12   16.22    6.87
   9   1 -11   20.09    6.33
   9   1 -10   36.45    8.92
  -9  -1  10   42.16    9.71
   9   1 -10   26.17    6.60
  -9  -1   9  308.39   22.08
   9   1  -9  291.21   19.75
   9   1  -9  327.64   23.48
   9   1  -8   66.49   11.36
  -9  -1   8  100.93   12.73
  -9  -1   8   70.70   10.07
   9   1  -8   73.14    9.89
   9   1  -7   65.43   10.93
  -9  -1   7   55.38    9.75
  -9  -1   7   60.49    9.24
   9   1  -7   66.62    8.82
   9   1  -6   -1.48    4.87
  -9  -1   6    3.98    4.32
  -9  -1   6    1.37    3.79
   9   1  -6    0.82    3.34
   9   1  -5   10.81    5.35
  -9  -1   5    3.24    3.81
  -9  -1   5    7.96    4.30
   9   1  -5   12.51    4.00
   9   1  -4    8.69    5.77
  -9  -1   4    8.24    4.61
  -9  -1   4    5.52    4.70
   9   1  -3   19.02    6.44
  -9  -1   3   15.09    5.26
  -9  -1   3   21.60    6.02
  -9  -1   2  191.95   17.17
  -9  -1   2  214.69   15.89
   9   1  -2  195.26   18.10
   9   1  -1  379.84   25.78
  -9  -1   1  445.06   25.94
  -9  -1   1  392.62   22.21
   9   1   0   85.94   12.36
  -9  -1   0   95.45   11.27
  -9  -1   0   91.98   12.78
   9   1   1   43.54    9.05
  -9  -1  -1   42.74    8.41
  -9  -1  -1   35.52    8.65
   9   1   2   48.87    8.63
  -9  -1  -2   45.38    8.44
  -9  -1  -2   42.98    8.71
   9   1   3   58.45    9.81
  -9  -1  -3   66.29   10.68
   9   1   4   -8.37    5.99
  -9  -1  -4   -2.26    5.88
   9   1   5  514.44   25.56
  -9  -1  -5  428.59   27.80
   9   1   6  251.59   17.57
  -9  -1  -6  202.01   19.21
   9   1   7  127.75   12.50
  -9  -1  -7   78.36   12.36
   9   1   8    2.85    4.30
  -9  -1  -8   -1.88    5.06
   9   1   9   22.75    6.39
  -9  -1  -9   21.29    6.90
   9   1  10   21.59    6.33
  -9  -1 -10   31.93    8.17
   9   1  11   80.46   10.84
  -9  -1 -11   53.12    9.63
   9   1  12  115.86   13.27
  -9  -1 -12   98.02   12.44
  -9  -1 -13   80.28   11.22
  -9  -1 -14   10.82    5.53
   9   2 -12   68.99   10.80
   9   2 -11  410.13   25.22
   9   2 -10   95.24   13.15
  -9  -2  10  148.39   15.63
   9   2 -10  108.67   13.01
   9   2  -9    6.64    5.62
  -9  -2   9    0.40    4.13
   9   2  -9   -3.75    4.48
   9   2  -8   11.90    5.49
  -9  -2   8   14.86    6.13
  -9  -2   8   11.13    4.75
   9   2  -8    9.01    4.73
   9   2  -7    3.11    4.93
  -9  -2   7    6.09    4.70
  -9  -2   7    3.09    4.37
   9   2  -7    1.78    3.51
   9   2  -6   16.61    6.82
  -9  -2   6   16.59    5.97
  -9  -2   6    7.61    4.72
   9   2  -6   12.93    5.19
  -9  -2   5  533.77   27.28
  -9  -2   5  480.25   25.88
   9   2  -5  514.53   23.78
   9   2  -5  533.79   28.46
   9   2  -4   83.74   11.60
  -9  -2   4   89.00    9.22
  -9  -2   4   79.79   10.99
   9   2  -4   86.26    9.45
   9   2  -3   14.82    5.24
  -9  -2   3   29.26    5.69
  -9  -2   3   26.94    6.84
   9   2  -2   -2.69    5.26
  -9  -2   2   -0.27    3.70
  -9  -2   2    1.39    4.85
   9   2  -1  103.43   12.96
  -9  -2   1  101.31   10.62
  -9  -2   1  110.90   13.26
   9   2   0   86.34   12.46
  -9  -2   0   88.52   10.27
  -9  -2   0  105.72   12.95
   9   2   1  118.03   13.76
  -9  -2  -1  106.96   11.26
  -9  -2  -1  109.81   13.39
   9   2   2   33.68    7.89
  -9  -2  -2   34.24    7.89
   9   2   3   20.51    6.18
  -9  -2  -3    6.23    4.99
   9   2   4   17.84    4.78
  -9  -2  -4   22.29    7.53
   9   2   5  153.70   13.60
  -9  -2  -5  141.00   15.47
   9   2   6  213.59   15.61
  -9  -2  -6  194.96   17.71
   9   2   7  171.08   14.01
  -9  -2  -7  146.03   15.53
   9   2   8    1.73    4.19
  -9  -2  -8   -0.80    4.49
   9   2   9   18.81    5.90
  -9  -2  -9   30.74    8.05
   9   2  10   15.63    5.85
  -9  -2 -10   15.16    6.19
   9   2  11    7.22    4.99
  -9  -2 -11   12.66    6.13
  -9  -2 -12  104.90   12.63
   9   2  12  101.36   12.31
  -9  -2 -12   95.87   11.95
   9   2  13   88.77   11.96
  -9  -2 -13   90.11   12.39
  -9  -2 -13  101.32   12.03
  -9  -2 -14    6.14    5.31
  -9  -2 -15   -7.88    6.09
   9   3 -12   38.22    8.85
  -9  -3  11  134.27   15.67
   9   3 -11  129.69   14.29
   9   3 -10   16.10    6.91
  -9  -3  10    4.35    4.43
   9   3 -10    7.80    6.44
   9   3  -9   -0.29    5.20
  -9  -3   9    1.58    4.49
   9   3  -9   -0.26    4.27
   9   3  -8    8.49    5.68
  -9  -3   8    8.21    4.93
   9   3  -8    0.56    4.15
  -9  -3   7  177.15   15.60
  -9  -3   7  176.76   14.84
   9   3  -7  160.02   14.37
   9   3  -7  183.85   17.05
   9   3  -6   60.14   10.15
  -9  -3   6   50.22    8.35
  -9  -3   6   50.88    8.14
   9   3  -6   60.40    8.68
   9   3  -5   12.46    5.83
  -9  -3   5   15.25    5.03
  -9  -3   5    8.44    5.05
   9   3  -5    3.24    3.36
   9   3  -4    3.22    4.49
  -9  -3   4   14.84    5.10
  -9  -3   4   15.74    5.69
   9   3  -4    4.91    3.18
  -9  -3   3  133.13   13.87
   9   3  -3  161.76   15.59
   9   3  -2   30.76    7.58
  -9  -3   2   31.15    5.62
  -9  -3   2   34.19    7.73
   9   3  -1  385.74   24.56
  -9  -3   1  411.94   24.33
  -9  -3   1  397.62   19.13
   9   3   0   21.74    6.94
  -9  -3   0   20.57    6.29
   9   3   1    8.94    5.05
  -9  -3  -1   12.57    5.55
   9   3   2   46.16    8.39
   9   3   2   49.81    6.38
  -9  -3  -2   49.45    9.53
   9   3   3  202.99   16.17
   9   3   3  191.48   12.77
  -9  -3  -3  198.32   17.30
   9   3   4  306.02   19.72
  -9  -3  -4  293.23   21.27
   9   3   5  573.06   25.92
  -9  -3  -5  483.56   27.31
   9   3   6   66.15    9.96
  -9  -3  -6   62.11    9.96
   9   3   7    2.03    4.03
  -9  -3  -7    0.84    4.27
   9   3   8  283.39   18.39
  -9  -3  -8  293.30   20.18
   9   3   9    3.73    4.20
  -9  -3  -9    1.42    4.03
   9   3  10  253.99   17.68
  -9  -3 -10  203.72   16.94
  -9  -3 -11  489.47   26.14
   9   3  11  574.62   27.97
  -9  -3 -11  483.16   26.24
   9   3  12   41.10    7.86
  -9  -3 -12   31.55    7.53
  -9  -3 -12   33.32    7.33
  -9  -3 -13   19.80    6.22
   9   3  13   20.05    7.11
  -9  -3 -13   23.13    6.77
  -9  -3 -14   81.56   11.46
   9   3  14   99.34   13.25
  -9  -3 -14   61.79    9.43
  -9  -3 -15    8.06    4.39
  -9  -3 -16   58.52    9.27
  -9  -4  12  186.20   17.63
  -9  -4  11  110.48   14.24
   9   4 -10    0.22    4.92
  -9  -4  10    5.08    3.82
   9   4  -9   10.07    5.93
  -9  -4   9   13.79    5.56
   9   4  -8   87.71   12.13
  -9  -4   8  106.85   12.91
  -9  -4   7  248.04   18.80
   9   4  -7  258.40   20.35
  -9  -4   6  240.69   17.82
  -9  -4   6  217.68   16.26
   9   4  -6  221.33   18.10
  -9  -4   5  488.92   24.99
  -9  -4   5  440.79   23.85
   9   4  -5  464.25   26.08
   9   4  -4   43.45    8.87
  -9  -4   4   48.57    8.04
  -9  -4   4   45.81    8.25
   9   4  -3   20.98    6.19
  -9  -4   3    5.11    4.30
  -9  -4   3   17.96    5.88
   9   4  -2   25.03    6.52
  -9  -4   2   38.95    7.97
   9   4  -1   27.85    7.53
  -9  -4   1   34.61    7.52
   9   4   0   26.70    6.98
   9   4   0   41.05    6.48
  -9  -4   0   20.76    6.59
   9   4   1  414.63   24.56
   9   4   1  407.93   19.99
  -9  -4  -1  363.17   22.26
   9   4   2   40.95    8.11
   9   4   2   32.27    6.39
  -9  -4  -2   56.72    9.85
   9   4   3  526.76   25.76
   9   4   3  465.14   22.21
  -9  -4  -3  475.65   25.89
   9   4   4   55.66    8.61
   9   4   4   61.27    8.29
  -9  -4  -4   43.81    8.76
   9   4   5    3.88    4.11
  -9  -4  -5    5.88    4.32
   9   4   6   60.63    8.35
  -9  -4  -6   57.09    9.22
   9   4   7   20.58    5.86
  -9  -4  -7   30.39    6.82
   9   4   8   27.22    6.93
  -9  -4  -8   27.75    7.09
  -9  -4  -9  266.39   17.28
   9   4   9  295.98   18.27
  -9  -4  -9  257.12   18.40
  -9  -4 -10  190.57   14.62
   9   4  10  187.42   15.84
  -9  -4 -10  192.28   15.95
  -9  -4 -11  173.92   14.32
   9   4  11  175.67   14.78
  -9  -4 -11  158.69   14.77
   9   4  12   40.50    8.07
  -9  -4 -12   33.13    7.00
   9   4  12   39.08    8.15
  -9  -4 -12   15.39    6.09
  -9  -4 -13    7.22    4.31
   9   4  13   14.84    5.88
  -9  -4 -13   20.38    6.26
  -9  -4 -14   -1.33    4.01
   9   4  14   -3.96    4.90
  -9  -4 -14   -4.76    4.49
  -9  -4 -15   98.09   12.65
  -9  -4 -15   81.92   10.86
  -9  -4 -16   17.55    6.43
  -9  -4 -17  127.00   13.59
   9   5 -10  104.92   13.97
  -9  -5  10  130.08   15.08
   9   5  -9   65.60   11.19
  -9  -5   9   73.69   11.54
  -9  -5   9   56.73   11.38
  -9  -5   8  262.48   19.84
   9   5  -8  249.12   19.92
  -9  -5   7  385.75   23.50
   9   5  -7  360.58   23.49
  -9  -5   6  190.07   15.83
   9   5  -6  186.62   16.86
   9   5  -5   22.76    6.65
  -9  -5   5   27.06    6.24
  -9  -5   5   28.62    6.08
  -9  -5   4  218.98   16.19
  -9  -5   4  182.52   14.50
   9   5  -4  190.08   16.34
  -9  -5   3  133.10   12.31
  -9  -5   3  114.14   11.97
   9   5  -3  152.80   14.47
  -9  -5   2  153.77   13.10
  -9  -5   2  162.71   13.78
   9   5  -2  158.57   14.87
   9   5  -1  266.21   17.47
  -9  -5   1  282.43   18.49
   9   5  -1  254.12   19.32
   9   5   0   14.22    6.11
   9   5   0    7.88    4.19
  -9  -5   0   19.53    6.04
   9   5   1    0.96    4.47
   9   5   1    7.68    4.60
  -9  -5  -1   -0.68    3.80
   9   5   2   -0.40    4.03
   9   5   2    1.31    3.60
  -9  -5  -2    1.17    4.24
   9   5   3  132.58   13.13
   9   5   3  114.48   11.43
  -9  -5  -3  112.39   12.25
   9   5   4  177.17   14.38
   9   5   4  161.67   13.73
  -9  -5  -4  151.93   13.99
   9   5   5  377.01   21.12
   9   5   5  394.66   21.87
  -9  -5  -5  399.15   22.36
   9   5   6  207.85   14.98
  -9  -5  -6  224.24   16.78
   9   5   7    9.82    4.20
  -9  -5  -7    6.85    3.64
  -9  -5  -7   14.08    5.61
   9   5   8    0.44    3.49
  -9  -5  -8    2.70    2.71
  -9  -5  -8   -0.44    4.36
  -9  -5  -9  338.01   18.52
   9   5   9  308.58   18.84
  -9  -5  -9  295.30   19.77
  -9  -5 -10  258.01   16.17
   9   5  10  280.30   18.30
  -9  -5 -10  266.88   18.63
  -9  -5 -11  311.41   18.61
   9   5  11  349.98   20.97
  -9  -5 -11  306.61   19.91
   9   5  11  357.23   20.73
   9   5  12   -2.21    4.38
  -9  -5 -12    3.10    3.27
   9   5  12    4.95    4.46
  -9  -5 -12    6.66    5.12
  -9  -5 -13   33.69    7.16
   9   5  13   50.52    8.81
  -9  -5 -13   41.10    8.54
  -9  -5 -14   10.41    4.99
   9   5  14   20.35    6.18
  -9  -5 -14   16.41    5.70
  -9  -5 -15  158.20   15.15
  -9  -5 -15  134.47   13.81
   9   5  15  153.32   15.65
  -9  -5 -16   57.34   10.16
  -9  -5 -16   57.71    9.78
  -9  -5 -17   82.31   11.32
  -9  -6  10    7.43    5.93
  -9  -6   9  195.12   19.65
  -9  -6   9  206.27   18.32
   9   6  -9  184.94   17.90
   9   6  -8   37.96    7.85
  -9  -6   8   45.07    9.00
  -9  -6   8   23.47    8.20
   9   6  -7  215.35   20.01
  -9  -6   7  225.37   18.04
  -9  -6   7  182.74   18.58
   9   6  -7  199.83   17.31
   9   6  -6    1.28    5.05
   9   6  -6   -2.28    5.84
  -9  -6   6    0.60    4.92
  -9  -6   6    6.06    3.78
   9   6  -5   87.15   12.58
  -9  -6   5   89.72   10.61
  -9  -6   5   73.09   11.74
   9   6  -5  117.27   13.66
   9   6  -4   55.01    8.58
   9   6  -4   43.17    9.12
  -9  -6   4   50.98    8.13
  -9  -6   4   37.31    6.56
   9   6  -3   16.95    6.41
  -9  -6   3   15.20    5.14
  -9  -6   3   12.13    4.57
   9   6  -2   53.05    9.19
  -9  -6   2   49.47    7.70
  -9  -6   2   36.96    7.03
  -9  -6   1  142.74   12.90
   9   6  -1  142.16   13.98
   9   6   0   -0.14    4.45
   9   6   0   14.13    5.33
  -9  -6   0   13.84    5.53
   9   6   1  417.07   24.51
   9   6   1  460.00   24.72
  -9  -6  -1  424.38   22.86
   9   6   2  188.57   15.99
   9   6   2  183.45   15.82
  -9  -6  -2  191.44   15.04
   9   6   3  277.85   18.82
   9   6   3  276.93   19.43
  -9  -6  -3  302.13   18.89
   9   6   4   14.09    5.83
   9   6   4   11.52    5.54
  -9  -6  -4   17.00    5.46
   9   6   5   17.99    4.75
   9   6   5    5.45    5.31
  -9  -6  -5   17.82    4.99
   9   6   6    0.73    3.85
   9   6   6   15.65    5.43
  -9  -6  -6   12.86    4.86
  -9  -6  -7   79.87    7.77
   9   6   7   67.60    8.59
   9   6   7   79.91   10.77
  -9  -6  -7   64.19    9.00
   9   6   8  222.98   15.72
  -9  -6  -8  231.84   13.88
  -9  -6  -8  254.14   17.61
   9   6   9  760.80   30.18
  -9  -6  -9  742.85   27.00
  -9  -6  -9  721.30   31.38
   9   6  10   22.64    6.00
  -9  -6 -10   34.99    6.09
  -9  -6 -10   36.38    7.63
   9   6  11   19.80    5.70
  -9  -6 -11   12.12    4.20
   9   6  11   15.97    5.85
  -9  -6 -11   17.26    5.84
   9   6  12   47.18    8.02
  -9  -6 -12   57.05    8.14
   9   6  12   56.67    8.98
  -9  -6 -12   55.17    8.96
  -9  -6 -13   66.17    9.15
   9   6  13   57.51    9.61
  -9  -6 -13   57.45    9.36
  -9  -6 -14  105.99   12.34
  -9  -6 -14  122.27   13.28
   9   6  14  124.97   13.21
  -9  -6 -15  307.26   21.07
  -9  -6 -15  354.34   22.63
   9   6  15  353.76   23.05
  -9  -6 -16   36.97    8.06
  -9  -6 -16   33.39    7.87
   9   7  -8  500.91   28.33
   9   7  -7  120.33   13.88
   9   7  -7  107.40   14.69
  -9  -7   7  127.19   15.42
  -9  -7   6  159.41   17.04
   9   7  -6  164.58   17.42
   9   7  -6  164.00   15.48
   9   7  -5   13.70    5.54
   9   7  -5   15.55    7.32
  -9  -7   5   12.48    6.18
   9   7  -4    0.79    4.03
   9   7  -4   -2.31    5.18
  -9  -7   4   12.14    5.76
   9   7  -3  640.10   32.38
  -9  -7   3  573.01   25.64
  -9  -7   3  551.59   29.54
   9   7  -3  618.96   29.14
   9   7  -2  315.47   22.28
  -9  -7   2  342.88   19.58
  -9  -7   2  343.78   22.60
   9   7  -2  362.71   21.90
   9   7  -1  420.11   25.42
  -9  -7   1  424.22   22.02
  -9  -7   1  413.07   24.28
   9   7  -1  407.57   23.34
   9   7   0   13.23    6.16
   9   7   0   16.94    6.31
  -9  -7   0   11.50    4.37
   9   7   0   11.14    5.75
  -9  -7   0   12.27    4.65
   9   7   1   55.43    9.15
   9   7   1   68.15   10.34
  -9  -7  -1   80.77   10.27
   9   7   1   99.14   12.39
  -9  -7  -1   82.94    9.84
   9   7   2   11.66    5.28
  -9  -7  -2    6.35    3.70
   9   7   2   16.19    6.06
  -9  -7  -2   19.35    5.30
   9   7   3  342.40   21.49
   9   7   3  373.63   24.01
  -9  -7  -3  351.37   20.37
  -9  -7  -3  344.61   19.85
   9   7   4   12.36    5.51
  -9  -7  -4   11.44    4.73
   9   7   4   15.99    6.50
  -9  -7  -4   10.74    5.09
   9   7   5  519.36   25.22
   9   7   5  459.21   27.25
  -9  -7  -5  512.79   25.23
  -9  -7  -5  489.21   22.65
   9   7   6   70.78    8.97
  -9  -7  -6   68.90    8.05
   9   7   6   66.76   10.95
  -9  -7  -6   87.17   10.67
   9   7   7  112.28   11.07
   9   7   7  122.16   13.94
  -9  -7  -7  125.93   12.67
  -9  -7  -7  111.39    9.62
   9   7   8   -3.99    4.60
   9   7   8    1.23    4.22
  -9  -7  -8   -3.71    4.36
   9   7   9   42.63    7.18
  -9  -7  -9   30.61    6.62
   9   7  10    3.42    3.62
  -9  -7 -10   -1.82    4.16
   9   7  11   12.31    5.39
   9   7  11   19.66    5.38
  -9  -7 -11   23.59    6.69
   9   7  12    1.88    3.85
   9   7  12    3.39    3.79
  -9  -7 -12   11.15    5.40
   9   7  13  325.75   19.86
  -9  -7 -13  300.53   19.12
  -9  -7 -13  327.13   21.34
   9   7  13  321.70   20.18
  -9  -7 -14    2.73    3.98
  -9  -7 -14    0.77    3.32
   9   7  14   -2.05    4.47
  -9  -7 -15   35.71    8.08
  -9  -7 -15   43.94    8.12
   9   7  15   51.13    9.01
  -9  -7 -16   -3.32    5.10
   9   8  -6    1.01    4.91
  -9  -8   6   19.52    7.91
   9   8  -5   18.68    6.21
  -9  -8   5   20.97    7.22
   9   8  -4  570.18   31.44
  -9  -8   4  530.25   29.87
   9   8  -4  543.20   27.58
   9   8  -3  585.08   31.14
  -9  -8   3  543.11   29.54
   9   8  -3  540.72   27.17
  -9  -8   2    4.51    5.05
   9   8  -2   -0.27    3.82
   9   8  -2    8.97    5.06
  -9  -8   2    0.45    3.42
   9   8  -1   20.83    5.65
   9   8  -1   20.24    6.91
  -9  -8   1   28.57    7.11
  -9  -8   1   23.53    5.88
   9   8   0   41.66    8.07
   9   8   0   30.49    7.68
   9   8   0   54.43    9.86
  -9  -8   0   47.92    8.61
  -9  -8   0   52.49    8.16
  -9  -8  -1  295.61   19.28
   9   8   1  283.80   20.51
   9   8   1  280.85   22.23
  -9  -8  -1  284.65   18.35
   9   8   1  290.90   19.49
   9   8   2   48.56    8.80
   9   8   2   63.87   10.34
   9   8   2   52.80   10.14
  -9  -8  -2   52.84    8.27
  -9  -8  -2   60.86    9.18
   9   8   3  246.15   18.24
   9   8   3  264.75   19.01
  -9  -8  -3  251.85   16.81
   9   8   3  274.19   22.02
  -9  -8  -3  242.52   17.38
   9   8   4   11.49    4.73
   9   8   4   15.08    5.51
   9   8   4   -2.70    5.50
  -9  -8  -4   18.27    5.30
  -9  -8  -4   26.90    6.75
   9   8   5   13.40    5.98
   9   8   5   12.30    6.45
  -9  -8  -5    3.07    3.92
  -9  -8  -5    1.60    2.86
   9   8   6   29.47    6.20
  -9  -8  -6   41.48    6.37
   9   8   6   24.46    8.36
  -9  -8  -6   28.20    6.81
   9   8   7  680.42   28.38
  -9  -8  -7  688.42   25.50
   9   8   7  653.46   35.03
  -9  -8  -7  686.10   31.05
   9   8   8   33.82    6.59
   9   8   8   43.20   10.14
  -9  -8  -8   49.89    8.89
   9   8   9  121.95   11.12
   9   8   9  102.81   14.51
  -9  -8  -9  105.61   12.12
   9   8  10   39.85    6.98
   9   8  10   43.25   10.24
  -9  -8 -10   59.27    9.88
  -9  -8 -11    3.34    3.83
   9   8  11    0.51    3.36
   9   8  11    5.05    6.40
   9   8  11    1.44    3.24
  -9  -8 -12    8.05    4.85
   9   8  12   16.21    5.31
   9   8  12   12.01    5.24
   9   8  13  417.33   22.50
  -9  -8 -13  412.55   24.32
   9   8  13  411.79   22.54
  -9  -8 -14  247.71   19.51
   9   8  14  297.76   19.93
   9   8  15   38.66    7.50
   9   8  16  100.81   12.55
   9   9  -4   17.60    7.07
  -9  -9   4   20.20    7.13
   9   9  -3  335.10   23.43
  -9  -9   3  325.77   22.61
   9   9  -2  168.31   16.32
  -9  -9   2  157.22   15.91
  -9  -9   1   10.24    4.51
   9   9  -1    6.00    5.30
  -9  -9   1    3.42    3.90
  -9  -9   0    0.47    3.71
   9   9   0    0.56    4.83
  -9  -9   0    2.15    3.57
  -9  -9  -1   56.09    8.16
   9   9   1   48.78    8.91
   9   9   1   61.67   12.22
  -9  -9  -1   52.07    8.29
  -9  -9  -2   21.18    5.63
   9   9   2   14.97    6.47
   9   9   2   38.88   10.38
  -9  -9  -2   19.56    5.67
   9   9   3  207.93   17.28
   9   9   3  236.24   21.82
  -9  -9  -3  224.87   16.75
  -9  -9  -3  222.23   16.20
  -9  -9  -4   55.80    8.62
  -9  -9  -4   60.38    8.43
   9   9   4   52.72    9.11
   9   9   4   56.59   11.70
   9   9   5  530.72   27.34
   9   9   5  517.59   32.93
  -9  -9  -5  568.05   27.75
  -9  -9  -5  588.05   25.07
  -9  -9  -6   14.27    5.69
   9   9   6   13.74    5.72
   9   9   6   11.85    8.29
  -9  -9  -6   21.52    5.26
  -9  -9  -7   65.01    9.74
   9   9   7   70.85   12.60
  -9  -9  -8   -3.19    4.93
   9   9   8   -2.81    4.24
  -9  -9  -9   21.60    6.32
   9   9   9   15.18    4.83
   9   9   9   19.42    8.60
  -9  -9 -10    2.31    4.20
   9   9  10    0.42    3.05
   9   9  10    4.96    5.82
   9   9  11  449.85   21.96
   9   9  11  461.53   31.84
  -9  -9 -11  455.19   25.97
  -9  -9 -12  113.12   13.24
   9   9  12  131.16   11.81
   9   9  12  100.31   15.81
   9   9  13  234.60   16.64
   9   9  13  211.52   22.44
   9   9  14    5.93    4.43
   9   9  15    7.77    4.79
  -9 -10   2  242.67   19.57
   9  10  -2  252.66   20.25
  -9 -10   1   17.05    7.31
   9  10  -1    5.01    5.78
  -9 -10   0    4.86    4.37
   9  10   0    9.69    5.53
  -9 -10   0    8.04    5.21
  -9 -10  -1  482.28   25.99
   9  10   1  480.13   27.18
  -9 -10  -1  478.59   24.92
   9  10   2  463.67   26.42
   9  10   2  467.93   33.13
  -9 -10  -2  506.21   25.93
  -9 -10  -3   18.10    5.93
   9  10   3    8.42    5.15
   9  10   3   30.58    9.63
  -9 -10  -4   19.78    6.01
   9  10   4   20.30    6.57
   9  10   4   29.79   10.09
  -9 -10  -5   16.43    6.06
   9  10   5    6.15    6.73
  -9 -10  -6    9.09    5.24
   9  10   6   12.97    8.20
   9  10   7  394.92   30.57
  -9 -10  -7  434.85   25.01
  -9 -10  -8   71.66   10.79
   9  10   8   71.70   14.38
   9  10   9  157.64   20.11
  -9 -10  -9  174.48   16.08
  -9 -10 -10   26.92    6.90
   9  10  10    7.35    6.28
   9  10  11   32.50   10.66
   9  11   0  100.89   13.30
   9  11   1  313.17   22.28
  -9 -11  -1  271.03   19.12
  -9 -11  -2   32.66    7.75
   9  11   2   17.98    6.35
  -9 -11  -3   49.00    8.88
   9  11   3   28.64    7.27
   9  11   3   42.38   12.72
  -9 -11  -4   31.22    7.10
   9  11   4   24.96    6.87
   9  11   4   30.92   10.41
   9  11   5   94.19   16.93
  -9 -11  -5  117.14   13.43
   9  11   6  209.32   24.05
  -9 -11  -6  237.64   18.58
  -9 -11  -7   17.14    6.35
   9  11   7   38.82   13.06
  -9 -12  -3   32.39    7.50
   9  12   3   40.04    9.14
  -9 -12  -6    5.05    4.20
 -10   2   5   17.57    6.90
 -10   2   4   70.63   11.48
  10  -2  -3    8.70    5.37
 -10   2   3   23.63    7.67
  10  -2  -2   11.43    6.82
 -10   2   2   12.05    5.69
  10  -2  -1   15.03    6.15
 -10   2   1   19.50    7.83
  10  -2   0   44.15   10.75
 -10   2   0   34.53    9.16
  10  -2   1   34.20    9.52
 -10   2  -1   14.01    7.39
  10  -2   2    0.80    5.35
  10  -2   3   -9.92    6.22
  10  -2   4   22.69    8.63
 -10   1   7   38.52    9.59
 -10   1   6   20.90    6.79
 -10   1   6   25.80    7.81
 -10   1   5  193.49   18.76
 -10   1   5  193.63   17.36
  10  -1  -5  193.45   18.42
 -10   1   4  142.68   16.02
 -10   1   4  152.62   15.75
  10  -1  -4  155.05   16.94
  10  -1  -3   96.33   14.12
 -10   1   3   90.37   12.35
 -10   1   3   93.04   13.48
  10  -1  -2   -4.84    5.17
 -10   1   2   -3.44    5.34
 -10   1   2    0.80    5.21
  10  -1  -1   34.13   10.15
 -10   1   1   48.88   10.27
 -10   1   1   52.26   10.75
  10  -1   0   -9.34    6.89
 -10   1   0    2.25    4.84
 -10   1   0    1.13    5.10
  10  -1   1   -0.31    5.55
 -10   1  -1   11.53    7.05
 -10   1  -1    2.22    6.15
  10  -1   2   57.52   11.32
 -10   1  -2   34.08    9.20
 -10   1  -2   34.93   10.03
  10  -1   3   60.55   10.77
 -10   1  -3   38.00    9.42
 -10   1  -3   35.60    9.61
  10  -1   4   72.47   12.06
 -10   1  -4   35.33    9.45
 -10   1  -4   48.21   11.12
  10  -1   5   50.03   10.49
 -10   1  -5   34.80   10.08
  10  -1   6   10.15    6.12
 -10   1  -6   -9.92    7.39
 -10   1  -7    9.39    6.36
 -10   0   8    0.30    5.78
 -10   0   7   76.64   11.18
 -10   0   6  357.95   23.71
  10   0  -6  404.63   26.63
  10   0  -5  108.38   14.14
 -10   0   5  113.88   12.86
 -10   0   5  101.92   12.81
  10   0  -4    3.22    4.75
 -10   0   4    0.62    3.90
 -10   0   4   -3.40    5.73
  10   0  -3   75.14   11.71
 -10   0   3   62.24    9.88
 -10   0   3   66.68   11.15
  10   0  -2   13.20    6.24
 -10   0   2    6.94    4.04
 -10   0   2   -0.50    4.90
  10   0  -1   96.28   14.31
 -10   0   1  103.23   12.90
 -10   0   1   98.61   13.74
  10   0   0   86.56   13.49
 -10   0   0   93.17   12.99
 -10   0   0  107.38   14.04
  10   0   1   63.90   12.45
 -10   0  -1   72.15   11.99
 -10   0  -1   93.98   13.85
  10   0   2   13.86    7.13
 -10   0  -2    6.43    6.51
 -10   0  -2    7.73    6.63
  10   0   3   29.76    9.23
 -10   0  -3   10.63    5.55
 -10   0  -3   22.17    7.98
  10   0   4   35.83    9.43
 -10   0  -4   35.65   10.30
  10   0   5   68.34   11.14
 -10   0  -5   63.16   12.39
  10   0   6   60.20   10.39
 -10   0  -6   47.99   11.87
  10   0   7    0.27    5.55
 -10   0  -7    9.39    7.36
  10   0   8    8.93    5.70
 -10   0  -8   -2.46    7.06
 -10   0  -9  -10.90    8.02
 -10   0 -10   -7.52    7.48
 -10  -1   8   56.25    9.26
  10   1  -7  116.94   14.63
 -10  -1   7   98.68   12.38
  10   1  -6   46.33    9.85
 -10  -1   6   61.26   10.41
  10   1  -5   48.96    9.70
 -10  -1   5   52.63   10.03
  10   1  -4   25.78    8.21
 -10  -1   4    8.65    5.45
  10   1  -3    1.92    5.47
 -10  -1   3    7.15    4.78
 -10  -1   3    9.00    5.24
  10   1  -2   43.34   10.03
 -10  -1   2   32.19    7.14
 -10  -1   2   46.48    9.50
  10   1  -1   31.60    8.60
 -10  -1   1   31.65    7.58
 -10  -1   1   25.72    7.54
  10   1   0   57.97   11.10
 -10  -1   0   71.72   10.34
 -10  -1   0   82.00   12.26
  10   1   1   13.90    6.49
 -10  -1  -1   15.22    6.41
 -10  -1  -1   16.02    6.61
  10   1   2   42.66    9.72
 -10  -1  -2   39.45    8.68
 -10  -1  -2   44.50   10.25
  10   1   3  103.28   14.12
 -10  -1  -3   86.91   13.74
  10   1   4   11.15    6.26
 -10  -1  -4   19.00    7.77
  10   1   5    8.38    5.30
 -10  -1  -5    6.72    6.27
  10   1   6    9.80    5.01
 -10  -1  -6   12.39    7.16
  10   1   7    6.10    4.61
 -10  -1  -7    4.73    6.43
  10   1   8   71.58   11.36
 -10  -1  -8   41.71   10.54
  10   1   9   98.15   12.33
 -10  -1  -9   70.62   13.20
 -10  -1 -10   72.51   12.37
 -10  -1 -11   -1.94    5.76
 -10  -1 -12    7.32    5.84
 -10  -2   8  355.09   24.16
  10   2  -8  399.80   26.62
 -10  -2   7  410.14   25.38
 -10  -2   7  397.94   23.69
  10   2  -7  408.91   26.73
 -10  -2   6  193.50   16.89
  10   2  -6  194.42   18.03
  10   2  -5   54.26   10.72
 -10  -2   5   54.25    9.68
  10   2  -4  104.83   13.29
 -10  -2   4  109.81   13.44
  10   2  -3    9.23    6.28
 -10  -2   3   17.75    6.38
  10   2  -2   69.89   11.54
 -10  -2   2   69.61   11.48
  10   2  -1  584.16   32.47
 -10  -2   1  523.16   29.65
 -10  -2   1  519.82   25.70
  10   2   0  529.62   31.17
 -10  -2   0  523.47   30.02
 -10  -2   0  505.16   25.63
  10   2   1    0.93    4.83
 -10  -2  -1   10.41    6.97
  10   2   2    3.36    5.71
 -10  -2  -2    2.57    5.49
  10   2   3   49.91    9.84
 -10  -2  -3   49.28    9.87
  10   2   4   30.43    8.14
 -10  -2  -4   44.44   10.02
  10   2   5   50.44    9.80
 -10  -2  -5   56.46   11.53
  10   2   6  148.08   15.04
 -10  -2  -6  123.56   15.86
  10   2   7  114.09   12.90
 -10  -2  -7   97.62   14.66
  10   2   8   -4.12    4.79
 -10  -2  -8   -4.64    6.09
  10   2   9   -0.63    4.28
 -10  -2  -9   -1.26    5.07
  10   2  10   87.08   11.56
 -10  -2 -10   81.62   13.21
  10   2  11   16.18    6.73
 -10  -2 -11    9.68    6.38
 -10  -2 -12   12.12    6.23
 -10  -2 -12   21.10    7.52
 -10  -2 -13    0.02    4.72
  10   3 -11   -7.47    6.28
  10   3 -10  136.60   14.51
 -10  -3   8  146.43   15.15
  10   3  -8  179.91   17.57
  10   3  -7   19.18    6.88
 -10  -3   7   14.67    6.14
 -10  -3   6    7.69    4.57
 -10  -3   6   13.03    4.45
 -10  -3   5  124.80   13.94
  10   3  -5  134.50   14.97
  10   3  -4   45.38    9.37
 -10  -3   4   22.76    7.46
 -10  -3   3  177.38   16.65
  10   3  -3  213.75   18.57
 -10  -3   2  455.40   27.16
  10   3  -2  490.20   29.00
  10   3  -1   26.05    8.31
 -10  -3   1   28.74    8.00
  10   3   0   -2.71    5.64
 -10  -3   0    7.94    5.54
  10   3   1  -12.23    6.29
 -10  -3  -1    2.21    5.29
  10   3   2   -0.47    5.14
 -10  -3  -2   -0.09    5.89
  10   3   3  127.08   14.11
 -10  -3  -3  102.98   13.56
  10   3   4  328.32   22.08
 -10  -3  -4  248.36   21.02
  10   3   5   -1.93    4.90
 -10  -3  -5   -1.98    5.02
  10   3   6    3.40    3.97
 -10  -3  -6   10.60    6.55
  10   3   7   -2.74    4.75
 -10  -3  -7   -0.47    4.62
  10   3   8  181.97   16.04
 -10  -3  -8  144.22   16.23
  10   3   9   81.86   11.37
 -10  -3  -9   73.21   11.81
  10   3  10   29.93    7.23
 -10  -3 -10   35.21    8.87
 -10  -3 -11    2.78    4.35
  10   3  11   -8.74    5.32
 -10  -3 -11   -6.74    4.95
 -10  -3 -12   54.27    9.61
 -10  -3 -12   43.83    8.99
 -10  -3 -13    6.31    5.38
 -10  -3 -13    3.22    4.97
 -10  -3 -14  209.77   18.60
 -10  -4   9   70.27   10.91
 -10  -4   8  258.42   20.02
  10   4  -8  276.01   21.90
  10   4  -7    7.94    5.92
 -10  -4   7    8.32    4.58
  10   4  -6    7.32    5.66
 -10  -4   6    2.35    3.78
  10   4  -5    2.58    5.58
 -10  -4   5    3.32    3.90
 -10  -4   5    4.10    4.43
  10   4  -4   10.57    6.02
 -10  -4   4    0.44    4.46
 -10  -4   3  141.23   14.71
  10   4  -3  163.48   16.15
 -10  -4   2  349.23   23.35
  10   4  -2  391.78   25.20
  10   4  -1   21.25    7.08
 -10  -4   1   15.65    6.45
  10   4   0   13.99    6.35
 -10  -4   0   32.55    8.04
  10   4   1   52.60   10.40
 -10  -4  -1   46.79    8.96
  10   4   2   36.90    8.60
 -10  -4  -2   23.51    7.47
  10   4   3    8.53    5.16
 -10  -4  -3    0.72    4.69
  10   4   4  136.98   14.40
 -10  -4  -4  130.77   14.70
  10   4   5  172.97   15.96
  10   4   5  154.84   13.26
 -10  -4  -5  189.51   17.54
  10   4   6    9.58    4.19
 -10  -4  -6   19.49    7.12
  10   4   7   13.06    5.66
 -10  -4  -7   12.33    6.44
  10   4   8  106.83   12.30
 -10  -4  -8   85.99   12.47
  10   4   9    5.79    4.60
 -10  -4  -9   11.30    5.87
  10   4  10   18.17    7.04
 -10  -4 -10   25.35    6.93
 -10  -4 -10   24.64    7.19
  10   4  11   -2.35    4.17
 -10  -4 -11    4.09    4.13
 -10  -4 -11   -7.62    5.77
  10   4  12   92.53   12.26
 -10  -4 -12   96.87   12.09
 -10  -4 -12  107.36   13.10
 -10  -4 -13   51.22    9.45
 -10  -4 -13   39.25    8.51
 -10  -4 -14   44.91    9.19
 -10  -4 -14   44.86    9.15
 -10  -5   9  160.14   16.40
  10   5  -8   35.45    8.58
 -10  -5   8   29.59    7.77
 -10  -5   7  169.37   15.73
  10   5  -7  145.41   15.58
  10   5  -6   17.68    6.99
 -10  -5   6   10.65    4.45
  10   5  -5   92.08   12.18
 -10  -5   5   69.60   10.07
 -10  -5   4  863.99   35.04
 -10  -5   4  817.96   35.16
  10   5  -4  941.37   38.91
 -10  -5   3  387.69   23.40
  10   5  -3  401.89   24.90
  10   5  -2   83.27   11.93
 -10  -5   2   78.26   10.72
  10   5  -1  105.53   13.41
 -10  -5   1  107.37   12.58
  10   5   0  224.34   19.27
 -10  -5   0  249.25   19.26
  10   5   1   -1.73    5.89
 -10  -5  -1    7.09    5.11
  10   5   2  732.35   34.86
 -10  -5  -2  712.48   33.46
  10   5   3  391.27   24.86
  10   5   3  393.75   21.80
 -10  -5  -3  381.26   23.93
  10   5   4  225.13   17.86
  10   5   4  187.66   15.19
 -10  -5  -4  216.12   18.00
  10   5   5  104.55   12.13
  10   5   5   81.37   10.73
 -10  -5  -5   73.77   11.11
  10   5   6    6.70    4.13
  10   5   6   14.84    5.44
 -10  -5  -6    6.26    4.81
  10   5   7   24.39    6.62
 -10  -5  -7   41.07    8.69
 -10  -5  -8  110.45   11.31
  10   5   8  137.58   13.03
 -10  -5  -8  133.10   14.30
 -10  -5  -9  313.68   18.80
  10   5   9  351.61   21.10
 -10  -5  -9  319.40   22.31
  10   5  10   21.49    6.56
 -10  -5 -10   26.84    6.66
 -10  -5 -10   23.98    6.41
  10   5  11   -4.44    4.71
 -10  -5 -11    1.32    2.99
 -10  -5 -11    4.63    4.69
  10   5  12   30.05    8.41
 -10  -5 -12   31.65    7.57
 -10  -5 -12   36.77    8.33
  10   5  13    7.02    4.55
 -10  -5 -13    5.80    5.18
 -10  -5 -13   -0.64    4.43
 -10  -5 -14  101.61   12.40
 -10  -5 -14   87.50   12.19
 -10  -6   9   23.06    7.02
  10   6  -8    6.07    6.23
 -10  -6   8   18.60    6.71
  10   6  -7   11.81    5.88
 -10  -6   7   19.15    6.17
  10   6  -6  123.31   13.91
 -10  -6   6  133.03   13.53
 -10  -6   6  114.10   15.27
 -10  -6   5  313.52   20.28
  10   6  -5  301.79   21.96
 -10  -6   4  377.47   21.91
 -10  -6   4  336.53   21.08
  10   6  -4  361.68   23.66
  10   6  -3    3.19    4.76
 -10  -6   3    5.91    3.58
 -10  -6   3   -2.65    3.86
  10   6  -2   20.78    6.71
 -10  -6   2   15.98    5.35
  10   6  -1   50.84    9.51
 -10  -6   1   58.11    9.24
 -10  -6   0  185.38   15.95
  10   6   0  192.17   17.71
  10   6   1  102.32   13.43
  10   6   1  132.61   13.31
 -10  -6  -1  132.39   13.92
  10   6   2  368.88   24.48
  10   6   2  373.37   22.69
 -10  -6  -2  403.05   23.99
  10   6   3  143.04   15.19
  10   6   3  129.56   13.54
 -10  -6  -3  151.03   14.45
  10   6   4    1.25    4.65
  10   6   4    0.11    3.74
 -10  -6  -4    5.38    4.60
  10   6   5    1.18    4.28
 -10  -6  -5    3.28    4.48
  10   6   6  137.60   13.42
  10   6   6  132.63   13.73
 -10  -6  -6  141.92   14.51
  10   6   7   15.05    4.70
  10   6   7   14.07    6.40
 -10  -6  -7   18.93    6.17
  10   6   8  123.07   12.27
 -10  -6  -8  112.24   13.03
  10   6   9    3.15    3.75
 -10  -6  -9    4.59    4.67
  10   6  10   66.17   10.15
 -10  -6 -10   65.48   10.73
  10   6  11    4.78    4.57
 -10  -6 -11    6.99    3.95
 -10  -6 -11    1.54    5.10
  10   6  12   89.95   10.99
 -10  -6 -12   88.61   10.50
 -10  -6 -12   88.47   11.83
  10   6  13  163.60   15.16
 -10  -6 -13  149.91   13.99
 -10  -6 -13  150.92   15.28
 -10  -6 -14   -2.60    3.56
  10   6  14    3.12    4.80
 -10  -6 -14   -0.99    4.24
 -10  -6 -15   50.33    8.99
  10   7  -8    6.69    5.23
  10   7  -7    6.32    5.65
  10   7  -6  157.30   15.99
 -10  -7   5  146.35   16.57
  10   7  -5  160.93   15.80
 -10  -7   4  364.42   25.98
  10   7  -4  391.90   24.35
  10   7  -3   36.55    8.01
 -10  -7   3   42.43    9.08
 -10  -7   3   33.17    7.49
  10   7  -2   60.52    9.82
 -10  -7   2   61.05   10.38
 -10  -7   2   31.83    7.01
  10   7  -1  105.12   12.71
 -10  -7   1   98.64   12.77
 -10  -7   1   79.50   10.38
  10   7   0  151.41   15.80
 -10  -7   0  167.26   15.01
 -10  -7   0  141.16   15.17
  10   7   0  189.11   16.94
  10   7   1  232.19   19.33
  10   7   1  218.56   18.89
 -10  -7  -1  217.33   17.27
  10   7   2  514.84   29.24
  10   7   2  570.83   30.10
 -10  -7  -2  577.48   28.59
  10   7   3   56.07   10.15
  10   7   3   56.08   10.29
 -10  -7  -3   58.43    9.34
  10   7   4   26.37    6.81
  10   7   4   33.76    8.32
 -10  -7  -4   20.24    6.74
  10   7   5  126.65   13.55
  10   7   5  113.05   13.95
 -10  -7  -5  115.82   13.03
  10   7   6    1.28    3.94
  10   7   6    4.18    4.90
 -10  -7  -6    4.33    4.97
  10   7   7  123.97   12.56
  10   7   7  129.74   14.80
 -10  -7  -7  132.42   13.98
  10   7   8  206.52   16.00
  10   7   8  193.94   17.77
 -10  -7  -8  179.92   16.30
  10   7   9   60.20    9.19
  10   7   9   61.65   10.56
 -10  -7  -9   72.33   10.55
  10   7  10  205.54   15.85
 -10  -7 -10  170.68   15.94
  10   7  11    5.82    4.55
 -10  -7 -11    1.25    4.21
  10   7  12   25.01    6.66
 -10  -7 -12   27.14    7.25
  10   7  13   13.55    5.40
 -10  -7 -13   14.41    5.58
  10   7  14   63.73   10.50
  10   8  -4    6.84    5.32
  10   8  -4   20.74    8.35
 -10  -8   4   20.68    7.29
 -10  -8   3  157.51   16.60
  10   8  -3  157.03   17.32
  10   8  -3  169.52   15.78
  10   8  -2   24.04    6.17
  10   8  -2   24.67    8.24
 -10  -8   2   22.26    7.05
 -10  -8   2   24.67    6.75
  10   8  -1  107.52   12.48
  10   8  -1   90.58   13.22
 -10  -8   1  105.23   12.01
 -10  -8   1   90.58   12.88
 -10  -8   0  773.48   35.62
  10   8   0  772.46   37.79
 -10  -8   0  799.16   33.93
  10   8   0  829.95   35.48
 -10  -8  -1  337.24   22.44
  10   8   1  330.64   25.02
 -10  -8  -1  362.85   22.66
  10   8   1  347.64   22.73
  10   8   2   -3.59    5.88
  10   8   2   -4.20    6.19
 -10  -8  -2    0.83    4.30
 -10  -8  -2    0.43    3.80
 -10  -8  -3  219.21   16.97
  10   8   3  143.14   15.27
  10   8   3  213.86   19.61
 -10  -8  -3  206.27   16.96
  10   8   4   -6.17    6.27
  10   8   4    4.75    5.64
 -10  -8  -4   15.29    5.70
 -10  -8  -4    6.66    5.33
  10   8   5   63.46   10.32
  10   8   5   60.66   10.93
 -10  -8  -5   60.73    8.92
 -10  -8  -5   52.32    9.24
  10   8   6  649.20   30.56
 -10  -8  -6  620.56   26.77
  10   8   6  637.11   34.41
 -10  -8  -6  652.53   30.97
  10   8   7  160.38   14.45
  10   8   7  124.41   15.78
 -10  -8  -7  140.58   14.58
  10   8   8  103.69   12.10
  10   8   8  119.56   15.09
 -10  -8  -8  103.79   12.82
  10   8   9  100.92   11.14
  10   8   9   87.93   13.30
 -10  -8  -9   87.41   12.08
  10   8  10    8.04    4.46
  10   8  10   12.55    6.88
 -10  -8 -10    6.77    6.17
  10   8  11  138.92   13.58
  10   8  11  136.25   16.70
 -10  -8 -11  147.04   15.61
  10   8  12  226.97   16.85
 -10  -8 -12  237.00   19.44
  10   8  13   29.73    6.90
  10   8  14   78.12   11.01
  10   8  14   86.01   11.90
 -10  -9   3   11.29    6.24
  10   9  -2  206.96   19.42
 -10  -9   2  226.09   19.83
  10   9  -1  104.11   13.89
 -10  -9   1  102.45   13.10
  10   9   0  115.96   14.53
 -10  -9   0  135.12   14.45
 -10  -9   0  116.39   12.64
  10   9   1   10.71    6.65
 -10  -9  -1    4.84    4.53
  10   9   1    5.81    6.07
 -10  -9  -1    4.67    4.27
  10   9   2   28.09    7.25
 -10  -9  -2   34.45    7.71
  10   9   2   37.28    9.78
 -10  -9  -2   32.87    7.65
  10   9   3   37.26    8.97
 -10  -9  -3   28.94    7.09
  10   9   3   22.93    8.55
 -10  -9  -3   37.83    8.05
 -10  -9  -4   82.10   10.49
  10   9   4   51.36   11.39
 -10  -9  -4   93.95   11.95
  10   9   5  206.79   21.29
 -10  -9  -5  209.57   15.65
 -10  -9  -5  229.44   18.33
  10   9   6  195.96   20.38
 -10  -9  -6  185.12   16.75
  10   9   7   -0.93    4.64
  10   9   7   -3.55    6.16
 -10  -9  -7    5.09    4.41
 -10  -9  -8   79.20   11.31
  10   9   8   68.53    9.51
  10   9   8   87.50   13.99
 -10  -9  -9    2.59    4.32
  10   9   9   -8.31    6.14
  10   9   9   -3.35    6.37
 -10  -9 -10   69.11   10.32
  10   9  10   52.47    8.33
  10   9  10   51.11   11.20
  10   9  11    4.72    3.58
  10   9  11   -1.36    6.25
  10   9  12  141.79   13.55
  10   9  13   -1.39    3.60
  10   9  14   12.48    5.41
 -10 -10   1  451.65   27.72
  10  10   0  234.31   20.30
 -10 -10   0  196.55   17.73
 -10 -10  -1   39.49    8.10
  10  10   1   51.87   10.23
 -10 -10  -1   41.81    8.31
 -10 -10  -2   78.53   10.99
  10  10   2   62.47   11.05
  10  10   2   51.98   11.95
 -10 -10  -2   74.71   10.78
 -10 -10  -3   53.19    9.37
  10  10   3   76.21   11.80
  10  10   3   53.77   12.47
 -10 -10  -3   69.97    9.88
  10  10   4  143.36   15.70
  10  10   4  118.15   17.77
 -10 -10  -4  157.09   15.29
 -10 -10  -4  156.42   14.06
 -10 -10  -5  344.94   20.53
  10  10   5  353.33   28.71
 -10 -10  -5  327.96   22.32
  10  10   6  745.16   42.39
 -10 -10  -6  760.22   35.12
 -10 -10  -7    4.03    5.49
  10  10   7    5.43    7.85
  10  10   8   66.79   14.55
  10  10   9   29.76    9.70
 -10 -11  -2   37.31    8.36
  10  11   2   45.11    9.26
  10  11   3  275.51   21.97
 -10 -11  -3  268.86   20.20
 -10 -11  -4  474.74   27.46
 -11   0   2  218.40   18.74
 -11   0   1   57.20   10.76
 -11   0   0   36.68    8.42
 -11   0  -1   92.25   13.54
 -11   0  -2   -2.63    5.29
 -11  -1   6    5.76    4.65
 -11  -1   5   37.05    9.28
 -11  -1   4  158.38   16.29
 -11  -1   3  102.53   13.82
  11   1  -2    6.21    6.18
 -11  -1   2    1.98    4.90
  11   1  -1    6.75    6.13
 -11  -1   1    6.48    5.10
 -11  -1   1   -2.09    6.21
  11   1   0   -1.72    5.57
 -11  -1   0    9.15    5.62
 -11  -1   0   -0.89    5.13
  11   1   1   -6.46    7.03
 -11  -1  -1    5.51    4.79
 -11  -1  -1   13.30    6.88
  11   1   2   30.76    9.62
 -11  -1  -2   44.72   10.49
  11   1   3  190.67   19.26
 -11  -1  -3  157.45   18.34
  11   1   4   39.12    9.37
 -11  -1  -4   57.62   12.05
  11   1   5   -1.96    5.55
 -11  -1  -5   12.17    8.06
 -11  -2   6    7.11    5.69
 -11  -2   5    7.30    5.04
 -11  -2   4   47.07    9.47
 -11  -2   3  268.79   21.38
  11   2  -3  305.13   24.19
  11   2  -2   19.31    7.48
 -11  -2   2   46.16   10.22
  11   2  -1   38.83    9.58
 -11  -2   1   14.52    6.89
  11   2   0   -5.88    7.47
 -11  -2   0   15.22    6.67
  11   2   1    5.31    5.42
 -11  -2  -1   13.16    7.16
  11   2   2  114.65   15.62
 -11  -2  -2  128.17   16.30
  11   2   3  306.36   24.01
 -11  -2  -3  237.47   22.09
  11   2   4   74.87   12.14
 -11  -2  -4   67.66   12.57
  11   2   5    1.34    5.09
 -11  -2  -5    6.82    7.24
  11   2   6   70.17   11.31
 -11  -2  -6   53.49   12.15
  11   2   7   12.45    5.55
 -11  -2  -7   -8.64    7.97
 -11  -2  -8   35.71   10.59
 -11  -3   6  148.78   15.19
 -11  -3   5  159.72   16.20
  11   3  -4   37.45    9.52
 -11  -3   4   39.73    8.87
  11   3  -3    6.34    5.58
 -11  -3   3   19.89    6.90
  11   3  -2   92.54   13.38
 -11  -3   2   65.03   11.08
  11   3  -1   23.73    8.44
 -11  -3   1   13.43    7.58
  11   3   0   38.37   10.18
 -11  -3   0   26.52    8.23
  11   3   1  595.72   34.49
 -11  -3  -1  586.60   33.88
  11   3   2  221.51   20.71
 -11  -3  -2  203.49   19.77
  11   3   3  -21.13    7.60
 -11  -3  -3   -1.65    5.62
  11   3   4   63.94   10.90
 -11  -3  -4   54.02   11.42
  11   3   5   49.69    9.99
 -11  -3  -5   30.75    8.85
  11   3   6   18.85    6.57
 -11  -3  -6   -6.46    6.57
  11   3   7  298.93   22.04
 -11  -3  -7  241.86   22.24
  11   3   8  283.69   21.15
 -11  -3  -8  219.54   21.33
 -11  -3  -9   56.73   11.93
  11   4  -5   93.95   13.21
 -11  -4   5   78.30   11.20
  11   4  -4    0.09    5.69
 -11  -4   4    1.92    4.68
  11   4  -3    0.71    4.74
 -11  -4   3    7.22    6.11
  11   4  -2   28.60    8.04
 -11  -4   2   13.89    6.36
  11   4  -1   47.52    9.67
 -11  -4   1   52.46   10.08
  11   4   0   78.66   12.97
 -11  -4   0   82.17   12.30
  11   4   1   89.66   13.47
 -11  -4  -1   70.05   12.09
  11   4   2   17.50    7.87
 -11  -4  -2   17.84    6.90
  11   4   3    3.08    5.36
 -11  -4  -3    3.26    4.80
  11   4   4   88.01   12.65
 -11  -4  -4   95.80   14.16
  11   4   5   41.87    9.68
 -11  -4  -5   29.21    9.11
  11   4   6   91.11   12.17
 -11  -4  -6   59.58   10.95
  11   4   7   71.21   10.84
 -11  -4  -7   58.88   11.52
  11   4   8   74.60   11.12
 -11  -4  -8   65.76   11.68
  11   4   9   22.49    6.54
 -11  -4  -9   23.78    9.04
 -11  -4 -10    3.90    4.63
 -11  -4 -10    1.13    5.77
 -11  -4 -11   -1.23    4.13
 -11  -4 -12    6.78    5.66
 -11  -5   7   17.06    6.57
 -11  -5   6  123.00   13.65
  11   5  -5   86.86   12.55
  11   5  -4   11.02    5.86
 -11  -5   4    5.80    4.39
  11   5  -3    4.36    5.25
 -11  -5   3   -3.40    5.51
  11   5  -2   67.88   11.28
 -11  -5   2   53.80   10.44
 -11  -5   1  288.15   22.13
  11   5  -1  355.39   25.53
  11   5   0  353.96   25.72
 -11  -5   0  357.95   25.11
  11   5   1  222.45   20.65
 -11  -5  -1  210.25   19.37
  11   5   2   -2.89    5.59
 -11  -5  -2   -0.34    5.21
  11   5   3   82.80   12.35
 -11  -5  -3   79.72   12.04
  11   5   4   86.58   12.63
 -11  -5  -4   83.91   12.61
  11   5   5   30.12    8.03
 -11  -5  -5   21.48    7.19
  11   5   6  322.63   22.22
 -11  -5  -6  299.62   23.26
  11   5   7  510.49   27.70
 -11  -5  -7  448.52   28.64
  11   5   8    7.61    6.16
 -11  -5  -8   11.03    6.95
  11   5   9    0.39    4.36
 -11  -5  -9   -3.36    5.27
  11   5  10   35.68    8.51
 -11  -5 -10   33.69    7.47
 -11  -5 -10   19.79    7.35
 -11  -5 -11    0.57    4.42
 -11  -5 -12   90.97   11.72
 -11  -5 -13  130.26   14.52
 -11  -6   6   -5.28    5.06
  11   6  -5   16.16    6.92
 -11  -6   5   -2.86    5.18
  11   6  -4   -1.09    4.78
  11   6  -3   97.76   13.03
 -11  -6   3   69.55   10.18
 -11  -6   2  181.56   17.25
  11   6  -2  208.22   18.76
  11   6  -1   99.43   13.55
 -11  -6   1  108.67   13.22
  11   6   0   36.23    9.13
 -11  -6   0   25.24    6.24
  11   6   1    2.51    5.02
 -11  -6  -1   -3.53    5.52
  11   6   2  121.50   15.79
 -11  -6  -2  134.67   15.10
  11   6   3  104.92   13.85
 -11  -6  -3  112.76   14.10
  11   6   4  190.75   18.59
 -11  -6  -4  177.83   17.90
  11   6   5  348.42   23.70
 -11  -6  -5  286.41   22.34
  11   6   6  114.74   13.43
  11   6   6  102.00   12.78
 -11  -6  -6  118.52   14.83
  11   6   7   -4.30    5.54
  11   6   7   13.01    6.14
 -11  -6  -7   -7.89    7.09
  11   6   8   54.45    9.44
  11   6   8   62.85   10.02
 -11  -6  -8   40.67    9.49
  11   6   9    4.05    4.49
 -11  -6  -9    6.30    5.53
  11   6  10   42.95    8.39
 -11  -6 -10   51.31    9.94
  11   6  11  395.37   24.27
  11   7  -5  199.58   18.40
  11   7  -4   -9.97    6.48
  11   7  -3   85.46   12.13
 -11  -7   3   78.00   13.25
  11   7  -2    1.95    5.09
 -11  -7   2   -4.14    5.44
 -11  -7   2    1.92    5.67
  11   7  -1   38.22    8.95
 -11  -7   1   44.94    8.86
  11   7   0   34.89    8.36
 -11  -7   0   39.79    8.62
  11   7   1   40.60    9.88
 -11  -7  -1   31.80    8.11
  11   7   2    3.67    5.05
 -11  -7  -2    9.46    6.15
  11   7   3    3.00    6.53
 -11  -7  -3   13.58    6.64
  11   7   4   82.54   12.72
  11   7   4   78.87   12.24
 -11  -7  -4   74.28   11.22
  11   7   5  293.33   21.93
  11   7   5  257.50   20.94
 -11  -7  -5  266.77   21.12
  11   7   6    2.98    4.40
  11   7   6   -8.06    6.20
 -11  -7  -6    3.39    5.39
  11   7   7   70.84   11.19
  11   7   7   35.71    9.22
 -11  -7  -7   51.31    9.85
  11   7   8    0.04    4.43
  11   7   8    0.75    4.81
 -11  -7  -8   -2.21    4.50
  11   7   9    6.43    4.67
  11   7   9    4.18    5.05
 -11  -7  -9   15.06    5.83
  11   7  10   58.45    9.99
  11   7  10   50.20   10.17
  11   7  11  163.73   15.39
  11   8  -4   30.11    8.15
  11   8  -3   45.99    9.28
  11   8  -2  157.34   15.74
 -11  -8   2  147.82   17.16
  11   8  -1   92.79   12.57
 -11  -8   1   83.40   13.45
 -11  -8   1   81.92   11.66
 -11  -8   0  121.64   15.10
 -11  -8   0  127.34   14.45
  11   8   0  135.99   14.95
  11   8   1    6.01    5.13
 -11  -8  -1    7.83    6.92
 -11  -8  -1    4.04    4.70
  11   8   2    2.28    5.62
 -11  -8  -2    2.10    5.16
  11   8   2    2.02    6.08
 -11  -8  -2   15.74    6.77
  11   8   3  316.78   23.72
  11   8   3  349.07   25.32
 -11  -8  -3  354.58   23.79
 -11  -8  -3  337.31   22.96
  11   8   4  361.85   25.68
  11   8   4  422.85   28.04
 -11  -8  -4  423.57   26.36
 -11  -8  -4  435.03   25.35
  11   8   5  124.89   14.46
  11   8   5  113.15   15.20
 -11  -8  -5  121.63   14.54
 -11  -8  -5  130.62   13.60
  11   8   6    0.88    4.89
  11   8   6    6.31    5.46
 -11  -8  -6   10.54    5.74
  11   8   7  199.65   17.45
  11   8   7  142.19   16.93
 -11  -8  -7  191.62   18.08
  11   8   8   14.98    5.80
  11   8   8   26.50    8.67
 -11  -8  -8   28.20    7.92
  11   8   9  360.94   22.81
  11   8   9  307.08   24.32
  11   8  10  164.57   15.41
  11   8  10  139.63   16.91
  11   8  11  407.18   24.71
  11   8  11  359.06   26.58
 -11  -9   0   76.65   12.25
 -11  -9   0   64.86   10.20
 -11  -9  -1   30.66    7.91
 -11  -9  -1   53.66   10.01
 -11  -9  -2  155.82   15.77
  11   9   2  167.41   18.82
 -11  -9  -2  127.22   14.91
 -11  -9  -3  243.09   19.24
  11   9   3  236.48   22.13
 -11  -9  -3  223.16   19.54
 -11  -9  -4   43.02    8.39
  11   9   4   31.09   10.66
 -11  -9  -4   50.35    9.45
  11   9   5   20.32    7.90
 -11  -9  -5   31.43    8.43
  11   9   6    3.51    4.98
  11   9   6   25.91    9.65
 -11  -9  -6   15.33    6.96
  11   9   7   13.92    6.23
  11   9   7   29.08    9.25
  11   9   8  113.61   13.13
  11   9   8  105.69   15.68
  11   9   9  188.89   16.64
  11   9   9  152.34   18.16
  11   9  10   82.37   11.30
  11   9  10   73.96   13.26
  11   9  11   -7.99    5.59
  11   9  12   18.71    6.71
 -11 -10  -1    5.93    5.01
 -11 -10  -1    2.38    4.54
 -11 -10  -2    7.82    4.60
 -11 -10  -2   -1.92    4.59
  11  10   2   15.14    8.69
 -11 -10  -3  123.15   13.85
  11  10   3  150.60   19.40
 -11 -10  -3  124.49   14.37
  11  10   4  219.58   23.08
 -11 -10  -4  213.78   17.62
  11  10   5   13.24    8.60
  11  10   6    0.64    7.11
  11  10   7   68.63   13.98
 -12  -4   4  100.89   13.78
 -12  -4   3    6.64    6.00
 -12  -4   2    6.80    5.30
 -12  -4   1    4.42    5.33
 -12  -4   0   35.33    9.58
 -12  -4  -1   14.76    7.71
 -12  -5   3    0.84    6.44
 -12  -5   2   32.47    8.70
 -12  -5   1  170.37   17.92
 -12  -5   0  207.21   19.63
  12   5   1    3.97    6.53
 -12  -5  -1   15.64    6.83
  12   5   2    6.42    6.94
 -12  -5  -2    3.36    5.65
  12   5   3   -4.87    6.82
 -12  -5  -3   -5.30    6.74
  12   5   4   82.68   13.82
 -12  -6   2   55.34   10.53
 -12  -6   1    2.31    5.85
  12   6   0   41.85   10.63
 -12  -6   0   28.13    7.98
  12   6   1   47.11   11.09
 -12  -6  -1   50.39   10.99
  12   6   2   67.48   12.29
 -12  -6  -2   57.26   10.77
  12   6   3   18.79    7.90
 -12  -6  -3    7.85    5.46
  12   6   4   15.02    8.07
  12   6   5    0.24    5.04
  12   6   6    7.50    6.88
 -12  -7   1  185.63   18.37
  12   7  -1  186.16   18.72
  12   7   0   23.29    8.17
 -12  -7   0   33.09    9.19
  12   7   1    5.09    6.33
 -12  -7  -1   -1.06    5.10
  12   7   2   -3.43    5.58
 -12  -7  -2  -10.72    6.40
  12   7   3   -2.89    6.24
 -12  -7  -3    3.64    5.02
  12   7   4   44.79   10.75
  12   7   5   81.95   13.21
  12   7   6   74.49   12.31
  12   7   7    3.54    5.49
  12   8  -1    4.20    5.25
  12   8   0   12.64    6.38
 -12  -8   0   20.89    6.69
  12   8   1    0.41    5.43
 -12  -8  -1   -3.30    5.33
 -12  -8  -1   10.69    6.12
 -12  -8  -2  178.80   18.72
  12   8   2  185.83   19.55
  12   8   3  163.02   18.17
 -12  -8  -3  190.51   18.84
  12   8   4   39.11   10.33
 -12  -8  -4   50.33    9.62
  12   8   5    3.79    6.46
  12   8   6    1.99    5.71
  12   8   7    3.07    5.88
  12   8   8   98.03   14.27
  12   8   9   62.96   12.09
 -12  -9  -3   95.13   13.45
 -12  -9  -4   98.71   13.46
  12   9   6   41.16   11.02
  12   9   7   12.18    6.78
  12   9   7    1.13    5.92
   0   0   0    0.00    0.00
;
_shelx_hkl_checksum              23010
loop_
_space_group_symop_operation_xyz
'x, y, z'
'-x, -y, -z'
loop_
_atom_site_label
_atom_site_type_symbol
_atom_site_fract_x
_atom_site_fract_y
_atom_site_fract_z
_atom_site_U_iso_or_equiv
_atom_site_adp_type
_atom_site_occupancy
_atom_site_site_symmetry_order
_atom_site_calc_flag
_atom_site_refinement_flags_posn
_atom_site_refinement_flags_adp
_atom_site_refinement_flags_occupancy
_atom_site_disorder_assembly
_atom_site_disorder_group
Pt1 Pt 0.5000 0.5000 0.5000 0.01799(7) Uani 1 2 d S . P . .
Pt1A Pt 1.0000 0.5000 1.0000 0.03944(10) Uani 1 2 d S U P . .
I1S I 0.80609(4) 0.61072(4) 0.67384(2) 0.02172(8) Uani 1 1 d . . . . .
I3S I 0.80715(4) 0.99764(4) 0.65895(2) 0.02468(8) Uani 1 1 d . . . . .
I2S I 1.16993(5) 0.65986(4) 0.63559(3) 0.03243(9) Uani 1 1 d . . . . .
Cl1 Cl 0.62884(18) 0.39562(16) 0.63402(8) 0.0267(3) Uani 1 1 d . . . . .
Cl1A Cl 0.9071(3) 0.7629(2) 0.92210(10) 0.0495(4) Uani 1 1 d . U . . .
N1 N 0.4144(5) 0.3327(5) 0.5305(3) 0.0222(9) Uani 1 1 d . . . . .
N2 N 0.2910(6) 0.1393(5) 0.5758(3) 0.0249(10) Uani 1 1 d . . . . .
N1A N 0.8394(7) 0.4623(7) 0.9482(4) 0.0415(13) Uani 1 1 d . U . . .
C1S C 0.9348(6) 0.7414(6) 0.6972(3) 0.0228(11) Uani 1 1 d . . . . .
H1S H 0.9475 0.7160 0.7640 0.027 Uiso 1 1 calc R U . . .
C1 C 0.3561(6) 0.2426(6) 0.5535(3) 0.0207(10) Uani 1 1 d . . . . .
C3 C 0.1162(7) 0.1961(7) 0.5813(4) 0.0317(13) Uani 1 1 d . . . . .
H3A H 0.0785 0.1850 0.6449 0.047 Uiso 1 1 calc R U . . .
H3B H 0.0850 0.1319 0.5520 0.047 Uiso 1 1 calc R U . . .
H3C H 0.0687 0.3094 0.5507 0.047 Uiso 1 1 calc R U . . .
C1A C 0.7481(8) 0.4320(8) 0.9224(4) 0.0358(14) Uani 1 1 d . U . . .
N2A N 0.6436(7) 0.3951(7) 0.8954(4) 0.0447(13) Uani 1 1 d . U . . .
C2 C 0.3868(8) -0.0289(7) 0.6165(4) 0.0337(14) Uani 1 1 d . . . . .
H2A H 0.5002 -0.0493 0.6072 0.050 Uiso 1 1 calc R U . . .
H2B H 0.3646 -0.1002 0.5880 0.050 Uiso 1 1 calc R U . . .
H2C H 0.3595 -0.0493 0.6815 0.050 Uiso 1 1 calc R U . . .
C2A C 0.6943(11) 0.2349(10) 0.8756(6) 0.064(2) Uani 1 1 d . U . . .
H2AA H 0.6954 0.2444 0.8102 0.097 Uiso 1 1 calc R U . . .
H2AB H 0.6198 0.1869 0.9060 0.097 Uiso 1 1 calc R U . . .
H2AC H 0.8014 0.1666 0.8973 0.097 Uiso 1 1 calc R U . . .
C3A C 0.4906(10) 0.5157(10) 0.8677(5) 0.057(2) Uani 1 1 d . U . . .
H3AA H 0.4719 0.6143 0.8873 0.086 Uiso 1 1 calc R U . . .
H3AB H 0.4077 0.4772 0.8951 0.086 Uiso 1 1 calc R U . . .
H3AC H 0.4876 0.5379 0.8017 0.086 Uiso 1 1 calc R U . . .
C2S C 0.2906(7) 1.0668(7) 0.8884(4) 0.0364(15) Uani 1 1 d D . . . .
H2S H 0.2621 1.0992 0.9483 0.044 Uiso 1 1 calc R U . A 1
I4S I 0.5399(2) 0.89948(19) 0.89515(13) 0.0290(3) Uani 0.5 1 d D . P B 1
I5S I 0.2523(4) 1.2798(3) 0.7934(2) 0.0267(4) Uani 0.5 1 d D . P B 1
I6S I 0.1411(3) 0.9441(3) 0.88189(11) 0.0335(3) Uani 0.5 1 d D . P B 1
Cl1S Cl 0.4915(8) 0.9464(8) 0.8811(6) 0.0399(15) Uani 0.5 1 d D . P B 2
Cl2S Cl 0.253(2) 1.2448(13) 0.7985(10) 0.040(2) Uani 0.5 1 d D . P B 2
Cl3S Cl 0.1703(11) 0.9750(11) 0.8690(6) 0.0498(16) Uani 0.5 1 d D . P B 2
loop_
_atom_site_aniso_label
_atom_site_aniso_U_11
_atom_site_aniso_U_22
_atom_site_aniso_U_33
_atom_site_aniso_U_23
_atom_site_aniso_U_13
_atom_site_aniso_U_12
Pt1 0.02641(16) 0.01717(13) 0.01705(13) -0.00664(10) 0.00531(10) -0.01538(12)
Pt1A 0.0744(3) 0.0463(2) 0.01548(14) -0.01176(13) 0.00157(15) -0.0395(2)
I1S 0.02721(19) 0.02080(16) 0.02167(16) -0.00511(13) 0.00175(13) -0.01443(14)
I3S 0.02896(19) 0.02178(17) 0.02878(18) -0.00878(14) 0.00363(14) -0.01499(15)
I2S 0.0248(2) 0.02706(19) 0.0494(2) -0.01250(17) 0.00575(17) -0.01401(16)
Cl1 0.0430(8) 0.0240(6) 0.0218(6) -0.0017(5) -0.0046(5) -0.0223(6)
Cl1A 0.0893(12) 0.0434(8) 0.0275(7) -0.0103(6) -0.0050(7) -0.0354(9)
N1 0.031(3) 0.019(2) 0.021(2) -0.0055(17) 0.0029(18) -0.015(2)
N2 0.031(3) 0.022(2) 0.029(2) -0.0027(19) 0.0000(19) -0.020(2)
N1A 0.0437(16) 0.0415(15) 0.0408(15) -0.0093(9) -0.0023(9) -0.0179(10)
C1S 0.028(3) 0.022(3) 0.023(2) -0.009(2) 0.003(2) -0.014(2)
C1 0.029(3) 0.020(2) 0.015(2) -0.0067(19) 0.003(2) -0.012(2)
C3 0.036(3) 0.040(3) 0.029(3) -0.008(3) 0.003(2) -0.026(3)
C1A 0.0375(16) 0.0363(16) 0.0348(16) -0.0075(10) -0.0016(9) -0.0160(10)
N2A 0.0473(16) 0.0445(16) 0.0453(16) -0.0106(10) -0.0024(9) -0.0204(10)
C2 0.042(4) 0.024(3) 0.041(3) -0.005(3) -0.002(3) -0.020(3)
C2A 0.072(3) 0.062(3) 0.065(3) -0.0156(18) -0.0125(18) -0.0286(19)
C3A 0.059(3) 0.060(3) 0.061(3) -0.0187(18) -0.0003(18) -0.0285(19)
C2S 0.055(4) 0.042(4) 0.030(3) -0.017(3) 0.001(3) -0.031(3)
I4S 0.0442(10) 0.0277(7) 0.0219(5) -0.0060(5) -0.0027(6) -0.0200(6)
I5S 0.0429(7) 0.0225(11) 0.0214(7) -0.0017(7) -0.0038(5) -0.0204(8)
I6S 0.0540(10) 0.0381(7) 0.0220(5) -0.0023(4) -0.0024(5) -0.0335(5)
Cl1S 0.035(4) 0.047(4) 0.048(4) -0.021(3) 0.004(2) -0.022(3)
Cl2S 0.071(4) 0.019(4) 0.031(2) 0.002(3) -0.002(2) -0.023(3)
Cl3S 0.054(3) 0.059(5) 0.049(3) -0.015(3) 0.010(2) -0.035(3)
loop_
_atom_type_symbol
_atom_type_description
_atom_type_scat_dispersion_real
_atom_type_scat_dispersion_imag
_atom_type_scat_source
C C 0.0033 0.0016 'International Tables Vol C Tables 4.2.6.8 and 6.1.1.4'
H H 0.0000 0.0000 'International Tables Vol C Tables 4.2.6.8 and 6.1.1.4'
Cl Cl 0.1484 0.1585 'International Tables Vol C Tables 4.2.6.8 and 6.1.1.4'
I I -0.4742 1.8119 'International Tables Vol C Tables 4.2.6.8 and 6.1.1.4'
N N 0.0061 0.0033 'International Tables Vol C Tables 4.2.6.8 and 6.1.1.4'
Pt Pt -1.7033 8.3905 'International Tables Vol C Tables 4.2.6.8 and 6.1.1.4'
loop_
_geom_angle_atom_site_label_1
_geom_angle_atom_site_label_2
_geom_angle_atom_site_label_3
_geom_angle
_geom_angle_site_symmetry_1
_geom_angle_site_symmetry_3
N1 Pt1 N1 180.00(11) . 2_666
N1 Pt1 Cl1 90.39(13) . 2_666
N1 Pt1 Cl1 89.61(13) 2_666 2_666
N1 Pt1 Cl1 89.61(13) . .
N1 Pt1 Cl1 90.39(13) 2_666 .
Cl1 Pt1 Cl1 180.00(7) 2_666 .
N1A Pt1A N1A 180.0(3) . 2_767
N1A Pt1A Cl1A 91.06(17) . .
N1A Pt1A Cl1A 88.94(17) 2_767 .
N1A Pt1A Cl1A 88.94(17) . 2_767
N1A Pt1A Cl1A 91.06(17) 2_767 2_767
Cl1A Pt1A Cl1A 180.0 . 2_767
C1 N1 Pt1 174.1(4) . .
C1 N2 C2 119.9(5) . .
C1 N2 C3 119.8(5) . .
C2 N2 C3 118.6(4) . .
C1A N1A Pt1A 175.6(5) . .
I2S C1S I1S 111.1(2) . .
I2S C1S I3S 112.4(2) . .
I1S C1S I3S 112.8(2) . .
I2S C1S H1S 106.7 . .
I1S C1S H1S 106.7 . .
I3S C1S H1S 106.7 . .
N1 C1 N2 177.3(5) . .
N2 C3 H3A 109.5 . .
N2 C3 H3B 109.5 . .
H3A C3 H3B 109.5 . .
N2 C3 H3C 109.5 . .
H3A C3 H3C 109.5 . .
H3B C3 H3C 109.5 . .
N1A C1A N2A 178.3(7) . .
C1A N2A C3A 121.1(6) . .
C1A N2A C2A 118.9(6) . .
C3A N2A C2A 118.8(6) . .
N2 C2 H2A 109.5 . .
N2 C2 H2B 109.5 . .
H2A C2 H2B 109.5 . .
N2 C2 H2C 109.5 . .
H2A C2 H2C 109.5 . .
H2B C2 H2C 109.5 . .
N2A C2A H2AA 109.5 . .
N2A C2A H2AB 109.5 . .
H2AA C2A H2AB 109.5 . .
N2A C2A H2AC 109.5 . .
H2AA C2A H2AC 109.5 . .
H2AB C2A H2AC 109.5 . .
N2A C3A H3AA 109.5 . .
N2A C3A H3AB 109.5 . .
H3AA C3A H3AB 109.5 . .
N2A C3A H3AC 109.5 . .
H3AA C3A H3AC 109.5 . .
H3AB C3A H3AC 109.5 . .
Cl1S C2S Cl3S 112.6(5) . .
Cl1S C2S Cl2S 107.3(7) . .
Cl3S C2S Cl2S 106.2(6) . .
I5S C2S I6S 116.3(3) . .
I5S C2S I4S 113.4(3) . .
I6S C2S I4S 110.5(3) . .
I5S C2S H2S 105.2 . .
I6S C2S H2S 105.2 . .
I4S C2S H2S 105.2 . .
loop_
_geom_bond_atom_site_label_1
_geom_bond_atom_site_label_2
_geom_bond_distance
_geom_bond_site_symmetry_2
Pt1 N1 1.969(4) .
Pt1 N1 1.969(4) 2_666
Pt1 Cl1 2.3022(13) 2_666
Pt1 Cl1 2.3023(13) .
Pt1A N1A 1.968(6) .
Pt1A N1A 1.968(6) 2_767
Pt1A Cl1A 2.3017(17) .
Pt1A Cl1A 2.3017(17) 2_767
I1S C1S 2.146(5) .
I3S C1S 2.151(5) .
I2S C1S 2.140(5) .
N1 C1 1.144(6) .
N2 C1 1.298(6) .
N2 C2 1.470(7) .
N2 C3 1.473(7) .
N1A C1A 1.140(8) .
C1S H1S 1.0000 .
C3 H3A 0.9800 .
C3 H3B 0.9800 .
C3 H3C 0.9800 .
C1A N2A 1.300(8) .
N2A C3A 1.434(9) .
N2A C2A 1.467(9) .
C2 H2A 0.9800 .
C2 H2B 0.9800 .
C2 H2C 0.9800 .
C2A H2AA 0.9800 .
C2A H2AB 0.9800 .
C2A H2AC 0.9800 .
C3A H3AA 0.9800 .
C3A H3AB 0.9800 .
C3A H3AC 0.9800 .
C2S Cl1S 1.728(8) .
C2S Cl3S 1.757(8) .
C2S Cl2S 1.820(12) .
C2S I5S 2.084(6) .
C2S I6S 2.161(5) .
C2S I4S 2.179(6) .
C2S H2S 1.0000 .
