#------------------------------------------------------------------------------
#$Date: 2016-05-31 10:54:22 +0300 (Tue, 31 May 2016) $
#$Revision: 183168 $
#$URL: svn://www.crystallography.net/cod/cif/7/11/89/7118966.cif $
#------------------------------------------------------------------------------
#
# This file is available in the Crystallography Open Database (COD),
# http://www.crystallography.net/
#
# All data on this site have been placed in the public domain by the
# contributors.
#
data_7118966
loop_
_publ_author_name
'Dhananjay Dey'
'Subhrajyoti Bhandary'
'Abhishek Sirohiwal'
'Venkatesha R. Hathwar'
'Deepak Chopra'
_publ_section_title
;
 'Conformational lock' via unusual intramolecular C-F^...^O[double bond,
 length as m-dash]C and C-H^...^Cl-C parallel dipoles observed in in situ
 cryocrystallized liquids
;
_journal_name_full               Chem.Commun.
_journal_page_first              7225
_journal_volume                  52
_journal_year                    2016
_chemical_formula_sum            'C7 H5 Cl O'
_chemical_formula_weight         140.56
_chemical_melting_point          273.5
_space_group_crystal_system      monoclinic
_space_group_IT_number           14
_space_group_name_Hall           '-P 2yn'
_space_group_name_H-M_alt        'P 1 21/n 1'
_symmetry_space_group_name_Hall  '-P 2yn'
_symmetry_space_group_name_H-M   'P 1 21/n 1'
_atom_sites_solution_hydrogens   geom
_audit_creation_method           SHELXL-2014/7
_audit_update_record
;
2016-04-14 deposited with the CCDC.
2016-04-18 downloaded from the CCDC.
;
_cell_angle_alpha                90
_cell_angle_beta                 93.566(3)
_cell_angle_gamma                90
_cell_formula_units_Z            4
_cell_length_a                   7.4704(5)
_cell_length_b                   3.9581(2)
_cell_length_c                   22.3439(12)
_cell_measurement_reflns_used    4203
_cell_measurement_temperature    200(2)
_cell_measurement_theta_max      30.39
_cell_measurement_theta_min      2.83
_cell_volume                     659.40(7)
_computing_cell_refinement       'Bruker SAINT'
_computing_data_collection       'Bruker APEX2'
_computing_data_reduction        'Bruker SAINT'
_computing_molecular_graphics
'PLATON (Spek, 2009) and Mercury (Macrae <i>et al.</i>, 2008)'
_computing_publication_material  'WINGX (Farrugia, 2014) and PLATON'
_computing_structure_refinement  'SHELXL-2014/7 (Sheldrick, 2014)'
_computing_structure_solution    'SIR2014 (Burla <i>et al.</i>, 2014)'
_diffrn_ambient_temperature      200(2)
_diffrn_measured_fraction_theta_full 0.936
_diffrn_measured_fraction_theta_max 0.910
_diffrn_measurement_device_type  'Bruker APEX-II CCD'
_diffrn_measurement_method       '\w scans'
_diffrn_radiation_type           MoK\a
_diffrn_radiation_wavelength     0.71073
_diffrn_reflns_av_R_equivalents  0.0126
_diffrn_reflns_av_unetI/netI     0.0105
_diffrn_reflns_Laue_measured_fraction_full 0.936
_diffrn_reflns_Laue_measured_fraction_max 0.910
_diffrn_reflns_limit_h_max       10
_diffrn_reflns_limit_h_min       -5
_diffrn_reflns_limit_k_max       4
_diffrn_reflns_limit_k_min       -5
_diffrn_reflns_limit_l_max       24
_diffrn_reflns_limit_l_min       -26
_diffrn_reflns_number            7678
_diffrn_reflns_point_group_measured_fraction_full 0.936
_diffrn_reflns_point_group_measured_fraction_max 0.910
_diffrn_reflns_theta_full        25.242
_diffrn_reflns_theta_max         28.695
_diffrn_reflns_theta_min         2.826
_exptl_absorpt_coefficient_mu    0.482
_exptl_absorpt_correction_type   multi-scan
_exptl_absorpt_process_details   SADABS
_exptl_crystal_colour            colourless
_exptl_crystal_density_diffrn    1.416
_exptl_crystal_description       block
_exptl_crystal_F_000             288
_exptl_crystal_size_max          0.300
_exptl_crystal_size_mid          0.300
_exptl_crystal_size_min          0.300
_exptl_transmission_factor_max   0.856
_exptl_transmission_factor_min   0.856
_refine_diff_density_max         0.328
_refine_diff_density_min         -0.235
_refine_diff_density_rms         0.051
_refine_ls_extinction_coef       .
_refine_ls_extinction_method     none
_refine_ls_goodness_of_fit_ref   1.112
_refine_ls_hydrogen_treatment    constr
_refine_ls_matrix_type           full
_refine_ls_number_parameters     82
_refine_ls_number_reflns         1555
_refine_ls_number_restraints     0
_refine_ls_restrained_S_all      1.112
_refine_ls_R_factor_all          0.0559
_refine_ls_R_factor_gt           0.0514
_refine_ls_shift/su_max          0.000
_refine_ls_shift/su_mean         0.000
_refine_ls_structure_factor_coef Fsqd
_refine_ls_weighting_details
'w=1/[\s^2^(Fo^2^)+(0.0691P)^2^+0.4288P] where P=(Fo^2^+2Fc^2^)/3'
_refine_ls_weighting_scheme      calc
_refine_ls_wR_factor_gt          0.1507
_refine_ls_wR_factor_ref         0.1544
_reflns_Friedel_coverage         0.000
_reflns_Friedel_fraction_full    .
_reflns_Friedel_fraction_max     .
_reflns_number_gt                1398
_reflns_number_total             1555
_reflns_threshold_expression     'I > 2\s(I)'
_cod_data_source_file            c6cc02535h2.cif
_cod_data_source_block           bc
_cod_database_code               7118966
_shelx_shelxl_version_number     2014/7
_shelx_space_group_comment
;
The symmetry employed for this shelxl refinement is uniquely defined
by the following loop, which should always be used as a source of
symmetry information in preference to the above space-group names.
They are only intended as comments.
;
_shelx_estimated_absorpt_t_min   0.869
_shelx_estimated_absorpt_t_max   0.869
_shelx_res_file
;

    shelx.res created by SHELXL-2014/7


TITL BC in P2(1)/n
CELL 0.71073 7.4704 3.9581 22.3439 90.000 93.566 90.000
ZERR 4.00 0.0005 0.0002 0.0012 0.000 0.003 0.000
LATT 1
SYMM -x+1/2, y+1/2, -z+1/2
SFAC C H O CL
UNIT 28 20 4 4
MERG 2
L.S. 12
ACTA
BOND $H
CONF
HTAB
SIZE 0.3 0.3 0.3
TEMP -73
OMIT 0 1 13
OMIT 3 1 16
OMIT 0 0 2
FMAP 2
PLAN 5
WGHT    0.069100    0.428800
FVAR       0.37668
CL1   4    0.175447    0.485036    0.447897    11.00000    0.06803    0.07528 =
         0.05812   -0.01264    0.02548    0.00787
O1    3    0.115810    0.407467    0.335360    11.00000    0.04508    0.11635 =
         0.06197    0.00127    0.00072    0.02589
C7    1    0.226530    0.357893    0.374153    11.00000    0.03909    0.04947 =
         0.04248    0.00192    0.00870    0.00346
C1    1    0.403349    0.201821    0.368395    11.00000    0.03256    0.03243 =
         0.03966    0.00340    0.00503   -0.00192
C2    1    0.439600    0.088432    0.311887    11.00000    0.04121    0.04288 =
         0.03877    0.00013    0.00524   -0.00025
AFIX  43
H2    2    0.351775    0.111164    0.279522    11.00000   -1.20000
AFIX   0
C3    1    0.603700   -0.058199    0.302393    11.00000    0.05200    0.04540 =
         0.05677   -0.00215    0.01938    0.00252
AFIX  43
H3    2    0.628685   -0.135951    0.263561    11.00000   -1.20000
AFIX   0
C4    1    0.730320   -0.090853    0.349357    11.00000    0.03865    0.04560 =
         0.08355    0.00570    0.01362    0.00827
AFIX  43
H4    2    0.842738   -0.192474    0.342952    11.00000   -1.20000
AFIX   0
C6    1    0.531595    0.167604    0.415759    11.00000    0.04732    0.04806 =
         0.04211    0.00158   -0.00214    0.00162
AFIX  43
H6    2    0.506959    0.243102    0.454760    11.00000   -1.20000
AFIX   0
C5    1    0.694981    0.023082    0.405669    11.00000    0.04322    0.05735 =
         0.07193    0.00914   -0.01187    0.00355
AFIX  43
H5    2    0.783773    0.001958    0.437778    11.00000   -1.20000
AFIX   0
HKLF 4

REM  BC in P2(1)/n
REM R1 =  0.0514 for    1398 Fo > 4sig(Fo)  and  0.0559 for all    1555 data
REM     82 parameters refined using      0 restraints

END

WGHT      0.0668      0.4257

REM No hydrogen bonds found for HTAB generation

REM Highest difference peak  0.328,  deepest hole -0.235,  1-sigma level  0.051
Q1    1   0.2718  0.4093  0.4575  11.00000  0.05    0.33
Q2    1   0.5254  0.0209  0.3155  11.00000  0.05    0.26
Q3    1   0.4549  0.1494  0.3941  11.00000  0.05    0.25
Q4    1   0.1241  0.3359  0.4321  11.00000  0.05    0.25
Q5    1   0.5964  0.0251  0.4112  11.00000  0.05    0.23
;
_shelx_res_checksum              97453
_shelx_hkl_file
;
   2   0   0  193.75    2.58
   2   0   0  194.83    2.58
   2   0   0  194.13    2.58
   3   0   0    0.01    0.03
   3   0   0   -0.01    0.04
   3   0   0    0.04    0.03
   3   0   0    0.07    0.04
   4   0   0   42.89    0.67
   4   0   0   42.89    0.67
   4   0   0   43.09    0.67
   5   0   0   -0.01    0.05
   5   0   0   -0.01    0.05
   5   0   0    0.01    0.06
   5   0   0    0.20    0.07
   5   0   0    0.08    0.06
   6   0   0    1.14    0.12
   6   0   0    0.99    0.11
   6   0   0    1.05    0.12
   6   0   0    1.02    0.12
   6   0   0    1.04    0.12
   7   0   0   -0.12    0.07
   7   0   0   -0.17    0.07
   7   0   0    0.04    0.08
   7   0   0   -0.01    0.07
   7   0   0    0.05    0.08
   8   0   0    1.20    0.16
   8   0   0    1.58    0.17
   8   0   0    1.43    0.16
   8   0   0    1.67    0.18
   8   0   0    1.15    0.15
   9   0   0   -0.05    0.09
   9   0   0    0.05    0.10
   9   0   0    0.10    0.11
   9   0   0    0.14    0.11
   9   0   0   -0.26    0.08
  10   0   0    1.11    0.19
  10   0   0    0.87    0.17
  10   0   0    1.14    0.19
  10   0   0    1.05    0.19
   0  -1   0   -0.25    0.03
   0  -1   0   -0.25    0.03
   0  -1   0   -0.27    0.03
   0  -1   0   -0.24    0.03
   0  -1   0   -0.27    0.03
   0   1   0   -0.25    0.03
   1  -1   0  973.03   12.85
  -1  -1   0  938.12   12.81
   1  -1   0  967.84   12.82
   1  -1   0  977.76   12.84
  -1  -1   0  945.92   12.83
   1  -1   0  957.86   12.81
   1  -1   0  963.39   12.85
  -2  -1   0    0.66    0.05
  -2  -1   0    0.62    0.05
   2  -1   0    0.63    0.05
   2  -1   0    0.70    0.05
   2  -1   0    0.54    0.05
   2  -1   0    0.68    0.05
   2  -1   0    0.71    0.06
   3  -1   0  363.27    4.82
   3  -1   0  357.35    4.81
   3  -1   0  363.88    4.81
   3  -1   0  365.77    4.82
   3  -1   0  361.83    4.82
   3   1   0  360.07    4.81
   3   1   0  365.90    4.81
   4  -1   0    9.65    0.23
   4  -1   0    9.34    0.23
   4  -1   0    9.28    0.23
   4  -1   0    9.57    0.23
   4  -1   0    9.29    0.22
   4   1   0    9.67    0.23
   4   1   0    9.52    0.22
   5  -1   0   14.65    0.33
   5  -1   0   14.69    0.33
   5  -1   0   14.74    0.33
   5  -1   0   15.07    0.33
   5  -1   0   15.16    0.33
   5   1   0   14.59    0.32
   5   1   0   14.95    0.33
   6  -1   0    1.40    0.14
   6  -1   0    1.28    0.14
   6  -1   0    1.13    0.13
   6  -1   0    1.47    0.14
   6  -1   0    1.16    0.13
   6   1   0    1.80    0.15
   6   1   0    1.52    0.15
   7  -1   0    4.39    0.21
   7  -1   0    4.31    0.21
   7  -1   0    4.80    0.22
   7  -1   0    4.57    0.21
   7  -1   0    4.34    0.21
   7   1   0    4.46    0.20
   7   1   0    4.78    0.22
   7   1   0    4.40    0.21
   7   1   0    4.30    0.21
   8  -1   0    1.58    0.17
   8  -1   0    1.80    0.18
   8  -1   0    1.84    0.18
   8  -1   0    1.67    0.17
   8  -1   0    1.75    0.18
   8   1   0    1.75    0.17
   8   1   0    1.61    0.18
   8   1   0    1.82    0.18
   8   1   0    1.56    0.17
   9  -1   0    0.25    0.12
   9  -1   0    0.18    0.11
   9  -1   0    0.30    0.13
   9  -1   0    0.37    0.12
   9   1   0    0.06    0.12
   9   1   0    0.23    0.12
   9   1   0    0.17    0.11
   9   1   0    0.15    0.11
   9   1   0    0.18    0.12
   0  -2   0  268.36    3.54
   0  -2   0  265.41    3.54
   0  -2   0  261.02    3.54
   1  -2   0    1.53    0.08
  -1  -2   0    1.40    0.08
   1  -2   0    1.41    0.08
   1  -2   0    1.60    0.08
   1  -2   0    1.43    0.08
   1  -2   0    1.38    0.08
  -1  -2   0    1.45    0.09
   2  -2   0   99.79    1.42
  -2  -2   0   98.95    1.42
   2  -2   0  101.95    1.42
   2  -2   0  100.77    1.42
   2  -2   0  102.04    1.42
  -2  -2   0   98.73    1.41
   2  -2   0  101.65    1.42
   3  -2   0    5.63    0.17
  -3  -2   0    5.41    0.17
  -3  -2   0    5.62    0.17
   3  -2   0    5.42    0.17
   3  -2   0    5.69    0.17
   3  -2   0    5.40    0.17
   3  -2   0    5.42    0.17
   4  -2   0    4.55    0.17
   4  -2   0    4.69    0.18
   4  -2   0    4.60    0.17
   4  -2   0    4.73    0.18
   4  -2   0    4.56    0.17
   4   2   0    4.59    0.17
   4   2   0    4.71    0.17
   5  -2   0    2.68    0.16
   5  -2   0    2.65    0.15
   5  -2   0    2.46    0.15
   5  -2   0    2.53    0.15
   5  -2   0    2.86    0.16
   5   2   0    2.62    0.15
   5   2   0    2.61    0.15
   6  -2   0   10.64    0.31
   6  -2   0   10.00    0.30
   6  -2   0   10.45    0.31
   6  -2   0   10.10    0.30
   6  -2   0   10.43    0.31
   6   2   0    9.68    0.29
   6   2   0   10.16    0.29
   7  -2   0    1.09    0.15
   7  -2   0    0.97    0.14
   7  -2   0    1.39    0.16
   7  -2   0    1.06    0.15
   7  -2   0    1.56    0.17
   7   2   0    1.11    0.14
   7   2   0    1.32    0.15
   8  -2   0    2.09    0.20
   8  -2   0    1.81    0.19
   8  -2   0    1.99    0.20
   8  -2   0    2.10    0.21
   8  -2   0    2.28    0.21
   8   2   0    2.37    0.21
   8   2   0    2.49    0.22
   9  -2   0    0.86    0.17
   9  -2   0    0.72    0.17
   9  -2   0    1.11    0.18
   9  -2   0    0.91    0.18
   9   2   0    0.58    0.15
   9   2   0    0.85    0.16
   9   2   0    0.71    0.15
   9   2   0    0.67    0.16
   0  -3   0    0.23    0.07
   0  -3   0    0.31    0.07
   0  -3   0    0.18    0.06
  -1  -3   0    0.33    0.08
  -1  -3   0    0.33    0.08
   1  -3   0    0.59    0.09
   1  -3   0    0.62    0.09
   1  -3   0    0.53    0.08
   2  -3   0    0.75    0.10
  -2  -3   0    0.53    0.09
   2  -3   0    0.53    0.09
   2  -3   0    0.71    0.10
   2  -3   0    0.68    0.09
   2  -3   0    0.61    0.09
  -2  -3   0    0.77    0.09
   3  -3   0   29.03    0.55
   3  -3   0   29.83    0.55
  -3  -3   0   29.61    0.54
   3  -3   0   29.29    0.55
   3  -3   0   28.36    0.54
   3  -3   0   28.60    0.55
  -3  -3   0   29.08    0.53
   4  -3   0    3.66    0.18
  -4  -3   0    3.95    0.18
   4  -3   0    3.78    0.18
   4  -3   0    3.84    0.18
   4  -3   0    3.67    0.18
   4  -3   0    3.92    0.18
  -4  -3   0    3.52    0.18
   4   3   0    3.53    0.17
   4   3   0    3.61    0.18
   5  -3   0    5.68    0.23
   5  -3   0    5.37    0.23
   5  -3   0    5.40    0.24
   5  -3   0    5.54    0.24
   5  -3   0    5.16    0.22
   5   3   0    5.18    0.22
   5   3   0    5.52    0.22
   6  -3   0    1.68    0.18
   6  -3   0    1.50    0.16
   6  -3   0    1.79    0.17
   6  -3   0    1.83    0.18
   6  -3   0    1.54    0.17
   6   3   0    1.61    0.16
   6   3   0    1.53    0.16
   7  -3   0    1.31    0.18
   7  -3   0    1.08    0.16
   7  -3   0    1.07    0.17
   7  -3   0    0.81    0.15
   7  -3   0    1.08    0.16
   7   3   0    1.24    0.16
   7   3   0    1.22    0.16
   8  -3   0    0.16    0.13
   8  -3   0    0.04    0.12
   8  -3   0    0.24    0.14
   8  -3   0   -0.18    0.11
   8   3   0    0.12    0.11
   8   3   0    0.18    0.12
   0  -4   0    0.74    0.11
   0  -4   0    0.85    0.11
   1  -4   0    0.20    0.08
  -1  -4   0    0.04    0.08
   1  -4   0    0.17    0.08
  -1  -4   0    0.00    0.07
   1  -4   0    0.04    0.07
   2  -4   0    1.75    0.16
  -2  -4   0    1.52    0.14
   2  -4   0    1.42    0.14
  -2  -4   0    1.41    0.14
   2  -4   0    1.46    0.14
   3  -4   0    0.19    0.09
   3  -4   0   -0.06    0.07
   3  -4   0   -0.11    0.08
  -3  -4   0    0.13    0.08
  -3  -4   0    0.13    0.08
   3  -4   0    0.11    0.08
   3  -4   0    0.08    0.09
  -4  -4   0    3.07    0.19
   4  -4   0    3.21    0.19
   4  -4   0    2.97    0.20
   4  -4   0    3.03    0.20
  -4  -4   0    2.46    0.18
   4  -4   0    2.91    0.19
   4  -4   0    2.65    0.20
   5  -4   0    2.93    0.22
   5  -4   0    3.45    0.23
   5  -4   0    3.13    0.22
   5  -4   0    2.94    0.22
   5  -4   0    3.37    0.22
   5   4   0    3.55    0.22
   5   4   0    3.61    0.21
   6  -4   0    3.07    0.25
   6  -4   0    2.33    0.22
   6  -4   0    2.77    0.22
   6  -4   0    2.72    0.22
   6   4   0    2.92    0.21
   6   4   0    2.61    0.20
   0  -5   0   -0.08    0.08
   0  -5   0   -0.01    0.08
  -1  -5   0    0.74    0.13
   1  -5   0    0.23    0.10
   1  -5   0    0.32    0.11
  -1  -5   0    0.35    0.11
   2  -5   0    0.07    0.11
  -2  -5   0    0.25    0.13
  -2  -5   0    0.14    0.12
   2  -5   0    0.25    0.12
   3  -5   0    0.74    0.15
   3  -5   0    0.92    0.15
  10   0  -1    0.07    0.12
  10   0  -1   -0.01    0.12
  10   0  -1    0.03    0.11
  10   0  -1    0.02    0.12
   9   0  -1    0.11    0.11
   9   0  -1    0.08    0.10
   9   0  -1    0.11    0.11
   9   0  -1    0.18    0.11
   9   0  -1    0.22    0.11
   8   0  -1    0.04    0.09
   8   0  -1   -0.10    0.08
   8   0  -1    0.02    0.09
   8   0  -1    0.15    0.10
   8   0  -1    0.07    0.09
   7   0  -1    5.93    0.23
   7   0  -1    6.05    0.23
   7   0  -1    6.22    0.22
   7   0  -1    6.15    0.23
   7   0  -1    6.73    0.24
   6   0  -1   -0.04    0.07
   6   0  -1   -0.04    0.06
   6   0  -1   -0.04    0.07
   6   0  -1    0.08    0.07
   6   0  -1   -0.11    0.06
   5   0  -1   27.09    0.49
   5   0  -1   27.87    0.49
   5   0  -1   27.10    0.49
   5   0  -1   26.96    0.48
   5   0  -1   27.29    0.50
   4   0  -1    0.10    0.05
   4   0  -1    0.17    0.05
   4   0  -1    0.13    0.05
   4   0  -1    0.20    0.05
   4   0  -1    0.17    0.05
   3   0  -1  692.00    9.26
   3   0  -1  682.12    9.23
   3   0  -1  691.96    9.38
   3   0  -1  690.02    9.37
   2   0  -1   -0.28    0.03
   2   0  -1   -0.19    0.04
   2   0  -1   -0.23    0.04
   2   0  -1   -0.22    0.04
   1   0  -1  160.42    2.15
   1   0  -1  161.45    2.18
   1   0  -1  163.17    2.18
   2   0   1   -0.08    0.03
   2   0   1   -0.10    0.03
   3   0   1   63.44    0.91
   3   0   1   63.09    0.91
   3   0   1   63.03    0.91
   3   0   1   63.47    0.91
   4   0   1    0.06    0.04
   4   0   1    0.07    0.04
   4   0   1   -0.05    0.04
   4   0   1   -0.01    0.04
   5   0   1    2.65    0.14
   5   0   1    2.74    0.14
   5   0   1    3.09    0.14
   5   0   1    3.05    0.14
   6   0   1    0.07    0.07
   6   0   1    0.05    0.08
   6   0   1    0.10    0.08
   6   0   1    0.12    0.08
   6   0   1    0.29    0.09
   7   0   1    1.85    0.16
   7   0   1    1.58    0.15
   7   0   1    1.69    0.16
   7   0   1    1.89    0.15
   7   0   1    2.03    0.17
   8   0   1    0.06    0.09
   8   0   1   -0.06    0.09
   8   0   1   -0.14    0.08
   8   0   1    0.02    0.09
   8   0   1    0.07    0.09
   9   0   1    3.14    0.21
   9   0   1    2.58    0.21
   9   0   1    2.02    0.20
   9   0   1    2.73    0.21
   9   0   1    2.57    0.20
  10   0   1    0.22    0.13
  10   0   1    0.01    0.12
  10   0   1    0.25    0.13
  10   0   1   -0.08    0.11
   9  -1  -1    0.42    0.13
   9  -1  -1    0.09    0.10
   9  -1  -1    0.25    0.21
   9  -1  -1    0.16    0.12
   9  -1  -1    0.36    0.13
   9   1  -1    0.36    0.12
   9   1  -1    0.17    0.11
   9   1  -1    0.24    0.12
   9   1  -1    0.21    0.12
   9   1  -1    0.29    0.12
   8  -1  -1    2.20    0.19
   8  -1  -1    2.00    0.18
   8  -1  -1    2.10    0.19
   8  -1  -1    2.06    0.19
   8  -1  -1    2.22    0.19
   8   1  -1    2.11    0.20
   8   1  -1    2.54    0.21
   8   1  -1    2.01    0.18
   8   1  -1    2.20    0.17
   8   1  -1    2.11    0.19
   7  -1  -1    6.17    0.24
   7  -1  -1    6.11    0.24
   7  -1  -1    6.42    0.24
   7  -1  -1    6.35    0.24
   7  -1  -1    6.03    0.24
   7   1  -1    6.49    0.24
   7   1  -1    6.60    0.24
   7   1  -1    6.42    0.25
   7   1  -1    6.25    0.24
   6  -1  -1   23.69    0.48
   6  -1  -1   24.66    0.49
   6  -1  -1   23.56    0.48
   6  -1  -1   23.20    0.48
   6  -1  -1   22.95    0.48
   6   1  -1   23.82    0.48
   6   1  -1   23.78    0.47
   6   1  -1   23.71    0.47
   6   1  -1   23.35    0.47
   5  -1  -1    0.07    0.07
   5  -1  -1    0.09    0.07
   5  -1  -1    0.16    0.07
   5  -1  -1    0.01    0.06
   5  -1  -1    0.16    0.07
   5   1  -1    0.08    0.06
   5   1  -1    0.16    0.06
   4  -1  -1   22.30    0.41
   4  -1  -1   22.58    0.41
   4  -1  -1   21.96    0.41
   4  -1  -1   22.01    0.40
   4  -1  -1   22.03    0.40
   4   1  -1   21.68    0.40
   4   1  -1   22.16    0.40
   3  -1  -1   13.88    0.27
   3  -1  -1   13.75    0.27
   3  -1  -1   14.11    0.27
   3  -1  -1   13.64    0.27
   3  -1  -1   14.00    0.27
   3   1  -1   13.67    0.26
   3   1  -1   13.83    0.27
   2  -1  -1  236.09    3.14
  -2  -1   1  232.96    3.13
   2  -1  -1  235.01    3.14
   2  -1  -1  235.82    3.14
  -2  -1   1  235.70    3.13
   2  -1  -1  233.66    3.14
   2  -1  -1  237.09    3.14
   2   1  -1  235.87    3.13
   2   1  -1  237.66    3.13
   1  -1  -1   48.69    0.69
   1  -1  -1   48.77    0.70
   1  -1  -1   48.44    0.70
  -1  -1   1   48.47    0.68
  -1  -1   1   47.69    0.68
   1  -1  -1   48.17    0.70
   1  -1  -1   49.47    0.70
   0  -1   1   45.93    0.66
   0  -1   1   48.81    0.68
   0  -1   1   47.25    0.66
   0  -1  -1   47.11    0.67
   0  -1   1   47.33    0.66
   0  -1   1   47.75    0.67
   0  -1  -1   47.93    0.67
   0  -1  -1   47.23    0.67
   0   1  -1   47.04    0.66
   0   1   1   46.44    0.69
  -1  -1  -1  239.88    3.23
   1  -1   1  242.48    3.23
   1  -1   1  243.13    3.23
   1  -1   1  245.80    3.23
   1  -1   1  243.22    3.23
  -1  -1  -1  240.39    3.23
   1  -1   1  243.85    3.23
  -1   1  -1  256.31    3.25
  -2  -1  -1    2.35    0.09
   2  -1   1    2.42    0.08
   2  -1   1    2.50    0.09
   2  -1   1    2.47    0.08
   2  -1   1    2.45    0.08
  -2  -1  -1    2.41    0.08
   2  -1   1    2.32    0.09
   3  -1   1   31.45    0.51
   3  -1   1   31.81    0.51
   3  -1   1   32.62    0.51
   3  -1   1   31.94    0.51
   3  -1   1   31.63    0.51
   3   1   1   32.04    0.51
   3   1   1   31.90    0.51
   4  -1   1   18.02    0.35
   4  -1   1   18.05    0.35
   4  -1   1   18.62    0.36
   4  -1   1   18.18    0.35
   4  -1   1   18.71    0.36
   4   1   1   18.34    0.35
   4   1   1   17.88    0.35
   5  -1   1    1.86    0.12
   5   1   1    1.92    0.12
   5   1   1    1.70    0.12
   6  -1   1   11.28    0.31
   6  -1   1   11.57    0.31
   6  -1   1   11.67    0.31
   6  -1   1   11.00    0.30
   6  -1   1   11.48    0.31
   6   1   1   11.65    0.31
   6   1   1   11.41    0.30
   7  -1   1    5.06    0.23
   7  -1   1    5.43    0.23
   7  -1   1    5.43    0.23
   7  -1   1    5.44    0.23
   7  -1   1    5.48    0.24
   7   1   1    5.74    0.24
   7   1   1    5.46    0.23
   7   1   1    5.46    0.23
   7   1   1    5.50    0.23
   8  -1   1    0.01    0.09
   8  -1   1   -0.09    0.08
   8  -1   1    0.08    0.10
   8  -1   1   -0.09    0.08
   8  -1   1   -0.02    0.09
   8   1   1   -0.08    0.09
   8   1   1    0.01    0.09
   8   1   1   -0.07    0.09
   8   1   1    0.13    0.10
   9  -1   1    2.96    0.22
   9  -1   1    2.90    0.22
   9  -1   1    2.64    0.21
   9  -1   1    2.92    0.22
   9   1   1    2.94    0.21
   9   1   1    2.72    0.21
   9   1   1    3.04    0.25
   9   1   1    2.88    0.24
   9  -2  -1    2.37    0.23
   9  -2  -1    2.65    0.25
   9  -2  -1    2.41    0.23
   9  -2  -1    2.45    0.24
   9   2  -1    2.75    0.25
   9   2  -1    2.47    0.23
   9   2  -1    2.41    0.23
   9   2  -1    2.70    0.24
   8  -2  -1    0.14    0.11
   8  -2  -1    0.20    0.12
   8  -2  -1   -0.04    0.09
   8  -2  -1    0.01    0.11
   8  -2  -1    0.20    0.11
   8   2  -1    0.42    0.12
   8   2  -1    0.10    0.10
   8   2  -1    0.20    0.10
   8   2  -1    0.26    0.11
   7  -2  -1    1.24    0.15
   7  -2  -1    1.45    0.16
   7  -2  -1    1.25    0.16
   7  -2  -1    0.85    0.13
   7  -2  -1    1.19    0.15
   7   2  -1    0.77    0.13
   7   2  -1    1.29    0.15
   6  -2  -1    2.98    0.18
   6  -2  -1    3.34    0.19
   6  -2  -1    2.99    0.18
   6  -2  -1    2.75    0.18
   6  -2  -1    2.99    0.17
   6   2  -1    3.22    0.17
   6   2  -1    2.99    0.17
   5  -2  -1    8.61    0.26
   5  -2  -1    8.61    0.26
   5  -2  -1    8.99    0.27
   5  -2  -1    9.08    0.27
   5  -2  -1    8.46    0.26
   5   2  -1    8.39    0.25
   5   2  -1    8.78    0.25
   4  -2  -1    2.39    0.14
   4  -2  -1    2.44    0.14
   4  -2  -1    2.59    0.14
   4  -2  -1    2.34    0.14
   4  -2  -1    2.66    0.14
   4   2  -1    2.31    0.13
   4   2  -1    2.27    0.13
   3  -2  -1   24.21    0.45
   3  -2  -1   24.17    0.46
   3  -2  -1   25.58    0.46
  -3  -2   1   25.40    0.45
   3  -2  -1   27.03    0.46
   3  -2  -1   27.12    0.47
  -3  -2   1   25.25    0.44
  -2  -2   1    1.42    0.09
   2  -2  -1    1.81    0.11
   2  -2  -1    1.94    0.11
   2  -2  -1    1.72    0.10
   2  -2  -1    1.85    0.10
   2  -2  -1    1.95    0.11
  -2  -2   1    1.62    0.10
   1  -2  -1   53.02    0.79
  -1  -2   1   52.87    0.77
   1  -2  -1   52.33    0.78
   1  -2  -1   52.71    0.79
   1  -2  -1   51.45    0.78
  -1  -2   1   52.75    0.77
   1  -2  -1   52.30    0.78
   0  -2   1   23.29    0.39
   0  -2  -1   23.62    0.40
   0  -2  -1   23.37    0.40
   0  -2  -1   23.82    0.40
   0  -2   1   23.02    0.39
   0  -2   1   23.55    0.39
   1  -2   1   26.11    0.43
   1  -2   1   25.67    0.43
  -1  -2  -1   25.70    0.43
   1  -2   1   25.78    0.43
  -1  -2  -1   25.91    0.43
   1  -2   1   26.11    0.43
   1  -2   1   25.96    0.43
  -2  -2  -1  142.96    1.94
  -2  -2  -1  142.96    1.94
   2  -2   1  137.97    1.93
   2  -2   1  138.64    1.93
   2  -2   1  139.16    1.93
   2  -2   1  140.97    1.94
   2  -2   1  138.40    1.94
   3  -2   1   20.05    0.38
  -3  -2  -1   20.27    0.38
   3  -2   1   20.33    0.38
  -3  -2  -1   19.73    0.38
   3  -2   1   20.16    0.38
   3  -2   1   20.03    0.38
   3  -2   1   19.76    0.38
   4  -2   1    0.13    0.06
   4  -2   1    0.19    0.07
   4  -2   1    0.22    0.07
   4  -2   1    0.21    0.07
   4  -2   1    0.11    0.07
  -4  -2  -1    0.24    0.06
  -4  -2  -1    0.22    0.06
   4   2   1    0.08    0.06
   4   2   1    0.22    0.07
   6  -2   1    0.19    0.09
   6  -2   1    0.31    0.10
   6  -2   1    0.23    0.09
   6  -2   1    0.07    0.08
   6  -2   1    0.15    0.09
   6   2   1    0.23    0.08
   6   2   1    0.21    0.09
   7  -2   1   10.70    0.34
   7  -2   1   10.69    0.33
   7  -2   1   10.16    0.33
   7  -2   1   10.54    0.34
   7  -2   1   10.07    0.33
   7   2   1   10.12    0.33
   7   2   1   10.84    0.33
   8  -2   1   10.41    0.36
   8  -2   1   10.23    0.36
   8  -2   1    9.87    0.35
   8  -2   1   10.56    0.36
   8  -2   1    9.62    0.34
   8   2   1   10.08    0.35
   8   2   1    9.96    0.35
   9  -2   1   -0.22    0.11
   9  -2   1   -0.07    0.12
   9  -2   1    0.03    0.12
   9  -2   1    0.16    0.13
   9   2   1    0.09    0.11
   9   2   1   -0.12    0.10
   9   2   1   -0.01    0.12
   9   2   1    0.08    0.12
   8  -3  -1    4.08    0.26
   8  -3  -1    4.07    0.26
   8  -3  -1    4.11    0.26
   8  -3  -1    3.84    0.25
   8   3  -1    4.03    0.24
   8   3  -1    4.20    0.25
   7  -3  -1    0.01    0.10
   7  -3  -1    0.10    0.11
   7  -3  -1    0.16    0.11
   7  -3  -1    0.13    0.10
   7  -3  -1   -0.04    0.10
   7   3  -1    0.03    0.08
   7   3  -1    0.10    0.09
   6  -3  -1    1.98    0.19
   6  -3  -1    2.28    0.20
   6  -3  -1    1.97    0.19
   6  -3  -1    1.83    0.18
   6  -3  -1    1.74    0.17
   6   3  -1    1.96    0.18
   6   3  -1    1.93    0.18
   5  -3  -1    0.64    0.12
   5  -3  -1    0.88    0.13
   5  -3  -1    0.95    0.13
   5  -3  -1    0.75    0.12
   5  -3  -1    0.81    0.13
   5   3  -1    0.82    0.12
   5   3  -1    0.74    0.11
   4  -3  -1    0.14    0.08
   4  -3  -1    0.10    0.08
   4  -3  -1   -0.02    0.07
  -4  -3   1    0.26    0.08
  -4  -3   1    0.30    0.08
   4  -3  -1   -0.07    0.07
   4  -3  -1    0.14    0.08
   4   3  -1    0.06    0.07
   4   3  -1    0.10    0.07
   3  -3  -1    6.61    0.23
  -3  -3   1    6.66    0.22
   3  -3  -1    6.68    0.22
  -3  -3   1    6.48    0.22
   3  -3  -1    6.81    0.23
   3  -3  -1    6.73    0.22
   3  -3  -1    6.75    0.23
  -2  -3   1    2.78    0.14
   2  -3  -1    3.02    0.15
   2  -3  -1    3.19    0.15
   2  -3  -1    2.89    0.15
   2  -3  -1    3.13    0.15
   2  -3  -1    2.86    0.15
  -2  -3   1    2.68    0.14
  -1  -3   1   17.77    0.35
   1  -3  -1   17.98    0.37
  -1  -3   1   18.07    0.36
   1  -3  -1   17.94    0.37
   1  -3  -1   17.84    0.37
   0  -3  -1   24.36    0.46
   0  -3  -1   25.00    0.46
   0  -3  -1   24.48    0.46
   0  -3   1   24.97    0.45
   0  -3   1   24.64    0.45
   0  -3   1   24.78    0.45
   1  -3   1    1.77    0.11
   1  -3   1    1.57    0.11
  -1  -3  -1    1.55    0.12
   1  -3   1    1.72    0.11
  -1  -3  -1    1.64    0.12
   1  -3   1    1.77    0.11
   1  -3   1    1.65    0.11
  -2  -3  -1    0.36    0.08
   2  -3   1    0.52    0.09
   2  -3   1    0.42    0.09
   2  -3   1    0.31    0.08
  -2  -3  -1    0.30    0.08
   2  -3   1    0.45    0.08
   2  -3   1    0.49    0.08
  -3  -3  -1    4.71    0.19
   3  -3   1    5.10    0.20
   3  -3   1    4.82    0.19
   3  -3   1    4.76    0.19
   3  -3   1    4.78    0.19
   3  -3   1    4.88    0.19
  -3  -3  -1    5.27    0.20
   4  -3   1    4.80    0.20
   4  -3   1    5.09    0.20
  -4  -3  -1    5.07    0.20
   4  -3   1    5.14    0.21
   4  -3   1    4.40    0.19
  -4  -3  -1    4.93    0.20
   4  -3   1    4.69    0.20
   4   3   1    4.92    0.20
   4   3   1    4.74    0.20
   5  -3   1    4.16    0.20
   5  -3   1    3.92    0.20
   5   3   1    4.25    0.20
   5   3   1    3.87    0.20
   6  -3   1    4.47    0.22
   6  -3   1    4.48    0.23
   6  -3   1    3.99    0.22
   6  -3   1    4.18    0.22
   6  -3   1    3.96    0.21
   6   3   1    4.12    0.21
   6   3   1    4.56    0.22
   7  -3   1   -0.05    0.10
   7  -3   1    0.21    0.12
   7  -3   1    0.04    0.11
   7  -3   1    0.10    0.11
   7  -3   1    0.32    0.12
   7   3   1    0.10    0.10
   7   3   1    0.14    0.09
   8  -3   1    0.97    0.18
   8  -3   1    0.67    0.16
   8  -3   1    1.01    0.18
   8  -3   1    1.03    0.17
   8   3   1    1.11    0.17
   8   3   1    1.14    0.18
   6  -4  -1    0.25    0.13
   6  -4  -1    0.30    0.12
   6  -4  -1    0.14    0.13
   6  -4  -1    0.33    0.13
   6   4  -1    0.33    0.11
   6   4  -1    0.17    0.11
   5  -4  -1    2.56    0.21
   5  -4  -1    2.52    0.20
   5  -4  -1    2.44    0.21
   5  -4  -1    2.04    0.20
   5  -4  -1    1.64    0.19
   5   4  -1    2.39    0.18
   5   4  -1    2.59    0.20
   4  -4  -1    0.93    0.14
   4  -4  -1    0.68    0.13
  -4  -4   1    0.76    0.12
   4  -4  -1    0.76    0.13
   4  -4  -1    0.70    0.13
  -4  -4   1    0.76    0.12
   4  -4  -1    0.53    0.12
   4   4  -1    0.53    0.11
   4   4  -1    0.88    0.13
  -2  -4   1    0.99    0.12
   2  -4  -1    0.66    0.11
  -2  -4   1    0.63    0.10
   2  -4  -1    0.46    0.10
   2  -4  -1    0.83    0.12
  -1  -4   1    0.54    0.10
   1  -4  -1    0.69    0.11
   1  -4  -1    0.71    0.11
   1  -4  -1    0.64    0.11
  -1  -4   1    0.64    0.10
   0  -4   1    3.69    0.17
   0  -4  -1    3.38    0.18
   0  -4  -1    3.70    0.18
   0  -4   1    3.34    0.17
   1  -4   1    1.51    0.14
  -1  -4  -1    1.52    0.14
  -1  -4  -1    1.20    0.13
   1  -4   1    1.20    0.13
   1  -4   1    1.21    0.13
   2  -4   1    0.24    0.08
  -2  -4  -1    0.13    0.08
   2  -4   1    0.24    0.08
   2  -4   1    0.32    0.09
  -2  -4  -1    0.18    0.08
   3  -4   1    1.18    0.14
   3  -4   1    1.08    0.14
  -3  -4  -1    1.15    0.13
   3  -4   1    1.06    0.13
   3  -4   1    1.32    0.15
   3  -4   1    1.36    0.14
  -3  -4  -1    1.18    0.14
   4  -4   1    1.68    0.17
   4  -4   1    1.30    0.15
  -4  -4  -1    1.60    0.16
   4  -4   1    1.58    0.16
   4  -4   1    1.54    0.16
  -4  -4  -1    1.25    0.15
   4  -4   1    1.36    0.15
  -5  -4  -1    0.23    0.10
   5  -4   1    0.25    0.12
   5  -4   1    0.37    0.12
   5  -4   1    0.41    0.12
   5  -4   1    0.29    0.11
   5  -4   1    0.41    0.12
  -5  -4  -1    0.24    0.10
   5   4   1    0.18    0.10
   5   4   1    0.19    0.11
   6  -4   1    0.57    0.16
   6  -4   1    0.71    0.15
   6  -4   1    0.40    0.13
   6  -4   1    0.61    0.14
   6  -4   1    0.55    0.15
   6   4   1    0.52    0.13
   6   4   1    0.42    0.13
   3  -5  -1    0.40    0.16
   3  -5  -1    0.69    0.15
   3  -5  -1    0.45    0.13
   2  -5  -1    1.45    0.18
   2  -5  -1    1.43    0.17
   2  -5  -1    1.59    0.18
   1  -5  -1    0.30    0.11
   1  -5  -1    0.21    0.11
   0  -5  -1    0.12    0.10
   0  -5  -1   -0.15    0.09
  -1  -5  -1   -0.03    0.09
  -1  -5  -1   -0.06    0.08
  -2  -5  -1    0.19    0.11
   2  -5   1    0.10    0.16
  -2  -5  -1    0.18    0.11
   3  -5   1    0.30    0.15
  -3  -5  -1    0.27    0.12
  -3  -5  -1    0.12    0.11
   3  -5   1    0.37    0.16
  10   0  -2    3.05    0.26
  10   0  -2    2.60    0.24
  10   0  -2    2.83    0.23
  10   0  -2    2.94    0.25
   9   0  -2   -0.04    0.09
   9   0  -2    0.03    0.10
   9   0  -2   -0.17    0.09
   9   0  -2   -0.06    0.09
   9   0  -2    0.10    0.10
   8   0  -2    3.67    0.21
   8   0  -2    3.70    0.21
   8   0  -2    3.73    0.22
   8   0  -2    3.62    0.21
   8   0  -2    3.66    0.21
   7   0  -2    0.15    0.08
   7   0  -2    0.17    0.09
   7   0  -2    0.00    0.08
   7   0  -2   -0.06    0.07
   7   0  -2    0.02    0.07
   6   0  -2   15.04    0.35
   6   0  -2   14.91    0.35
   6   0  -2   15.19    0.35
   6   0  -2   15.39    0.35
   6   0  -2   14.77    0.35
   5   0  -2    0.05    0.06
   5   0  -2    0.05    0.06
   5   0  -2   -0.01    0.05
   5   0  -2    0.08    0.06
   5   0  -2   -0.03    0.05
   4   0  -2  277.59    3.73
   4   0  -2  275.86    3.73
   4   0  -2  279.18    3.74
   4   0  -2  276.48    3.73
   4   0  -2  280.61    3.73
   3   0  -2    0.09    0.04
   3   0  -2    0.01    0.04
   3   0  -2    0.07    0.04
   3   0  -2    0.07    0.04
   3   0  -2    0.09    0.04
   2   0  -2  985.97   13.28
   2   0  -2  996.32   13.25
   2   0  -2  992.58   13.26
   2   0  -2 1000.00   13.25
   2   0  -2  997.64   13.27
   1   0  -2   -0.01    0.01
   1   0  -2   -0.03    0.01
   1   0  -2    0.00    0.01
  -1   0   2    0.00    0.01
   0   0   2    9.85    0.15
   2   0   2   97.98    1.35
   2   0   2   99.43    1.35
   3   0   2   -0.16    0.03
   3   0   2   -0.08    0.03
   4   0   2   60.12    0.90
   4   0   2   60.80    0.90
   4   0   2   59.62    0.90
   4   0   2   61.67    0.91
   5   0   2    0.06    0.06
   5   0   2   -0.03    0.05
   5   0   2   -0.01    0.06
   5   0   2   -0.06    0.05
   6   0   2   96.22    1.42
   6   0   2   91.88    1.40
   6   0   2   92.16    1.40
   6   0   2   93.43    1.41
   6   0   2   94.51    1.41
   7   0   2   -0.10    0.07
   7   0   2   -0.10    0.07
   7   0   2   -0.07    0.08
   7   0   2   -0.06    0.07
   7   0   2    0.09    0.09
   8   0   2    4.95    0.23
   8   0   2    5.06    0.23
   8   0   2    4.71    0.23
   8   0   2    4.59    0.23
   8   0   2    4.86    0.24
   9   0   2    0.05    0.11
   9   0   2   -0.15    0.09
   9   0   2    0.00    0.11
   9   0   2    0.11    0.11
   9   0   2    0.14    0.11
  10   0   2    1.99    0.22
  10   0   2    1.92    0.22
  10   0   2    1.94    0.23
  10   0   2    2.53    0.24
   9  -1  -2    2.57    0.23
   9  -1  -2    2.46    0.22
   9  -1  -2    2.91    0.25
   9  -1  -2    2.45    0.21
   9   1  -2    2.66    0.20
   9   1  -2    2.42    0.20
   9   1  -2    2.49    0.22
   9   1  -2    2.79    0.23
   9   1  -2    2.61    0.20
   8  -1  -2    0.15    0.10
   8  -1  -2    0.17    0.11
   8  -1  -2   -0.04    0.09
   8  -1  -2    0.15    0.10
   8  -1  -2    0.08    0.10
   8   1  -2    0.31    0.10
   8   1  -2    0.09    0.09
   8   1  -2    0.12    0.09
   8   1  -2    0.34    0.11
   8   1  -2    0.14    0.09
   7  -1  -2    0.32    0.10
   7  -1  -2    0.40    0.10
   7  -1  -2    0.26    0.09
   7  -1  -2    0.28    0.10
   7  -1  -2    0.19    0.09
   7   1  -2    0.33    0.10
   7   1  -2    0.21    0.09
   7   1  -2    0.01    0.08
   7   1  -2    0.31    0.09
   6  -1  -2    0.28    0.08
   6  -1  -2    0.48    0.10
   6  -1  -2    0.50    0.10
   6  -1  -2    0.15    0.08
   6  -1  -2    0.39    0.10
   6   1  -2    0.66    0.10
   6   1  -2    0.25    0.08
   6   1  -2    0.47    0.09
   6   1  -2    0.51    0.09
   5  -1  -2   97.22    1.42
   5  -1  -2   97.04    1.42
   5  -1  -2   96.33    1.42
   5  -1  -2   97.42    1.42
   5  -1  -2   97.19    1.42
   5   1  -2   96.43    1.41
   5   1  -2   96.83    1.41
   4  -1  -2    0.29    0.06
   4  -1  -2    0.15    0.05
   4  -1  -2    0.25    0.06
   4  -1  -2    0.27    0.06
   4  -1  -2    0.27    0.06
   4   1  -2    0.18    0.05
   4   1  -2    0.19    0.05
   3  -1  -2    2.44    0.11
   3  -1  -2    2.60    0.11
   3  -1  -2    2.31    0.11
   3  -1  -2    2.53    0.11
   3  -1  -2    2.70    0.11
   3   1  -2    3.10    0.10
   3   1  -2    2.86    0.10
   2  -1  -2  101.93    1.42
   2  -1  -2  100.97    1.42
   2  -1  -2  101.30    1.42
   2  -1  -2  103.08    1.42
   2  -1  -2  102.85    1.42
   2   1  -2  104.88    1.40
   2   1  -2  103.33    1.40
   1  -1  -2  930.52   12.49
  -1  -1   2  936.34   12.42
   1  -1  -2  930.81   12.54
   1  -1  -2  938.06   12.57
   1  -1  -2  933.80   12.56
   1  -1  -2  933.90   12.50
  -1  -1   2  939.67   12.42
   0  -1   2  388.09    5.27
   0  -1  -2  390.15    5.24
   0  -1   2  387.23    5.26
   0  -1  -2  400.72    5.26
   0  -1   2  385.26    5.27
   0   1  -2  397.86    5.26
   1  -1   2  675.00    9.10
   1  -1   2  662.79    9.11
  -1  -1  -2  699.69    9.21
   1  -1   2  672.20    9.10
  -1  -1  -2  690.31    9.20
   1  -1   2  675.43    9.09
   1  -1   2  675.13    9.11
  -1   1  -2  684.58    9.12
  -2  -1  -2    1.89    0.08
   2  -1   2    2.00    0.08
   2  -1   2    1.99    0.08
   2  -1   2    2.08    0.08
  -2  -1  -2    1.96    0.08
   2  -1   2    1.94    0.08
   2  -1   2    2.09    0.08
   3  -1   2  149.57    2.04
   3  -1   2  149.23    2.05
   3  -1   2  147.79    2.04
   3  -1   2  149.97    2.04
   3  -1   2  149.63    2.04
   3   1   2  149.77    2.05
   3   1   2  150.13    2.05
   4  -1   2    5.38    0.16
   4  -1   2    5.66    0.17
   4  -1   2    5.59    0.17
   4  -1   2    5.39    0.17
   4  -1   2    5.70    0.17
   4   1   2    5.64    0.17
   4   1   2    5.48    0.17
   5  -1   2   18.05    0.38
   5  -1   2   18.16    0.38
   5  -1   2   17.89    0.37
   5  -1   2   18.12    0.38
   5  -1   2   18.10    0.38
   5   1   2   18.04    0.38
   5   1   2   17.91    0.37
   6  -1   2    9.81    0.28
   6  -1   2    9.05    0.27
   6  -1   2    9.47    0.28
   6  -1   2    9.95    0.28
   6  -1   2    9.47    0.28
   6   1   2   10.00    0.28
   6   1   2    9.78    0.28
   7  -1   2    1.85    0.17
   7  -1   2    2.29    0.17
   7  -1   2    1.71    0.16
   7  -1   2    1.99    0.18
   7  -1   2    2.01    0.17
   7   1   2    2.04    0.17
   7   1   2    2.15    0.16
   7   1   2    2.29    0.19
   7   1   2    2.15    0.16
   8  -1   2    0.12    0.10
   8  -1   2    0.18    0.11
   8  -1   2    0.00    0.09
   8  -1   2    0.15    0.10
   8  -1   2    0.13    0.09
   8   1   2    0.05    0.10
   8   1   2    0.08    0.10
   8   1   2    0.08    0.10
   8   1   2    0.10    0.10
   9  -1   2    1.37    0.18
   9  -1   2    1.65    0.20
   9  -1   2    1.41    0.19
   9  -1   2    1.39    0.18
   9   1   2    1.17    0.17
   9   1   2    1.49    0.18
   9   1   2    1.00    0.16
   9   1   2    1.22    0.18
   9  -2  -2   -0.03    0.11
   9  -2  -2    0.15    0.13
   9  -2  -2    0.14    0.12
   9  -2  -2    0.32    0.14
   9   2  -2    0.01    0.11
   9   2  -2    0.11    0.11
   9   2  -2    0.18    0.13
   9   2  -2    0.21    0.13
   8  -2  -2    0.51    0.14
   8  -2  -2    0.71    0.14
   8  -2  -2    0.55    0.13
   8  -2  -2    0.49    0.13
   8  -2  -2    0.70    0.15
   8   2  -2    0.71    0.14
   8   2  -2    1.05    0.15
   8   2  -2    0.75    0.14
   8   2  -2    0.73    0.13
   7  -2  -2   -0.10    0.08
   7  -2  -2   -0.11    0.09
   7  -2  -2   -0.03    0.09
   7  -2  -2    0.15    0.10
   7  -2  -2    0.17    0.10
   7   2  -2    0.16    0.09
   7   2  -2    0.20    0.10
   6  -2  -2   13.32    0.36
   6  -2  -2   13.65    0.37
   6  -2  -2   14.49    0.37
   6  -2  -2   14.06    0.36
   6  -2  -2   13.88    0.37
   6   2  -2   13.81    0.35
   6   2  -2   13.54    0.35
   5  -2  -2    0.27    0.09
   5  -2  -2    0.14    0.08
   5  -2  -2    0.09    0.08
   5  -2  -2    0.24    0.09
   5  -2  -2    0.13    0.08
   5   2  -2    0.17    0.07
   5   2  -2    0.20    0.07
   4  -2  -2   20.94    0.42
   4  -2  -2   21.14    0.42
   4  -2  -2   21.05    0.42
   4  -2  -2   20.69    0.42
   4  -2  -2   20.60    0.42
   4   2  -2   20.46    0.40
   4   2  -2   20.65    0.40
   3  -2  -2    1.65    0.11
   3  -2  -2    1.59    0.10
   3  -2  -2    1.64    0.11
   3  -2  -2    1.43    0.10
   3  -2  -2    1.58    0.11
  -3  -2   2    1.68    0.10
  -3  -2   2    1.45    0.09
   3   2  -2    1.51    0.10
   3   2  -2    1.70    0.10
   2  -2  -2  278.29    3.76
   2  -2  -2  280.55    3.76
  -2  -2   2  280.20    3.74
   2  -2  -2  281.91    3.76
   2  -2  -2  280.11    3.76
   2  -2  -2  276.06    3.76
  -2  -2   2  280.32    3.73
   1  -2  -2  171.42    2.35
   1  -2  -2  169.25    2.34
  -1  -2   2  175.72    2.32
  -1  -2   2  174.72    2.32
   1  -2  -2  170.12    2.34
   1  -2  -2  170.63    2.35
   1  -2  -2  171.70    2.35
   0  -2  -2   20.93    0.37
   0  -2  -2   20.62    0.37
   0  -2   2   21.77    0.36
   0  -2  -2   20.88    0.37
   0  -2   2   21.29    0.35
   0  -2   2   21.32    0.36
  -1  -2  -2   15.08    0.29
   1  -2   2   15.02    0.28
  -1  -2  -2   15.22    0.29
   1  -2   2   14.92    0.28
   1  -2   2   14.77    0.28
   1  -2   2   14.96    0.28
   1  -2   2   14.77    0.28
   2  -2   2   10.64    0.23
  -2  -2  -2   10.79    0.24
   2  -2   2   10.74    0.23
  -2  -2  -2   10.95    0.24
   2  -2   2   10.66    0.23
   2  -2   2   10.77    0.24
   2  -2   2   10.61    0.23
  -3  -2  -2    5.75    0.17
   3  -2   2    5.42    0.17
  -3  -2  -2    5.54    0.17
   3  -2   2    5.19    0.16
   3  -2   2    5.32    0.17
   3  -2   2    5.48    0.17
   3  -2   2    5.26    0.17
  -4  -2  -2   29.92    0.53
   4  -2   2   30.26    0.54
   4  -2   2   30.46    0.54
  -4  -2  -2   29.52    0.54
   4  -2   2   29.32    0.53
   4  -2   2   30.00    0.54
   4  -2   2   30.19    0.54
   4   2   2   29.82    0.54
   4   2   2   29.48    0.54
   5  -2   2    3.59    0.17
   5  -2   2    3.40    0.17
   5  -2   2    3.57    0.17
   5  -2   2    3.48    0.17
   5  -2   2    3.68    0.18
   5   2   2    3.63    0.17
   5   2   2    3.54    0.17
   6  -2   2    8.44    0.28
   6  -2   2    8.77    0.28
   6  -2   2    8.75    0.28
   6  -2   2    8.73    0.28
   6  -2   2    8.81    0.28
   6   2   2    9.30    0.28
   6   2   2    9.15    0.28
   7  -2   2    1.76    0.18
   7  -2   2    1.92    0.18
   7  -2   2    2.11    0.18
   7  -2   2    1.86    0.19
   7  -2   2    2.00    0.18
   7   2   2    1.71    0.17
   7   2   2    1.85    0.17
   8  -2   2    4.81    0.26
   8  -2   2    4.40    0.25
   8  -2   2    4.87    0.27
   8  -2   2    4.57    0.25
   8  -2   2    4.94    0.26
   8   2   2    5.08    0.27
   8   2   2    4.87    0.27
   9  -2   2   -0.02    0.12
   9  -2   2    0.24    0.14
   9  -2   2   -0.08    0.12
   9  -2   2    0.36    0.14
   9   2   2    0.26    0.13
   9   2   2    0.32    0.14
   9   2   2    0.13    0.11
   9   2   2    0.00    0.11
   8  -3  -2    0.62    0.16
   8  -3  -2    0.62    0.15
   8  -3  -2    0.37    0.15
   8  -3  -2    0.61    0.15
   8   3  -2    0.55    0.15
   8   3  -2    0.62    0.16
   7  -3  -2    0.64    0.14
   7  -3  -2    0.65    0.14
   7  -3  -2    1.06    0.16
   7  -3  -2    0.87    0.15
   7  -3  -2    0.28    0.13
   7   3  -2    0.64    0.13
   7   3  -2    0.64    0.13
   6  -3  -2    1.89    0.18
   6  -3  -2    2.22    0.18
   6  -3  -2    1.93    0.19
   6  -3  -2    2.30    0.20
   6  -3  -2    2.58    0.21
   6   3  -2    2.25    0.17
   6   3  -2    1.93    0.16
   5  -3  -2   17.78    0.44
   5  -3  -2   18.50    0.44
   5  -3  -2   18.59    0.45
   5  -3  -2   18.34    0.45
   5  -3  -2   17.43    0.43
   5   3  -2   18.64    0.42
   5   3  -2   17.95    0.41
   4  -3  -2    0.22    0.08
   4  -3  -2    0.00    0.07
   4  -3  -2    0.09    0.08
   4  -3  -2    0.12    0.08
  -4  -3   2    0.05    0.06
  -4  -3   2    0.09    0.07
   4  -3  -2    0.13    0.08
   4   3  -2    0.13    0.07
   4   3  -2    0.14    0.08
   3  -3  -2   22.39    0.46
   3  -3  -2   22.68    0.47
  -3  -3   2   22.51    0.44
   3  -3  -2   22.38    0.46
   3  -3  -2   22.27    0.46
   3  -3  -2   22.50    0.47
  -3  -3   2   23.24    0.45
  -2  -3   2    9.61    0.25
   2  -3  -2   10.49    0.27
   2  -3  -2    9.82    0.27
   2  -3  -2    9.71    0.26
   2  -3  -2   10.33    0.27
  -2  -3   2    9.67    0.24
   2  -3  -2   10.49    0.28
   1  -3  -2    4.52    0.17
  -1  -3   2    4.58    0.16
   1  -3  -2    4.62    0.18
  -1  -3   2    4.69    0.16
   1  -3  -2    4.47    0.17
   0  -3   2    0.33    0.07
   0  -3  -2    0.45    0.09
   0  -3  -2    0.30    0.08
   0  -3  -2    0.30    0.08
   0  -3   2    0.30    0.07
   0  -3   2    0.40    0.07
   1  -3   2   16.21    0.33
   1  -3   2   16.34    0.33
   1  -3   2   15.94    0.33
   1  -3   2   16.02    0.33
  -1  -3  -2   16.24    0.34
   1  -3   2   16.31    0.33
  -1  -3  -2   16.30    0.35
   2  -3   2    6.20    0.19
   2  -3   2    6.24    0.20
   2  -3   2    6.07    0.19
  -2  -3  -2    6.00    0.20
   2  -3   2    6.28    0.19
   2  -3   2    6.33    0.20
  -2  -3  -2    6.02    0.20
  -3  -3  -2    6.96    0.23
   3  -3   2    7.28    0.23
   3  -3   2    7.25    0.22
   3  -3   2    6.92    0.22
  -3  -3  -2    7.23    0.23
   3  -3   2    7.29    0.23
   3  -3   2    6.75    0.22
   4  -3   2    0.17    0.08
   4  -3   2    0.16    0.08
   4  -3   2    0.26    0.08
  -4  -3  -2    0.39    0.09
  -4  -3  -2    0.26    0.08
   4  -3   2    0.25    0.08
   4  -3   2    0.16    0.08
   5  -3   2    1.03    0.13
   5  -3   2    0.79    0.12
   5  -3   2    0.98    0.14
   5  -3   2    1.08    0.13
   5  -3   2    0.73    0.12
   5   3   2    0.83    0.12
   5   3   2    0.97    0.13
   6  -3   2    0.21    0.10
   6  -3   2    0.42    0.11
   6  -3   2    0.20    0.10
   6  -3   2    0.19    0.10
   6  -3   2    0.26    0.10
   6   3   2    0.26    0.10
   6   3   2    0.22    0.10
   7  -3   2   -0.10    0.10
   7  -3   2    0.08    0.11
   7  -3   2    0.00    0.10
   7  -3   2    0.15    0.11
   7  -3   2   -0.09    0.10
   7   3   2   -0.04    0.09
   7   3   2    0.07    0.10
   8  -3   2    0.03    0.13
   8  -3   2    0.01    0.11
   8  -3   2   -0.07    0.10
   8  -3   2    0.04    0.13
   8   3   2    0.16    0.11
   8   3   2    0.17    0.11
   6  -4  -2    0.31    0.14
   6  -4  -2    0.13    0.11
   6  -4  -2    0.17    0.11
   6  -4  -2    0.21    0.13
   6   4  -2    0.14    0.10
   6   4  -2    0.18    0.10
   5  -4  -2    0.31    0.12
   5  -4  -2    0.15    0.11
   5  -4  -2    0.29    0.13
   5  -4  -2    0.39    0.12
   5  -4  -2    0.37    0.13
   5   4  -2    0.17    0.09
   5   4  -2    0.17    0.10
   4  -4  -2    0.76    0.13
   4  -4  -2    0.88    0.14
   4  -4  -2    0.91    0.14
  -4  -4   2    0.97    0.13
  -4  -4   2    1.02    0.13
   4  -4  -2    0.77    0.13
   4  -4  -2    0.67    0.13
   4   4  -2    0.65    0.11
   4   4  -2    0.75    0.13
   3  -4  -2    0.12    0.09
   3  -4  -2    0.38    0.11
   3  -4  -2    0.17    0.10
  -3  -4   2    0.06    0.08
   3  -4  -2    0.12    0.10
   3  -4  -2    0.25    0.10
  -3  -4   2    0.23    0.09
  -2  -4   2    3.65    0.18
   2  -4  -2    3.76    0.19
  -2  -4   2    4.06    0.18
   2  -4  -2    3.46    0.18
   2  -4  -2    3.97    0.19
   1  -4  -2    0.03    0.08
   1  -4  -2    0.06    0.08
  -1  -4   2   -0.06    0.06
  -1  -4   2   -0.11    0.06
   1  -4  -2    0.03    0.08
   0  -4  -2    6.40    0.23
   0  -4  -2    6.34    0.23
   0  -4   2    5.90    0.21
   0  -4   2    6.11    0.22
   1  -4   2    6.55    0.22
   1  -4   2    6.61    0.23
  -1  -4  -2    6.47    0.23
  -1  -4  -2    6.13    0.23
   1  -4   2    6.14    0.22
   2  -4   2    0.48    0.10
  -2  -4  -2    0.40    0.10
   2  -4   2    0.32    0.09
   2  -4   2    0.29    0.09
  -2  -4  -2    0.31    0.10
   3  -4   2    0.64    0.12
   3  -4   2    0.73    0.12
  -3  -4  -2    0.29    0.10
   3  -4   2    0.41    0.10
  -3  -4  -2    0.44    0.11
   3  -4   2    0.74    0.12
   3  -4   2    0.66    0.11
  -4  -4  -2    1.13    0.14
  -4  -4  -2    1.27    0.15
   4  -4   2    1.38    0.16
   4  -4   2    1.65    0.17
   4  -4   2    1.35    0.15
   4  -4   2    1.53    0.16
   4  -4   2    1.75    0.17
   5  -4   2    0.51    0.13
   5  -4   2    0.29    0.11
   5  -4   2    0.35    0.12
  -5  -4  -2    0.42    0.12
   5  -4   2    0.39    0.12
  -5  -4  -2    0.28    0.11
   5  -4   2    0.51    0.13
   5   4   2    0.39    0.12
   5   4   2    0.42    0.12
   6  -4   2    0.42    0.13
   6  -4   2    0.32    0.13
   6  -4   2    0.26    0.12
   6  -4   2    0.14    0.11
   6  -4   2    0.56    0.14
   6   4   2    0.48    0.13
   6   4   2    0.44    0.13
   3  -5  -2    0.30    0.13
   3  -5  -2    0.10    0.11
   2  -5  -2    0.61    0.14
   2  -5  -2    0.94    0.15
   2  -5  -2    0.48    0.13
   1  -5  -2    1.23    0.17
   1  -5  -2    0.99    0.15
   0  -5  -2    0.49    0.13
   0  -5  -2    0.59    0.13
  -1  -5  -2    0.42    0.12
  -1  -5  -2    0.55    0.12
  -2  -5  -2    0.26    0.12
  -2  -5  -2    0.34    0.12
  -3  -5  -2    0.11    0.11
  -3  -5  -2    0.39    0.12
  10   0  -3    0.20    0.13
  10   0  -3    0.09    0.11
  10   0  -3    0.11    0.12
  10   0  -3   -0.18    0.11
   9   0  -3    0.07    0.10
   9   0  -3    0.21    0.11
   9   0  -3    0.12    0.11
   9   0  -3    0.07    0.10
   9   0  -3    0.02    0.09
   8   0  -3    0.00    0.10
   8   0  -3    0.03    0.10
   8   0  -3    0.16    0.09
   8   0  -3    0.11    0.10
   8   0  -3    0.08    0.09
   7   0  -3    3.23    0.18
   7   0  -3    2.92    0.17
   7   0  -3    3.02    0.17
   7   0  -3    3.07    0.17
   7   0  -3    3.10    0.17
   6   0  -3    0.04    0.07
   6   0  -3    0.04    0.07
   6   0  -3    0.13    0.07
   6   0  -3    0.16    0.07
   6   0  -3    0.03    0.07
   5   0  -3   71.31    1.07
   5   0  -3   70.07    1.06
   5   0  -3   71.23    1.07
   5   0  -3   71.64    1.07
   5   0  -3   70.25    1.06
   4   0  -3    0.09    0.05
   4   0  -3    0.11    0.05
   4   0  -3    0.04    0.04
   4   0  -3    0.09    0.05
   4   0  -3    0.10    0.05
   3   0  -3   38.03    0.58
   3   0  -3   38.74    0.59
   3   0  -3   38.98    0.59
   3   0  -3   38.81    0.59
   3   0  -3   39.23    0.58
   2   0  -3    0.00    0.03
   2   0  -3    0.01    0.03
   2   0  -3    0.02    0.03
   2   0  -3    0.00    0.03
   2   0  -3    0.02    0.03
   1   0  -3    0.26    0.03
   1   0  -3    0.24    0.03
   1   0  -3    0.28    0.03
   0   0  -3    0.05    0.01
   0   0  -3    0.05    0.01
   0   0   3    0.04    0.01
   0   0  -3    0.05    0.01
   2   0   3   -0.05    0.03
   2   0   3   -0.06    0.03
   3   0   3   19.81    0.35
   3   0   3   20.26    0.35
   4   0   3    0.06    0.04
   4   0   3    0.02    0.04
   4   0   3   -0.03    0.04
   4   0   3    0.01    0.04
   5   0   3   10.82    0.27
   5   0   3   10.96    0.27
   5   0   3   10.72    0.27
   5   0   3   10.97    0.26
   6   0   3    0.40    0.10
   6   0   3    0.24    0.10
   6   0   3    0.18    0.09
   6   0   3    0.18    0.09
   7   0   3   11.78    0.33
   7   0   3   12.04    0.33
   7   0   3   12.16    0.34
   7   0   3   11.74    0.33
   7   0   3   11.95    0.34
   8   0   3    0.09    0.10
   8   0   3    0.25    0.10
   8   0   3    0.08    0.10
   8   0   3   -0.15    0.08
   8   0   3    0.07    0.09
   9   0   3    3.45    0.23
   9   0   3    3.92    0.24
   9   0   3    2.99    0.22
   9   0   3    2.73    0.21
   9   0   3    3.50    0.24
   9  -1  -3    0.45    0.13
   9  -1  -3    0.18    0.12
   9  -1  -3    0.39    0.13
   9  -1  -3    0.23    0.12
   9   1  -3    0.29    0.12
   9   1  -3    0.25    0.11
   9   1  -3    0.32    0.12
   9   1  -3    0.23    0.12
   9   1  -3    0.10    0.11
   8  -1  -3    5.06    0.24
   8  -1  -3    4.85    0.24
   8  -1  -3    5.37    0.24
   8  -1  -3    5.13    0.24
   8  -1  -3    5.16    0.24
   8   1  -3    5.18    0.24
   8   1  -3    5.23    0.24
   8   1  -3    5.32    0.23
   8   1  -3    4.93    0.23
   8   1  -3    5.15    0.23
   7  -1  -3    4.95    0.22
   7  -1  -3    4.80    0.22
   7  -1  -3    5.21    0.22
   7  -1  -3    5.35    0.23
   7  -1  -3    4.96    0.22
   7   1  -3    5.29    0.22
   7   1  -3    5.48    0.23
   7   1  -3    5.50    0.23
   7   1  -3    4.83    0.22
   6  -1  -3    3.76    0.18
   6  -1  -3    3.85    0.18
   6  -1  -3    3.89    0.18
   6  -1  -3    3.77    0.18
   6  -1  -3    4.00    0.18
   6   1  -3    3.76    0.17
   6   1  -3    4.16    0.18
   6   1  -3    3.83    0.17
   6   1  -3    3.88    0.17
   5  -1  -3    1.56    0.12
   5  -1  -3    1.80    0.12
   5  -1  -3    1.74    0.13
   5  -1  -3    1.84    0.12
   5  -1  -3    1.72    0.12
   5   1  -3    1.55    0.11
   5   1  -3    1.58    0.11
   4  -1  -3   42.66    0.69
   4  -1  -3   42.92    0.68
   4  -1  -3   42.86    0.68
   4  -1  -3   42.28    0.68
   4  -1  -3   41.78    0.68
   4   1  -3   42.34    0.67
   4   1  -3   42.65    0.67
   3  -1  -3   76.50    1.09
   3  -1  -3   74.46    1.09
   3  -1  -3   75.35    1.09
   3  -1  -3   75.54    1.09
   3  -1  -3   75.82    1.09
   3   1  -3   75.84    1.07
   3   1  -3   75.08    1.07
   2  -1  -3  173.99    2.35
   2  -1  -3  175.65    2.35
   2  -1  -3  175.03    2.35
   2  -1  -3  172.66    2.35
   2  -1  -3  174.62    2.35
   2   1  -3  174.72    2.32
   2   1  -3  171.85    2.32
  -1  -1   3  454.01    6.08
  -1  -1   3  445.08    6.08
   1  -1  -3  454.77    6.22
   1  -1  -3  454.78    6.14
   1  -1  -3  454.50    6.20
   1  -1  -3  456.22    6.17
   1  -1  -3  454.23    6.14
   0  -1   3  324.03    4.60
   0  -1  -3  354.50    4.71
   0  -1  -3  347.52    4.68
   0  -1   3  338.25    4.58
   0  -1  -3  348.08    4.65
   0  -1   3  343.28    4.58
   0   1  -3  342.43    4.60
   1  -1   3   37.83    0.54
   1  -1   3   37.57    0.54
   1  -1   3   37.09    0.54
   1  -1   3   37.58    0.53
  -1  -1  -3   37.37    0.56
  -1  -1  -3   37.86    0.56
   1  -1   3   37.64    0.54
  -1   1  -3   37.86    0.54
  -2  -1  -3   26.47    0.43
   2  -1   3   26.67    0.42
   2  -1   3   26.85    0.42
   2  -1   3   26.83    0.41
   2  -1   3   26.61    0.42
  -2  -1  -3   26.83    0.43
   2  -1   3   26.65    0.41
  -3  -1  -3    3.04    0.11
   3  -1   3    3.18    0.11
   3  -1   3    3.14    0.11
   3  -1   3    2.97    0.11
   3  -1   3    3.11    0.11
  -3  -1  -3    3.10    0.11
   3  -1   3    3.02    0.11
   3   1   3    3.02    0.11
   3   1   3    3.04    0.12
   4  -1   3   17.01    0.33
   4  -1   3   17.05    0.33
   4  -1   3   16.61    0.33
   4  -1   3   17.18    0.34
   4  -1   3   17.07    0.34
   4   1   3   17.56    0.34
   4   1   3   16.72    0.34
   5  -1   3   11.16    0.28
   5  -1   3   11.29    0.28
   5  -1   3   11.26    0.28
   5  -1   3   11.45    0.29
   5  -1   3   11.54    0.28
   5   1   3   10.96    0.28
   5   1   3   11.19    0.29
   6  -1   3    1.23    0.13
   6  -1   3    1.10    0.13
   6  -1   3    1.45    0.14
   6  -1   3    1.63    0.15
   6  -1   3    1.51    0.15
   6   1   3    1.49    0.14
   6   1   3    1.72    0.16
   7  -1   3    8.78    0.29
   7  -1   3    9.01    0.29
   7  -1   3    9.00    0.30
   7  -1   3    9.07    0.30
   7  -1   3    8.93    0.29
   7   1   3    8.66    0.29
   7   1   3    8.83    0.30
   8  -1   3    2.80    0.20
   8  -1   3    3.02    0.21
   8  -1   3    2.73    0.20
   8  -1   3    3.17    0.22
   8  -1   3    3.04    0.20
   8   1   3    2.74    0.20
   8   1   3    2.96    0.21
   8   1   3    2.58    0.19
   8   1   3    2.74    0.21
   9  -1   3    0.45    0.13
   9  -1   3    0.43    0.14
   9  -1   3    0.57    0.15
   9  -1   3    0.53    0.14
   9   1   3    0.45    0.15
   9   1   3    0.35    0.14
   9   1   3    0.46    0.14
   9   1   3    0.55    0.14
   9  -2  -3    1.40    0.20
   9  -2  -3    1.39    0.19
   9  -2  -3    1.08    0.17
   9  -2  -3    1.35    0.20
   9   2  -3    1.12    0.17
   9   2  -3    1.38    0.19
   9   2  -3    1.17    0.18
   9   2  -3    0.98    0.17
   8  -2  -3    6.59    0.29
   8  -2  -3    5.83    0.27
   8  -2  -3    6.32    0.28
   8  -2  -3    5.98    0.28
   8  -2  -3    6.35    0.28
   8   2  -3    6.33    0.28
   8   2  -3    6.09    0.26
   8   2  -3    5.61    0.25
   8   2  -3    5.73    0.27
   7  -2  -3    8.53    0.30
   7  -2  -3    9.66    0.31
   7  -2  -3    9.36    0.31
   7  -2  -3    8.73    0.31
   7  -2  -3    8.94    0.31
   7   2  -3    9.16    0.30
   7   2  -3    9.41    0.30
   6  -2  -3    0.84    0.13
   6  -2  -3    0.78    0.12
   6  -2  -3    0.69    0.12
   6  -2  -3    0.86    0.12
   6  -2  -3    0.66    0.11
   6   2  -3    0.61    0.10
   6   2  -3    0.54    0.10
   5  -2  -3   34.20    0.63
   5  -2  -3   33.92    0.63
   5  -2  -3   33.80    0.62
   5  -2  -3   34.59    0.63
   5  -2  -3   33.55    0.62
   5   2  -3   33.52    0.60
   5   2  -3   33.55    0.60
   4  -2  -3    4.02    0.17
   4  -2  -3    3.95    0.16
   4  -2  -3    3.69    0.16
   4  -2  -3    3.86    0.17
   4  -2  -3    3.95    0.17
   4   2  -3    3.67    0.14
   4   2  -3    3.77    0.15
   3  -2  -3   18.35    0.37
   3  -2  -3   18.33    0.37
   3  -2  -3   18.69    0.37
  -3  -2   3   18.35    0.34
   3  -2  -3   18.13    0.36
  -3  -2   3   17.81    0.34
   3  -2  -3   18.01    0.36
   3   2  -3   18.02    0.34
   3   2  -3   18.05    0.34
  -2  -2   3  159.86    2.14
   2  -2  -3  157.07    2.18
   2  -2  -3  155.38    2.18
   2  -2  -3  157.85    2.18
   2  -2  -3  157.96    2.17
   2  -2  -3  155.17    2.17
  -2  -2   3  158.17    2.14
   1  -2  -3    0.18    0.06
   1  -2  -3    0.21    0.06
   1  -2  -3    0.14    0.06
   1  -2  -3    0.19    0.05
  -1  -2   3    0.15    0.04
  -1  -2   3    0.15    0.04
   1  -2  -3    0.14    0.05
   0  -2   3    0.00    0.03
   0  -2   3    0.08    0.04
   0  -2  -3    0.08    0.05
   0  -2  -3    0.04    0.04
   0  -2   3   -0.01    0.03
   0  -2  -3    0.03    0.04
   1  -2   3   40.45    0.61
  -1  -2  -3   39.51    0.63
   1  -2   3   40.29    0.61
   1  -2   3   40.18    0.61
   1  -2   3   40.21    0.61
  -1  -2  -3   40.52    0.63
   1  -2   3   40.78    0.61
  -2  -2  -3    8.25    0.21
   2  -2   3    8.07    0.19
   2  -2   3    7.85    0.19
   2  -2   3    8.25    0.19
   2  -2   3    8.20    0.19
  -2  -2  -3    8.02    0.20
   2  -2   3    7.62    0.19
   3  -2   3    7.54    0.20
   3  -2   3    7.74    0.20
   3  -2   3    8.07    0.20
  -3  -2  -3    7.63    0.21
   3  -2   3    7.92    0.20
  -3  -2  -3    7.63    0.21
   3  -2   3    7.81    0.20
   4  -2   3   10.73    0.27
   4  -2   3   10.87    0.27
  -4  -2  -3   10.77    0.27
   4  -2   3   10.33    0.27
   4  -2   3   10.49    0.27
   4  -2   3   10.43    0.27
  -4  -2  -3   11.15    0.28
   4   2   3   10.98    0.28
   4   2   3   10.70    0.27
   5  -2   3    0.48    0.10
   5  -2   3    0.35    0.09
   5  -2   3    0.54    0.10
   5  -2   3    0.41    0.09
   5  -2   3    0.34    0.09
   5   2   3    0.49    0.09
   5   2   3    0.41    0.09
   6  -2   3   -0.02    0.07
   6  -2   3    0.06    0.08
   6  -2   3   -0.04    0.08
   6  -2   3    0.03    0.07
   6  -2   3   -0.09    0.07
   6   2   3    0.33    0.10
   6   2   3    0.36    0.10
   7  -2   3    1.66    0.17
   7  -2   3    1.38    0.16
   7  -2   3    1.19    0.15
   7  -2   3    1.23    0.15
   7  -2   3    1.37    0.16
   7   2   3    1.60    0.16
   7   2   3    1.68    0.17
   8  -2   3    4.50    0.25
   8  -2   3    4.74    0.25
   8  -2   3    4.02    0.24
   8  -2   3    4.54    0.25
   8  -2   3    3.91    0.24
   8   2   3    4.34    0.26
   8   2   3    3.99    0.25
   9  -2   3   -0.18    0.12
   9  -2   3    0.12    0.12
   9  -2   3    0.06    0.12
   9  -2   3    0.18    0.13
   9   2   3    0.01    0.12
   9   2   3    0.29    0.13
   9   2   3    0.12    0.13
   9   2   3   -0.03    0.11
   8  -3  -3    3.85    0.27
   8  -3  -3    3.48    0.26
   8  -3  -3    3.60    0.26
   8  -3  -3    3.68    0.26
   8   3  -3    4.60    0.26
   8   3  -3    3.98    0.26
   7  -3  -3    1.03    0.16
   7  -3  -3    0.97    0.16
   7  -3  -3    0.94    0.17
   7  -3  -3    1.28    0.18
   7  -3  -3    1.20    0.17
   7   3  -3    1.16    0.15
   7   3  -3    0.97    0.15
   5  -3  -3    4.46    0.22
   5  -3  -3    4.45    0.23
   5  -3  -3    4.47    0.23
   5  -3  -3    4.89    0.23
   5  -3  -3    4.17    0.22
   5   3  -3    4.59    0.20
   5   3  -3    4.55    0.20
   4  -3  -3    2.33    0.16
   4  -3  -3    2.49    0.17
   4  -3  -3    2.37    0.16
   4  -3  -3    2.51    0.17
  -4  -3   3    2.38    0.13
  -4  -3   3    2.57    0.14
   4  -3  -3    2.54    0.16
   4   3  -3    2.40    0.14
   4   3  -3    2.40    0.15
   3  -3  -3    1.22    0.13
   3  -3  -3    1.61    0.14
   3  -3  -3    1.15    0.13
   3  -3  -3    1.18    0.13
  -3  -3   3    1.34    0.12
  -3  -3   3    1.33    0.12
   3  -3  -3    1.23    0.13
   2  -3  -3   23.01    0.46
  -2  -3   3   23.24    0.42
  -2  -3   3   23.28    0.43
   2  -3  -3   22.62    0.46
   2  -3  -3   22.37    0.46
   2  -3  -3   22.35    0.45
   2  -3  -3   22.71    0.45
  -1  -3   3    2.28    0.12
  -1  -3   3    2.29    0.12
   1  -3  -3    2.21    0.13
   1  -3  -3    2.35    0.13
   1  -3  -3    2.43    0.14
   0  -3   3    9.36    0.23
   0  -3  -3    9.76    0.26
   0  -3  -3    9.05    0.25
   0  -3  -3    9.66    0.26
   0  -3   3    9.49    0.23
   0  -3   3    9.27    0.23
   1  -3   3   16.58    0.33
   1  -3   3   16.51    0.33
  -1  -3  -3   16.27    0.35
  -1  -3  -3   16.27    0.35
   1  -3   3   16.53    0.33
   1  -3   3   16.09    0.33
   1  -3   3   16.60    0.33
  -2  -3  -3    0.39    0.09
   2  -3   3    0.41    0.08
   2  -3   3    0.47    0.08
   2  -3   3    0.52    0.08
  -2  -3  -3    0.29    0.08
   2  -3   3    0.51    0.08
   2  -3   3    0.54    0.08
  -3  -3  -3    0.04    0.07
   3  -3   3    0.08    0.07
   3  -3   3    0.10    0.07
   3  -3   3    0.11    0.07
   3  -3   3    0.16    0.07
  -3  -3  -3    0.08    0.08
   3  -3   3    0.04    0.07
   4  -3   3    0.05    0.07
  -4  -3  -3    0.20    0.08
   4  -3   3    0.10    0.07
   4  -3   3    0.01    0.07
   4  -3   3    0.08    0.07
   4  -3   3    0.07    0.07
  -4  -3  -3    0.15    0.08
   5  -3   3    2.58    0.17
   5  -3   3    2.73    0.17
  -5  -3  -3    2.99    0.17
  -5  -3  -3    2.85    0.18
   5  -3   3    2.73    0.18
   5  -3   3    2.56    0.17
   5  -3   3    2.77    0.17
   5   3   3    2.88    0.18
   5   3   3    2.80    0.17
   6  -3   3    1.41    0.16
   6  -3   3    1.59    0.17
   6  -3   3    1.56    0.17
   6  -3   3    1.52    0.16
   6  -3   3    1.45    0.16
   6   3   3    1.35    0.15
   6   3   3    1.21    0.15
   7  -3   3    1.20    0.17
   7  -3   3    1.14    0.16
   7  -3   3    1.34    0.17
   7  -3   3    0.89    0.15
   7  -3   3    0.91    0.15
   7   3   3    1.24    0.17
   7   3   3    1.17    0.17
   8  -3   3    1.50    0.19
   8  -3   3    1.49    0.21
   8  -3   3    1.67    0.20
   8  -3   3    1.67    0.21
   8   3   3    1.31    0.18
   8   3   3    1.72    0.20
   6  -4  -3   -0.07    0.11
   6  -4  -3    0.21    0.12
   6  -4  -3    0.15    0.13
   6  -4  -3    0.22    0.12
   6   4  -3    0.18    0.14
   6   4  -3    0.09    0.13
   5  -4  -3    0.73    0.14
   5  -4  -3    0.88    0.15
   5  -4  -3    0.58    0.13
   5  -4  -3    0.92    0.16
   5  -4  -3    0.79    0.15
   5   4  -3    1.01    0.14
   5   4  -3    0.81    0.13
   4  -4  -3    0.60    0.13
   4  -4  -3    0.68    0.13
  -4  -4   3    0.77    0.12
   4  -4  -3    0.76    0.14
   4  -4  -3    0.77    0.15
   4  -4  -3    0.63    0.13
  -4  -4   3    0.67    0.11
   4   4  -3    0.65    0.12
   4   4  -3    0.71    0.11
   3  -4  -3    4.99    0.23
   3  -4  -3    4.93    0.23
   3  -4  -3    5.09    0.24
  -3  -4   3    4.61    0.20
   3  -4  -3    5.02    0.24
   3  -4  -3    4.97    0.23
  -3  -4   3    4.59    0.20
  -2  -4   3    1.14    0.12
   2  -4  -3    1.04    0.13
  -2  -4   3    1.16    0.12
   2  -4  -3    1.09    0.14
   2  -4  -3    1.21    0.14
  -1  -4   3    0.54    0.09
   1  -4  -3    0.49    0.11
   1  -4  -3    0.62    0.11
  -1  -4   3    0.46    0.09
   1  -4  -3    0.61    0.10
   0  -4  -3    2.15    0.15
   0  -4   3    2.34    0.14
   0  -4  -3    2.13    0.15
   0  -4   3    2.08    0.14
  -1  -4  -3    1.97    0.15
  -1  -4  -3    2.21    0.15
   1  -4   3    2.10    0.14
   1  -4   3    2.26    0.14
   1  -4   3    2.39    0.14
   2  -4   3    1.75    0.14
   2  -4   3    1.81    0.14
   2  -4   3    1.65    0.14
  -2  -4  -3    1.74    0.16
  -2  -4  -3    1.76    0.16
   3  -4   3    0.38    0.10
   3  -4   3    0.18    0.08
  -3  -4  -3    0.33    0.10
   3  -4   3    0.29    0.09
  -3  -4  -3    0.14    0.09
   3  -4   3    0.32    0.09
   3  -4   3    0.14    0.09
   4  -4   3    0.31    0.10
   4  -4   3    0.30    0.10
   4  -4   3    0.38    0.10
   4  -4   3    0.37    0.11
   4  -4   3    0.19    0.10
  -4  -4  -3    0.48    0.12
  -4  -4  -3    0.30    0.10
   5  -4   3    0.09    0.10
   5  -4   3    0.09    0.10
  -5  -4  -3    0.35    0.11
  -5  -4  -3    0.25    0.11
   5  -4   3    0.03    0.09
   5  -4   3    0.05    0.09
   5  -4   3    0.05    0.10
   5   4   3    0.06    0.10
   5   4   3    0.19    0.10
   6  -4   3   -0.10    0.10
   6  -4   3    0.09    0.11
   6  -4   3   -0.02    0.11
   6  -4   3    0.14    0.11
   6  -4   3    0.15    0.11
   6   4   3    0.03    0.11
   6   4   3   -0.09    0.10
   3  -5  -3    0.18    0.12
   3  -5  -3   -0.09    0.11
   2  -5  -3    0.75    0.14
   2  -5  -3    0.65    0.15
   2  -5  -3    0.90    0.15
   1  -5  -3    0.34    0.12
   1  -5  -3    0.26    0.11
   0  -5  -3    0.06    0.10
   0  -5  -3   -0.15    0.09
  -1  -5  -3   -0.17    0.08
  -1  -5  -3    0.16    0.11
  -2  -5  -3    0.36    0.13
  -2  -5  -3    0.38    0.13
  -3  -5  -3    1.59    0.19
  -3  -5  -3    1.34    0.18
  10   0  -4    1.29    0.18
  10   0  -4    1.45    0.19
  10   0  -4    1.45    0.19
  10   0  -4    1.39    0.20
   9   0  -4    0.05    0.09
   9   0  -4    0.18    0.10
   9   0  -4   -0.01    0.09
   9   0  -4    0.07    0.09
   9   0  -4   -0.09    0.09
   8   0  -4   24.82    0.55
   8   0  -4   24.77    0.55
   8   0  -4   24.22    0.54
   8   0  -4   24.56    0.54
   8   0  -4   24.49    0.55
   7   0  -4    0.07    0.08
   7   0  -4    0.08    0.08
   7   0  -4    0.02    0.08
   7   0  -4    0.18    0.09
   7   0  -4    0.11    0.08
   6   0  -4    6.52    0.22
   6   0  -4    6.56    0.22
   6   0  -4    6.64    0.22
   6   0  -4    6.45    0.22
   6   0  -4    6.45    0.21
   5   0  -4    0.08    0.06
   5   0  -4    0.13    0.06
   5   0  -4    0.14    0.06
   5   0  -4    0.06    0.06
   5   0  -4    0.13    0.06
   4   0  -4   25.56    0.44
   4   0  -4   25.49    0.44
   4   0  -4   26.08    0.44
   4   0  -4   26.10    0.45
   4   0  -4   25.71    0.44
   3   0  -4    0.11    0.04
   3   0  -4    0.07    0.04
   3   0  -4    0.08    0.04
   3   0  -4    0.07    0.04
   3   0  -4    0.09    0.04
   2   0  -4   23.57    0.37
   2   0  -4   23.79    0.37
   2   0  -4   24.32    0.37
   2   0  -4   23.91    0.37
   2   0  -4   24.13    0.37
   1   0  -4   -0.06    0.02
   1   0  -4   -0.06    0.02
  -1   0   4   -0.07    0.01
   1   0  -4   -0.06    0.02
   0   0  -4  704.38    9.24
   0   0   4  695.53    9.24
   0   0  -4  697.45    9.24
  -1   0  -4    0.01    0.02
  -1   0  -4    0.00    0.02
   2   0   4  228.79    3.02
   2   0   4  225.03    3.02
   3   0   4    0.00    0.04
   3   0   4    0.02    0.04
   4   0   4   89.81    1.29
   4   0   4   89.32    1.29
   5   0   4   -0.02    0.06
   5   0   4   -0.01    0.06
   5   0   4   -0.07    0.05
   5   0   4   -0.06    0.06
   6   0   4  100.36    1.48
   6   0   4   98.23    1.48
   6   0   4   99.17    1.49
   6   0   4   98.93    1.48
   7   0   4    0.09    0.09
   7   0   4    0.13    0.09
   7   0   4    0.24    0.09
   7   0   4    0.09    0.09
   7   0   4    0.12    0.09
   8   0   4    3.77    0.21
   8   0   4    3.43    0.21
   8   0   4    3.51    0.21
   8   0   4    4.09    0.22
   8   0   4    3.01    0.20
   9   0   4    0.04    0.10
   9   0   4   -0.07    0.10
   9   0   4   -0.04    0.16
   9   0   4   -0.02    0.10
   9   0   4    0.02    0.11
   9  -1  -4    0.35    0.13
   9  -1  -4    0.23    0.12
   9  -1  -4    0.20    0.12
   9  -1  -4    0.57    0.13
   9   1  -4    0.47    0.12
   9   1  -4    0.39    0.14
   9   1  -4    0.10    0.10
   9   1  -4    0.21    0.11
   9   1  -4    0.47    0.13
   8  -1  -4    0.02    0.09
   8  -1  -4    0.04    0.10
   8  -1  -4    0.05    0.10
   8  -1  -4    0.18    0.09
   8  -1  -4    0.06    0.09
   8   1  -4    0.11    0.09
   8   1  -4    0.00    0.08
   8   1  -4    0.07    0.09
   8   1  -4   -0.05    0.08
   8   1  -4    0.07    0.09
   7  -1  -4   24.51    0.53
   7  -1  -4   24.84    0.53
   7  -1  -4   24.99    0.53
   7  -1  -4   25.81    0.53
   7  -1  -4   25.52    0.53
   7   1  -4   24.74    0.52
   7   1  -4   24.91    0.51
   7   1  -4   24.62    0.52
   7   1  -4   25.18    0.52
   7   1  -4   26.18    0.53
   6  -1  -4    0.30    0.08
   6  -1  -4    0.46    0.10
   6  -1  -4    0.53    0.10
   6  -1  -4    0.31    0.08
   6  -1  -4    0.49    0.10
   6   1  -4    0.44    0.09
   6   1  -4    0.63    0.09
   6   1  -4    0.48    0.09
   6   1  -4    0.44    0.09
   5  -1  -4    2.40    0.14
   5  -1  -4    2.01    0.13
   5  -1  -4    2.34    0.13
   4  -1  -4   16.50    0.33
   4  -1  -4   16.22    0.33
   4  -1  -4   16.47    0.33
   4  -1  -4   16.24    0.33
   4  -1  -4   15.56    0.33
   4   1  -4   16.12    0.31
   4   1  -4   15.98    0.31
   3  -1  -4   26.51    0.45
   3  -1  -4   26.42    0.45
   3  -1  -4   26.12    0.45
   3  -1  -4   27.11    0.45
   3  -1  -4   27.16    0.45
   3   1  -4   26.50    0.43
   3   1  -4   26.61    0.43
   2  -1  -4    1.46    0.08
   2  -1  -4    1.50    0.08
   2  -1  -4    1.48    0.07
   2  -1  -4    1.53    0.08
   2  -1  -4    1.60    0.08
   2   1  -4    1.59    0.06
   2   1  -4    1.47    0.06
  -1  -1   4  263.91    3.50
   1  -1  -4  261.73    3.48
   1  -1  -4  265.22    3.48
   1  -1  -4  258.41    3.48
   1  -1  -4  265.48    3.49
   1  -1  -4  258.80    3.48
  -1  -1   4  262.73    3.50
   0  -1   4   16.76    0.25
   0  -1  -4   16.84    0.29
   0  -1  -4   16.75    0.29
   0  -1  -4   16.73    0.29
   0  -1   4   17.47    0.25
   0  -1   4   17.28    0.25
   0   1  -4   17.43    0.25
   1  -1   4   59.00    0.82
   1  -1   4   59.29    0.81
  -1  -1  -4   59.68    0.85
   1  -1   4   59.52    0.81
   1  -1   4   58.48    0.81
   1  -1   4   59.45    0.81
  -1  -1  -4   59.92    0.84
  -1   1  -4   58.45    0.81
  -2  -1  -4    0.46    0.05
   2  -1   4    0.61    0.05
   2  -1   4    0.47    0.05
  -2  -1  -4    0.51    0.05
   2  -1   4    0.47    0.05
   2  -1   4    0.57    0.05
   2  -1   4    0.58    0.05
   3  -1   4    4.10    0.12
  -3  -1  -4    4.02    0.13
   3  -1   4    4.19    0.13
  -3  -1  -4    4.16    0.13
   3  -1   4    3.93    0.12
   3  -1   4    4.08    0.13
   3  -1   4    4.21    0.13
   3   1   4    4.06    0.14
   3   1   4    4.23    0.14
   4  -1   4    5.31    0.17
   4  -1   4    5.73    0.17
   4  -1   4    5.48    0.17
   4  -1   4    5.55    0.17
   4  -1   4    5.68    0.17
   4   1   4    5.58    0.18
   4   1   4    5.78    0.18
   5  -1   4    4.34    0.17
   5  -1   4    4.21    0.17
   5  -1   4    4.75    0.18
   5  -1   4    4.47    0.18
   5  -1   4    4.39    0.18
   5   1   4    4.63    0.18
   5   1   4    4.62    0.18
   6  -1   4    7.15    0.25
   6  -1   4    7.65    0.26
   6  -1   4    7.17    0.25
   6  -1   4    7.94    0.25
   6  -1   4    7.61    0.25
   6   1   4    7.55    0.25
   6   1   4    7.42    0.25
   7  -1   4   51.47    0.89
   7  -1   4   49.81    0.88
   7  -1   4   50.84    0.89
   7  -1   4   50.25    0.89
   7  -1   4   51.20    0.88
   7   1   4   50.46    0.88
   7   1   4   50.45    0.89
   8  -1   4    0.83    0.14
   8  -1   4    0.75    0.14
   8  -1   4    0.59    0.12
   8  -1   4    0.61    0.13
   8  -1   4    0.50    0.13
   8   1   4    0.81    0.15
   8   1   4    0.56    0.13
   8   1   4    0.85    0.14
   8   1   4    0.81    0.14
   9  -1   4    5.33    0.28
   9  -1   4    5.49    0.29
   9  -1   4    5.10    0.28
   9  -1   4    5.49    0.28
   9   1   4    5.55    0.30
   9   1   4    5.49    0.28
   9   1   4    5.24    0.28
   9   1   4    5.06    0.29
   9  -2  -4   -0.04    0.12
   9  -2  -4    0.32    0.13
   9  -2  -4    0.01    0.13
   9  -2  -4    0.18    0.12
   9   2  -4    0.15    0.11
   9   2  -4    0.05    0.11
   9   2  -4    0.04    0.11
   9   2  -4    0.21    0.13
   8  -2  -4    1.97    0.21
   8  -2  -4    1.68    0.17
   8  -2  -4    1.57    0.18
   8  -2  -4    1.90    0.19
   8  -2  -4    1.83    0.20
   8   2  -4    1.71    0.17
   8   2  -4    2.24    0.19
   8   2  -4    2.08    0.20
   8   2  -4    1.58    0.17
   7  -2  -4    0.19    0.11
   7  -2  -4    0.35    0.10
   7  -2  -4    0.09    0.10
   7  -2  -4    0.34    0.10
   7  -2  -4    0.10    0.09
   7   2  -4    0.29    0.10
   7   2  -4    0.17    0.08
   7   2  -4    0.26    0.09
   7   2  -4    0.42    0.10
   6  -2  -4    8.58    0.29
   6  -2  -4    9.06    0.29
   6  -2  -4    9.15    0.29
   6  -2  -4    9.28    0.29
   6  -2  -4    8.59    0.29
   6   2  -4    8.77    0.27
   6   2  -4    9.00    0.27
   5  -2  -4    4.85    0.20
   5  -2  -4    4.99    0.21
   5  -2  -4    4.69    0.21
   5  -2  -4    5.17    0.20
   5   2  -4    4.79    0.18
   5   2  -4    5.06    0.18
   4  -2  -4   24.63    0.47
   4  -2  -4   24.54    0.48
   4  -2  -4   24.70    0.48
   4  -2  -4   24.21    0.48
   4  -2  -4   25.00    0.48
   4   2  -4   25.16    0.45
   4   2  -4   24.92    0.45
   3  -2  -4    1.42    0.11
   3  -2  -4    1.57    0.11
   3  -2  -4    1.71    0.11
   3  -2  -4    1.57    0.11
   3  -2  -4    1.55    0.11
   3   2  -4    1.45    0.09
   3   2  -4    1.61    0.09
   2  -2  -4    7.44    0.20
  -2  -2   4    7.40    0.17
   2  -2  -4    7.61    0.20
   2  -2  -4    7.05    0.20
  -2  -2   4    7.13    0.17
   2  -2  -4    6.95    0.19
   2  -2  -4    7.13    0.19
   1  -2  -4    1.94    0.11
   1  -2  -4    2.31    0.11
  -1  -2   4    2.02    0.08
   1  -2  -4    2.19    0.11
   1  -2  -4    2.15    0.11
  -1  -2   4    2.01    0.08
   1  -2  -4    2.02    0.11
   0  -2  -4   13.19    0.28
   0  -2  -4   13.16    0.27
   0  -2   4   13.61    0.24
   0  -2  -4   13.11    0.28
   0  -2   4   14.04    0.24
   0  -2   4   13.23    0.24
  -1  -2  -4    2.29    0.11
   1  -2   4    2.40    0.09
   1  -2   4    2.27    0.09
  -1  -2  -4    2.20    0.11
   1  -2   4    2.30    0.09
   1  -2   4    2.18    0.09
   1  -2   4    2.17    0.09
   2  -2   4   38.21    0.60
   2  -2   4   38.81    0.60
  -2  -2  -4   39.51    0.63
   2  -2   4   38.98    0.61
   2  -2   4   38.82    0.61
  -2  -2  -4   39.70    0.64
   2  -2   4   39.04    0.60
   3  -2   4    0.59    0.08
  -3  -2  -4    0.49    0.08
   3  -2   4    0.67    0.08
  -3  -2  -4    0.51    0.08
   3  -2   4    0.51    0.07
   3  -2   4    0.42    0.07
   3  -2   4    0.46    0.07
  -4  -2  -4   63.01    0.99
   4  -2   4   63.92    0.98
   4  -2   4   63.66    0.98
   4  -2   4   65.70    0.99
   4  -2   4   63.88    0.99
   4  -2   4   64.73    0.99
  -4  -2  -4   61.76    0.99
   4   2   4   64.70    1.00
   4   2   4   64.49    1.01
   5  -2   4    8.70    0.26
   5  -2   4    8.08    0.25
   5  -2   4    8.42    0.25
   5  -2   4    8.58    0.26
   5  -2   4    8.28    0.26
   5   2   4    8.88    0.27
   5   2   4    8.82    0.26
   6  -2   4    2.87    0.17
   6  -2   4    2.92    0.17
   6  -2   4    2.91    0.17
   6  -2   4    2.87    0.17
   6  -2   4    2.77    0.17
   6   2   4    2.42    0.17
   6   2   4    2.86    0.18
   7  -2   4    0.61    0.13
   7  -2   4    0.52    0.12
   7  -2   4    0.66    0.13
   7  -2   4    0.50    0.12
   7  -2   4    0.36    0.11
   7   2   4    0.55    0.12
   7   2   4    0.37    0.11
   8  -2   4    0.32    0.13
   8  -2   4    0.40    0.13
   8  -2   4    0.08    0.11
   8  -2   4    0.55    0.14
   8  -2   4    0.49    0.13
   8   2   4    0.38    0.13
   8   2   4    0.50    0.13
   9  -2   4    0.59    0.15
   9  -2   4    0.39    0.15
   9  -2   4    0.38    0.15
   9  -2   4    0.16    0.13
   9   2   4    0.42    0.13
   9   2   4    0.21    0.14
   9   2   4    0.50    0.14
   9   2   4    0.21    0.13
   8  -3  -4    1.74    0.21
   8  -3  -4    2.30    0.25
   8  -3  -4    1.69    0.21
   8  -3  -4    2.01    0.23
   8   3  -4    2.09    0.21
   8   3  -4    1.95    0.20
   7  -3  -4    5.27    0.27
   7  -3  -4    4.94    0.26
   7  -3  -4    4.95    0.27
   7  -3  -4    4.90    0.26
   7  -3  -4    4.85    0.27
   7   3  -4    5.10    0.24
   7   3  -4    5.06    0.24
   6  -3  -4    1.23    0.16
   6  -3  -4    1.43    0.17
   6  -3  -4    1.19    0.15
   6  -3  -4    0.93    0.15
   6  -3  -4    1.07    0.14
   6   3  -4    1.05    0.14
   6   3  -4    1.14    0.14
   5  -3  -4    4.17    0.22
   5  -3  -4    4.42    0.23
   5  -3  -4    4.57    0.22
   5  -3  -4    4.21    0.21
   5  -3  -4    4.38    0.21
   5   3  -4    4.26    0.19
   5   3  -4    4.12    0.19
   4  -3  -4    2.56    0.17
   4  -3  -4    2.41    0.17
   4  -3  -4    1.93    0.15
   4  -3  -4    2.33    0.16
   4  -3  -4    2.34    0.16
   4   3  -4    2.17    0.14
   4   3  -4    2.07    0.14
  -3  -3   4    4.56    0.17
   3  -3  -4    4.59    0.20
   3  -3  -4    4.46    0.20
   3  -3  -4    4.84    0.21
   3  -3  -4    4.39    0.20
   3  -3  -4    4.43    0.20
  -3  -3   4    4.51    0.17
   2  -3  -4   18.69    0.40
   2  -3  -4   18.58    0.41
  -2  -3   4   18.62    0.37
   2  -3  -4   18.32    0.40
   2  -3  -4   18.73    0.40
  -2  -3   4   18.75    0.36
   2  -3  -4   18.96    0.41
   1  -3  -4    3.58    0.16
   1  -3  -4    3.50    0.16
  -1  -3   4    3.58    0.14
   1  -3  -4    3.61    0.16
  -1  -3   4    3.34    0.13
   0  -3   4    2.38    0.12
   0  -3  -4    2.52    0.14
   0  -3   4    2.42    0.12
   0  -3  -4    2.62    0.14
   0  -3  -4    2.59    0.14
  -1  -3  -4   48.61    0.79
  -1  -3  -4   48.12    0.78
   1  -3   4   45.94    0.74
   1  -3   4   48.26    0.75
   1  -3   4   48.31    0.75
  -2  -3  -4    1.15    0.12
   2  -3   4    1.10    0.10
   2  -3   4    1.18    0.11
   2  -3   4    1.27    0.11
   2  -3   4    1.32    0.11
  -2  -3  -4    0.91    0.11
   2  -3   4    1.08    0.10
   3  -3   4    7.26    0.22
  -3  -3  -4    7.66    0.24
  -3  -3  -4    7.30    0.24
   3  -3   4    7.36    0.22
   3  -3   4    7.41    0.22
   3  -3   4    7.60    0.23
   3  -3   4    7.29    0.23
   4  -3   4    0.78    0.11
   4  -3   4    0.84    0.11
   4  -3   4    1.11    0.12
  -4  -3  -4    0.99    0.12
   4  -3   4    0.84    0.11
  -4  -3  -4    0.75    0.11
   4  -3   4    0.78    0.11
   5  -3   4    4.90    0.21
   5  -3   4    4.84    0.21
   5  -3   4    4.96    0.21
   5  -3   4    4.88    0.22
   5  -3   4    5.00    0.21
  -5  -3  -4    5.10    0.22
  -5  -3  -4    4.93    0.21
   5   3   4    4.87    0.23
   5   3   4    4.97    0.23
   6  -3   4    0.22    0.10
   6  -3   4    0.21    0.10
   6  -3   4    0.19    0.10
   6  -3   4    0.31    0.10
   6  -3   4    0.19    0.10
   6   3   4    0.22    0.10
   6   3   4    0.21    0.10
   7  -3   4   -0.18    0.09
   7  -3   4    0.12    0.11
   7  -3   4    0.15    0.11
   7  -3   4   -0.09    0.09
   7  -3   4   -0.08    0.09
   7   3   4    0.10    0.10
   7   3   4    0.02    0.10
   8  -3   4    0.12    0.13
   8  -3   4    0.03    0.12
   8  -3   4    0.15    0.12
   8  -3   4    0.15    0.12
   8   3   4    0.21    0.13
   8   3   4    0.00    0.11
   6  -4  -4    0.74    0.16
   6  -4  -4    0.44    0.15
   6  -4  -4    0.35    0.14
   6  -4  -4    0.19    0.13
   5  -4  -4    0.04    0.10
   5  -4  -4    0.16    0.12
   5  -4  -4    0.27    0.12
   5  -4  -4    0.15    0.12
   5  -4  -4    0.24    0.11
   4  -4  -4   11.22    0.36
   4  -4  -4   12.03    0.37
   4  -4  -4   11.79    0.36
   4  -4  -4   11.23    0.37
   4  -4  -4   11.12    0.35
   3  -4  -4   11.64    0.35
   3  -4  -4   12.18    0.36
  -3  -4   4   11.01    0.41
  -3  -4   4   11.60    0.43
   3  -4  -4   11.68    0.35
   3  -4  -4   11.74    0.36
   3  -4  -4   11.38    0.35
   2  -4  -4    6.90    0.27
   2  -4  -4    6.38    0.25
   2  -4  -4    6.25    0.25
  -2  -4   4    6.29    0.22
  -2  -4   4    6.30    0.22
   1  -4  -4    0.07    0.08
   1  -4  -4    0.03    0.08
  -1  -4   4   -0.02    0.06
   1  -4  -4   -0.07    0.07
  -1  -4   4   -0.02    0.06
   0  -4  -4    1.70    0.16
   0  -4   4    1.43    0.13
   0  -4  -4    1.59    0.15
   0  -4   4    1.53    0.13
   1  -4   4    0.20    0.07
   1  -4   4    0.27    0.08
  -1  -4  -4    0.24    0.09
  -1  -4  -4    0.22    0.09
   1  -4   4    0.31    0.08
  -2  -4  -4    0.17    0.10
   2  -4   4    0.33    0.09
  -2  -4  -4    0.20    0.09
   2  -4   4    0.37    0.09
   2  -4   4    0.42    0.09
   3  -4   4    0.01    0.08
   3  -4   4    0.02    0.08
  -3  -4  -4   -0.11    0.08
   3  -4   4    0.06    0.08
  -3  -4  -4   -0.04    0.08
   3  -4   4    0.00    0.07
   3  -4   4   -0.02    0.07
   4  -4   4    1.87    0.17
  -4  -4  -4    1.75    0.18
   4  -4   4    2.02    0.18
   4  -4   4    1.83    0.17
   4  -4   4    1.75    0.16
   4  -4   4    1.77    0.17
  -4  -4  -4    1.97    0.19
  -5  -4  -4    0.85    0.14
   5  -4   4    0.99    0.15
   5  -4   4    0.75    0.13
  -5  -4  -4    0.64    0.14
   5  -4   4    0.55    0.13
   5  -4   4    0.65    0.13
   5  -4   4    0.78    0.14
   5   4   4    0.70    0.14
   5   4   4    0.56    0.14
   6  -4   4   -0.12    0.10
   6  -4   4   -0.01    0.10
   6  -4   4   -0.10    0.10
   6  -4   4    0.05    0.11
   6   4   4   -0.12    0.09
   6   4   4    0.13    0.12
   3  -5  -4   -0.02    0.11
   3  -5  -4    0.25    0.12
   2  -5  -4    0.22    0.13
   2  -5  -4    0.29    0.13
   1  -5  -4    3.45    0.22
   1  -5  -4    3.34    0.22
   0  -5  -4    0.11    0.11
   0  -5  -4    0.19    0.11
  -1  -5  -4    0.19    0.11
  -1  -5  -4    0.24    0.12
  -2  -5  -4    0.42    0.13
  -2  -5  -4    0.42    0.14
  -3  -5  -4    0.35    0.13
  -3  -5  -4    0.22    0.13
  10   0  -5   -0.06    0.11
  10   0  -5    0.07    0.11
  10   0  -5    0.04    0.12
  10   0  -5   -0.09    0.12
   9   0  -5    0.09    0.11
   9   0  -5    0.20    0.11
   9   0  -5    0.22    0.11
   9   0  -5    0.16    0.11
   9   0  -5    0.29    0.11
   8   0  -5    0.25    0.10
   8   0  -5    0.25    0.10
   8   0  -5    0.12    0.09
   8   0  -5    0.10    0.09
   8   0  -5    0.02    0.09
   7   0  -5   13.62    0.35
   7   0  -5   14.24    0.36
   7   0  -5   13.53    0.36
   7   0  -5   14.05    0.36
   7   0  -5   13.71    0.35
   6   0  -5    0.14    0.07
   6   0  -5    0.14    0.07
   6   0  -5    0.06    0.07
   6   0  -5    0.20    0.07
   6   0  -5    0.07    0.07
   5   0  -5   52.41    0.82
   5   0  -5   51.73    0.82
   5   0  -5   52.92    0.82
   5   0  -5   51.62    0.82
   5   0  -5   52.86    0.83
   4   0  -5   -0.01    0.03
   4   0  -5    0.01    0.04
   4   0  -5   -0.05    0.03
   4   0  -5   -0.03    0.03
   4   0  -5   -0.05    0.03
   3   0  -5  193.28    2.61
   3   0  -5  193.32    2.61
   3   0  -5  194.78    2.61
   3   0  -5  196.09    2.61
   3   0  -5  192.69    2.61
   2   0  -5   -0.02    0.02
   2   0  -5    0.00    0.02
   2   0  -5   -0.07    0.02
   2   0  -5   -0.03    0.02
   2   0  -5   -0.01    0.02
   1   0  -5   63.53    0.87
  -1   0   5   63.57    0.87
   1   0  -5   64.06    0.87
   1   0  -5   64.14    0.87
   0   0  -5    0.13    0.02
   0   0  -5    0.17    0.02
   1   0   5   76.21    1.03
   1   0   5   75.65    1.03
  -1   0  -5   75.81    1.03
  -1   0  -5   76.51    1.03
   2   0   5    0.04    0.03
   2   0   5    0.00    0.02
   3   0   5  172.62    2.35
   3   0   5  173.03    2.34
   4   0   5    0.11    0.05
   4   0   5   -0.03    0.05
   5   0   5    6.61    0.21
   5   0   5    6.99    0.21
   5   0   5    7.03    0.21
   5   0   5    6.91    0.21
   6   0   5    0.55    0.11
   6   0   5    0.50    0.11
   6   0   5    0.52    0.11
   6   0   5    0.58    0.12
   7   0   5   22.79    0.50
   7   0   5   22.62    0.50
   7   0   5   22.56    0.50
   7   0   5   22.51    0.49
   7   0   5   22.43    0.50
   8   0   5    0.19    0.09
   8   0   5   -0.12    0.08
   8   0   5    0.09    0.09
   8   0   5    0.05    0.09
   8   0   5    0.02    0.09
   9   0   5    0.26    0.12
   9   0   5    0.24    0.12
   9   0   5    0.47    0.13
   9   0   5    0.24    0.12
   9  -1  -5    0.34    0.13
   9  -1  -5    0.52    0.15
   9  -1  -5    0.55    0.14
   9  -1  -5    0.55    0.13
   9   1  -5    0.66    0.14
   9   1  -5    0.28    0.11
   9   1  -5    0.44    0.11
   9   1  -5    0.67    0.14
   9   1  -5    0.68    0.14
   8  -1  -5    2.64    0.22
   8  -1  -5    2.95    0.20
   8  -1  -5    2.47    0.18
   8  -1  -5    2.70    0.20
   8  -1  -5    2.61    0.19
   8   1  -5    2.79    0.18
   8   1  -5    2.35    0.17
   8   1  -5    2.86    0.19
   8   1  -5    2.64    0.19
   8   1  -5    2.78    0.18
   7  -1  -5    3.58    0.20
   7  -1  -5    4.10    0.21
   7  -1  -5    3.96    0.19
   7  -1  -5    4.11    0.21
   7  -1  -5    4.15    0.20
   7   1  -5    3.98    0.20
   7   1  -5    3.86    0.19
   7   1  -5    4.00    0.19
   7   1  -5    4.15    0.20
   7   1  -5    4.32    0.20
   6  -1  -5    0.75    0.11
   6  -1  -5    0.60    0.10
   6  -1  -5    0.65    0.11
   6  -1  -5    0.63    0.11
   6  -1  -5    0.63    0.10
   6   1  -5    0.44    0.09
   6   1  -5    0.63    0.10
   6   1  -5    0.53    0.10
   6   1  -5    0.52    0.10
   6   1  -5    0.49    0.09
   5  -1  -5    2.60    0.14
   5  -1  -5    2.87    0.14
   5  -1  -5    3.15    0.15
   5  -1  -5    2.63    0.14
   5  -1  -5    2.92    0.15
   5   1  -5    2.97    0.13
   5   1  -5    2.91    0.13
   5   1  -5    2.72    0.13
   5   1  -5    2.76    0.13
   4  -1  -5  145.54    2.03
   4  -1  -5  143.63    2.02
   4  -1  -5  145.91    2.03
   4  -1  -5  145.46    2.03
   4  -1  -5  145.71    2.02
   4   1  -5  142.76    1.99
   4   1  -5  144.71    2.00
   4   1  -5  147.05    1.99
   4   1  -5  142.54    2.00
   3  -1  -5   15.57    0.31
   3  -1  -5   16.03    0.31
   3  -1  -5   16.35    0.31
   3  -1  -5   16.27    0.31
   3  -1  -5   15.99    0.31
   3   1  -5   16.18    0.28
   3   1  -5   16.13    0.29
   2  -1  -5   43.40    0.67
   2  -1  -5   43.24    0.67
   2  -1  -5   45.47    0.67
   2  -1  -5   44.81    0.67
   2  -1  -5   45.90    0.67
   2   1  -5   44.87    0.64
   2   1  -5   45.15    0.63
   1  -1  -5    0.48    0.05
   1  -1  -5    0.55    0.05
   1  -1  -5    0.51    0.05
   1  -1  -5    0.35    0.04
   1  -1  -5    0.46    0.05
   0  -1  -5    5.28    0.13
   0  -1   5    5.41    0.09
   0  -1   5    5.37    0.09
   0  -1  -5    5.40    0.13
   0  -1   5    5.54    0.09
   0  -1  -5    5.27    0.13
   0   1  -5    5.32    0.09
   1  -1   5    5.02    0.12
   1  -1   5    4.78    0.10
  -1  -1  -5    4.57    0.12
   1  -1   5    4.96    0.10
  -1  -1  -5    4.81    0.13
   1  -1   5    4.92    0.10
   1  -1   5    4.80    0.11
  -1   1  -5    5.02    0.10
   2  -1   5    0.40    0.05
   2  -1   5    0.49    0.05
  -2  -1  -5    0.36    0.05
  -2  -1  -5    0.39    0.05
   2  -1   5    0.56    0.05
   2  -1   5    0.49    0.05
   2  -1   5    0.53    0.05
   3  -1   5   27.84    0.46
   3  -1   5   27.91    0.46
   3  -1   5   27.91    0.46
  -3  -1  -5   28.38    0.47
   3  -1   5   27.74    0.45
   3  -1   5   27.93    0.46
  -3  -1  -5   28.24    0.47
   3   1   5   27.71    0.48
   3   1   5   28.02    0.47
   4  -1   5   67.56    1.01
   4  -1   5   69.65    1.02
   4  -1   5   68.57    1.02
   4  -1   5   68.07    1.01
   4  -1   5   68.76    1.01
   4   1   5   67.59    1.03
   4   1   5   67.01    1.03
   5  -1   5    9.88    0.26
   5  -1   5    9.91    0.26
   5  -1   5   10.04    0.27
   5  -1   5    9.73    0.26
   5  -1   5    9.98    0.27
   5   1   5   10.04    0.27
   5   1   5    9.50    0.27
   6  -1   5   17.13    0.39
   6  -1   5   16.99    0.40
   6  -1   5   17.38    0.40
   6  -1   5   17.47    0.40
   6  -1   5   17.39    0.40
   6   1   5   17.46    0.41
   6   1   5   16.76    0.40
   7  -1   5    1.34    0.15
   7  -1   5    1.10    0.14
   7  -1   5    1.25    0.15
   7  -1   5    1.27    0.15
   7  -1   5    1.24    0.15
   7   1   5    1.26    0.16
   7   1   5    1.32    0.16
   8  -1   5    1.12    0.15
   8  -1   5    1.27    0.16
   8  -1   5    1.23    0.16
   8  -1   5    0.69    0.13
   8  -1   5    1.27    0.16
   8   1   5    0.98    0.15
   8   1   5    1.14    0.16
   8   1   5    1.07    0.16
   8   1   5    1.16    0.17
   9  -1   5    1.31    0.18
   9  -1   5    1.37    0.19
   9  -1   5    1.30    0.18
   9  -1   5    1.47    0.19
   9   1   5    1.38    0.18
   9   1   5    1.68    0.21
   9   1   5    1.42    0.19
   9   1   5    1.57    0.20
   9  -2  -5    0.56    0.15
   9  -2  -5    0.72    0.17
   9  -2  -5    0.65    0.16
   9  -2  -5    0.52    0.15
   9   2  -5    0.92    0.17
   9   2  -5    0.45    0.13
   9   2  -5    0.36    0.14
   9   2  -5    0.42    0.13
   8  -2  -5    0.35    0.12
   8  -2  -5    0.48    0.13
   8  -2  -5    0.48    0.13
   8  -2  -5    0.34    0.12
   8  -2  -5    0.27    0.12
   8   2  -5    0.29    0.12
   8   2  -5    0.27    0.10
   8   2  -5    0.31    0.11
   8   2  -5    0.22    0.11
   7  -2  -5    2.44    0.18
   7  -2  -5    2.81    0.19
   7  -2  -5    2.58    0.19
   7  -2  -5    2.74    0.19
   7  -2  -5    2.67    0.19
   7   2  -5    2.61    0.17
   7   2  -5    2.51    0.17
   7   2  -5    2.55    0.17
   7   2  -5    2.81    0.18
   6  -2  -5    3.35    0.18
   6  -2  -5    3.68    0.19
   6  -2  -5    3.67    0.19
   6  -2  -5    3.38    0.19
   6  -2  -5    3.51    0.19
   6   2  -5    2.89    0.16
   6   2  -5    3.39    0.17
   5  -2  -5   16.94    0.39
   5  -2  -5   16.83    0.39
   5  -2  -5   16.27    0.38
   5  -2  -5   16.43    0.39
   5  -2  -5   16.51    0.39
   5   2  -5   17.01    0.36
   5   2  -5   16.46    0.36
   4  -2  -5    0.19    0.07
   4  -2  -5    0.18    0.07
   4  -2  -5    0.22    0.07
   4  -2  -5    0.17    0.07
   4  -2  -5    0.19    0.07
   4   2  -5    0.02    0.05
   4   2  -5    0.12    0.05
   3  -2  -5    0.50    0.08
   3  -2  -5    0.39    0.08
   3  -2  -5    0.43    0.08
   3  -2  -5    0.40    0.08
   3  -2  -5    0.44    0.07
   3   2  -5    0.47    0.06
   3   2  -5    0.48    0.06
   2  -2  -5   65.88    1.01
   2  -2  -5   65.62    1.01
   2  -2  -5   67.27    1.01
  -2  -2   5   69.40    0.96
   2  -2  -5   65.74    1.01
  -2  -2   5   68.26    0.96
   2  -2  -5   68.07    1.01
   1  -2  -5  210.69    2.84
  -1  -2   5  209.98    2.78
   1  -2  -5  209.04    2.83
   1  -2  -5  207.71    2.84
   1  -2  -5  205.86    2.84
   1  -2  -5  205.93    2.83
  -1  -2   5  209.92    2.78
   0  -2   5   25.99    0.40
   0  -2  -5   25.68    0.45
   0  -2   5   25.54    0.40
   0  -2  -5   25.56    0.45
   0  -2  -5   25.35    0.45
   0  -2   5   25.47    0.40
   1  -2   5   23.18    0.37
   1  -2   5   22.69    0.37
   1  -2   5   23.80    0.38
  -1  -2  -5   22.13    0.41
  -1  -2  -5   22.36    0.41
   1  -2   5   22.80    0.37
   1  -2   5   24.06    0.38
   2  -2   5    2.41    0.10
  -2  -2  -5    2.87    0.13
   2  -2   5    2.64    0.10
   2  -2   5    2.60    0.11
   2  -2   5    2.79    0.11
  -2  -2  -5    2.40    0.12
   2  -2   5    2.70    0.10
   3  -2   5    8.02    0.20
   3  -2   5    8.00    0.20
   3  -2   5    7.91    0.21
   3  -2   5    8.31    0.21
   3  -2   5    8.07    0.20
  -3  -2  -5    8.40    0.23
  -3  -2  -5    8.24    0.22
   4  -2   5   26.73    0.49
   4  -2   5   26.59    0.49
   4  -2   5   26.50    0.49
   4  -2   5   26.61    0.49
  -4  -2  -5   26.80    0.51
   4  -2   5   26.73    0.49
  -4  -2  -5   27.20    0.51
   4   2   5   26.58    0.51
   4   2   5   26.97    0.52
   5  -2   5    2.77    0.16
   5  -2   5    2.59    0.15
   5  -2   5    2.68    0.15
   5  -2   5    2.88    0.16
   5  -2   5    2.95    0.16
   5   2   5    3.12    0.17
   5   2   5    3.28    0.18
   6  -2   5    0.36    0.09
   6  -2   5    0.39    0.09
   6  -2   5    0.34    0.10
   6  -2   5    0.22    0.09
   6  -2   5    0.13    0.09
   6   2   5    0.11    0.08
   6   2   5    0.24    0.09
   7  -2   5    0.81    0.14
   7  -2   5    0.91    0.14
   7  -2   5    0.96    0.14
   7  -2   5    1.00    0.15
   7  -2   5    0.85    0.13
   7   2   5    1.00    0.15
   7   2   5    0.92    0.14
   8  -2   5    2.20    0.21
   8  -2   5    2.69    0.23
   8  -2   5    2.75    0.21
   8  -2   5    2.40    0.22
   8  -2   5    2.81    0.24
   8   2   5    2.37    0.22
   8   2   5    2.56    0.23
   9  -2   5    0.52    0.16
   9  -2   5    0.29    0.14
   9  -2   5    0.36    0.15
   9  -2   5    0.33    0.15
   9   2   5    0.43    0.15
   9   2   5    0.06    0.13
   9   2   5    0.11    0.13
   9   2   5    0.48    0.14
   8  -3  -5    0.27    0.14
   8  -3  -5    0.09    0.13
   8  -3  -5   -0.01    0.12
   8  -3  -5    0.31    0.15
   8   3  -5    0.15    0.12
   8   3  -5    0.16    0.11
   8   3  -5    0.33    0.13
   8   3  -5    0.19    0.11
   7  -3  -5    0.26    0.13
   7  -3  -5    0.35    0.13
   7  -3  -5    0.32    0.12
   7  -3  -5    0.33    0.13
   7  -3  -5    0.25    0.13
   7   3  -5    0.40    0.12
   7   3  -5    0.41    0.12
   6  -3  -5    0.92    0.15
   6  -3  -5    0.86    0.13
   6  -3  -5    1.04    0.15
   6  -3  -5    0.60    0.12
   6  -3  -5    0.81    0.13
   6   3  -5    1.03    0.13
   6   3  -5    0.87    0.12
   5  -3  -5    0.83    0.14
   5  -3  -5    0.75    0.13
   5  -3  -5    0.75    0.13
   5  -3  -5    0.91    0.13
   5  -3  -5    0.63    0.12
   5   3  -5    0.86    0.11
   5   3  -5    0.78    0.11
   4  -3  -5   10.33    0.30
   4  -3  -5   10.25    0.31
   4  -3  -5    9.95    0.30
   4  -3  -5    9.98    0.30
   4  -3  -5   10.21    0.30
   4   3  -5   10.25    0.27
   4   3  -5    9.58    0.26
   3  -3  -5   14.65    0.36
   3  -3  -5   15.10    0.37
  -3  -3   5   14.88    0.32
   3  -3  -5   14.46    0.36
  -3  -3   5   14.50    0.32
   3  -3  -5   15.03    0.37
   3  -3  -5   15.33    0.37
   3   3  -5   15.20    0.32
   3   3  -5   14.90    0.32
   2  -3  -5   71.41    1.11
   2  -3  -5   71.00    1.12
   2  -3  -5   71.92    1.12
  -2  -3   5   72.23    1.06
  -2  -3   5   71.09    1.05
   2  -3  -5   71.20    1.11
   2  -3  -5   70.68    1.11
   1  -3  -5    3.90    0.18
  -1  -3   5    4.60    0.15
  -1  -3   5    4.32    0.14
   1  -3  -5    4.22    0.18
   1  -3  -5    4.27    0.18
   0  -3  -5    0.98    0.11
   0  -3   5    1.11    0.09
   0  -3  -5    1.04    0.12
   0  -3   5    1.11    0.09
   0  -3  -5    0.87    0.11
  -1  -3  -5   10.05    0.27
   1  -3   5    9.62    0.23
  -1  -3  -5    9.94    0.27
   1  -3   5    9.12    0.23
   1  -3   5    9.37    0.23
  -2  -3  -5    2.49    0.15
  -2  -3  -5    2.41    0.15
   2  -3   5    2.40    0.13
   2  -3   5    2.35    0.12
   2  -3   5    2.41    0.12
   2  -3   5    2.48    0.13
   2  -3   5    2.41    0.12
   3  -3   5    4.59    0.18
  -3  -3  -5    4.52    0.19
   3  -3   5    4.35    0.17
   3  -3   5    4.54    0.18
   3  -3   5    4.54    0.17
  -3  -3  -5    4.41    0.19
   3  -3   5    4.64    0.17
   4  -3   5   -0.02    0.07
   4  -3   5    0.26    0.08
  -4  -3  -5    0.23    0.09
   4  -3   5    0.23    0.08
   4  -3   5    0.19    0.07
   4  -3   5    0.12    0.07
  -4  -3  -5    0.02    0.08
   5  -3   5    0.14    0.08
   5  -3   5    0.15    0.08
  -5  -3  -5    0.17    0.09
  -5  -3  -5    0.17    0.09
   5  -3   5   -0.02    0.08
   5  -3   5    0.01    0.08
   5  -3   5   -0.03    0.07
   5   3   5    0.10    0.09
   5   3   5    0.02    0.08
   6  -3   5    1.21    0.14
   6  -3   5    1.18    0.15
   6  -3   5    1.26    0.15
   6  -3   5    1.09    0.14
   6  -3   5    1.15    0.14
   6   3   5    1.25    0.16
   6   3   5    1.19    0.16
   7  -3   5    1.16    0.17
   7  -3   5    1.08    0.16
   7  -3   5    1.20    0.17
   7  -3   5    1.28    0.17
   7  -3   5    1.07    0.16
   7   3   5    0.76    0.14
   7   3   5    0.79    0.15
   8  -3   5    0.54    0.16
   8  -3   5    0.36    0.13
   8  -3   5    0.41    0.14
   8  -3   5    0.67    0.15
   8   3   5    0.50    0.15
   8   3   5    0.49    0.15
   6  -4  -5    0.48    0.15
   6  -4  -5    0.77    0.16
   6  -4  -5    1.01    0.18
   6  -4  -5    1.15    0.18
   5  -4  -5    0.58    0.15
   5  -4  -5    0.58    0.14
   5  -4  -5    0.79    0.15
   5  -4  -5    0.77    0.15
   5  -4  -5    0.53    0.14
   4  -4  -5    0.73    0.13
   4  -4  -5    0.54    0.13
   4  -4  -5    0.66    0.13
   4  -4  -5    0.43    0.12
   4  -4  -5    0.63    0.14
   3  -4  -5    0.23    0.10
   3  -4  -5    0.22    0.11
   3  -4  -5    0.38    0.12
   3  -4  -5    0.20    0.10
   3  -4  -5    0.20    0.11
   2  -4  -5    5.83    0.25
   2  -4  -5    5.80    0.25
   2  -4  -5    6.22    0.25
   1  -4  -5    2.04    0.16
   1  -4  -5    2.13    0.17
   1  -4  -5    2.25    0.19
   0  -4  -5   -0.05    0.08
   0  -4  -5    0.20    0.09
  -1  -4  -5    4.84    0.21
  -1  -4  -5    4.53    0.22
  -2  -4  -5    2.47    0.18
   2  -4   5    2.47    0.16
   2  -4   5    2.43    0.16
  -2  -4  -5    2.45    0.18
   3  -4   5    0.55    0.11
  -3  -4  -5    0.32    0.11
   3  -4   5    0.72    0.11
   3  -4   5    0.49    0.10
   3  -4   5    0.71    0.11
  -3  -4  -5    0.43    0.12
   4  -4   5    0.12    0.09
  -4  -4  -5    0.16    0.10
  -4  -4  -5    0.01    0.10
   4  -4   5    0.11    0.09
   4  -4   5    0.07    0.08
   4  -4   5    0.11    0.09
   5  -4   5   -0.17    0.09
  -5  -4  -5    0.06    0.10
   5  -4   5    0.00    0.09
   5  -4   5    0.09    0.10
   5  -4   5   -0.07    0.08
  -5  -4  -5    0.00    0.10
   5   4   5   -0.06    0.10
   5   4   5    0.05    0.10
   6  -4   5    0.81    0.14
   6  -4   5    1.27    0.17
   6  -4   5    0.92    0.16
   6  -4   5    0.94    0.16
   6   4   5    0.99    0.16
   6   4   5    1.24    0.18
   3  -5  -5    0.08    0.13
   3  -5  -5    0.08    0.12
   2  -5  -5    0.44    0.14
   2  -5  -5    0.22    0.12
   1  -5  -5    1.86    0.21
   1  -5  -5    1.84    0.20
   0  -5  -5    2.05    0.21
   0  -5  -5    2.06    0.20
  -1  -5  -5    0.04    0.11
  -1  -5  -5    0.17    0.11
  -2  -5  -5    0.22    0.12
  -2  -5  -5    0.29    0.13
  -3  -5  -5   -0.17    0.10
  -3  -5  -5    0.03    0.11
   9   0  -6   -0.12    0.09
   9   0  -6    0.04    0.10
   9   0  -6    0.17    0.10
   9   0  -6    0.12    0.11
   9   0  -6    0.01    0.10
   8   0  -6    1.15    0.14
   8   0  -6    1.31    0.16
   8   0  -6    1.31    0.16
   8   0  -6    1.26    0.15
   8   0  -6    1.26    0.15
   7   0  -6    0.07    0.07
   7   0  -6    0.13    0.08
   7   0  -6    0.19    0.08
   7   0  -6    0.14    0.08
   7   0  -6    0.14    0.08
   6   0  -6    9.83    0.27
   6   0  -6    9.86    0.27
   6   0  -6   10.16    0.27
   6   0  -6    9.64    0.26
   6   0  -6    9.48    0.26
   5   0  -6   -0.04    0.05
   5   0  -6    0.08    0.06
   5   0  -6    0.05    0.06
   5   0  -6    0.08    0.05
   5   0  -6    0.05    0.06
   4   0  -6    0.35    0.06
   4   0  -6    0.27    0.05
   4   0  -6    0.31    0.05
   4   0  -6    0.52    0.07
   4   0  -6    0.29    0.05
   3   0  -6   -0.04    0.03
   3   0  -6   -0.03    0.03
   3   0  -6   -0.04    0.03
   3   0  -6    0.00    0.03
   3   0  -6   -0.06    0.03
   2   0  -6  148.12    2.00
   2   0  -6  149.36    2.01
   2   0  -6  149.71    2.01
   2   0  -6  151.10    2.01
   2   0  -6  149.96    2.01
   1   0  -6   -0.15    0.02
  -1   0   6   -0.11    0.02
   1   0  -6   -0.17    0.02
   1   0  -6   -0.13    0.02
   0   0   6    5.37    0.10
   0   0  -6    4.99    0.10
   0   0  -6    5.07    0.10
  -1   0  -6   -0.02    0.02
  -1   0  -6   -0.01    0.02
   3   0   6    0.10    0.05
   3   0   6    0.08    0.04
   4   0   6   54.28    0.84
   4   0   6   54.75    0.84
   5   0   6    0.02    0.06
   5   0   6    0.16    0.07
   6   0   6   85.83    1.30
   6   0   6   83.22    1.30
   6   0   6   84.93    1.30
   6   0   6   85.43    1.30
   7   0   6    0.15    0.10
   7   0   6    0.01    0.09
   7   0   6    0.14    0.09
   7   0   6    0.03    0.09
   8   0   6    7.46    0.29
   8   0   6    8.17    0.30
   8   0   6    7.91    0.30
   8   0   6    7.66    0.29
   8   0   6    7.09    0.29
   9   0   6   -0.09    0.09
   9   0   6   -0.13    0.10
   9   0   6   -0.01    0.11
   9   0   6   -0.09    0.10
   9  -1  -6    5.21    0.27
   9  -1  -6    5.47    0.27
   9  -1  -6    5.30    0.27
   9  -1  -6    5.66    0.28
   9   1  -6    5.64    0.27
   9   1  -6    5.54    0.26
   9   1  -6    5.46    0.27
   9   1  -6    5.87    0.27
   9   1  -6    5.52    0.26
   8  -1  -6    1.37    0.17
   8  -1  -6    1.23    0.15
   8  -1  -6    1.36    0.16
   8  -1  -6    1.25    0.17
   8  -1  -6    1.31    0.16
   8   1  -6    1.26    0.15
   8   1  -6    1.55    0.16
   8   1  -6    1.29    0.15
   8   1  -6    1.19    0.14
   8   1  -6    1.40    0.15
   7  -1  -6    9.04    0.29
   7  -1  -6    8.96    0.29
   7  -1  -6    8.86    0.29
   7  -1  -6    8.98    0.30
   7  -1  -6    8.84    0.29
   7   1  -6    8.77    0.27
   7   1  -6    8.61    0.27
   7   1  -6    8.72    0.27
   7   1  -6    8.37    0.27
   7   1  -6    8.64    0.28
   6  -1  -6    0.06    0.08
   6  -1  -6    0.12    0.08
   6  -1  -6    0.08    0.08
   6  -1  -6    0.22    0.08
   6  -1  -6    0.24    0.08
   6   1  -6    0.04    0.06
   6   1  -6    0.00    0.06
   6   1  -6    0.03    0.07
   6   1  -6    0.00    0.06
   6   1  -6    0.01    0.06
   5  -1  -6    1.57    0.12
   5  -1  -6    1.74    0.12
   5  -1  -6    1.65    0.14
   5  -1  -6    1.47    0.11
   5  -1  -6    1.45    0.12
   5   1  -6    1.54    0.11
   5   1  -6    1.47    0.11
   5   1  -6    1.41    0.11
   5   1  -6    1.54    0.11
   4  -1  -6    0.34    0.07
   4  -1  -6    0.35    0.07
   4  -1  -6    0.21    0.06
   4  -1  -6    0.24    0.06
   4  -1  -6    0.19    0.06
   4   1  -6    0.22    0.05
   4   1  -6    0.33    0.06
   4   1  -6    0.24    0.05
   4   1  -6    0.25    0.05
   3  -1  -6    0.50    0.06
   3  -1  -6    0.45    0.06
   2  -1  -6    0.21    0.04
   2  -1  -6    0.20    0.05
   2  -1  -6    0.13    0.04
   2  -1  -6    0.22    0.04
   2  -1  -6    0.11    0.04
   2   1  -6    0.15    0.03
   2   1  -6    0.14    0.03
   1  -1  -6   36.14    0.55
   1  -1  -6   36.46    0.56
   1  -1  -6   36.59    0.56
   1  -1  -6   36.49    0.56
   1  -1  -6   36.54    0.55
   0  -1  -6   24.32    0.39
   0  -1  -6   24.36    0.39
   0  -1  -6   24.62    0.39
   0   1  -6   23.39    0.33
  -1  -1  -6   83.53    1.17
  -1  -1  -6   84.17    1.16
   1  -1   6   82.28    1.12
   1  -1   6   82.91    1.12
   1  -1   6   82.49    1.12
  -2  -1  -6    2.77    0.11
   2  -1   6    2.95    0.09
  -2  -1  -6    2.81    0.11
   2  -1   6    2.75    0.09
   2  -1   6    2.81    0.09
   2  -1   6    2.89    0.09
   2  -1   6    2.71    0.09
   3  -1   6   27.34    0.45
  -3  -1  -6   27.44    0.47
  -3  -1  -6   27.81    0.47
   3  -1   6   27.24    0.45
   3  -1   6   27.05    0.45
   3  -1   6   26.99    0.45
   3  -1   6   27.42    0.45
   3   1   6   26.86    0.47
   3   1   6   27.23    0.47
   4  -1   6    6.74    0.19
   4  -1   6    7.05    0.19
   4  -1   6    7.05    0.19
   4  -1   6    7.03    0.19
   4  -1   6    6.68    0.19
   4   1   6    6.97    0.20
   4   1   6    7.12    0.21
   5  -1   6  107.27    1.55
   5  -1   6  106.94    1.54
   5  -1   6  106.13    1.54
   5  -1   6  105.33    1.54
   5  -1   6  106.48    1.54
   5   1   6  104.99    1.55
   5   1   6  103.58    1.55
   6  -1   6   23.82    0.49
   6  -1   6   23.30    0.48
   6  -1   6   23.49    0.48
   6  -1   6   22.90    0.48
   6  -1   6   23.65    0.49
   6   1   6   23.90    0.50
   6   1   6   23.63    0.50
   7  -1   6    1.15    0.14
   7  -1   6    1.18    0.15
   7  -1   6    1.25    0.15
   7  -1   6    1.17    0.14
   7  -1   6    1.18    0.15
   7   1   6    1.18    0.14
   7   1   6    1.18    0.15
   8  -1   6    0.06    0.10
   8  -1   6    0.13    0.10
   8  -1   6    0.06    0.09
   8  -1   6    0.17    0.09
   8  -1   6    0.18    0.10
   8   1   6    0.02    0.10
   8   1   6    0.04    0.10
   8   1   6   -0.01    0.10
   8   1   6    0.09    0.10
   9  -1   6    0.19    0.13
   9  -1   6    0.51    0.14
   9  -1   6    0.09    0.12
   9  -1   6    0.47    0.15
   9   1   6    0.39    0.14
   9   1   6    0.38    0.13
   9   1   6    0.60    0.15
   9   1   6    0.49    0.14
   9  -2  -6    3.60    0.27
   9  -2  -6    3.32    0.26
   9  -2  -6    3.10    0.24
   9  -2  -6    3.20    0.25
   9   2  -6    3.71    0.23
   9   2  -6    3.50    0.25
   9   2  -6    3.17    0.24
   9   2  -6    2.80    0.21
   8  -2  -6    0.14    0.11
   8  -2  -6   -0.07    0.09
   8  -2  -6   -0.10    0.09
   8  -2  -6   -0.09    0.09
   8  -2  -6    0.04    0.11
   8   2  -6    0.02    0.09
   8   2  -6   -0.03    0.08
   8   2  -6   -0.06    0.08
   8   2  -6    0.02    0.09
   8   2  -6   -0.05    0.08
   7  -2  -6    0.09    0.09
   7  -2  -6    0.10    0.09
   7  -2  -6    0.07    0.09
   7  -2  -6    0.15    0.10
   7  -2  -6    0.31    0.11
   7   2  -6    0.18    0.09
   7   2  -6    0.25    0.09
   7   2  -6    0.20    0.09
   7   2  -6    0.25    0.09
   6  -2  -6    6.21    0.25
   6  -2  -6    6.14    0.25
   6  -2  -6    6.48    0.24
   6  -2  -6    5.48    0.24
   6  -2  -6    6.44    0.25
   6   2  -6    6.04    0.22
   6   2  -6    6.21    0.22
   6   2  -6    6.19    0.21
   6   2  -6    6.05    0.21
   5  -2  -6    2.68    0.16
   5  -2  -6    2.69    0.16
   5  -2  -6    2.60    0.16
   5  -2  -6    2.64    0.17
   5  -2  -6    2.51    0.16
   5   2  -6    2.46    0.14
   5   2  -6    2.49    0.13
   4  -2  -6   41.72    0.71
   4  -2  -6   41.54    0.71
   4  -2  -6   40.92    0.71
   4  -2  -6   41.18    0.71
   4  -2  -6   41.73    0.71
   4   2  -6   41.28    0.66
   4   2  -6   41.73    0.67
   3  -2  -6    0.90    0.09
   3  -2  -6    0.89    0.10
   3  -2  -6    1.12    0.11
   3  -2  -6    0.74    0.09
   3  -2  -6    1.04    0.11
   3   2  -6    1.04    0.07
   3   2  -6    0.89    0.07
   2  -2  -6    0.32    0.07
   2  -2  -6    0.33    0.07
   2  -2  -6    0.33    0.07
   2  -2  -6    0.53    0.08
   2  -2  -6    0.40    0.07
  -2  -2   6    0.27    0.05
  -2  -2   6    0.20    0.05
  -1  -2   6   11.27    0.21
   1  -2  -6   11.34    0.26
  -1  -2   6   11.01    0.20
   1  -2  -6   11.08    0.26
   1  -2  -6   10.99    0.26
   1  -2  -6   11.10    0.26
   1  -2  -6   11.19    0.26
   0  -2  -6    2.27    0.12
   0  -2   6    2.47    0.08
   0  -2  -6    2.40    0.12
   0  -2  -6    2.14    0.12
   0  -2   6    2.37    0.08
   0  -2   6    2.46    0.08
   1  -2   6    4.36    0.12
   1  -2   6    4.30    0.12
   1  -2   6    4.47    0.12
   1  -2   6    4.32    0.12
  -1  -2  -6    4.29    0.15
   1  -2   6    4.20    0.12
  -1  -2  -6    4.25    0.15
   2  -2   6   61.15    0.87
   2  -2   6   59.39    0.87
  -2  -2  -6   60.20    0.92
   2  -2   6   58.76    0.87
   2  -2   6   59.77    0.87
  -2  -2  -6   58.84    0.91
   2  -2   6   60.74    0.87
  -3  -2  -6   -0.04    0.06
   3  -2   6    0.06    0.05
   3  -2   6    0.03    0.05
  -3  -2  -6    0.04    0.06
   3  -2   6    0.08    0.05
   3  -2   6    0.12    0.05
   3  -2   6    0.13    0.05
  -4  -2  -6   13.58    0.33
   4  -2   6   13.48    0.31
  -4  -2  -6   13.81    0.33
   4  -2   6   13.70    0.31
   4  -2   6   13.45    0.31
   4  -2   6   13.64    0.31
   4  -2   6   13.67    0.31
   4   2   6   13.58    0.33
   4   2   6   13.74    0.33
   5  -2   6   13.87    0.34
   5  -2   6   13.55    0.34
   5  -2   6   13.92    0.34
   5  -2   6   14.39    0.34
   5  -2   6   13.41    0.34
   5   2   6   14.29    0.36
   5   2   6   13.89    0.36
   6  -2   6    1.05    0.13
   6  -2   6    1.17    0.13
   6  -2   6    1.56    0.15
   6  -2   6    1.25    0.14
   6  -2   6    1.29    0.14
   6   2   6    1.32    0.15
   6   2   6    1.18    0.14
   7  -2   6    2.61    0.19
   7  -2   6    3.14    0.20
   7  -2   6    2.94    0.20
   7  -2   6    2.77    0.19
   7  -2   6    3.10    0.19
   7   2   6    2.83    0.20
   7   2   6    2.92    0.20
   8  -2   6    4.69    0.26
   8  -2   6    5.00    0.26
   8  -2   6    4.78    0.25
   8  -2   6    4.56    0.25
   8  -2   6    5.42    0.27
   8   2   6    5.11    0.27
   8   2   6    4.79    0.26
   9  -2   6    1.21    0.19
   9  -2   6    0.93    0.18
   9  -2   6    1.08    0.18
   9  -2   6    0.89    0.17
   9   2   6    0.87    0.17
   9   2   6    0.73    0.17
   8  -3  -6    0.05    0.12
   8  -3  -6    0.08    0.12
   8  -3  -6   -0.13    0.12
   8  -3  -6    0.04    0.13
   8   3  -6   -0.01    0.14
   8   3  -6    0.09    0.14
   7  -3  -6    0.66    0.16
   7  -3  -6    0.47    0.13
   7  -3  -6    0.48    0.14
   7  -3  -6    0.45    0.13
   7  -3  -6    0.64    0.15
   7   3  -6    0.49    0.12
   7   3  -6    0.47    0.13
   6  -3  -6    1.11    0.15
   6  -3  -6    1.32    0.16
   6  -3  -6    1.22    0.16
   6  -3  -6    1.28    0.16
   6  -3  -6    0.93    0.16
   6   3  -6    1.39    0.14
   6   3  -6    1.41    0.15
   5  -3  -6    0.23    0.10
   5  -3  -6    0.20    0.10
   5  -3  -6    0.12    0.10
   5  -3  -6    0.02    0.09
   5  -3  -6    0.00    0.08
   5   3  -6    0.23    0.08
   5   3  -6    0.14    0.07
   4  -3  -6    0.15    0.08
   4  -3  -6    0.09    0.07
   4  -3  -6    0.10    0.08
   4  -3  -6    0.23    0.08
   4  -3  -6    0.12    0.08
   4   3  -6    0.21    0.07
   4   3  -6    0.17    0.07
   3  -3  -6   30.39    0.59
   3  -3  -6   30.51    0.59
   3  -3  -6   30.88    0.59
   3  -3  -6   30.69    0.59
   3  -3  -6   30.07    0.58
  -3  -3   6   30.66    0.53
  -3  -3   6   29.87    0.52
   3   3  -6   30.55    0.53
   3   3  -6   30.62    0.53
   2  -3  -6    1.23    0.12
   2  -3  -6    1.96    0.16
   2  -3  -6    1.21    0.13
   2  -3  -6    1.09    0.12
   2  -3  -6    1.30    0.14
  -2  -3   6    0.92    0.09
  -2  -3   6    1.07    0.09
   1  -3  -6   20.95    0.43
  -1  -3   6   20.50    0.36
   1  -3  -6   20.19    0.42
   1  -3  -6   19.94    0.43
  -1  -3   6   20.14    0.37
   0  -3  -6    5.82    0.21
   0  -3   6    5.58    0.16
   0  -3   6    5.79    0.16
   0  -3  -6    5.59    0.21
   0  -3  -6    5.80    0.21
   1  -3   6   17.21    0.33
  -1  -3  -6   16.96    0.38
   1  -3   6   16.88    0.33
  -1  -3  -6   16.92    0.38
   1  -3   6   17.29    0.33
  -2  -3  -6    0.90    0.11
  -2  -3  -6    0.60    0.10
  -3  -3  -6    1.28    0.13
  -3  -3  -6    1.57    0.14
   3  -3   6    1.18    0.11
   3  -3   6    1.12    0.11
   3  -3   6    1.01    0.11
   3  -3   6    1.29    0.12
   3  -3   6    1.27    0.11
   4  -3   6    0.10    0.08
   4  -3   6    0.34    0.09
   4  -3   6    0.40    0.09
  -4  -3  -6    0.34    0.10
  -4  -3  -6    0.33    0.10
   4  -3   6    0.29    0.09
   4  -3   6    0.24    0.08
   5  -3   6    1.89    0.16
   5  -3   6    1.78    0.16
  -5  -3  -6    1.60    0.17
   5  -3   6    1.64    0.15
  -5  -3  -6    1.72    0.17
   5  -3   6    1.65    0.15
   5  -3   6    1.60    0.15
   5   3   6    1.52    0.16
   5   3   6    1.54    0.16
   6  -3   6    1.49    0.16
   6  -3   6    1.38    0.15
   6  -3   6    1.62    0.17
   6  -3   6    1.62    0.16
   6  -3   6    1.29    0.15
   6   3   6    1.44    0.17
   6   3   6    1.36    0.16
   7  -3   6    3.25    0.21
   7  -3   6    2.77    0.22
   7  -3   6    2.60    0.21
   7  -3   6    3.06    0.21
   7  -3   6    2.60    0.20
   7   3   6    2.68    0.21
   7   3   6    2.91    0.22
   6  -4  -6    0.84    0.17
   6  -4  -6    0.76    0.16
   6  -4  -6    0.86    0.17
   6  -4  -6    0.56    0.15
   5  -4  -6   -0.08    0.11
   5  -4  -6   -0.05    0.11
   5  -4  -6    0.04    0.10
   5  -4  -6   -0.08    0.10
   5  -4  -6    0.02    0.11
   4  -4  -6    1.91    0.20
   4  -4  -6    1.61    0.18
   4  -4  -6    1.53    0.18
   4  -4  -6    1.92    0.20
   4  -4  -6    1.85    0.19
   3  -4  -6    0.16    0.11
   3  -4  -6    0.07    0.09
   3  -4  -6    0.09    0.09
   3  -4  -6    0.28    0.11
   3  -4  -6    0.10    0.09
   2  -4  -6    1.42    0.16
   2  -4  -6    1.29    0.15
   2  -4  -6    1.28    0.15
   1  -4  -6    0.37    0.11
   1  -4  -6    0.29    0.10
   1  -4  -6    0.17    0.10
   0  -4  -6    3.89    0.20
   0  -4  -6    4.14    0.21
  -1  -4  -6    3.93    0.21
  -1  -4  -6    3.67    0.20
  -2  -4  -6   11.33    0.35
  -2  -4  -6   11.47    0.34
  -3  -4  -6    1.26    0.15
  -3  -4  -6    1.25    0.16
  -4  -4  -6    0.59    0.13
  -4  -4  -6    0.85    0.15
  -5  -4  -6    0.09    0.11
  -5  -4  -6    0.05    0.11
   5   4   6    0.03    0.11
   5   4   6   -0.08    0.09
   6   4   6    0.57    0.14
   6   4   6    0.41    0.14
   3  -5  -6    0.12    0.12
   3  -5  -6   -0.03    0.11
   2  -5  -6    0.64    0.15
   2  -5  -6    0.60    0.14
   1  -5  -6    4.71    0.27
   1  -5  -6    4.75    0.28
   0  -5  -6    0.29    0.13
   0  -5  -6    0.28    0.13
  -1  -5  -6    0.36    0.14
  -1  -5  -6    0.28    0.13
  -2  -5  -6   -0.11    0.11
  -2  -5  -6    0.07    0.11
   9   0  -7    2.65    0.20
   9   0  -7    2.57    0.21
   9   0  -7    2.93    0.22
   9   0  -7    2.63    0.20
   9   0  -7    2.39    0.21
   8   0  -7    0.17    0.09
   8   0  -7    0.21    0.09
   8   0  -7    0.14    0.10
   8   0  -7   -0.01    0.08
   8   0  -7   -0.05    0.08
   7   0  -7   29.68    0.59
   7   0  -7   30.59    0.59
   7   0  -7   30.48    0.59
   7   0  -7   30.10    0.59
   7   0  -7   29.84    0.59
   6   0  -7    0.10    0.07
   6   0  -7    0.02    0.06
   6   0  -7    0.11    0.07
   6   0  -7    0.09    0.07
   6   0  -7    0.02    0.06
   5   0  -7    1.15    0.10
   5   0  -7    0.97    0.10
   5   0  -7    1.19    0.11
   5   0  -7    0.96    0.10
   5   0  -7    1.19    0.10
   4   0  -7    0.01    0.04
   4   0  -7    0.07    0.04
   4   0  -7    0.04    0.04
   4   0  -7    0.01    0.04
   4   0  -7    0.03    0.04
   3   0  -7   11.59    0.23
   3   0  -7   11.47    0.22
   3   0  -7   11.14    0.22
   3   0  -7   11.29    0.22
   3   0  -7   11.52    0.23
   2   0  -7   -0.09    0.03
   2   0  -7   -0.03    0.03
   2   0  -7   -0.06    0.03
   2   0  -7   -0.07    0.03
   2   0  -7   -0.01    0.03
   1   0  -7   51.58    0.71
   1   0  -7   51.81    0.71
   1   0  -7   50.87    0.70
   1   0  -7   50.27    0.71
  -1   0   7   49.75    0.70
   1   0  -7   51.46    0.71
   0   0   7    0.00    0.02
  -1   0  -7  390.08    5.26
  -1   0  -7  391.35    5.26
   2   0   7   -0.06    0.03
   2   0   7   -0.06    0.03
   3   0   7  106.56    1.48
   3   0   7  104.86    1.48
   4   0   7    0.05    0.05
   4   0   7    0.00    0.05
   5   0   7   20.94    0.42
   5   0   7   21.12    0.42
   6   0   7    0.27    0.10
   6   0   7    0.16    0.09
   6   0   7    0.38    0.10
   6   0   7    0.30    0.10
   7   0   7   14.89    0.40
   7   0   7   15.60    0.40
   7   0   7   15.93    0.40
   7   0   7   15.37    0.40
   8   0   7    0.19    0.10
   8   0   7    0.18    0.10
   8   0   7   -0.23    0.08
   8   0   7    0.06    0.10
   8   0   7    0.06    0.10
   9   0   7    0.02    0.11
   9   0   7    0.14    0.12
   9   0   7    0.04    0.10
   9   0   7    0.07    0.11
   9  -1  -7    0.38    0.13
   9  -1  -7    0.34    0.13
   9  -1  -7    0.48    0.15
   9  -1  -7    0.47    0.14
   9   1  -7    0.67    0.14
   9   1  -7    0.21    0.11
   9   1  -7    0.32    0.12
   9   1  -7    0.37    0.11
   9   1  -7    0.24    0.11
   8  -1  -7    0.96    0.15
   8  -1  -7    0.66    0.14
   8  -1  -7    0.86    0.14
   8  -1  -7    0.60    0.12
   8  -1  -7    0.82    0.14
   8   1  -7    0.75    0.12
   8   1  -7    0.83    0.13
   8   1  -7    0.84    0.13
   8   1  -7    0.90    0.14
   8   1  -7    0.83    0.13
   7  -1  -7    0.18    0.09
   7  -1  -7    0.21    0.10
   7  -1  -7    0.25    0.09
   7  -1  -7    0.13    0.09
   7  -1  -7    0.21    0.10
   7   1  -7    0.28    0.09
   7   1  -7    0.31    0.09
   7   1  -7    0.17    0.08
   7   1  -7    0.27    0.08
   7   1  -7    0.26    0.08
   6  -1  -7   24.57    0.50
   6  -1  -7   25.21    0.51
   6  -1  -7   24.77    0.50
   6  -1  -7   25.67    0.52
   6  -1  -7   24.97    0.51
   6   1  -7   24.61    0.48
   6   1  -7   25.04    0.49
   6   1  -7   25.22    0.48
   6   1  -7   25.40    0.49
   6   1  -7   25.78    0.49
   5  -1  -7    0.74    0.10
   5  -1  -7    0.70    0.09
   5  -1  -7    0.74    0.10
   5  -1  -7    0.79    0.10
   5  -1  -7    0.64    0.09
   5   1  -7    0.76    0.09
   5   1  -7    0.82    0.09
   5   1  -7    0.94    0.10
   5   1  -7    0.93    0.10
   5   1  -7    0.90    0.09
   4  -1  -7   23.54    0.43
   4  -1  -7   22.64    0.43
   4  -1  -7   23.30    0.43
   4  -1  -7   22.83    0.43
   4  -1  -7   23.59    0.43
   4   1  -7   23.29    0.40
   4   1  -7   22.68    0.40
   4   1  -7   23.00    0.40
   4   1  -7   23.14    0.40
   4   1  -7   22.89    0.40
   3  -1  -7    3.07    0.12
   3  -1  -7    3.09    0.12
   3  -1  -7    3.10    0.12
   3  -1  -7    2.92    0.12
   3  -1  -7    3.12    0.12
   3   1  -7    3.01    0.10
   3   1  -7    3.19    0.10
   3   1  -7    3.11    0.10
   3   1  -7    3.22    0.10
   2  -1  -7   25.48    0.43
   2  -1  -7   26.02    0.44
   2  -1  -7   26.03    0.43
   2  -1  -7   26.13    0.44
   2  -1  -7   26.91    0.44
   1  -1  -7  152.67    2.09
   1  -1  -7  156.40    2.10
   1  -1  -7  151.20    2.10
   1  -1  -7  156.87    2.10
   1  -1  -7  154.77    2.10
   1   1  -7  154.01    2.03
   1   1  -7  155.32    2.03
   0  -1  -7    1.40    0.07
   0  -1  -7    1.26    0.07
   0  -1  -7    1.34    0.07
  -1  -1  -7    8.12    0.18
   1  -1   7    8.29    0.15
   1  -1   7    8.34    0.14
   1  -1   7    8.48    0.15
  -1  -1  -7    8.36    0.18
  -2  -1  -7  317.93    4.24
   2  -1   7  318.72    4.20
   2  -1   7  317.60    4.20
   2  -1   7  316.44    4.20
   2  -1   7  315.63    4.20
  -2  -1  -7  318.67    4.23
   2  -1   7  318.93    4.25
   3  -1   7    6.71    0.17
  -3  -1  -7    6.55    0.18
   3  -1   7    6.69    0.17
  -3  -1  -7    6.63    0.18
   3  -1   7    6.74    0.16
   3  -1   7    6.89    0.17
   3  -1   7    6.78    0.17
   3   1   7    6.96    0.19
   3   1   7    6.85    0.19
   4  -1   7   21.74    0.41
   4  -1   7   22.48    0.41
   4  -1   7   21.79    0.41
   4  -1   7   21.58    0.40
   4  -1   7   22.09    0.41
   4   1   7   21.66    0.42
   4   1   7   22.15    0.42
   5  -1   7   14.54    0.33
   5  -1   7   14.47    0.33
   5  -1   7   14.82    0.34
   5  -1   7   14.62    0.33
   5  -1   7   14.45    0.33
   5   1   7   14.24    0.34
   5   1   7   14.10    0.34
   6  -1   7    0.18    0.08
   6  -1   7    0.26    0.09
   6  -1   7    0.16    0.08
   6  -1   7    0.25    0.09
   6  -1   7    0.19    0.09
   6   1   7    0.15    0.09
   6   1   7    0.07    0.08
   7  -1   7    2.74    0.18
   7  -1   7    2.64    0.17
   7  -1   7    2.45    0.19
   7  -1   7    2.62    0.18
   7  -1   7    2.63    0.19
   7   1   7    2.54    0.18
   7   1   7    2.56    0.18
   8  -1   7    2.57    0.20
   8  -1   7    2.76    0.20
   8  -1   7    2.31    0.19
   8  -1   7    2.29    0.19
   8  -1   7    2.34    0.21
   8   1   7    2.71    0.21
   8   1   7    2.65    0.22
   8   1   7    2.63    0.22
   8   1   7    2.50    0.20
   9  -1   7    0.40    0.13
   9  -1   7    0.46    0.14
   9  -1   7    0.49    0.14
   9  -1   7    0.33    0.14
   9   1   7    0.73    0.15
   9   1   7    0.46    0.13
   9   1   7    0.30    0.13
   9   1   7    0.11    0.11
   9  -2  -7    4.69    0.29
   9  -2  -7    4.37    0.28
   9  -2  -7    4.28    0.27
   9  -2  -7    4.20    0.27
   9   2  -7    4.37    0.25
   9   2  -7    4.19    0.26
   9   2  -7    4.37    0.26
   9   2  -7    4.48    0.26
   8  -2  -7    0.16    0.11
   8  -2  -7    0.20    0.12
   8  -2  -7    0.16    0.11
   8  -2  -7    0.28    0.13
   8  -2  -7    0.24    0.12
   8   2  -7    0.33    0.11
   8   2  -7    0.35    0.11
   8   2  -7    0.06    0.09
   8   2  -7    0.43    0.12
   8   2  -7    0.05    0.09
   7  -2  -7    7.46    0.28
   7  -2  -7    7.33    0.28
   7  -2  -7    7.37    0.29
   7  -2  -7    7.28    0.29
   7  -2  -7    7.44    0.29
   7   2  -7    7.16    0.25
   7   2  -7    7.40    0.26
   7   2  -7    7.89    0.27
   7   2  -7    7.02    0.25
   6  -2  -7   10.06    0.32
   6  -2  -7    9.93    0.32
   6  -2  -7   10.10    0.31
   6  -2  -7    9.92    0.31
   6  -2  -7   10.17    0.31
   6   2  -7    9.96    0.28
   6   2  -7   10.18    0.28
   6   2  -7   10.07    0.28
   6   2  -7    9.97    0.28
   5  -2  -7    5.17    0.21
   5  -2  -7    5.05    0.21
   5  -2  -7    4.91    0.20
   5  -2  -7    5.20    0.22
   5  -2  -7    5.18    0.21
   5   2  -7    5.09    0.18
   5   2  -7    5.13    0.18
   4  -2  -7   12.28    0.31
   4  -2  -7   12.15    0.31
   4  -2  -7   11.84    0.31
   4  -2  -7   11.87    0.31
   4  -2  -7   12.38    0.31
   4   2  -7   12.23    0.27
   4   2  -7   12.08    0.26
   3  -2  -7   12.39    0.30
   3  -2  -7   12.61    0.30
   3  -2  -7   12.64    0.30
   3  -2  -7   12.78    0.30
   3  -2  -7   12.18    0.30
   3   2  -7   12.65    0.25
   3   2  -7   12.38    0.25
   2  -2  -7    2.90    0.13
   2  -2  -7    3.13    0.13
   1  -2  -7   70.45    1.06
   1  -2  -7   72.48    1.07
  -1  -2   7   72.45    0.99
   1  -2  -7   71.01    1.07
  -1  -2   7   72.79    0.99
   1  -2  -7   69.23    1.06
   1  -2  -7   72.65    1.07
   0  -2   7   21.55    0.33
   0  -2   7   21.53    0.33
   0  -2  -7   20.91    0.40
   0  -2  -7   21.47    0.40
   0  -2  -7   20.89    0.40
   0  -2   7   21.70    0.33
   1  -2   7   70.11    0.99
  -1  -2  -7   71.16    1.05
   1  -2   7   70.44    0.99
   1  -2   7   71.52    0.99
  -1  -2  -7   70.74    1.06
   1  -2   7   71.00    0.99
   1  -2   7   71.57    0.99
   2  -2   7    2.98    0.11
   2  -2   7    2.87    0.11
  -2  -2  -7    2.90    0.14
  -2  -2  -7    3.01    0.14
   2  -2   7    2.93    0.11
   2  -2   7    3.00    0.11
   2  -2   7    3.05    0.11
   3  -2   7    0.53    0.07
  -3  -2  -7    0.57    0.09
  -3  -2  -7    0.64    0.09
   3  -2   7    0.42    0.06
   3  -2   7    0.52    0.07
   3  -2   7    0.51    0.07
   3  -2   7    0.60    0.07
  -4  -2  -7    4.12    0.18
   4  -2   7    4.10    0.17
   4  -2   7    4.20    0.16
   4  -2   7    4.34    0.17
   4  -2   7    4.30    0.17
   4  -2   7    4.09    0.16
  -4  -2  -7    4.45    0.18
   4   2   7    4.30    0.19
   4   2   7    4.16    0.19
   5  -2   7   29.30    0.54
   5  -2   7   29.87    0.56
   5  -2   7   28.01    0.54
   5  -2   7   28.64    0.55
   5  -2   7   28.76    0.55
   5   2   7   29.27    0.57
   5   2   7   29.67    0.58
   6  -2   7    0.91    0.13
   6  -2   7    0.93    0.13
   6  -2   7    0.96    0.13
   6  -2   7    0.87    0.12
   6  -2   7    1.05    0.13
   6   2   7    0.75    0.12
   6   2   7    0.83    0.13
   7  -2   7    1.55    0.17
   7  -2   7    1.37    0.16
   7  -2   7    1.45    0.16
   7  -2   7    1.50    0.16
   7  -2   7    1.63    0.17
   7   2   7    1.19    0.16
   7   2   7    0.79    0.14
   8  -2   7    3.14    0.23
   8  -2   7    3.20    0.23
   8  -2   7    2.84    0.21
   8  -2   7    3.42    0.22
   8  -2   7    3.53    0.24
   8   2   7    3.28    0.24
   8   2   7    2.71    0.22
   8  -3  -7    0.66    0.15
   8  -3  -7    0.90    0.19
   8  -3  -7    0.57    0.16
   8  -3  -7    0.65    0.16
   7  -3  -7    0.25    0.13
   7  -3  -7    0.49    0.14
   7  -3  -7    0.43    0.13
   7  -3  -7    0.80    0.23
   7  -3  -7    0.43    0.13
   6  -3  -7    8.05    0.31
   6  -3  -7    7.88    0.30
   6  -3  -7    8.23    0.31
   6  -3  -7    7.78    0.30
   6  -3  -7    7.91    0.30
   5  -3  -7    1.08    0.14
   5  -3  -7    1.29    0.15
   5  -3  -7    0.93    0.15
   5  -3  -7    0.92    0.13
   5  -3  -7    1.34    0.15
   5   3  -7    1.69    0.15
   5   3  -7    1.35    0.14
   4  -3  -7    5.91    0.24
   4  -3  -7    5.75    0.24
   4  -3  -7    5.84    0.24
   4  -3  -7    6.02    0.24
   4  -3  -7    5.78    0.23
   4   3  -7    5.52    0.20
   4   3  -7    6.20    0.20
   3  -3  -7   35.02    0.66
   3  -3  -7   36.00    0.66
   3  -3  -7   34.71    0.65
   3  -3  -7   35.21    0.65
   3  -3  -7   35.29    0.66
   3   3  -7   34.93    0.59
   3   3  -7   34.59    0.59
  -1  -3   7    1.11    0.08
  -1  -3   7    1.20    0.09
   1  -3  -7    0.98    0.12
   1  -3  -7    1.11    0.12
   1  -3  -7    1.17    0.12
   0  -3   7    8.46    0.20
   0  -3  -7    8.07    0.25
   0  -3  -7    7.94    0.25
   0  -3  -7    8.44    0.26
   0  -3   7    8.07    0.19
  -1  -3  -7    0.08    0.08
   1  -3   7    0.13    0.05
  -1  -3  -7    0.19    0.09
   1  -3   7    0.24    0.06
   1  -3   7    0.25    0.06
   2  -3   7   13.26    0.29
  -2  -3  -7   13.06    0.33
   2  -3   7   13.18    0.28
   2  -3   7   13.53    0.29
   2  -3   7   12.89    0.28
   2  -3   7   13.09    0.28
  -2  -3  -7   13.60    0.33
   3  -3   7    1.87    0.12
   3  -3   7    1.95    0.12
   3  -3   7    1.87    0.13
   3  -3   7    1.84    0.12
  -3  -3  -7    1.79    0.14
  -3  -3  -7    2.14    0.15
   3  -3   7    1.89    0.13
  -4  -3  -7   23.49    0.51
   4  -3   7   22.58    0.46
   4  -3   7   23.47    0.47
   4  -3   7   23.29    0.47
   4  -3   7   23.13    0.47
   4  -3   7   23.58    0.47
  -4  -3  -7   23.54    0.51
  -5  -3  -7   -0.04    0.09
   5  -3   7    0.02    0.08
   5  -3   7    0.06    0.08
   5  -3   7    0.02    0.08
  -5  -3  -7    0.28    0.11
   5  -3   7    0.14    0.08
   5  -3   7    0.20    0.08
   5   3   7    0.02    0.09
   5   3   7    0.09    0.09
   6  -3   7   -0.03    0.08
   6  -3   7    0.22    0.10
   6  -3   7    0.06    0.09
   6  -3   7    0.14    0.10
   6  -3   7    0.13    0.09
   6   3   7    0.12    0.11
   6   3   7    0.07    0.10
   7  -3   7    0.97    0.15
   7  -3   7    0.63    0.13
   7  -3   7    0.67    0.14
   7  -3   7    0.57    0.14
   7  -3   7    0.94    0.15
   7   3   7    0.63    0.14
   7   3   7    0.72    0.14
   6  -4  -7    0.77    0.17
   6  -4  -7    0.66    0.16
   6  -4  -7    0.62    0.16
   6  -4  -7    0.69    0.17
   5  -4  -7    0.13    0.11
   5  -4  -7    0.24    0.12
   5  -4  -7    0.12    0.12
   5  -4  -7    0.16    0.12
   5  -4  -7    0.17    0.18
   4  -4  -7    3.55    0.24
   4  -4  -7    3.11    0.23
   4  -4  -7    3.46    0.22
   4  -4  -7    3.48    0.22
   4  -4  -7    3.43    0.22
   3  -4  -7    7.16    0.28
   3  -4  -7    7.05    0.29
   3  -4  -7    7.18    0.29
   3  -4  -7    7.55    0.30
   3  -4  -7    7.57    0.30
   2  -4  -7   12.65    0.37
   2  -4  -7   13.18    0.38
   2  -4  -7   12.90    0.38
   1  -4  -7   10.71    0.34
   1  -4  -7   10.90    0.35
   1  -4  -7   10.89    0.33
   0  -4  -7    0.20    0.11
   0  -4  -7    0.20    0.11
  -1  -4  -7    0.34    0.12
  -1  -4  -7    0.43    0.12
  -2  -4  -7    0.27    0.11
  -2  -4  -7    0.24    0.10
  -3  -4  -7    1.97    0.19
  -3  -4  -7    2.02    0.19
  -4  -4  -7    1.92    0.20
  -4  -4  -7    1.53    0.18
  -5  -4  -7    0.24    0.12
  -5  -4  -7    0.44    0.13
   5   4   7    0.26    0.12
   5   4   7    0.39    0.12
   6   4   7    0.11    0.12
   6   4   7    0.13    0.12
   2  -5  -7    0.21    0.13
   2  -5  -7    0.39    0.13
   1  -5  -7    0.35    0.12
   1  -5  -7    0.38    0.14
   0  -5  -7    0.82    0.16
   0  -5  -7    0.48    0.14
  -1  -5  -7    0.43    0.14
  -1  -5  -7    0.12    0.12
  -2  -5  -7    0.38    0.13
  -2  -5  -7    0.03    0.12
   9   0  -8   -0.04    0.10
   9   0  -8    0.12    0.10
   9   0  -8    0.07    0.10
   9   0  -8   -0.08    0.09
   9   0  -8    0.14    0.11
   8   0  -8    7.11    0.28
   8   0  -8    7.29    0.28
   8   0  -8    7.17    0.27
   8   0  -8    7.18    0.27
   8   0  -8    7.17    0.27
   7   0  -8    0.24    0.09
   7   0  -8    0.20    0.09
   7   0  -8    0.09    0.08
   7   0  -8    0.19    0.08
   7   0  -8    0.23    0.09
   6   0  -8   21.30    0.44
   6   0  -8   21.39    0.44
   6   0  -8   21.03    0.43
   6   0  -8   20.89    0.43
   6   0  -8   21.50    0.44
   5   0  -8   -0.04    0.05
   5   0  -8   -0.04    0.05
   5   0  -8    0.05    0.06
   5   0  -8   -0.06    0.05
   5   0  -8    0.09    0.06
   4   0  -8  123.64    1.73
   4   0  -8  124.13    1.73
   4   0  -8  122.85    1.73
   4   0  -8  125.52    1.73
   4   0  -8  123.67    1.73
   3   0  -8    0.05    0.03
   3   0  -8    0.03    0.03
   3   0  -8    0.03    0.03
   3   0  -8    0.02    0.03
   3   0  -8    0.02    0.03
   2   0  -8   61.67    0.88
   2   0  -8   62.44    0.88
   2   0  -8   62.40    0.88
   2   0  -8   62.63    0.88
   2   0  -8   62.48    0.88
   1   0  -8   -0.02    0.02
   1   0  -8    0.00    0.02
   1   0  -8   -0.02    0.02
  -1   0   8    0.05    0.02
   1   0  -8   -0.04    0.02
   1   0  -8   -0.03    0.02
   0   0   8  332.40    4.68
   0   0  -8  358.57    4.68
   0   0  -8  360.26    4.68
  -1   0  -8   -0.04    0.02
  -1   0  -8   -0.09    0.02
   2   0   8    1.37    0.07
   2   0   8    1.54    0.07
   3   0   8    0.05    0.04
   3   0   8    0.05    0.04
   4   0   8    0.22    0.06
   4   0   8    0.14    0.06
   5   0   8    0.10    0.07
   5   0   8    0.08    0.06
   6   0   8   30.07    0.58
   6   0   8   29.71    0.57
   6   0   8   29.41    0.57
   6   0   8   29.71    0.57
   7   0   8    0.09    0.10
   7   0   8   -0.06    0.09
   7   0   8    0.06    0.09
   7   0   8    0.17    0.09
   8   0   8    2.35    0.19
   8   0   8    2.15    0.19
   8   0   8    2.49    0.21
   8   0   8    2.18    0.20
   8   0   8    2.27    0.20
   9   0   8    0.05    0.11
   9   0   8   -0.11    0.10
   9   0   8    0.08    0.11
   9   0   8   -0.02    0.11
   9  -1  -8    1.96    0.21
   9  -1  -8    2.41    0.22
   9  -1  -8    2.36    0.22
   9  -1  -8    2.53    0.23
   9   1  -8    2.25    0.18
   9   1  -8    2.35    0.22
   9   1  -8    2.41    0.19
   9   1  -8    2.32    0.20
   9   1  -8    2.35    0.21
   8  -1  -8    0.28    0.11
   8  -1  -8    0.25    0.11
   8  -1  -8    0.11    0.09
   8  -1  -8    0.06    0.11
   8  -1  -8    0.09    0.10
   8   1  -8    0.25    0.09
   8   1  -8    0.20    0.10
   8   1  -8    0.05    0.08
   8   1  -8    0.11    0.09
   8   1  -8    0.07    0.09
   7  -1  -8    1.17    0.14
   7  -1  -8    1.34    0.15
   7  -1  -8    1.29    0.14
   7  -1  -8    1.06    0.14
   7  -1  -8    1.26    0.15
   7   1  -8    0.93    0.12
   7   1  -8    1.08    0.12
   7   1  -8    0.91    0.12
   7   1  -8    1.16    0.12
   7   1  -8    0.86    0.12
   6  -1  -8    1.41    0.14
   6  -1  -8    1.36    0.13
   6  -1  -8    1.34    0.13
   6  -1  -8    1.46    0.14
   6  -1  -8    1.62    0.15
   6   1  -8    1.42    0.12
   6   1  -8    1.25    0.12
   6   1  -8    1.45    0.12
   6   1  -8    1.30    0.13
   6   1  -8    1.51    0.13
   4  -1  -8   33.48    0.57
   4  -1  -8   32.94    0.57
   4  -1  -8   32.99    0.57
   4  -1  -8   32.83    0.57
   4  -1  -8   34.18    0.57
   4   1  -8   33.03    0.53
   4   1  -8   33.00    0.53
   4   1  -8   33.05    0.54
   4   1  -8   33.22    0.53
   4   1  -8   32.67    0.53
   3  -1  -8   86.23    1.27
   3  -1  -8   89.65    1.28
   3  -1  -8   90.38    1.28
   3  -1  -8   89.80    1.28
   3  -1  -8   85.60    1.27
   3   1  -8   88.65    1.23
   3   1  -8   89.35    1.23
   3   1  -8   89.52    1.23
   3   1  -8   88.51    1.23
   3   1  -8   89.33    1.23
   2  -1  -8    6.92    0.17
   2  -1  -8    7.11    0.18
   2  -1  -8    7.11    0.18
   2  -1  -8    7.20    0.17
   2  -1  -8    7.09    0.18
   2   1  -8    7.11    0.13
   2   1  -8    7.18    0.13
   2   1  -8    7.11    0.14
   2   1  -8    6.83    0.13
   2   1  -8    7.31    0.14
   1  -1  -8  372.85    4.87
   1  -1  -8  362.20    4.87
   1  -1  -8  368.71    4.91
   1  -1  -8  360.09    4.86
   1  -1  -8  372.72    4.91
   0  -1  -8    0.11    0.04
   0  -1  -8    0.07    0.04
   0  -1  -8    0.09    0.04
  -1  -1  -8   19.84    0.35
   1  -1   8   20.26    0.30
   1  -1   8   20.06    0.30
   1  -1   8   19.75    0.30
  -1  -1  -8   19.84    0.35
  -2  -1  -8   12.05    0.25
   2  -1   8   12.26    0.22
   2  -1   8   12.31    0.23
  -2  -1  -8   12.38    0.25
   2  -1   8   12.22    0.22
   2  -1   8   12.28    0.22
   2  -1   8   11.94    0.22
   3  -1   8   19.20    0.34
   3  -1   8   19.17    0.34
  -3  -1  -8   18.88    0.36
   3  -1   8   20.26    0.34
   3  -1   8   18.79    0.34
   3  -1   8   19.07    0.34
  -3  -1  -8   19.32    0.37
   3   1   8   18.47    0.36
   3   1   8   18.56    0.36
   4  -1   8    8.26    0.22
   4  -1   8    8.14    0.21
   4  -1   8    8.44    0.22
   4  -1   8    8.30    0.22
   4  -1   8    8.54    0.22
   4   1   8    8.11    0.23
   4   1   8    8.45    0.23
   5  -1   8    4.26    0.18
   5  -1   8    4.59    0.18
   5  -1   8    4.95    0.18
   5  -1   8    4.45    0.18
   5  -1   8    4.75    0.18
   5   1   8    4.36    0.19
   5   1   8    4.66    0.19
   6  -1   8    5.69    0.22
   6  -1   8    5.41    0.21
   6  -1   8    5.68    0.22
   6  -1   8    5.52    0.22
   6  -1   8    5.67    0.22
   6   1   8    5.84    0.23
   6   1   8    6.05    0.23
   7  -1   8    2.65    0.18
   7  -1   8    2.50    0.18
   7  -1   8    2.41    0.18
   7  -1   8    2.24    0.17
   7  -1   8    2.42    0.17
   7   1   8    2.28    0.17
   7   1   8    2.52    0.18
   8  -1   8    0.36    0.11
   8  -1   8    0.25    0.11
   8  -1   8    0.17    0.11
   8  -1   8    0.35    0.11
   8  -1   8    0.20    0.11
   8   1   8    0.20    0.11
   8   1   8    0.21    0.11
   8   1   8    0.13    0.11
   8   1   8    0.20    0.11
   9  -1   8    4.01    0.25
   9  -1   8    3.63    0.25
   9  -1   8    3.88    0.25
   9  -1   8    3.49    0.24
   9   1   8    3.31    0.24
   9   1   8    3.52    0.24
   9   1   8    3.77    0.25
   9   1   8    3.99    0.24
   9  -2  -8    0.06    0.12
   9  -2  -8    0.52    0.16
   9  -2  -8    0.11    0.14
   9  -2  -8    0.26    0.13
   9   2  -8    0.14    0.11
   9   2  -8    0.33    0.13
   9   2  -8    0.01    0.11
   9   2  -8    0.06    0.12
   8  -2  -8    0.01    0.11
   8  -2  -8    0.01    0.10
   8  -2  -8    0.00    0.10
   8  -2  -8    0.07    0.11
   8  -2  -8    0.29    0.12
   8   2  -8    0.26    0.10
   8   2  -8    0.00    0.09
   8   2  -8    0.10    0.09
   8   2  -8    0.22    0.09
   8   2  -8    0.16    0.09
   7  -2  -8    0.67    0.13
   7  -2  -8    0.55    0.13
   7  -2  -8    0.64    0.13
   7  -2  -8    0.42    0.12
   7  -2  -8    0.62    0.13
   7   2  -8    0.58    0.11
   7   2  -8    0.51    0.10
   7   2  -8    0.62    0.11
   7   2  -8    0.47    0.10
   7   2  -8    0.57    0.11
   6  -2  -8    2.40    0.17
   6  -2  -8    2.53    0.18
   6  -2  -8    2.78    0.18
   6  -2  -8    2.65    0.18
   6  -2  -8    2.37    0.18
   6   2  -8    2.47    0.14
   6   2  -8    2.74    0.15
   6   2  -8    2.74    0.15
   6   2  -8    2.40    0.14
   5  -2  -8    0.26    0.09
   5  -2  -8    0.55    0.11
   5  -2  -8    0.57    0.11
   5  -2  -8    0.35    0.10
   5  -2  -8    0.36    0.09
   5   2  -8    0.36    0.08
   5   2  -8    0.37    0.07
   5   2  -8    0.43    0.08
   5   2  -8    0.46    0.08
   4  -2  -8   29.71    0.56
   4  -2  -8   29.72    0.56
   4  -2  -8   29.91    0.57
   4  -2  -8   30.13    0.57
   4  -2  -8   30.41    0.56
   4   2  -8   30.03    0.50
   4   2  -8   29.61    0.50
   3  -2  -8   14.57    0.33
   3  -2  -8   14.01    0.32
   3  -2  -8   13.52    0.32
   3  -2  -8   14.34    0.33
   3  -2  -8   13.77    0.32
   3   2  -8   14.46    0.27
   3   2  -8   14.44    0.27
   2  -2  -8    0.01    0.05
   2  -2  -8    0.05    0.05
   2  -2  -8    0.06    0.06
   2  -2  -8    0.00    0.06
   2  -2  -8    0.03    0.05
   2   2  -8    0.03    0.03
   2   2  -8    0.00    0.03
   1  -2  -8    3.94    0.15
   1  -2  -8    4.02    0.15
   1  -2  -8    3.79    0.15
   1  -2  -8    3.98    0.15
  -1  -2   8    4.03    0.10
  -1  -2   8    3.89    0.10
   1  -2  -8    4.20    0.16
   1   2  -8    3.86    0.10
   0  -2  -8  154.99    2.15
   0  -2  -8  153.82    2.14
   0  -2   8  155.66    2.05
   0  -2   8  153.98    2.05
   0  -2  -8  153.49    2.15
   0   2  -8  151.66    2.05
   1  -2   8    0.19    0.04
   1  -2   8    0.09    0.03
  -1  -2  -8    0.15    0.07
   1  -2   8    0.23    0.04
   1  -2   8    0.17    0.04
  -1  -2  -8    0.19    0.07
   1  -2   8    0.13    0.03
   2  -2   8   27.44    0.44
   2  -2   8   26.85    0.44
  -2  -2  -8   27.56    0.49
   2  -2   8   27.04    0.44
  -2  -2  -8   27.87    0.50
   2  -2   8   27.08    0.44
   2  -2   8   27.24    0.44
   3  -2   8    1.23    0.09
   3  -2   8    1.07    0.08
  -3  -2  -8    1.23    0.11
   3  -2   8    1.17    0.09
   3  -2   8    1.01    0.08
   3  -2   8    1.32    0.10
  -3  -2  -8    1.35    0.11
   4  -2   8    7.75    0.22
  -4  -2  -8    7.62    0.24
  -4  -2  -8    7.47    0.25
   4  -2   8    7.62    0.22
   4  -2   8    7.60    0.22
   4  -2   8    7.63    0.22
   4  -2   8    7.68    0.22
   4   2   8    7.43    0.25
   4   2   8    7.80    0.25
   5  -2   8   20.42    0.43
   5  -2   8   19.99    0.42
   5  -2   8   20.04    0.42
   5  -2   8   20.91    0.43
   5  -2   8   20.36    0.43
   5   2   8   20.56    0.46
   5   2   8   20.49    0.45
   6  -2   8    0.34    0.10
   6  -2   8    0.63    0.11
   6  -2   8    0.45    0.10
   6  -2   8    0.35    0.10
   6  -2   8    0.31    0.09
   6   2   8    0.31    0.11
   6   2   8    0.38    0.11
   7  -2   8    0.50    0.12
   7  -2   8    0.32    0.11
   7  -2   8    0.45    0.12
   7  -2   8    0.35    0.11
   7  -2   8    0.45    0.12
   7   2   8    0.43    0.12
   7   2   8    0.29    0.12
   8  -2   8    2.29    0.22
   8  -2   8    2.85    0.24
   8  -2   8    2.60    0.20
   8  -2   8    2.50    0.23
   8  -2   8    2.01    0.21
   8   2   8    2.43    0.22
   8   2   8    1.83    0.21
   8  -3  -8    0.69    0.17
   8  -3  -8    1.25    0.20
   8  -3  -8    0.54    0.16
   8  -3  -8    1.17    0.19
   7  -3  -8    0.12    0.12
   7  -3  -8    0.23    0.12
   7  -3  -8    0.11    0.12
   7  -3  -8    0.25    0.12
   6  -3  -8    1.46    0.17
   6  -3  -8    1.48    0.17
   6  -3  -8    1.26    0.16
   6  -3  -8    1.96    0.19
   6  -3  -8    1.27    0.16
   5  -3  -8    1.10    0.15
   5  -3  -8    1.24    0.15
   5  -3  -8    0.86    0.13
   5  -3  -8    1.08    0.15
   5  -3  -8    0.84    0.13
   4  -3  -8    0.15    0.09
   4  -3  -8    0.26    0.09
   4  -3  -8    0.18    0.09
   4  -3  -8    0.24    0.09
   4  -3  -8    0.28    0.09
   3  -3  -8   18.83    0.43
   3  -3  -8   18.28    0.43
   3  -3  -8   18.21    0.43
   3  -3  -8   18.13    0.42
   3  -3  -8   18.01    0.42
   2  -3  -8    9.01    0.28
   2  -3  -8    8.87    0.28
   2  -3  -8    8.30    0.26
   2  -3  -8    8.63    0.27
   2  -3  -8    8.51    0.27
   1  -3  -8   12.02    0.31
   1  -3  -8   11.80    0.32
   1  -3  -8   12.40    0.32
   0  -3  -8    0.21    0.08
   0  -3  -8    0.22    0.09
   0  -3  -8    0.36    0.09
  -1  -3  -8    3.05    0.17
   1  -3   8    3.20    0.13
   1  -3   8    3.13    0.12
   1  -3   8    3.26    0.12
  -1  -3  -8    3.24    0.17
   2  -3   8    0.67    0.08
   2  -3   8    0.58    0.08
   2  -3   8    0.72    0.08
  -2  -3  -8    0.54    0.10
   2  -3   8    0.68    0.08
   2  -3   8    0.77    0.08
  -2  -3  -8    0.56    0.10
   3  -3   8   21.38    0.41
   3  -3   8   19.81    0.40
  -3  -3  -8   21.52    0.46
   3  -3   8   21.54    0.41
  -3  -3  -8   21.28    0.47
   3  -3   8   20.98    0.41
   3  -3   8   21.09    0.41
   4  -3   8   14.50    0.34
   4  -3   8   14.57    0.34
   4  -3   8   14.85    0.35
   4  -3   8   14.31    0.34
  -4  -3  -8   14.97    0.39
   4  -3   8   14.65    0.35
  -4  -3  -8   14.82    0.39
   5  -3   8    0.25    0.09
   5  -3   8    0.25    0.09
   5  -3   8    0.29    0.09
  -5  -3  -8   -0.06    0.08
  -5  -3  -8    0.26    0.10
   5  -3   8    0.22    0.09
   5  -3   8    0.13    0.08
   5   3   8    0.18    0.10
   5   3   8    0.16    0.11
   6  -3   8   -0.08    0.08
   6  -3   8    0.13    0.09
   6  -3   8    0.06    0.08
   6  -3   8   -0.01    0.08
   6  -3   8    0.06    0.09
   6   3   8   -0.02    0.09
   6   3   8    0.17    0.11
   7  -3   8    1.04    0.15
   7  -3   8    1.18    0.17
   7  -3   8    1.24    0.17
   7  -3   8    1.20    0.20
   7  -3   8    1.10    0.16
   7   3   8    1.03    0.16
   7   3   8    1.22    0.17
   6  -4  -8    0.86    0.18
   6  -4  -8    0.91    0.17
   6  -4  -8    1.08    0.19
   6  -4  -8    0.71    0.16
   5  -4  -8    0.78    0.15
   5  -4  -8    0.63    0.15
   5  -4  -8    0.61    0.14
   5  -4  -8    0.66    0.15
   4  -4  -8    0.08    0.11
   4  -4  -8   -0.06    0.10
   4  -4  -8    0.14    0.11
   4  -4  -8    0.05    0.10
   4  -4  -8    0.15    0.11
   3  -4  -8    6.22    0.27
   3  -4  -8    6.58    0.28
   3  -4  -8    6.14    0.27
   3  -4  -8    6.32    0.27
   3  -4  -8    6.12    0.27
   2  -4  -8    6.98    0.28
   2  -4  -8    6.74    0.28
   2  -4  -8    6.75    0.28
   1  -4  -8    2.38    0.19
   1  -4  -8    1.80    0.18
   1  -4  -8    1.67    0.17
   0  -4  -8    2.30    0.18
   0  -4  -8    2.33    0.19
  -1  -4  -8    0.05    0.09
  -1  -4  -8   -0.03    0.10
  -2  -4  -8    4.34    0.23
  -2  -4  -8    4.41    0.23
  -3  -4  -8    4.15    0.23
  -3  -4  -8    4.38    0.24
  -4  -4  -8    0.15    0.12
  -4  -4  -8    0.08    0.11
  -5  -4  -8    0.59    0.14
  -5  -4  -8    0.95    0.16
   5   4   8    0.57    0.14
   5   4   8    0.65    0.15
   2  -5  -8    0.27    0.13
   2  -5  -8    0.29    0.14
   1  -5  -8    0.93    0.17
   1  -5  -8    1.35    0.19
   0  -5  -8    0.43    0.14
   0  -5  -8    0.33    0.14
  -1  -5  -8    0.08    0.12
  -1  -5  -8    0.10    0.12
  -2  -5  -8    0.23    0.13
  -2  -5  -8    0.02    0.12
   9   0  -9    4.99    0.25
   9   0  -9    4.71    0.24
   9   0  -9    4.85    0.26
   9   0  -9    4.71    0.25
   9   0  -9    4.81    0.26
   8   0  -9    0.06    0.09
   8   0  -9    0.08    0.09
   8   0  -9    0.04    0.09
   8   0  -9    0.21    0.10
   8   0  -9    0.13    0.09
   7   0  -9    2.60    0.16
   7   0  -9    2.64    0.17
   7   0  -9    2.73    0.16
   7   0  -9    2.97    0.17
   7   0  -9    2.66    0.17
   6   0  -9    0.10    0.07
   6   0  -9    0.14    0.07
   6   0  -9    0.09    0.07
   6   0  -9    0.16    0.08
   6   0  -9    0.20    0.07
   5   0  -9    0.22    0.07
   5   0  -9    0.17    0.06
   5   0  -9    0.32    0.07
   5   0  -9    0.22    0.07
   5   0  -9    0.18    0.07
   4   0  -9    0.05    0.04
   4   0  -9    0.01    0.04
   4   0  -9    0.04    0.04
   4   0  -9    0.10    0.05
   4   0  -9    0.05    0.04
   3   0  -9  164.41    2.23
   3   0  -9  164.55    2.23
   3   0  -9  164.57    2.22
   3   0  -9  162.90    2.23
   3   0  -9  164.01    2.23
   2   0  -9    0.07    0.03
   2   0  -9    0.12    0.03
   2   0  -9    0.10    0.03
   2   0  -9    0.10    0.03
   2   0  -9    0.09    0.03
  -1   0   9  582.57    7.59
   1   0  -9  548.74    7.54
   1   0  -9  548.90    7.53
   1   0  -9  558.69    7.57
   1   0  -9  571.93    7.54
   1   0  -9  569.63    7.55
   0   0   9    0.07    0.02
  -1   0  -9    5.68    0.13
  -1   0  -9    5.82    0.13
   2   0   9   -0.06    0.03
   2   0   9   -0.01    0.03
   3   0   9  246.83    3.31
   3   0   9  245.45    3.31
   4   0   9    0.24    0.06
   4   0   9    0.16    0.06
   6   0   9    0.00    0.08
   6   0   9    0.02    0.08
   6   0   9   -0.09    0.08
   6   0   9    0.08    0.08
   7   0   9    1.88    0.17
   7   0   9    1.86    0.17
   7   0   9    2.15    0.18
   7   0   9    2.04    0.17
   8   0   9    0.07    0.10
   8   0   9   -0.09    0.10
   8   0   9    0.03    0.10
   8   0   9    0.08    0.10
   8   0   9   -0.03    0.09
   9   0   9    0.07    0.12
   9   0   9    0.09    0.12
   9   0   9   -0.17    0.11
   9   0   9    0.20    0.12
   9  -1  -9    0.42    0.13
   9  -1  -9    0.47    0.14
   9  -1  -9    0.41    0.13
   9  -1  -9    0.72    0.15
   9   1  -9    0.57    0.13
   9   1  -9    0.60    0.13
   9   1  -9    0.47    0.13
   9   1  -9    0.49    0.13
   9   1  -9    0.48    0.12
   8  -1  -9    5.94    0.27
   8  -1  -9    6.09    0.27
   8  -1  -9    5.70    0.26
   8  -1  -9    5.97    0.26
   8  -1  -9    5.80    0.26
   8   1  -9    5.77    0.24
   8   1  -9    5.96    0.25
   8   1  -9    5.58    0.24
   8   1  -9    5.57    0.24
   8   1  -9    6.00    0.25
   7  -1  -9    1.12    0.14
   7  -1  -9    0.99    0.13
   7  -1  -9    1.01    0.14
   7  -1  -9    1.02    0.14
   7  -1  -9    1.11    0.14
   7   1  -9    1.02    0.12
   7   1  -9    1.25    0.13
   7   1  -9    0.97    0.12
   7   1  -9    1.22    0.13
   7   1  -9    1.46    0.14
   6  -1  -9   24.20    0.50
   6  -1  -9   24.61    0.50
   6  -1  -9   23.79    0.50
   6  -1  -9   24.81    0.50
   6  -1  -9   23.88    0.49
   6   1  -9   24.45    0.47
   6   1  -9   24.73    0.48
   6   1  -9   24.00    0.47
   6   1  -9   24.25    0.48
   6   1  -9   24.20    0.47
   5  -1  -9   25.48    0.49
   5  -1  -9   24.99    0.48
   5  -1  -9   24.69    0.49
   5  -1  -9   24.46    0.48
   5  -1  -9   25.34    0.49
   5   1  -9   25.08    0.46
   5   1  -9   25.40    0.45
   5   1  -9   25.28    0.46
   5   1  -9   24.58    0.45
   5   1  -9   23.88    0.45
   4  -1  -9   89.47    1.31
   4  -1  -9   90.44    1.32
   4  -1  -9   88.36    1.31
   4  -1  -9   88.97    1.31
   4  -1  -9   89.22    1.32
   4   1  -9   88.20    1.27
   4   1  -9   89.68    1.27
   4   1  -9   90.48    1.28
   4   1  -9   88.96    1.27
   4   1  -9   91.07    1.27
   3  -1  -9    0.28    0.06
   3  -1  -9    0.24    0.06
   3  -1  -9    0.30    0.06
   3  -1  -9    0.24    0.06
   3  -1  -9    0.26    0.06
   3   1  -9    0.22    0.04
   3   1  -9    0.23    0.04
   3   1  -9    0.20    0.04
   3   1  -9    0.23    0.04
   3   1  -9    0.28    0.05
   2  -1  -9    1.05    0.08
   2  -1  -9    0.92    0.07
   2  -1  -9    1.06    0.08
   2  -1  -9    0.95    0.08
   2  -1  -9    1.05    0.08
   2   1  -9    1.08    0.05
   2   1  -9    1.15    0.05
   2   1  -9    1.04    0.05
   2   1  -9    1.02    0.05
   2   1  -9    1.08    0.05
   1  -1  -9    0.94    0.07
   1  -1  -9    1.01    0.07
   1  -1  -9    1.10    0.07
   1  -1  -9    0.91    0.07
   1  -1  -9    1.02    0.07
   0  -1  -9  245.93    3.30
   0  -1  -9  247.56    3.31
   0  -1  -9  246.37    3.30
   1  -1   9   11.33    0.18
  -1  -1  -9   11.45    0.23
  -1  -1  -9   11.02    0.23
   1  -1   9   11.20    0.18
   1  -1   9   11.24    0.18
   2  -1   9   90.31    1.24
   2  -1   9   89.79    1.23
   2  -1   9   89.26    1.23
   2  -1   9   90.58    1.24
   2  -1   9   89.96    1.24
  -2  -1  -9   88.11    1.28
  -2  -1  -9   88.79    1.27
  -3  -1  -9    8.36    0.21
   3  -1   9    8.19    0.19
   3  -1   9    8.07    0.19
   3  -1   9    8.08    0.19
   3  -1   9    8.17    0.19
  -3  -1  -9    8.32    0.22
   3  -1   9    8.18    0.19
   3   1   9    8.61    0.22
   3   1   9    8.12    0.22
   4  -1   9   13.87    0.29
   4  -1   9   13.22    0.28
   4  -1   9   13.21    0.29
   4  -1   9   12.88    0.28
   4  -1   9   12.99    0.29
   4   1   9   13.05    0.31
   4   1   9   12.63    0.31
   5  -1   9    8.17    0.24
   5  -1   9    8.21    0.24
   5  -1   9    8.18    0.24
   5  -1   9    8.00    0.24
   5  -1   9    8.25    0.24
   5   1   9    8.81    0.26
   5   1   9    8.74    0.26
   6  -1   9   10.28    0.29
   6  -1   9    9.77    0.28
   6  -1   9    9.90    0.28
   6  -1   9    9.98    0.29
   6  -1   9    9.49    0.29
   6   1   9    9.63    0.29
   6   1   9    9.82    0.30
   7  -1   9    0.45    0.11
   7  -1   9    0.50    0.12
   7  -1   9    0.22    0.10
   7  -1   9    0.50    0.11
   7  -1   9    0.30    0.11
   7   1   9    0.40    0.11
   7   1   9    0.38    0.11
   8  -1   9    0.09    0.11
   8  -1   9    0.13    0.11
   8  -1   9   -0.06    0.10
   8  -1   9    0.29    0.11
   8  -1   9    0.15    0.10
   8   1   9    0.31    0.11
   8   1   9    0.14    0.11
   8   1   9   -0.13    0.10
   8   1   9    0.22    0.12
   9  -1   9    0.20    0.12
   9  -1   9    0.12    0.13
   9  -1   9   -0.03    0.12
   9  -1   9   -0.01    0.12
   9   1   9    0.28    0.14
   9   1   9    0.05    0.12
   9   1   9    0.04    0.11
   9   1   9    0.00    0.11
   9  -2  -9    2.32    0.25
   9  -2  -9    2.01    0.23
   9  -2  -9    1.96    0.23
   9  -2  -9    1.97    0.22
   9   2  -9    2.04    0.21
   9   2  -9    1.98    0.21
   9   2  -9    2.02    0.29
   9   2  -9    2.23    0.31
   8  -2  -9    1.03    0.17
   8  -2  -9    1.04    0.16
   8  -2  -9    1.17    0.17
   8  -2  -9    0.90    0.19
   8  -2  -9    0.97    0.16
   8   2  -9    1.29    0.15
   8   2  -9    1.35    0.15
   8   2  -9    1.21    0.15
   8   2  -9    1.21    0.15
   7  -2  -9    1.91    0.19
   7  -2  -9    1.91    0.19
   7  -2  -9    1.93    0.19
   7  -2  -9    2.06    0.20
   7  -2  -9    1.99    0.19
   7   2  -9    1.70    0.14
   7   2  -9    1.94    0.16
   7   2  -9    1.84    0.15
   7   2  -9    2.10    0.17
   7   2  -9    1.98    0.15
   6  -2  -9    0.95    0.14
   6  -2  -9    0.80    0.14
   6  -2  -9    0.68    0.12
   6  -2  -9    0.77    0.12
   6  -2  -9    0.84    0.13
   6   2  -9    0.88    0.11
   6   2  -9    0.86    0.11
   6   2  -9    0.79    0.10
   6   2  -9    1.02    0.12
   5  -2  -9    2.57    0.17
   5  -2  -9    2.36    0.16
   5  -2  -9    2.35    0.16
   5  -2  -9    2.23    0.16
   5  -2  -9    2.73    0.17
   5   2  -9    2.58    0.12
   5   2  -9    2.41    0.13
   5   2  -9    2.56    0.13
   5   2  -9    2.41    0.12
   4  -2  -9   18.11    0.40
   4  -2  -9   18.26    0.40
   4  -2  -9   17.29    0.39
   4  -2  -9   17.76    0.40
   4  -2  -9   17.58    0.40
   4   2  -9   17.60    0.34
   4   2  -9   17.53    0.34
   3  -2  -9   82.45    1.24
   3  -2  -9   83.18    1.25
   3  -2  -9   82.82    1.25
   3  -2  -9   81.29    1.24
   3  -2  -9   81.60    1.24
   3   2  -9   82.16    1.16
   3   2  -9   82.40    1.16
   2  -2  -9   19.42    0.39
   2  -2  -9   19.47    0.39
   2  -2  -9   19.28    0.39
   2  -2  -9   19.26    0.39
   2  -2  -9   19.26    0.39
   2   2  -9   19.15    0.31
   2   2  -9   18.37    0.30
  -1  -2   9   22.51    0.33
   1  -2  -9   22.70    0.43
   1  -2  -9   22.58    0.43
   1  -2  -9   22.55    0.42
   1  -2  -9   21.95    0.42
  -1  -2   9   22.35    0.33
   1  -2  -9   22.44    0.42
   1   2  -9   22.06    0.33
   0  -2  -9   45.53    0.73
   0  -2  -9   45.37    0.72
   0  -2   9   44.85    0.62
   0  -2   9   44.29    0.62
   0  -2  -9   45.28    0.73
   0   2  -9   42.77    0.62
   1  -2   9    5.64    0.12
   1  -2   9    5.41    0.12
   1  -2   9    5.79    0.13
  -1  -2  -9    5.70    0.18
   1  -2   9    5.63    0.13
   1  -2   9    5.53    0.12
  -1  -2  -9    5.77    0.18
   2  -2   9    1.66    0.08
  -2  -2  -9    1.74    0.12
   2  -2   9    1.63    0.08
   2  -2   9    1.59    0.08
   2  -2   9    1.66    0.08
   2  -2   9    1.73    0.08
  -2  -2  -9    1.56    0.12
   3  -2   9   20.55    0.38
  -3  -2  -9   20.49    0.42
   3  -2   9   20.93    0.38
   3  -2   9   20.82    0.38
   3  -2   9   20.96    0.38
  -3  -2  -9   20.53    0.42
   3  -2   9   21.61    0.38
   4  -2   9   14.84    0.32
   4  -2   9   14.74    0.32
  -4  -2  -9   14.27    0.35
   4  -2   9   14.80    0.32
   4  -2   9   15.08    0.33
   4  -2   9   15.06    0.32
  -4  -2  -9   14.67    0.36
   5  -2   9   25.49    0.49
   5  -2   9   24.41    0.48
   5  -2   9   24.39    0.48
   5  -2   9   23.69    0.47
   5  -2   9   24.18    0.48
   5   2   9   23.84    0.51
   5   2   9   23.62    0.51
   6  -2   9    0.16    0.09
   6  -2   9    0.27    0.09
   6  -2   9    0.07    0.08
   6  -2   9    0.17    0.09
   6  -2   9    0.21    0.09
   6   2   9    0.12    0.10
   6   2   9    0.11    0.10
   7  -2   9   -0.07    0.09
   7  -2   9    0.06    0.10
   7  -2   9   -0.06    0.08
   7  -2   9   -0.05    0.09
   7  -2   9   -0.07    0.09
   7   2   9    0.07    0.10
   7   2   9   -0.03    0.10
   8  -2   9    0.09    0.12
   8  -2   9    0.19    0.12
   8  -2   9    0.06    0.11
   8  -2   9    0.22    0.12
   8  -2   9    0.11    0.12
   8   2   9    0.24    0.13
   8   2   9    0.29    0.12
   7  -3  -9    1.42    0.19
   7  -3  -9    1.05    0.17
   7  -3  -9    0.85    0.15
   7  -3  -9    0.90    0.16
   6  -3  -9    3.74    0.22
   6  -3  -9    3.89    0.23
   6  -3  -9    3.99    0.24
   6  -3  -9    3.57    0.22
   6  -3  -9    4.11    0.24
   5  -3  -9    2.22    0.20
   5  -3  -9    2.24    0.19
   5  -3  -9    1.86    0.18
   5  -3  -9    1.92    0.18
   5  -3  -9    2.06    0.19
   4  -3  -9    4.17    0.21
   4  -3  -9    4.32    0.22
   4  -3  -9    3.87    0.21
   4  -3  -9    4.01    0.21
   4  -3  -9    4.18    0.21
   3  -3  -9    3.47    0.19
   3  -3  -9    3.70    0.19
   3  -3  -9    3.20    0.19
   3  -3  -9    3.77    0.19
   3  -3  -9    3.59    0.19
   2  -3  -9   18.97    0.43
   2  -3  -9   18.76    0.43
   2  -3  -9   18.64    0.43
   2  -3  -9   18.29    0.42
   2  -3  -9   19.03    0.43
   1  -3  -9    0.16    0.09
   1  -3  -9    0.13    0.09
   1  -3  -9    0.15    0.08
   0  -3  -9   25.45    0.51
   0  -3  -9   25.21    0.51
  -1  -3  -9   14.36    0.36
  -1  -3  -9   13.93    0.35
  -2  -3  -9   10.59    0.30
  -2  -3  -9   10.98    0.30
  -3  -3  -9    0.21    0.10
  -3  -3  -9    0.23    0.09
   4  -3   9    4.59    0.21
   4  -3   9    4.44    0.20
  -4  -3  -9    4.21    0.22
   4  -3   9    4.27    0.18
   4  -3   9    4.55    0.19
  -4  -3  -9    4.49    0.22
   5  -3   9    0.17    0.08
   5  -3   9    0.23    0.08
  -5  -3  -9    0.08    0.10
  -5  -3  -9    0.14    0.10
   5  -3   9    0.37    0.09
   5  -3   9    0.45    0.10
   5   3   9    0.24    0.11
   5   3   9    0.31    0.12
   6  -3   9    2.87    0.18
   6  -3   9    2.46    0.17
   6  -3   9    2.73    0.18
   6  -3   9    2.67    0.18
   6   3   9    2.55    0.21
   6   3   9    2.75    0.22
   7  -3   9    2.03    0.20
   7  -3   9    1.95    0.19
   7  -3   9    2.23    0.21
   7  -3   9    2.15    0.21
   7   3   9    1.55    0.19
   7   3   9    1.79    0.20
   6  -4  -9    0.25    0.15
   6  -4  -9    0.29    0.13
   6  -4  -9    0.25    0.14
   6  -4  -9    0.28    0.14
   5  -4  -9    2.45    0.23
   5  -4  -9    2.56    0.24
   5  -4  -9    2.07    0.22
   5  -4  -9    2.48    0.23
   4  -4  -9    0.38    0.13
   4  -4  -9    0.12    0.10
   4  -4  -9    0.03    0.11
   4  -4  -9    0.05    0.10
   4  -4  -9    0.11    0.12
   3  -4  -9    3.79    0.22
   3  -4  -9    3.36    0.22
   3  -4  -9    3.18    0.21
   3  -4  -9    3.58    0.22
   3  -4  -9    3.28    0.22
   2  -4  -9    4.09    0.24
   2  -4  -9    4.11    0.23
   2  -4  -9    4.00    0.23
   1  -4  -9    3.99    0.23
   1  -4  -9    4.03    0.22
   1  -4  -9    3.51    0.22
  -1  -4  -9    0.04    0.10
  -1  -4  -9    0.00    0.09
  -2  -4  -9    0.28    0.12
  -2  -4  -9    0.28    0.11
  -3  -4  -9    5.04    0.25
  -3  -4  -9    5.40    0.26
  -4  -4  -9    0.29    0.13
  -4  -4  -9    0.31    0.13
  -5  -4  -9    1.72    0.21
  -5  -4  -9    2.11    0.23
   5   4   9    2.08    0.21
   5   4   9    1.76    0.20
   2  -5  -9    0.27    0.14
   2  -5  -9    0.20    0.13
   1  -5  -9    0.69    0.17
   1  -5  -9    0.87    0.16
   0  -5  -9    2.57    0.25
   0  -5  -9    2.56    0.24
  -1  -5  -9    0.03    0.12
  -1  -5  -9   -0.08    0.11
   9   0 -10    0.14    0.11
   9   0 -10    0.16    0.11
   9   0 -10    0.04    0.10
   9   0 -10    0.10    0.10
   9   0 -10   -0.06    0.09
   8   0 -10    0.57    0.12
   8   0 -10    0.46    0.11
   8   0 -10    0.82    0.13
   8   0 -10    0.70    0.13
   8   0 -10    0.60    0.12
   7   0 -10    0.04    0.07
   7   0 -10    0.17    0.09
   7   0 -10    0.13    0.08
   7   0 -10   -0.08    0.07
   7   0 -10   -0.02    0.07
   6   0 -10   46.04    0.78
   6   0 -10   46.33    0.78
   6   0 -10   46.86    0.78
   6   0 -10   46.85    0.78
   6   0 -10   46.15    0.78
   5   0 -10    0.40    0.08
   5   0 -10    0.35    0.08
   5   0 -10    0.45    0.08
   5   0 -10    0.30    0.08
   5   0 -10    0.39    0.08
   4   0 -10   16.00    0.31
   4   0 -10   15.97    0.32
   4   0 -10   15.69    0.32
   4   0 -10   16.06    0.32
   4   0 -10   16.21    0.32
   3   0 -10    0.07    0.04
   3   0 -10    0.14    0.04
   3   0 -10    0.11    0.04
   3   0 -10    0.08    0.04
   3   0 -10    0.10    0.04
   2   0 -10  462.68    6.16
   2   0 -10  460.18    6.10
   2   0 -10  461.90    6.16
   2   0 -10  461.89    6.11
   2   0 -10  459.85    6.13
   1   0 -10    0.00    0.03
   1   0 -10    0.00    0.03
   1   0 -10   -0.02    0.03
   1   0 -10   -0.05    0.03
   1   0 -10    0.05    0.03
   0   0 -10  129.60    1.74
   0   0 -10  130.57    1.74
  -1   0 -10   -0.02    0.02
  -1   0 -10    0.03    0.03
   2   0  10    3.94    0.12
   2   0  10    4.04    0.12
   3   0  10    0.08    0.04
   3   0  10    0.05    0.04
   4   0  10    1.40    0.10
   4   0  10    1.19    0.09
   5   0  10    0.09    0.07
   5   0  10    0.05    0.07
   7   0  10   -0.09    0.08
   7   0  10    0.05    0.09
   7   0  10    0.02    0.08
   7   0  10    0.03    0.09
   8   0  10    1.28    0.17
   8   0  10    1.62    0.19
   8   0  10    1.68    0.19
   8   0  10    1.55    0.18
   8   0  10    1.69    0.18
   9   0  10    0.04    0.12
   9   0  10    0.03    0.11
   9   0  10   -0.39    0.09
   9   0  10    0.24    0.13
   9  -1 -10    0.99    0.17
   9  -1 -10    0.93    0.16
   9  -1 -10    0.88    0.16
   9  -1 -10    0.84    0.15
   9   1 -10    0.66    0.13
   9   1 -10    0.92    0.15
   9   1 -10    0.91    0.15
   9   1 -10    0.69    0.13
   9   1 -10    0.85    0.14
   8  -1 -10    0.11    0.09
   8  -1 -10   -0.04    0.10
   8  -1 -10    0.08    0.10
   8  -1 -10    0.07    0.10
   8  -1 -10    0.11    0.10
   8   1 -10    0.23    0.09
   8   1 -10    0.16    0.09
   8   1 -10    0.20    0.10
   8   1 -10    0.03    0.09
   8   1 -10    0.24    0.10
   7  -1 -10    1.34    0.15
   7  -1 -10    1.22    0.14
   7  -1 -10    1.29    0.14
   7  -1 -10    1.49    0.16
   7  -1 -10    1.34    0.15
   7   1 -10    1.61    0.14
   7   1 -10    1.50    0.14
   7   1 -10    1.38    0.14
   7   1 -10    1.46    0.14
   7   1 -10    1.25    0.13
   6  -1 -10    0.18    0.09
   6  -1 -10    0.27    0.09
   6  -1 -10    0.08    0.08
   6  -1 -10    0.23    0.09
   6  -1 -10    0.16    0.08
   6   1 -10    0.23    0.08
   6   1 -10    0.24    0.07
   6   1 -10    0.26    0.07
   6   1 -10    0.06    0.06
   6   1 -10    0.10    0.07
   5  -1 -10   55.27    0.89
   5  -1 -10   55.14    0.89
   5  -1 -10   54.88    0.90
   5  -1 -10   55.58    0.90
   5  -1 -10   54.55    0.89
   5   1 -10   54.88    0.86
   5   1 -10   56.04    0.86
   5   1 -10   54.83    0.85
   5   1 -10   55.63    0.86
   5   1 -10   56.29    0.86
   4  -1 -10    0.45    0.08
   4  -1 -10    0.30    0.08
   4  -1 -10    0.43    0.08
   4  -1 -10    0.24    0.07
   4  -1 -10    0.33    0.08
   4   1 -10    0.26    0.06
   4   1 -10    0.21    0.05
   4   1 -10    0.31    0.06
   4   1 -10    0.32    0.06
   4   1 -10    0.32    0.06
   3  -1 -10  166.28    2.28
   3  -1 -10  164.62    2.28
   3  -1 -10  165.56    2.28
   3  -1 -10  165.26    2.28
   3  -1 -10  163.35    2.28
   3   1 -10  163.41    2.22
   3   1 -10  165.81    2.22
   3   1 -10  167.01    2.22
   3   1 -10  164.50    2.22
   3   1 -10  164.82    2.22
   2  -1 -10   47.73    0.74
   2  -1 -10   48.82    0.74
   2  -1 -10   49.06    0.75
   2  -1 -10   48.88    0.75
   2  -1 -10   49.89    0.75
   2   1 -10   48.09    0.67
   2   1 -10   48.78    0.67
   2   1 -10   48.14    0.67
   1  -1 -10    5.45    0.15
   1  -1 -10    5.30    0.15
   1  -1 -10    5.21    0.15
   1  -1 -10    5.00    0.14
   1  -1 -10    5.03    0.15
   0  -1 -10    1.30    0.08
   0  -1 -10    1.34    0.08
   0  -1 -10    1.18    0.08
  -1  -1 -10   15.08    0.29
   1  -1  10   15.31    0.24
  -1  -1 -10   14.93    0.29
   1  -1  10   15.25    0.23
   1  -1  10   15.35    0.24
  -2  -1 -10    7.43    0.19
   2  -1  10    7.41    0.16
  -2  -1 -10    7.35    0.19
   2  -1  10    7.61    0.16
   2  -1  10    7.48    0.16
   2  -1  10    7.52    0.16
   2  -1  10    7.45    0.16
  -3  -1 -10   17.52    0.35
   3  -1  10   17.53    0.32
   3  -1  10   17.26    0.32
   3  -1  10   17.81    0.33
  -3  -1 -10   17.43    0.35
   3  -1  10   17.63    0.32
   3  -1  10   17.57    0.32
   4  -1  10    0.08    0.05
   4  -1  10    0.02    0.05
   4  -1  10    0.05    0.05
   4  -1  10    0.06    0.06
   4  -1  10    0.08    0.05
   4   1  10    0.08    0.06
   4   1  10    0.02    0.06
   5   1  10    0.36    0.09
   5   1  10    0.24    0.09
   6  -1  10    5.12    0.21
   6  -1  10    5.29    0.21
   6  -1  10    5.39    0.22
   6  -1  10    4.87    0.21
   6  -1  10    5.49    0.21
   6   1  10    5.00    0.22
   6   1  10    4.85    0.22
   7  -1  10    1.43    0.16
   7  -1  10    1.80    0.17
   7  -1  10    1.68    0.16
   7  -1  10    1.67    0.16
   7  -1  10    1.83    0.17
   7   1  10    1.64    0.17
   7   1  10    1.95    0.18
   8  -1  10    0.20    0.11
   8  -1  10    0.17    0.11
   8  -1  10    0.14    0.11
   8  -1  10   -0.01    0.09
   8  -1  10    0.14    0.11
   8   1  10    0.17    0.11
   8   1  10    0.07    0.11
   9  -1  10   -0.02    0.12
   9  -1  10   -0.12    0.10
   9  -1  10   -0.15    0.10
   9  -1  10    0.26    0.13
   9   1  10    0.24    0.13
   9   1  10    0.13    0.12
   9   1  10   -0.05    0.11
   9   1  10    0.31    0.13
   8  -2 -10    2.08    0.21
   8  -2 -10    1.71    0.20
   8  -2 -10    2.11    0.21
   8  -2 -10    1.68    0.20
   7  -2 -10    1.27    0.16
   7  -2 -10    1.51    0.17
   7  -2 -10    1.07    0.15
   7  -2 -10    0.95    0.15
   7  -2 -10    1.20    0.16
   7   2 -10    1.03    0.13
   7   2 -10    1.17    0.14
   7   2 -10    0.95    0.12
   7   2 -10    1.11    0.13
   6  -2 -10   14.89    0.39
   6  -2 -10   14.76    0.39
   6  -2 -10   14.23    0.39
   6  -2 -10   14.84    0.39
   6  -2 -10   14.91    0.40
   6   2 -10   14.12    0.34
   6   2 -10   14.93    0.34
   6   2 -10   14.80    0.35
   6   2 -10   14.89    0.34
   6   2 -10   14.75    0.34
   5  -2 -10    6.79    0.25
   5  -2 -10    6.10    0.24
   5  -2 -10    6.24    0.23
   5  -2 -10    6.42    0.24
   5  -2 -10    6.47    0.24
   5   2 -10    6.30    0.20
   5   2 -10    6.47    0.20
   5   2 -10    6.41    0.20
   5   2 -10    5.99    0.19
   4  -2 -10   11.71    0.31
   4  -2 -10   11.46    0.31
   4  -2 -10   11.67    0.31
   4  -2 -10   11.62    0.31
   4  -2 -10   11.50    0.31
   4   2 -10   11.46    0.25
   4   2 -10   11.68    0.25
   4   2 -10   11.51    0.25
   4   2 -10   11.41    0.25
   3  -2 -10   36.86    0.64
   3  -2 -10   36.45    0.64
   3  -2 -10   35.29    0.64
   3  -2 -10   35.59    0.64
   3  -2 -10   36.43    0.64
   3   2 -10   36.02    0.57
   3   2 -10   35.89    0.56
   2  -2 -10   22.98    0.45
   2  -2 -10   23.20    0.44
   2  -2 -10   22.90    0.44
   2  -2 -10   23.20    0.45
   2  -2 -10   23.14    0.45
   1  -2 -10   10.31    0.26
   1  -2 -10   10.26    0.26
   1  -2 -10   10.43    0.26
   0  -2  10   15.41    0.23
   0  -2 -10   15.20    0.33
   0  -2  10   15.71    0.23
   0  -2 -10   15.16    0.33
   0  -2 -10   15.37    0.34
  -1  -2 -10    3.73    0.15
   1  -2  10    3.79    0.10
   1  -2  10    3.59    0.09
   1  -2  10    3.70    0.10
  -1  -2 -10    3.66    0.15
   1  -2  10    3.59    0.10
   1  -2  10    3.68    0.09
   2  -2  10   14.60    0.27
   2  -2  10   14.83    0.27
  -2  -2 -10   14.83    0.33
  -2  -2 -10   14.54    0.33
   2  -2  10   14.41    0.27
   2  -2  10   14.75    0.27
   2  -2  10   14.70    0.26
   3  -2  10    1.70    0.10
  -3  -2 -10    1.78    0.13
   3  -2  10    1.86    0.10
   3  -2  10    1.75    0.10
   3  -2  10    1.87    0.10
   3  -2  10    1.59    0.10
  -3  -2 -10    1.83    0.13
   4  -2  10    6.64    0.20
   4  -2  10    6.71    0.20
   4  -2  10    7.10    0.21
   4  -2  10    6.68    0.20
   4  -2  10    6.86    0.21
  -4  -2 -10    6.79    0.24
  -4  -2 -10    7.06    0.24
   5  -2  10    0.44    0.10
   5  -2  10    0.27    0.08
   5  -2  10    0.26    0.08
   5  -2  10    0.35    0.09
   5  -2  10    0.40    0.09
   5   2  10    0.40    0.10
   5   2  10    0.24    0.09
   6  -2  10    3.38    0.19
   6  -2  10    3.89    0.19
   6  -2  10    3.59    0.19
   6  -2  10    3.42    0.18
   6  -2  10    3.44    0.19
   6   2  10    3.47    0.20
   6   2  10    3.48    0.20
   7  -2  10    0.97    0.14
   7  -2  10    0.85    0.13
   7  -2  10    0.85    0.14
   7  -2  10    0.88    0.14
   7  -2  10    0.74    0.13
   7   2  10    0.71    0.14
   7   2  10    0.59    0.13
   8  -2  10    0.31    0.13
   8  -2  10    0.22    0.12
   8  -2  10    0.23    0.12
   8  -2  10    0.53    0.14
   8  -2  10    0.04    0.11
   8   2  10    0.33    0.12
   8   2  10    0.11    0.12
   7  -3 -10    0.19    0.13
   7  -3 -10    0.28    0.12
   7  -3 -10    0.20    0.12
   7  -3 -10    0.29    0.13
   6  -3 -10    3.14    0.23
   6  -3 -10    3.43    0.22
   6  -3 -10    3.31    0.23
   6  -3 -10    3.06    0.22
   6  -3 -10    3.23    0.23
   5  -3 -10    8.66    0.31
   5  -3 -10    8.28    0.30
   5  -3 -10    8.03    0.30
   5  -3 -10    8.75    0.31
   5  -3 -10    8.51    0.31
   4  -3 -10    0.34    0.10
   4  -3 -10    0.42    0.11
   4  -3 -10    0.56    0.12
   4  -3 -10    0.53    0.12
   4  -3 -10    0.42    0.11
   3  -3 -10    0.71    0.12
   3  -3 -10    0.72    0.11
   3  -3 -10    0.63    0.11
   3  -3 -10    0.60    0.11
   3  -3 -10    0.60    0.11
   2  -3 -10   20.59    0.45
   2  -3 -10   21.69    0.47
   2  -3 -10   21.87    0.47
   2  -3 -10   21.72    0.47
   2  -3 -10   20.25    0.46
   1  -3 -10   -0.15    0.07
   1  -3 -10    0.01    0.08
   1  -3 -10    0.00    0.09
   0  -3 -10    2.71    0.17
   0  -3 -10    2.37    0.16
  -2  -3 -10    1.58    0.15
  -2  -3 -10    1.65    0.15
  -3  -3 -10   11.21    0.33
  -3  -3 -10   11.47    0.33
  -4  -3 -10    7.12    0.28
  -4  -3 -10    7.33    0.28
  -5  -3 -10    0.54    0.13
  -5  -3 -10    0.42    0.12
   5   3  10    0.37    0.12
   5   3  10    0.57    0.13
   6   3  10    0.20    0.12
   6   3  10    0.01    0.10
   7   3  10    0.82    0.15
   7   3  10    0.76    0.16
   6  -4 -10    0.50    0.15
   6  -4 -10    0.10    0.13
   6  -4 -10    0.04    0.12
   6  -4 -10    0.05    0.12
   5  -4 -10    1.65    0.21
   5  -4 -10    1.51    0.20
   5  -4 -10    2.16    0.23
   5  -4 -10    2.02    0.22
   4  -4 -10    0.11    0.11
   4  -4 -10    0.01    0.11
   4  -4 -10   -0.04    0.10
   4  -4 -10    0.17    0.11
   4  -4 -10    0.15    0.11
   3  -4 -10    3.76    0.23
   3  -4 -10    3.31    0.22
   3  -4 -10    3.51    0.23
   2  -4 -10    0.67    0.14
   2  -4 -10    0.93    0.15
   2  -4 -10    0.62    0.13
   1  -4 -10    2.20    0.20
   1  -4 -10    2.38    0.21
   1  -4 -10    2.40    0.20
   0  -4 -10    2.23    0.21
   0  -4 -10    2.54    0.22
  -1  -4 -10    0.12    0.10
  -1  -4 -10   -0.12    0.08
  -2  -4 -10    1.09    0.16
  -2  -4 -10    1.20    0.16
  -3  -4 -10    6.70    0.29
  -3  -4 -10    7.20    0.30
  -4  -4 -10    0.82    0.16
  -4  -4 -10    0.87    0.17
  -5  -4 -10    0.26    0.14
  -5  -4 -10    0.45    0.15
   5   4  10    0.25    0.13
   5   4  10    0.32    0.14
   1  -5 -10    0.16    0.13
   1  -5 -10   -0.22    0.10
   0  -5 -10    0.01    0.11
   0  -5 -10    0.09    0.12
  -1  -5 -10    1.57    0.21
  -1  -5 -10    1.60    0.21
   9   0 -11    2.70    0.22
   9   0 -11    2.60    0.22
   9   0 -11    2.41    0.23
   9   0 -11    2.19    0.21
   9   0 -11    2.61    0.23
   8   0 -11   -0.01    0.09
   8   0 -11   -0.02    0.08
   8   0 -11    0.10    0.08
   8   0 -11   -0.04    0.08
   8   0 -11    0.01    0.08
   7   0 -11    2.18    0.16
   7   0 -11    1.94    0.15
   7   0 -11    1.87    0.15
   7   0 -11    2.18    0.16
   7   0 -11    2.15    0.16
   6   0 -11    0.14    0.07
   6   0 -11    0.10    0.07
   6   0 -11    0.11    0.07
   6   0 -11    0.16    0.07
   6   0 -11    0.24    0.08
   5   0 -11  211.59    2.91
   5   0 -11  208.33    2.90
   5   0 -11  209.88    2.91
   5   0 -11  214.78    2.91
   5   0 -11  211.75    2.91
   4   0 -11    0.03    0.05
   4   0 -11   -0.04    0.04
   4   0 -11   -0.02    0.05
   4   0 -11    0.05    0.05
   4   0 -11   -0.08    0.04
   3   0 -11  149.72    2.06
   3   0 -11  152.15    2.06
   3   0 -11  150.82    2.06
   3   0 -11  151.93    2.06
   3   0 -11  150.67    2.06
   2   0 -11    0.09    0.04
   2   0 -11    0.01    0.03
   2   0 -11    0.06    0.03
   2   0 -11    0.01    0.03
   2   0 -11    0.06    0.04
   1   0 -11   31.44    0.47
   1   0 -11   32.65    0.48
   1   0 -11   31.35    0.48
   1   0 -11   32.41    0.48
   1   0 -11   32.07    0.48
   0   0  11    0.05    0.04
   0   0 -11    0.15    0.05
  -1   0 -11  115.03    1.56
  -1   0 -11  114.19    1.56
   2   0  11   -0.02    0.03
   2   0  11    0.01    0.03
   3   0  11    0.17    0.08
   4   0  11    0.00    0.05
   4   0  11   -0.06    0.04
   5   0  11    1.90    0.13
   5   0  11    1.78    0.13
   6   0  11   -0.07    0.07
   6   0  11    0.01    0.08
   6   0  11    0.01    0.07
   6   0  11    0.03    0.07
   7   0  11    1.47    0.16
   7   0  11    1.46    0.16
   7   0  11    1.64    0.16
   7   0  11    2.21    0.17
   8   0  11   -0.08    0.09
   8   0  11   -0.04    0.10
   8   0  11   -0.09    0.10
   8   0  11    0.03    0.11
   8   0  11    0.08    0.11
   9   0  11    3.11    0.24
   9   0  11    3.48    0.26
   9   0  11    3.35    0.27
   9   0  11    3.58    0.25
   9  -1 -11    0.05    0.11
   9  -1 -11    0.03    0.10
   9  -1 -11    0.18    0.12
   9  -1 -11    0.08    0.12
   9   1 -11   -0.08    0.08
   9   1 -11    0.12    0.10
   9   1 -11   -0.10    0.09
   9   1 -11    0.07    0.10
   9   1 -11   -0.04    0.09
   8  -1 -11   12.37    0.38
   8  -1 -11   13.11    0.39
   8  -1 -11   13.14    0.39
   8  -1 -11   12.33    0.38
   8  -1 -11   13.10    0.39
   8   1 -11   12.73    0.36
   8   1 -11   12.77    0.36
   8   1 -11   13.15    0.36
   8   1 -11   13.07    0.37
   8   1 -11   12.60    0.37
   7  -1 -11    0.28    0.11
   7  -1 -11    0.13    0.09
   7  -1 -11    0.22    0.09
   7  -1 -11    0.21    0.09
   7  -1 -11    0.28    0.10
   7   1 -11    0.18    0.08
   7   1 -11    0.25    0.08
   7   1 -11    0.23    0.08
   7   1 -11    0.19    0.08
   7   1 -11    0.26    0.08
   6  -1 -11   40.28    0.73
   6  -1 -11   40.83    0.74
   6  -1 -11   40.92    0.73
   6  -1 -11   40.78    0.73
   6  -1 -11   40.37    0.73
   6   1 -11   41.49    0.70
   6   1 -11   40.26    0.70
   6   1 -11   41.45    0.70
   6   1 -11   40.84    0.70
   6   1 -11   41.03    0.69
   5  -1 -11    1.47    0.14
   5  -1 -11    1.36    0.13
   5  -1 -11    1.81    0.14
   5  -1 -11    1.73    0.14
   5  -1 -11    1.30    0.12
   5   1 -11    1.61    0.11
   5   1 -11    1.68    0.11
   5   1 -11    1.69    0.11
   5   1 -11    1.57    0.11
   5   1 -11    1.59    0.11
   4  -1 -11    5.18    0.18
   4  -1 -11    5.27    0.18
   4  -1 -11    5.50    0.19
   4  -1 -11    5.13    0.18
   4  -1 -11    5.47    0.19
   4   1 -11    5.41    0.16
   4   1 -11    5.32    0.15
   4   1 -11    5.30    0.16
   4   1 -11    5.15    0.15
   4   1 -11    5.38    0.15
   3  -1 -11    2.51    0.12
   3  -1 -11    2.35    0.12
   3  -1 -11    2.45    0.12
   3  -1 -11    2.44    0.12
   3  -1 -11    2.42    0.12
   3   1 -11    2.48    0.09
   3   1 -11    2.38    0.09
   3   1 -11    2.36    0.09
   3   1 -11    2.61    0.09
   3   1 -11    2.26    0.09
   2  -1 -11  135.00    1.90
   2  -1 -11  136.01    1.90
   2  -1 -11  139.11    1.91
   2  -1 -11  137.71    1.90
   2  -1 -11  135.20    1.90
   2   1 -11  137.03    1.82
   2   1 -11  138.01    1.82
   2   1 -11  138.56    1.82
   1  -1 -11   43.31    0.67
   1  -1 -11   43.96    0.67
   1  -1 -11   44.24    0.67
   1  -1 -11   42.54    0.67
   1  -1 -11   42.53    0.67
   0  -1 -11  215.95    2.93
   0  -1 -11  218.45    2.93
   1  -1  11   11.60    0.19
   1  -1  11   11.72    0.19
   1  -1  11   11.69    0.19
  -1  -1 -11   11.54    0.24
  -1  -1 -11   11.52    0.25
  -2  -1 -11    7.41    0.19
  -2  -1 -11    7.56    0.20
   3  -1  11    0.55    0.06
   3  -1  11    0.57    0.07
   3  -1  11    0.55    0.06
  -3  -1 -11    0.67    0.09
   3  -1  11    0.45    0.06
   3  -1  11    0.49    0.06
  -3  -1 -11    0.53    0.08
   4  -1  11    1.50    0.10
   4  -1  11    1.61    0.10
   4  -1  11    1.66    0.10
   4  -1  11    1.54    0.11
   4  -1  11    1.60    0.10
   4   1  11    1.59    0.12
   4   1  11    1.57    0.12
   5  -1  11    6.42    0.22
   5  -1  11    6.62    0.21
   5  -1  11    6.52    0.21
   5  -1  11    6.39    0.21
   5  -1  11    6.82    0.22
   5   1  11    6.37    0.22
   5   1  11    6.63    0.23
   6  -1  11    0.24    0.08
   6  -1  11    0.14    0.08
   6  -1  11    0.18    0.09
   6  -1  11    0.06    0.08
   6  -1  11    0.25    0.08
   6   1  11    0.17    0.09
   6   1  11    0.18    0.09
   7  -1  11   -0.02    0.09
   7  -1  11   -0.06    0.09
   7  -1  11    0.02    0.09
   7  -1  11    0.24    0.10
   7  -1  11   -0.02    0.08
   7   1  11    0.07    0.10
   7   1  11   -0.01    0.08
   8  -1  11    2.91    0.22
   8  -1  11    2.69    0.20
   8  -1  11    2.83    0.21
   8  -1  11    3.20    0.21
   8  -1  11    2.73    0.21
   8   1  11    3.08    0.23
   8   1  11    3.02    0.22
   8  -2 -11   -0.10    0.10
   8  -2 -11   -0.06    0.11
   8  -2 -11    0.06    0.11
   8  -2 -11   -0.10    0.10
   7  -2 -11    1.91    0.20
   7  -2 -11    1.52    0.17
   7  -2 -11    1.78    0.18
   7  -2 -11    1.89    0.19
   7  -2 -11    1.52    0.17
   6  -2 -11    0.56    0.12
   6  -2 -11    0.50    0.11
   6  -2 -11    0.68    0.12
   6  -2 -11    0.67    0.12
   6  -2 -11    0.53    0.12
   5  -2 -11   13.90    0.37
   5  -2 -11   14.31    0.37
   5  -2 -11   14.25    0.37
   5  -2 -11   14.53    0.37
   5  -2 -11   14.03    0.36
   4  -2 -11   13.57    0.34
   4  -2 -11   13.24    0.34
   4  -2 -11   13.60    0.34
   4  -2 -11   13.55    0.34
   4  -2 -11   14.00    0.35
   4   2 -11   13.07    0.35
   3  -2 -11   67.43    1.05
   3  -2 -11   66.29    1.05
   3  -2 -11   66.31    1.05
   3  -2 -11   67.08    1.05
   3  -2 -11   66.55    1.05
   2  -2 -11    3.93    0.17
   2  -2 -11    3.81    0.16
   2  -2 -11    4.03    0.17
   2  -2 -11    4.33    0.17
   2  -2 -11    4.06    0.17
   1  -2 -11    1.87    0.12
   1  -2 -11    1.75    0.12
   1  -2 -11    1.79    0.12
   0  -2 -11    1.76    0.12
   0  -2 -11    1.62    0.11
   0  -2 -11    1.69    0.11
  -1  -2 -11   79.17    1.19
   1  -2  11   78.64    1.08
  -1  -2 -11   80.15    1.19
   2  -2  11    1.59    0.08
   2  -2  11    1.62    0.08
  -2  -2 -11    1.51    0.12
   2  -2  11    1.73    0.08
   2  -2  11    1.63    0.08
   2  -2  11    1.51    0.08
  -2  -2 -11    1.52    0.13
  -3  -2 -11   14.70    0.34
   3  -2  11   14.20    0.29
   3  -2  11   14.33    0.29
   3  -2  11   14.25    0.29
  -3  -2 -11   14.54    0.35
   3  -2  11   14.85    0.29
   3  -2  11   14.35    0.29
  -4  -2 -11    0.33    0.09
   4  -2  11    0.16    0.07
   4  -2  11    0.23    0.07
   4  -2  11    0.25    0.07
   4  -2  11    0.31    0.07
   4  -2  11    0.19    0.07
  -4  -2 -11    0.26    0.09
   5  -2  11    0.42    0.09
   5  -2  11    0.58    0.10
   5  -2  11    0.56    0.10
   5  -2  11    0.36    0.09
   5  -2  11    0.38    0.09
   5   2  11    0.43    0.11
   5   2  11    0.48    0.10
   6  -2  11    2.74    0.17
   6  -2  11    2.83    0.17
   6  -2  11    2.72    0.17
   6  -2  11    2.51    0.17
   6  -2  11    2.84    0.17
   6   2  11    2.70    0.18
   6   2  11    2.90    0.19
   7  -2  11    0.16    0.10
   7  -2  11    0.34    0.12
   7  -2  11    0.29    0.11
   7  -2  11    0.28    0.10
   7  -2  11    0.19    0.10
   7   2  11    0.52    0.13
   7   2  11    0.27    0.11
   8  -2  11    0.08    0.11
   8  -2  11    0.32    0.13
   8  -2  11    0.28    0.13
   8  -2  11    0.16    0.12
   8  -2  11    0.17    0.11
   8   2  11    0.12    0.11
   8   2  11   -0.02    0.10
   7  -3 -11    0.30    0.13
   7  -3 -11    0.39    0.14
   7  -3 -11    0.58    0.15
   7  -3 -11    0.28    0.13
   6  -3 -11    0.66    0.14
   6  -3 -11    0.44    0.12
   6  -3 -11    0.57    0.13
   6  -3 -11    0.77    0.14
   6  -3 -11    0.41    0.13
   5  -3 -11    0.33    0.11
   5  -3 -11    0.33    0.12
   5  -3 -11    0.32    0.11
   5  -3 -11    0.30    0.11
   5  -3 -11    0.45    0.12
   4  -3 -11    0.97    0.14
   4  -3 -11    1.26    0.16
   4  -3 -11    1.14    0.15
   4  -3 -11    1.01    0.15
   4  -3 -11    1.10    0.15
   3  -3 -11    9.25    0.30
   3  -3 -11    9.62    0.31
   3  -3 -11    9.26    0.30
   3  -3 -11    9.58    0.30
   3  -3 -11    9.21    0.29
   2  -3 -11   26.53    0.54
   2  -3 -11   26.22    0.54
   2  -3 -11   27.35    0.56
   1  -3 -11    1.59    0.16
   1  -3 -11    1.39    0.15
   1  -3 -11    1.80    0.17
   0  -3 -11   12.41    0.33
   0  -3 -11   11.71    0.33
  -1  -3 -11    0.46    0.11
  -1  -3 -11    0.53    0.11
  -2  -3 -11    0.26    0.08
  -2  -3 -11    0.31    0.09
  -3  -3 -11    8.87    0.30
  -3  -3 -11    9.74    0.30
  -4  -3 -11    9.98    0.33
  -4  -3 -11   10.25    0.33
  -5  -3 -11    0.25    0.12
  -5  -3 -11    0.26    0.12
   5   3  11    0.12    0.11
   5   3  11    0.44    0.13
   6   3  11    1.43    0.18
   6   3  11    1.21    0.18
   7   3  11    0.18    0.12
   7   3  11   -0.09    0.12
   5  -4 -11    1.50    0.20
   5  -4 -11    1.12    0.18
   5  -4 -11    1.13    0.18
   5  -4 -11    1.23    0.19
   4  -4 -11    0.96    0.17
   4  -4 -11    0.89    0.16
   4  -4 -11    1.23    0.18
   4  -4 -11    1.06    0.17
   3  -4 -11    1.29    0.17
   3  -4 -11    1.28    0.16
   3  -4 -11    1.18    0.16
   2  -4 -11    1.52    0.18
   2  -4 -11    2.04    0.20
   2  -4 -11    1.95    0.20
   1  -4 -11    3.44    0.22
   1  -4 -11    3.93    0.23
   1  -4 -11    3.42    0.22
   0  -4 -11    0.02    0.10
   0  -4 -11    0.00    0.10
  -1  -4 -11    2.08    0.20
  -1  -4 -11    1.87    0.19
  -2  -4 -11    1.22    0.16
  -2  -4 -11    0.97    0.16
  -3  -4 -11    5.30    0.27
  -3  -4 -11    6.00    0.28
  -4  -4 -11    5.95    0.30
  -4  -4 -11    5.59    0.29
  -5  -4 -11    1.15    0.18
  -5  -4 -11    1.21    0.18
   5   4  11    1.02    0.17
   5   4  11    0.51    0.15
   9   0 -12    0.14    0.11
   9   0 -12    0.02    0.11
   9   0 -12   -0.22    0.09
   9   0 -12    0.01    0.11
   9   0 -12   -0.04    0.09
   8   0 -12    9.73    0.32
   8   0 -12    9.08    0.31
   8   0 -12    9.27    0.32
   8   0 -12    9.65    0.32
   8   0 -12    9.18    0.31
   7   0 -12   -0.01    0.07
   7   0 -12    0.12    0.09
   7   0 -12    0.12    0.08
   7   0 -12    0.09    0.08
   7   0 -12    0.06    0.08
   6   0 -12    5.08    0.20
   6   0 -12    5.08    0.19
   6   0 -12    4.97    0.20
   6   0 -12    5.07    0.20
   6   0 -12    5.42    0.20
   5   0 -12    0.35    0.09
   5   0 -12    0.43    0.09
   4   0 -12    7.91    0.21
   4   0 -12    7.30    0.20
   4   0 -12    7.60    0.20
   4   0 -12    7.96    0.21
   4   0 -12    8.18    0.21
   3   0 -12    0.05    0.04
   3   0 -12    0.03    0.04
   3   0 -12    0.04    0.04
   3   0 -12   -0.01    0.04
   3   0 -12    0.04    0.04
   2   0 -12  128.87    1.78
   2   0 -12  130.06    1.78
   2   0 -12  130.80    1.78
   2   0 -12  132.24    1.78
   2   0 -12  131.15    1.78
   1   0 -12    0.01    0.03
   1   0 -12    0.01    0.03
   1   0 -12    0.02    0.03
   0   0 -12   33.87    0.50
   0   0 -12   33.41    0.50
  -1   0 -12   -0.01    0.02
  -1   0 -12    0.00    0.03
   2   0  12    4.33    0.13
   2   0  12    4.17    0.13
   3   0  12    0.08    0.05
   3   0  12    0.03    0.05
   4   0  12    5.10    0.18
   4   0  12    5.25    0.18
   5   0  12   -0.03    0.07
   5   0  12   -0.04    0.06
   6   0  12    0.48    0.11
   6   0  12    0.71    0.11
   6   0  12    0.50    0.10
   6   0  12    0.30    0.10
   7   0  12    0.15    0.10
   7   0  12    0.02    0.09
   7   0  12    0.05    0.09
   7   0  12   -0.18    0.08
   8   0  12    0.11    0.11
   8   0  12    0.32    0.12
   8   0  12    0.11    0.11
   8   0  12    0.06    0.12
   8   0  12    0.31    0.13
   9  -1 -12    0.31    0.13
   9  -1 -12    0.56    0.14
   9  -1 -12    0.57    0.15
   9  -1 -12    0.56    0.14
   9   1 -12    0.50    0.12
   9   1 -12    0.50    0.13
   9   1 -12    0.63    0.14
   9   1 -12    0.77    0.14
   8  -1 -12    0.83    0.14
   8  -1 -12    0.68    0.13
   8  -1 -12    0.71    0.14
   8  -1 -12    0.64    0.14
   8  -1 -12    1.00    0.15
   8   1 -12    0.85    0.13
   8   1 -12    0.73    0.12
   8   1 -12    0.76    0.13
   8   1 -12    1.00    0.14
   8   1 -12    1.12    0.14
   7  -1 -12   10.02    0.32
   7  -1 -12   10.38    0.32
   7  -1 -12   10.47    0.32
   7  -1 -12   10.15    0.32
   7  -1 -12   10.17    0.32
   7   1 -12   10.44    0.30
   7   1 -12   10.15    0.29
   7   1 -12   10.13    0.29
   7   1 -12   10.79    0.30
   7   1 -12    9.93    0.29
   6  -1 -12    2.37    0.16
   6  -1 -12    2.64    0.17
   6  -1 -12    2.53    0.17
   6  -1 -12    2.24    0.16
   6  -1 -12    2.49    0.17
   6   1 -12    2.26    0.14
   6   1 -12    2.33    0.14
   6   1 -12    2.27    0.14
   6   1 -12    2.37    0.14
   6   1 -12    2.39    0.14
   5  -1 -12    9.21    0.27
   5  -1 -12    9.56    0.27
   5  -1 -12    9.71    0.28
   5  -1 -12    9.48    0.27
   5  -1 -12    9.55    0.27
   5   1 -12    9.50    0.24
   5   1 -12    9.56    0.24
   5   1 -12   10.03    0.24
   5   1 -12    9.91    0.24
   5   1 -12    9.83    0.24
   4  -1 -12   42.17    0.70
   4  -1 -12   42.21    0.71
   4  -1 -12   41.76    0.71
   4  -1 -12   42.35    0.70
   4  -1 -12   42.23    0.70
   4   1 -12   42.37    0.65
   4   1 -12   41.47    0.65
   4   1 -12   42.49    0.65
   4   1 -12   41.32    0.65
   4   1 -12   41.86    0.65
   3  -1 -12   12.85    0.29
   3  -1 -12   13.35    0.29
   3  -1 -12   12.68    0.29
   3  -1 -12   12.68    0.29
   3  -1 -12   12.96    0.29
   3   1 -12   12.70    0.23
   3   1 -12   13.17    0.24
   3   1 -12   13.10    0.24
   3   1 -12   13.41    0.24
   3   1 -12   13.17    0.24
   2  -1 -12   12.60    0.27
   2  -1 -12   12.92    0.27
   2  -1 -12   12.92    0.28
   2  -1 -12   12.31    0.27
   2  -1 -12   12.52    0.28
   2   1 -12   12.96    0.20
   2   1 -12   13.04    0.20
   2   1 -12   12.82    0.20
   1  -1 -12   50.87    0.78
   1  -1 -12   51.26    0.78
   1  -1 -12   51.42    0.78
   0  -1 -12    0.27    0.05
   0  -1 -12    0.27    0.06
  -1  -1 -12   38.33    0.61
  -1  -1 -12   38.26    0.61
   1  -1  12   38.81    0.54
   1  -1  12   38.65    0.54
   1  -1  12   38.78    0.54
   2  -1  12   19.99    0.33
   2  -1  12   19.66    0.33
   2  -1  12   19.95    0.33
  -2  -1 -12   19.68    0.38
   2  -1  12   19.49    0.33
  -2  -1 -12   20.01    0.37
   2  -1  12   19.61    0.32
   3  -1  12   13.61    0.27
   3  -1  12   13.64    0.27
   3  -1  12   13.49    0.27
   3  -1  12   13.51    0.27
  -3  -1 -12   13.65    0.30
   3  -1  12   13.41    0.27
  -3  -1 -12   13.30    0.30
   4  -1  12    3.19    0.14
   4  -1  12    2.97    0.14
   4  -1  12    2.85    0.13
   4  -1  12    3.03    0.13
   4  -1  12    2.95    0.14
   4   1  12    3.05    0.16
   4   1  12    3.01    0.15
   5  -1  12    0.99    0.12
   5  -1  12    1.06    0.11
   5  -1  12    1.13    0.12
   5  -1  12    0.99    0.11
   5  -1  12    1.06    0.12
   5   1  12    1.11    0.13
   5   1  12    0.90    0.12
   6  -1  12    0.90    0.12
   6  -1  12    1.02    0.13
   6  -1  12    0.70    0.11
   6  -1  12    0.73    0.11
   6  -1  12    0.73    0.11
   6   1  12    0.76    0.12
   6   1  12    0.74    0.12
   7  -1  12    0.10    0.09
   7  -1  12   -0.03    0.08
   7  -1  12    0.27    0.10
   7  -1  12    0.03    0.09
   7  -1  12    0.29    0.10
   7   1  12    0.10    0.10
   7   1  12    0.12    0.10
   8  -1  12    0.27    0.12
   8  -1  12    0.23    0.11
   8  -1  12    0.29    0.11
   8  -1  12    0.02    0.10
   8  -1  12    0.50    0.14
   8   1  12    0.26    0.13
   8   1  12    0.19    0.12
   8  -2 -12    3.08    0.24
   8  -2 -12    3.23    0.24
   8  -2 -12    3.57    0.24
   8  -2 -12    3.44    0.24
   7  -2 -12    3.58    0.23
   7  -2 -12    4.22    0.24
   7  -2 -12    3.91    0.24
   7  -2 -12    4.04    0.25
   7  -2 -12    4.21    0.24
   6  -2 -12    2.25    0.19
   6  -2 -12    2.37    0.18
   6  -2 -12    2.42    0.18
   6  -2 -12    2.18    0.19
   6  -2 -12    2.29    0.18
   5  -2 -12    3.15    0.18
   5  -2 -12    3.29    0.19
   5  -2 -12    3.35    0.19
   5  -2 -12    3.03    0.18
   5  -2 -12    3.01    0.18
   4  -2 -12    5.20    0.21
   4  -2 -12    5.35    0.22
   4  -2 -12    5.30    0.21
   4  -2 -12    5.40    0.21
   4  -2 -12    5.36    0.21
   3  -2 -12   40.01    0.70
   3  -2 -12   39.68    0.70
   3  -2 -12   39.19    0.69
   3  -2 -12   39.66    0.70
   3  -2 -12   39.09    0.70
   2  -2 -12   19.37    0.41
   2  -2 -12   20.55    0.42
   2  -2 -12   20.51    0.42
   2  -2 -12   20.23    0.42
   2  -2 -12   20.23    0.42
   1  -2 -12    0.98    0.11
   1  -2 -12    1.00    0.11
   1  -2 -12    0.86    0.10
   0  -2 -12    5.18    0.19
   0  -2 -12    5.17    0.19
  -1  -2 -12    0.90    0.10
  -1  -2 -12    0.94    0.10
   2  -2  12    6.06    0.14
  -2  -2 -12    6.14    0.21
  -2  -2 -12    5.58    0.20
   3  -2  12   14.79    0.35
  -3  -2 -12   13.98    0.35
   3  -2  12   15.10    0.30
   3  -2  12   14.80    0.29
  -3  -2 -12   14.57    0.35
   3  -2  12   15.03    0.29
   3  -2  12   14.56    0.35
  -4  -2 -12    0.23    0.08
   4  -2  12    0.20    0.07
   4  -2  12    0.16    0.06
   4  -2  12    0.10    0.06
  -4  -2 -12    0.16    0.08
   4  -2  12    0.22    0.07
   4  -2  12    0.07    0.06
   5  -2  12    1.02    0.12
   5  -2  12    1.23    0.12
   5  -2  12    1.53    0.13
   5  -2  12    1.17    0.12
   5  -2  12    1.38    0.13
   5   2  12    1.30    0.15
   5   2  12    1.17    0.14
   6  -2  12    1.59    0.15
   6  -2  12    1.63    0.16
   6  -2  12    1.59    0.16
   6  -2  12    1.68    0.16
   6  -2  12    1.66    0.16
   6   2  12    1.67    0.17
   6   2  12    1.59    0.17
   7  -2  12    0.65    0.13
   7  -2  12    0.79    0.13
   7  -2  12    0.77    0.13
   7  -2  12    0.59    0.12
   7  -2  12    0.72    0.15
   7   2  12    0.46    0.13
   7   2  12    0.81    0.14
   8  -2  12   -0.13    0.11
   8  -2  12    0.11    0.11
   8  -2  12    0.02    0.11
   8  -2  12    0.02    0.11
   8   2  12    0.09    0.11
   8   2  12    0.01    0.11
   7  -3 -12    0.09    0.12
   7  -3 -12   -0.05    0.12
   7  -3 -12    0.08    0.13
   7  -3 -12   -0.22    0.10
   6  -3 -12    2.34    0.22
   6  -3 -12    2.79    0.23
   6  -3 -12    2.15    0.21
   6  -3 -12    2.43    0.23
   6  -3 -12    2.50    0.22
   5  -3 -12    5.98    0.27
   5  -3 -12    5.68    0.26
   5  -3 -12    5.88    0.27
   5  -3 -12    5.92    0.27
   5  -3 -12    5.27    0.25
   4  -3 -12    6.93    0.27
   4  -3 -12    6.21    0.27
   4  -3 -12    6.36    0.26
   4  -3 -12    6.29    0.27
   4  -3 -12    6.78    0.27
   3  -3 -12    0.24    0.09
   3  -3 -12    0.18    0.09
   3  -3 -12    0.07    0.09
   3  -3 -12    0.21    0.10
   3  -3 -12    0.37    0.10
   2  -3 -12    0.71    0.12
   2  -3 -12    0.78    0.13
   2  -3 -12    0.60    0.11
   0  -3 -12    2.98    0.17
   0  -3 -12    2.98    0.17
  -1  -3 -12    7.05    0.25
  -1  -3 -12    7.27    0.25
  -2  -3 -12   -0.06    0.07
  -2  -3 -12    0.00    0.07
  -3  -3 -12    0.57    0.11
  -3  -3 -12    0.49    0.11
  -4  -3 -12    0.50    0.12
  -4  -3 -12    0.50    0.13
  -5  -3 -12   -0.10    0.09
  -5  -3 -12    0.05    0.10
   5   3  12    0.23    0.11
   5   3  12   -0.07    0.10
   6   3  12    0.26    0.13
   6   3  12    0.20    0.12
   7   3  12    0.27    0.13
   7   3  12    0.42    0.14
   5  -4 -12   -0.07    0.11
   5  -4 -12    0.06    0.12
   5  -4 -12    0.10    0.13
   5  -4 -12    0.20    0.12
   4  -4 -12    0.26    0.12
   4  -4 -12    0.46    0.13
   4  -4 -12    0.18    0.13
   4  -4 -12    0.24    0.13
   3  -4 -12    0.28    0.12
   3  -4 -12    0.20    0.12
   3  -4 -12    0.24    0.11
   2  -4 -12   -0.02    0.09
   2  -4 -12    0.19    0.11
   2  -4 -12    0.09    0.10
   1  -4 -12    0.32    0.12
   1  -4 -12    0.38    0.13
   0  -4 -12    1.08    0.16
   0  -4 -12    1.14    0.16
  -1  -4 -12    0.63    0.14
  -1  -4 -12    0.58    0.13
  -2  -4 -12    0.27    0.12
  -2  -4 -12    0.12    0.11
  -3  -4 -12    0.71    0.14
  -3  -4 -12    0.89    0.16
  -4  -4 -12    1.46    0.20
  -4  -4 -12    1.52    0.20
  -5  -4 -12    0.20    0.14
  -5  -4 -12   -0.02    0.13
   5   4  12    0.12    0.13
   5   4  12    0.10    0.13
   9   0 -13    1.21    0.17
   9   0 -13    1.28    0.17
   9   0 -13    1.22    0.25
   9   0 -13    0.98    0.16
   9   0 -13    1.25    0.18
   8   0 -13    0.17    0.10
   8   0 -13    0.03    0.09
   8   0 -13    0.16    0.10
   8   0 -13    0.09    0.09
   8   0 -13    0.21    0.10
   7   0 -13   15.88    0.39
   7   0 -13   15.77    0.39
   7   0 -13   15.37    0.39
   7   0 -13   16.06    0.40
   7   0 -13   15.70    0.39
   6   0 -13   -0.01    0.06
   6   0 -13    0.00    0.06
   6   0 -13    0.01    0.06
   6   0 -13    0.04    0.06
   6   0 -13    0.01    0.06
   5   0 -13  100.02    1.47
   5   0 -13  102.52    1.48
   5   0 -13  101.46    1.48
   5   0 -13  100.90    1.48
   5   0 -13  101.32    1.48
   4   0 -13    0.02    0.06
   4   0 -13    0.08    0.05
   4   0 -13    0.16    0.06
   4   0 -13    0.00    0.05
   4   0 -13    0.02    0.05
   3   0 -13    0.06    0.04
   3   0 -13    0.09    0.04
   3   0 -13    0.15    0.05
   3   0 -13    0.10    0.04
   3   0 -13    0.09    0.04
   2   0 -13    0.15    0.04
   2   0 -13    0.11    0.04
   2   0 -13    0.09    0.04
   2   0 -13    0.23    0.05
   2   0 -13    0.08    0.04
   1   0 -13  194.61    2.61
   1   0 -13  195.07    2.61
   1   0 -13  195.37    2.61
   0   0 -13    0.11    0.03
   0   0 -13    0.14    0.03
  -1   0 -13   58.65    0.84
  -1   0 -13   58.66    0.84
   2   0  13   -0.03    0.03
   2   0  13    0.06    0.04
   3   0  13   19.90    0.38
   3   0  13   20.13    0.38
   4   0  13    0.02    0.06
   4   0  13   -0.01    0.06
   5   0  13   16.61    0.38
   5   0  13   16.92    0.39
   6   0  13   -0.09    0.08
   6   0  13   -0.04    0.08
   7   0  13    4.23    0.22
   7   0  13    4.22    0.22
   7   0  13    3.88    0.22
   7   0  13    3.79    0.21
   8   0  13   -0.10    0.10
   8   0  13    0.02    0.10
   8   0  13   -0.06    0.10
   8   0  13    0.06    0.11
   8   0  13    0.08    0.12
   9  -1 -13    0.17    0.12
   9  -1 -13    0.26    0.13
   9  -1 -13    0.17    0.12
   9  -1 -13    0.21    0.12
   9   1 -13    0.17    0.13
   9   1 -13    0.16    0.13
   8  -1 -13    2.73    0.20
   8  -1 -13    2.83    0.21
   8  -1 -13    2.79    0.20
   8  -1 -13    2.84    0.20
   8  -1 -13    2.53    0.21
   8   1 -13    2.80    0.19
   8   1 -13    2.78    0.18
   8   1 -13    3.01    0.18
   8   1 -13    2.90    0.19
   7  -1 -13    0.79    0.13
   7  -1 -13    0.59    0.12
   7  -1 -13    0.80    0.12
   7  -1 -13    0.70    0.12
   7  -1 -13    0.68    0.13
   7   1 -13    1.02    0.13
   7   1 -13    0.99    0.12
   7   1 -13    0.89    0.12
   7   1 -13    0.90    0.12
   7   1 -13    1.09    0.13
   6  -1 -13    0.46    0.10
   6  -1 -13    0.36    0.10
   6  -1 -13    0.42    0.10
   6  -1 -13    0.26    0.10
   6  -1 -13    0.40    0.10
   6   1 -13    0.43    0.08
   6   1 -13    0.47    0.09
   6   1 -13    0.34    0.08
   6   1 -13    0.37    0.08
   6   1 -13    0.30    0.08
   5  -1 -13   17.19    0.39
   5  -1 -13   17.75    0.40
   5  -1 -13   17.33    0.39
   5  -1 -13   17.32    0.39
   5  -1 -13   17.30    0.39
   5   1 -13   17.65    0.35
   5   1 -13   17.34    0.35
   5   1 -13   17.60    0.35
   5   1 -13   16.94    0.34
   5   1 -13   17.69    0.35
   4  -1 -13  128.78    1.83
   4  -1 -13  126.52    1.82
   4  -1 -13  127.54    1.83
   4  -1 -13  127.48    1.83
   4  -1 -13  129.46    1.84
   4   1 -13  127.47    1.77
   4   1 -13  127.08    1.77
   4   1 -13  127.72    1.77
   4   1 -13  128.26    1.77
   4   1 -13  126.77    1.76
   3  -1 -13    5.32    0.18
   3  -1 -13    4.76    0.17
   3  -1 -13    4.83    0.17
   3  -1 -13    4.86    0.17
   3  -1 -13    5.12    0.17
   3   1 -13    4.93    0.13
   3   1 -13    4.73    0.12
   3   1 -13    4.84    0.12
   3   1 -13    4.81    0.12
   3   1 -13    4.83    0.12
   2  -1 -13  145.21    2.06
   2  -1 -13  146.78    2.06
   2  -1 -13  147.56    2.07
   2  -1 -13  147.76    2.06
   2  -1 -13  149.73    2.06
   2   1 -13  149.07    1.97
   2   1 -13  150.32    1.96
   2   1 -13  150.41    1.97
   1  -1 -13    1.24    0.10
   1  -1 -13    1.25    0.10
   1  -1 -13    1.04    0.09
   0  -1 -13   32.17    0.70
   1  -1  13    6.04    0.12
   1  -1  13    5.93    0.11
   1  -1  13    6.01    0.12
  -1  -1 -13    6.01    0.17
   1  -1  13    5.55    0.12
   1  -1  13    5.79    0.13
  -1  -1 -13    5.90    0.17
   2  -1  13    0.70    0.06
  -2  -1 -13    0.67    0.08
   2  -1  13    0.80    0.07
  -2  -1 -13    0.86    0.09
   2  -1  13    0.63    0.06
   2  -1  13    0.69    0.06
   3  -1  13    0.33    0.06
   3  -1  13    0.31    0.06
   3  -1  13    0.33    0.06
  -3  -1 -13    0.36    0.08
   3  -1  13    0.25    0.06
   3  -1  13    0.28    0.06
  -3  -1 -13    0.37    0.08
   4  -1  13    6.24    0.19
   4  -1  13    5.60    0.19
   4  -1  13    5.85    0.18
   4  -1  13    5.42    0.18
   4  -1  13    5.63    0.18
   4   1  13    5.66    0.21
   4   1  13    5.92    0.20
   5  -1  13    1.50    0.13
   5  -1  13    1.49    0.13
   5  -1  13    1.42    0.13
   5  -1  13    1.61    0.14
   5  -1  13    1.46    0.14
   5   1  13    1.59    0.15
   5   1  13    1.53    0.15
   6  -1  13   12.73    0.34
   6  -1  13   13.09    0.35
   6  -1  13   12.53    0.34
   6  -1  13   12.82    0.34
   6  -1  13   12.48    0.34
   6   1  13   13.07    0.36
   6   1  13   12.89    0.36
   7  -1  13    1.33    0.16
   7  -1  13    1.40    0.16
   7  -1  13    1.12    0.14
   7  -1  13    1.02    0.15
   7  -1  13    1.32    0.16
   7   1  13    1.06    0.15
   7   1  13    1.20    0.17
   8  -1  13    0.06    0.11
   8  -1  13    0.12    0.11
   8  -1  13    0.45    0.12
   8  -1  13    0.16    0.11
   8  -1  13    0.26    0.11
   8   1  13    0.31    0.12
   8   1  13    0.00    0.11
   8  -2 -13   -0.08    0.11
   8  -2 -13    0.12    0.12
   8  -2 -13    0.12    0.12
   8  -2 -13    0.10    0.12
   7  -2 -13   12.12    0.38
   7  -2 -13   12.41    0.39
   7  -2 -13   12.44    0.38
   7  -2 -13   11.32    0.37
   7  -2 -13   11.86    0.38
   6  -2 -13    3.13    0.20
   6  -2 -13    2.70    0.19
   6  -2 -13    2.81    0.19
   6  -2 -13    3.03    0.20
   6  -2 -13    2.86    0.19
   5  -2 -13   24.60    0.52
   5  -2 -13   24.49    0.52
   5  -2 -13   23.92    0.52
   5  -2 -13   24.23    0.52
   5  -2 -13   23.10    0.52
   4  -2 -13    9.46    0.29
   4  -2 -13    9.96    0.29
   4  -2 -13   10.37    0.30
   4  -2 -13   10.19    0.29
   4  -2 -13   10.27    0.30
   3  -2 -13    0.72    0.11
   3  -2 -13    0.77    0.12
   3  -2 -13    0.96    0.12
   3  -2 -13    0.95    0.12
   3  -2 -13    0.90    0.12
   2  -2 -13    2.45    0.14
   2  -2 -13    2.33    0.15
   2  -2 -13    2.45    0.15
   2  -2 -13    2.27    0.14
   2  -2 -13    2.63    0.15
   1  -2 -13   23.14    0.45
   1  -2 -13   22.66    0.46
   1  -2 -13   22.63    0.46
   0  -2 -13    9.74    0.26
   0  -2 -13    9.61    0.26
  -1  -2 -13    4.22    0.18
  -1  -2 -13    4.28    0.18
  -2  -2 -13   10.02    0.28
  -2  -2 -13    9.74    0.27
  -3  -2 -13   19.86    0.44
  -3  -2 -13   20.42    0.44
  -4  -2 -13    1.38    0.15
  -4  -2 -13    1.51    0.15
   5  -2  13    0.71    0.12
   5  -2  13    0.61    0.12
   5  -2  13    0.61    0.11
   5  -2  13    0.70    0.13
   5   2  13    0.48    0.11
   5   2  13    0.50    0.11
   6  -2  13    1.09    0.13
   6  -2  13    1.02    0.13
   6  -2  13    1.09    0.13
   6  -2  13    0.95    0.13
   6   2  13    0.87    0.14
   6   2  13    1.15    0.15
   7  -2  13    3.26    0.23
   7  -2  13    3.25    0.22
   7  -2  13    2.91    0.20
   7  -2  13    3.06    0.21
   7   2  13    3.54    0.23
   7   2  13    2.85    0.21
   8  -2  13    0.53    0.14
   8  -2  13    0.43    0.14
   8   2  13    0.34    0.14
   8   2  13    0.32    0.13
   7  -3 -13    0.03    0.13
   7  -3 -13    0.18    0.14
   7  -3 -13    0.06    0.12
   7  -3 -13    0.18    0.13
   6  -3 -13    0.21    0.12
   6  -3 -13   -0.12    0.10
   6  -3 -13    0.01    0.11
   6  -3 -13    0.12    0.11
   6  -3 -13    0.20    0.12
   5  -3 -13    0.32    0.12
   5  -3 -13    0.17    0.12
   5  -3 -13    0.32    0.12
   5  -3 -13    0.21    0.11
   5  -3 -13   -0.03    0.10
   4  -3 -13    6.21    0.27
   4  -3 -13    6.99    0.27
   4  -3 -13    7.09    0.28
   4  -3 -13    6.82    0.28
   4  -3 -13    6.14    0.28
   3  -3 -13    0.34    0.11
   3  -3 -13    0.47    0.12
   3  -3 -13    0.46    0.11
   3  -3 -13    0.37    0.10
   3  -3 -13    0.33    0.11
   2  -3 -13    3.94    0.21
   2  -3 -13    4.33    0.20
   2  -3 -13    4.18    0.21
   1  -3 -13    6.65    0.25
   1  -3 -13    6.53    0.25
   1  -3 -13    6.06    0.24
   0  -3 -13    0.43    0.10
   0  -3 -13    0.69    0.12
  -1  -3 -13    0.23    0.09
  -1  -3 -13    0.10    0.08
  -2  -3 -13    0.20    0.09
  -2  -3 -13    0.07    0.09
  -3  -3 -13    2.33    0.18
  -3  -3 -13    2.40    0.18
  -4  -3 -13   11.22    0.36
  -4  -3 -13   10.74    0.35
  -5  -3 -13    0.26    0.12
  -5  -3 -13    0.03    0.10
   5   3  13    0.07    0.10
   5   3  13    0.21    0.11
   6   3  13   -0.02    0.11
   6   3  13    0.35    0.13
   5  -4 -13    0.65    0.16
   5  -4 -13    0.42    0.15
   5  -4 -13    0.64    0.17
   5  -4 -13    0.79    0.17
   4  -4 -13    1.14    0.18
   4  -4 -13    0.98    0.16
   4  -4 -13    1.10    0.18
   4  -4 -13    1.10    0.17
   3  -4 -13   -0.03    0.10
   3  -4 -13    0.13    0.11
   3  -4 -13    0.05    0.11
   2  -4 -13    1.03    0.15
   2  -4 -13    1.29    0.17
   2  -4 -13    1.05    0.16
   1  -4 -13    1.88    0.19
   1  -4 -13    1.74    0.18
   0  -4 -13    1.90    0.19
   0  -4 -13    1.91    0.18
  -1  -4 -13    2.25    0.21
  -1  -4 -13    2.53    0.20
  -2  -4 -13    0.38    0.13
  -2  -4 -13    0.49    0.14
  -3  -4 -13    0.10    0.12
  -3  -4 -13   -0.04    0.11
  -4  -4 -13    0.90    0.17
  -4  -4 -13    0.38    0.14
   9   0 -14    0.03    0.11
   9   0 -14    0.02    0.10
   9   0 -14    0.13    0.12
   9   0 -14   -0.07    0.10
   8   0 -14    5.42    0.25
   8   0 -14    5.14    0.24
   8   0 -14    5.19    0.25
   8   0 -14    4.99    0.24
   8   0 -14    5.55    0.25
   7   0 -14    0.05    0.08
   7   0 -14    0.08    0.09
   7   0 -14    0.11    0.08
   7   0 -14    0.15    0.09
   7   0 -14    0.15    0.08
   6   0 -14    0.17    0.08
   6   0 -14    0.23    0.08
   6   0 -14    0.29    0.08
   6   0 -14    0.26    0.08
   6   0 -14    0.08    0.07
   5   0 -14    0.14    0.07
   5   0 -14    0.38    0.08
   5   0 -14    0.36    0.08
   5   0 -14    0.44    0.08
   4   0 -14   67.47    1.01
   4   0 -14   67.47    1.01
   4   0 -14   67.79    1.01
   4   0 -14   68.51    1.01
   4   0 -14   66.97    1.00
   3   0 -14   -0.02    0.04
   3   0 -14    0.02    0.04
   3   0 -14    0.00    0.04
   3   0 -14    0.01    0.04
   3   0 -14   -0.01    0.04
   2   0 -14    2.20    0.09
   2   0 -14    2.01    0.08
   2   0 -14    2.12    0.09
   2   0 -14    1.97    0.08
   2   0 -14    2.12    0.09
   1   0 -14    0.04    0.03
   1   0 -14    0.02    0.03
   1   0 -14   -0.02    0.03
   0   0 -14    0.58    0.05
   0   0 -14    0.51    0.05
  -1   0 -14    0.08    0.03
   2   0  14    0.06    0.05
   2   0  14    0.06    0.05
   3   0  14    0.02    0.05
   3   0  14   -0.02    0.05
   4   0  14   40.21    0.67
   4   0  14   39.48    0.68
   5   0  14    0.03    0.07
   5   0  14   -0.07    0.07
   6   0  14    0.47    0.10
   6   0  14    0.31    0.11
   7   0  14   -0.02    0.09
   7   0  14    0.08    0.10
   7   0  14    0.06    0.10
   7   0  14    0.15    0.10
   8   0  14    0.24    0.13
   8   0  14    0.15    0.11
   8   0  14    0.09    0.13
   8   0  14    0.14    0.12
   9  -1 -14   -0.04    0.11
   9  -1 -14   -0.08    0.10
   9  -1 -14   -0.20    0.10
   9  -1 -14    0.16    0.12
   8  -1 -14    1.42    0.17
   8  -1 -14    1.21    0.17
   8  -1 -14    1.20    0.16
   8  -1 -14    1.16    0.16
   8  -1 -14    0.99    0.16
   7  -1 -14    5.01    0.24
   7  -1 -14    5.31    0.24
   7  -1 -14    5.02    0.24
   7  -1 -14    5.41    0.24
   7  -1 -14    5.72    0.25
   7   1 -14    5.49    0.33
   7   1 -14    4.86    0.32
   6  -1 -14    4.10    0.20
   6  -1 -14    4.00    0.20
   6  -1 -14    4.46    0.20
   6  -1 -14    4.14    0.20
   6  -1 -14    4.27    0.20
   6   1 -14    3.69    0.19
   6   1 -14    4.22    0.20
   6   1 -14    3.72    0.17
   6   1 -14    3.86    0.17
   5  -1 -14   19.27    0.43
   5  -1 -14   19.54    0.43
   5  -1 -14   20.19    0.43
   5  -1 -14   19.26    0.42
   5  -1 -14   19.51    0.42
   5   1 -14   19.93    0.38
   5   1 -14   19.07    0.38
   5   1 -14   19.46    0.42
   5   1 -14   20.08    0.38
   5   1 -14   19.29    0.42
   4  -1 -14    0.39    0.09
   4  -1 -14    0.37    0.08
   4  -1 -14    0.30    0.08
   4  -1 -14    0.40    0.09
   4  -1 -14    0.42    0.09
   4   1 -14    0.41    0.06
   4   1 -14    0.47    0.07
   4   1 -14    0.34    0.06
   3  -1 -14    3.76    0.15
   3  -1 -14    4.18    0.16
   3  -1 -14    3.82    0.16
   3  -1 -14    4.31    0.16
   3  -1 -14    3.69    0.15
   3   1 -14    3.84    0.11
   3   1 -14    4.20    0.14
   3   1 -14    4.20    0.15
   2  -1 -14    2.03    0.11
   2  -1 -14    2.31    0.12
   2  -1 -14    2.14    0.11
   2  -1 -14    2.14    0.12
   2  -1 -14    2.33    0.12
   2   1 -14    1.87    0.06
   1  -1 -14   13.36    0.29
   1  -1 -14   13.16    0.29
   1  -1 -14   13.09    0.28
   0  -1 -14    4.47    0.15
   0  -1 -14    4.58    0.15
   1  -1  14   38.94    0.53
   1  -1  14   39.06    0.53
  -1  -1 -14   37.68    0.61
   1  -1  14   33.82    0.54
  -1  -1 -14   38.48    0.61
   2  -1  14   13.67    0.26
  -2  -1 -14   14.09    0.30
   2  -1  14   13.66    0.25
   2  -1  14   14.03    0.25
   2  -1  14   14.00    0.26
  -2  -1 -14   13.86    0.30
  -3  -1 -14   11.58    0.29
   3  -1  14   11.39    0.24
   3  -1  14   11.95    0.25
  -3  -1 -14   11.66    0.28
   3  -1  14   11.45    0.25
   3  -1  14   11.30    0.25
   4  -1  14    1.15    0.11
   4  -1  14    1.09    0.11
   4  -1  14    1.34    0.11
   4  -1  14    1.07    0.10
   4  -1  14    1.14    0.11
   4   1  14    1.44    0.14
   4   1  14    1.11    0.12
   5  -1  14    2.75    0.15
   5  -1  14    2.88    0.15
   5  -1  14    2.95    0.16
   5  -1  14    2.98    0.16
   5  -1  14    2.81    0.16
   5   1  14    2.88    0.17
   5   1  14    2.93    0.17
   6  -1  14    0.10    0.09
   6  -1  14    0.01    0.08
   6  -1  14    0.14    0.09
   6  -1  14    0.04    0.08
   6  -1  14    0.25    0.10
   6   1  14    0.15    0.09
   6   1  14    0.32    0.10
   7  -1  14    0.08    0.09
   7  -1  14    0.09    0.09
   7  -1  14    0.19    0.10
   7  -1  14   -0.17    0.07
   7  -1  14   -0.03    0.09
   7   1  14    0.01    0.10
   7   1  14    0.00    0.10
   8  -1  14    0.60    0.15
   8  -1  14    0.62    0.15
   8  -1  14    0.84    0.15
   8  -1  14    0.70    0.15
   8  -1  14    0.52    0.14
   8   1  14    0.88    0.17
   8   1  14    0.47    0.13
   8  -2 -14    1.30    0.19
   8  -2 -14    1.07    0.17
   8  -2 -14    1.12    0.18
   8  -2 -14    1.16    0.19
   7  -2 -14    3.14    0.22
   7  -2 -14    3.83    0.24
   7  -2 -14    3.46    0.22
   7  -2 -14    3.73    0.23
   7  -2 -14    3.96    0.24
   6  -2 -14   -0.05    0.09
   6  -2 -14    0.04    0.09
   6  -2 -14   -0.03    0.09
   6  -2 -14   -0.01    0.09
   6  -2 -14   -0.08    0.09
   5  -2 -14    0.05    0.09
   5  -2 -14    0.26    0.10
   5  -2 -14    0.15    0.09
   5  -2 -14    0.29    0.10
   5  -2 -14    0.22    0.09
   4  -2 -14    3.06    0.17
   4  -2 -14    3.17    0.18
   4  -2 -14    2.92    0.17
   4  -2 -14    3.69    0.18
   4  -2 -14    3.10    0.18
   3  -2 -14    5.07    0.20
   3  -2 -14    4.85    0.20
   3  -2 -14    4.76    0.20
   3  -2 -14    4.82    0.20
   3  -2 -14    5.04    0.20
   2  -2 -14   22.06    0.45
   2  -2 -14   21.96    0.46
   2  -2 -14   21.70    0.45
   2  -2 -14   22.09    0.46
   2  -2 -14   22.25    0.45
   1  -2 -14    2.19    0.14
   1  -2 -14    2.05    0.14
   1  -2 -14    2.19    0.14
   0  -2 -14    5.45    0.20
   0  -2 -14    5.20    0.20
  -1  -2 -14    8.03    0.24
  -1  -2 -14    8.17    0.25
  -2  -2 -14   15.78    0.37
  -2  -2 -14   15.85    0.37
  -3  -2 -14    0.00    0.07
  -3  -2 -14   -0.07    0.07
  -4  -2 -14    0.73    0.12
  -4  -2 -14    0.65    0.11
   5   2  14    1.42    0.16
   5   2  14    1.33    0.16
   6   2  14    0.32    0.12
   6   2  14    0.10    0.10
   7   2  14    0.08    0.11
   7   2  14   -0.14    0.10
   7  -3 -14    2.07    0.22
   7  -3 -14    1.88    0.22
   7  -3 -14    1.96    0.22
   7  -3 -14    2.48    0.23
   6  -3 -14    0.68    0.15
   6  -3 -14    0.50    0.14
   6  -3 -14    0.42    0.14
   6  -3 -14    0.58    0.14
   5  -3 -14    2.32    0.21
   5  -3 -14    2.29    0.21
   5  -3 -14    2.38    0.20
   5  -3 -14    2.45    0.22
   5  -3 -14    2.43    0.22
   4  -3 -14    0.20    0.10
   4  -3 -14    0.22    0.10
   4  -3 -14    0.04    0.10
   4  -3 -14   -0.07    0.10
   4  -3 -14    0.25    0.12
   3  -3 -14    6.03    0.25
   3  -3 -14    5.67    0.25
   3  -3 -14    5.46    0.24
   3  -3 -14    5.12    0.24
   3  -3 -14    5.14    0.23
   2  -3 -14    0.52    0.11
   2  -3 -14    0.48    0.11
   2  -3 -14    0.55    0.12
   1  -3 -14    3.01    0.19
   1  -3 -14    2.64    0.18
   1  -3 -14    2.47    0.17
   0  -3 -14   -0.11    0.08
   0  -3 -14   -0.07    0.09
  -1  -3 -14    9.60    0.30
  -1  -3 -14    9.68    0.31
  -2  -3 -14    0.27    0.10
  -2  -3 -14    0.57    0.12
  -3  -3 -14    3.04    0.20
  -3  -3 -14    3.39    0.20
  -4  -3 -14    6.61    0.28
  -4  -3 -14    6.40    0.28
  -5  -3 -14    0.13    0.12
  -5  -3 -14    0.01    0.10
   5   3  14    0.05    0.11
   5   3  14   -0.03    0.10
   6   3  14    0.10    0.12
   6   3  14   -0.10    0.10
   5  -4 -14    0.73    0.16
   5  -4 -14    1.08    0.19
   5  -4 -14    0.69    0.17
   5  -4 -14    0.73    0.16
   4  -4 -14    1.12    0.18
   4  -4 -14    1.55    0.20
   4  -4 -14    1.05    0.17
   4  -4 -14    1.37    0.19
   3  -4 -14    0.25    0.13
   3  -4 -14    0.35    0.13
   2  -4 -14    2.66    0.21
   2  -4 -14    2.67    0.23
   2  -4 -14    2.63    0.22
   1  -4 -14    0.20    0.11
   1  -4 -14    0.30    0.12
   0  -4 -14    0.05    0.11
   0  -4 -14   -0.01    0.10
  -1  -4 -14    0.65    0.14
  -1  -4 -14    0.42    0.13
  -2  -4 -14    0.07    0.11
  -2  -4 -14    0.30    0.13
  -3  -4 -14    2.51    0.22
  -3  -4 -14    2.53    0.23
  -4  -4 -14    0.28    0.14
  -4  -4 -14    0.24    0.14
   9   0 -15    2.51    0.23
   9   0 -15    2.05    0.19
   9   0 -15    1.70    0.19
   9   0 -15    1.69    0.19
   8   0 -15    0.01    0.09
   8   0 -15    0.10    0.10
   8   0 -15    0.07    0.09
   8   0 -15    0.16    0.09
   8   0 -15   -0.17    0.09
   7   0 -15   14.62    0.37
   7   0 -15   14.53    0.38
   7   0 -15   14.28    0.38
   7   0 -15   14.43    0.37
   7   0 -15   14.31    0.37
   6   0 -15   -0.05    0.06
   6   0 -15    0.01    0.06
   6   0 -15   -0.09    0.06
   6   0 -15    0.03    0.06
   6   0 -15    0.06    0.07
   5   0 -15   41.31    0.69
   5   0 -15   41.41    0.69
   5   0 -15   40.85    0.69
   5   0 -15   40.94    0.69
   5   0 -15   40.84    0.69
   4   0 -15    0.05    0.06
   4   0 -15    0.07    0.06
   4   0 -15   -0.09    0.05
   4   0 -15   -0.03    0.05
   4   0 -15    0.05    0.06
   3   0 -15    8.99    0.21
   3   0 -15    9.10    0.21
   3   0 -15    8.97    0.21
   3   0 -15    9.12    0.21
   3   0 -15    8.99    0.21
   2   0 -15   -0.01    0.03
   2   0 -15   -0.04    0.03
   2   0 -15    0.04    0.04
   2   0 -15    0.00    0.03
   2   0 -15    0.00    0.04
   1   0 -15   52.29    0.77
   1   0 -15   53.57    0.77
   1   0 -15   53.06    0.77
   0   0 -15    0.00    0.03
   0   0 -15    0.00    0.03
  -1   0 -15  213.86    2.88
  -1   0 -15  214.59    2.87
   2   0  15    0.01    0.05
   2   0  15    0.01    0.05
   3   0  15    0.03    0.06
   3   0  15    0.09    0.06
   4   0  15    0.02    0.07
   4   0  15   -0.06    0.06
   5   0  15   13.14    0.33
   5   0  15   12.56    0.33
   6   0  15   -0.04    0.07
   6   0  15    0.14    0.09
   7   0  15    4.76    0.24
   7   0  15    4.57    0.24
   7   0  15    4.87    0.25
   7   0  15    4.99    0.25
   8   0  15   -0.05    0.10
   8   0  15   -0.10    0.10
   8   0  15   -0.14    0.09
   8   0  15   -0.19    0.11
   8  -1 -15   -0.13    0.09
   8  -1 -15    0.05    0.10
   8  -1 -15    0.00    0.10
   8  -1 -15   -0.02    0.09
   8  -1 -15   -0.10    0.09
   7  -1 -15    3.29    0.20
   7  -1 -15    2.81    0.19
   7  -1 -15    2.92    0.20
   7  -1 -15    3.31    0.20
   7  -1 -15    2.85    0.19
   6  -1 -15   34.19    0.65
   6  -1 -15   33.26    0.65
   6  -1 -15   33.90    0.65
   6  -1 -15   33.96    0.66
   6  -1 -15   34.14    0.65
   5  -1 -15    0.16    0.08
   5  -1 -15    0.06    0.08
   5  -1 -15    0.24    0.08
   5  -1 -15    0.12    0.08
   5  -1 -15    0.18    0.08
   4  -1 -15    5.96    0.21
   4  -1 -15    6.14    0.21
   4  -1 -15    6.14    0.21
   4  -1 -15    5.90    0.21
   4  -1 -15    5.76    0.20
   3  -1 -15    1.63    0.12
   3  -1 -15    1.78    0.12
   3  -1 -15    1.80    0.12
   3  -1 -15    1.59    0.12
   3  -1 -15    1.72    0.12
   2  -1 -15   11.86    0.27
   2  -1 -15   11.95    0.28
   2  -1 -15   11.82    0.27
   2  -1 -15   11.82    0.27
   2  -1 -15   11.81    0.27
   1  -1 -15    0.63    0.08
   1  -1 -15    0.54    0.07
   1  -1 -15    0.53    0.07
   0  -1 -15    1.50    0.10
   0  -1 -15    1.48    0.09
  -1  -1 -15    5.37    0.17
  -1  -1 -15    5.60    0.18
  -2  -1 -15   76.32    1.12
   2  -1  15   75.79    1.06
   2  -1  15   76.10    1.05
   2  -1  15   69.25    1.15
  -2  -1 -15   76.64    1.12
   3  -1  15    0.45    0.07
  -3  -1 -15    0.25    0.08
   3  -1  15    0.51    0.07
   3  -1  15    0.48    0.07
   3  -1  15    0.44    0.07
  -3  -1 -15    0.54    0.09
   4  -1  15   24.17    0.46
   4  -1  15   24.36    0.45
   4  -1  15   24.49    0.45
   4  -1  15   24.13    0.45
   4  -1  15   23.93    0.45
   4   1  15   24.25    0.49
   4   1  15   24.49    0.50
   5  -1  15    4.22    0.18
   5  -1  15    4.44    0.18
   5  -1  15    4.27    0.18
   5  -1  15    4.30    0.19
   5  -1  15    4.34    0.19
   5   1  15    4.24    0.20
   5   1  15    4.14    0.20
   6  -1  15    1.46    0.14
   6  -1  15    1.26    0.14
   6  -1  15    1.29    0.14
   6  -1  15    1.36    0.14
   6  -1  15    1.24    0.14
   6   1  15    1.66    0.17
   6   1  15    1.53    0.16
   7  -1  15   -0.06    0.09
   7  -1  15   -0.09    0.08
   7  -1  15   -0.01    0.09
   7  -1  15    0.03    0.09
   7  -1  15    0.02    0.09
   7   1  15    0.01    0.09
   7   1  15    0.02    0.10
   8  -1  15    0.47    0.18
   8  -1  15    0.81    0.16
   8  -1  15    1.05    0.16
   8  -1  15    0.91    0.16
   8  -1  15    0.55    0.14
   8   1  15    0.78    0.16
   8   1  15    0.81    0.16
   8  -2 -15    1.78    0.21
   8  -2 -15    1.76    0.21
   8  -2 -15    1.80    0.21
   8  -2 -15    1.45    0.19
   7  -2 -15    3.44    0.22
   7  -2 -15    3.83    0.25
   7  -2 -15    4.10    0.24
   7  -2 -15    3.91    0.23
   7  -2 -15    4.49    0.26
   6  -2 -15    1.07    0.15
   6  -2 -15    1.08    0.15
   6  -2 -15    1.02    0.15
   6  -2 -15    1.32    0.16
   6  -2 -15    1.18    0.15
   5  -2 -15    2.03    0.18
   5  -2 -15    1.87    0.17
   5  -2 -15    1.89    0.18
   5  -2 -15    1.46    0.16
   5  -2 -15    1.85    0.18
   4  -2 -15    1.60    0.15
   4  -2 -15    2.10    0.17
   4  -2 -15    1.62    0.16
   4  -2 -15    2.25    0.18
   4  -2 -15    2.16    0.18
   3  -2 -15    9.24    0.28
   3  -2 -15    8.54    0.27
   3  -2 -15    9.17    0.27
   3  -2 -15    9.42    0.28
   3  -2 -15    9.15    0.28
   2  -2 -15    2.25    0.15
   2  -2 -15    2.18    0.15
   2  -2 -15    2.39    0.15
   2  -2 -15    2.17    0.14
   2  -2 -15    2.33    0.15
   1  -2 -15   27.72    0.53
   1  -2 -15   27.50    0.53
   1  -2 -15   28.03    0.54
   0  -2 -15    2.02    0.14
   0  -2 -15    1.87    0.14
  -1  -2 -15   13.86    0.34
  -1  -2 -15   13.91    0.34
  -2  -2 -15    0.38    0.09
  -2  -2 -15    0.30    0.09
  -3  -2 -15    0.03    0.07
  -3  -2 -15    0.12    0.08
  -4  -2 -15    1.08    0.14
  -4  -2 -15    1.00    0.13
   5   2  15    2.36    0.18
   5   2  15    2.35    0.18
   6   2  15    2.81    0.21
   6   2  15    2.54    0.20
   7   2  15    1.76    0.21
   7   2  15    1.36    0.18
   6  -3 -15    0.21    0.13
   6  -3 -15   -0.04    0.11
   6  -3 -15    0.04    0.12
   6  -3 -15    0.12    0.12
   5  -3 -15    0.35    0.13
   5  -3 -15    0.41    0.13
   5  -3 -15    0.28    0.12
   5  -3 -15    0.28    0.12
   5  -3 -15    0.41    0.12
   4  -3 -15   14.43    0.42
   4  -3 -15   13.97    0.40
   4  -3 -15   14.46    0.41
   4  -3 -15   13.46    0.39
   4  -3 -15   14.29    0.42
   3  -3 -15    2.44    0.19
   3  -3 -15    1.98    0.18
   3  -3 -15    2.48    0.21
   3  -3 -15    2.34    0.18
   3  -3 -15    2.20    0.18
   2  -3 -15    3.95    0.21
   2  -3 -15    4.38    0.22
   2  -3 -15    4.19    0.22
   1  -3 -15   -0.14    0.08
   1  -3 -15    0.19    0.10
   1  -3 -15   -0.13    0.08
   0  -3 -15    1.26    0.15
   0  -3 -15    1.41    0.16
  -1  -3 -15    0.19    0.10
  -1  -3 -15    0.14    0.09
  -2  -3 -15    1.10    0.15
  -2  -3 -15    1.00    0.14
  -3  -3 -15    1.41    0.16
  -3  -3 -15    1.42    0.16
  -4  -3 -15    1.16    0.16
  -4  -3 -15    1.11    0.16
  -5  -3 -15    0.80    0.16
  -5  -3 -15    0.63    0.14
   5   3  15    0.85    0.16
   5   3  15    0.48    0.13
   6   3  15    0.69    0.14
   6   3  15    0.73    0.16
   4  -4 -15    2.21    0.22
   4  -4 -15    2.29    0.22
   3  -4 -15    0.18    0.13
   3  -4 -15    0.17    0.12
   2  -4 -15    0.10    0.11
   2  -4 -15   -0.04    0.11
   1  -4 -15    0.89    0.17
   1  -4 -15    1.11    0.18
   0  -4 -15    0.25    0.12
   0  -4 -15    0.28    0.12
  -1  -4 -15    0.01    0.11
  -1  -4 -15    0.15    0.11
  -2  -4 -15    1.25    0.19
  -2  -4 -15    1.57    0.20
  -3  -4 -15    0.24    0.13
  -3  -4 -15    0.12    0.12
  -4  -4 -15    0.13    0.13
  -4  -4 -15    0.50    0.15
   8   0 -16    0.32    0.11
   8   0 -16    0.25    0.11
   8   0 -16    0.16    0.10
   8   0 -16    0.22    0.10
   7   0 -16    0.00    0.08
   7   0 -16   -0.01    0.08
   7   0 -16    0.08    0.08
   7   0 -16    0.15    0.08
   7   0 -16   -0.08    0.07
   6   0 -16    0.27    0.08
   6   0 -16    0.30    0.08
   6   0 -16    0.36    0.08
   6   0 -16    0.51    0.10
   6   0 -16    0.22    0.08
   5   0 -16    0.07    0.06
   5   0 -16    0.06    0.06
   5   0 -16    0.03    0.06
   5   0 -16    0.02    0.06
   5   0 -16    0.00    0.06
   4   0 -16   50.64    0.80
   4   0 -16   50.70    0.80
   4   0 -16   50.96    0.80
   4   0 -16   51.58    0.80
   4   0 -16   51.44    0.80
   3   0 -16    0.04    0.04
   3   0 -16   -0.05    0.04
   3   0 -16    0.12    0.05
   3   0 -16    0.03    0.05
   3   0 -16    0.01    0.04
   2   0 -16   30.03    0.49
   2   0 -16   31.11    0.49
   2   0 -16   31.23    0.49
   2   0 -16   30.36    0.49
   2   0 -16   31.58    0.50
   1   0 -16    0.08    0.04
   1   0 -16    0.02    0.04
   0   0 -16   19.88    0.34
   0   0 -16   19.66    0.33
   1   0  16    0.05    0.08
   2   0  16   25.40    0.44
   2   0  16   25.65    0.45
   3   0  16   -0.04    0.06
   3   0  16   -0.11    0.06
   4   0  16    3.78    0.17
   4   0  16    3.76    0.17
   5   0  16    0.00    0.08
   5   0  16    0.00    0.07
   6   0  16   -0.06    0.08
   6   0  16    0.05    0.08
   7   0  16   -0.05    0.10
   7   0  16    0.13    0.10
   7   0  16   -0.01    0.09
   7   0  16    0.10    0.10
   8   0  16   -0.03    0.11
   8   0  16   -0.10    0.11
   8   0  16   -0.12    0.11
   8   0  16    0.14    0.12
   8  -1 -16    0.11    0.10
   8  -1 -16    0.08    0.10
   8  -1 -16   -0.04    0.10
   8  -1 -16    0.09    0.10
   8  -1 -16    0.19    0.12
   7  -1 -16    4.98    0.25
   7  -1 -16    5.11    0.24
   7  -1 -16    4.90    0.23
   7  -1 -16    5.23    0.25
   7  -1 -16    5.06    0.24
   6  -1 -16    0.32    0.09
   6  -1 -16    0.33    0.09
   6  -1 -16    0.48    0.11
   6  -1 -16    0.36    0.10
   6  -1 -16    0.35    0.10
   5  -1 -16   11.54    0.31
   5  -1 -16   11.31    0.31
   5  -1 -16   11.42    0.31
   5  -1 -16   11.12    0.31
   5  -1 -16   10.92    0.31
   4  -1 -16    3.68    0.17
   4  -1 -16    3.64    0.16
   4  -1 -16    3.32    0.16
   4  -1 -16    3.55    0.17
   4  -1 -16    3.73    0.17
   3  -1 -16    7.13    0.21
   3  -1 -16    6.51    0.20
   3  -1 -16    6.37    0.21
   3  -1 -16    6.84    0.21
   3  -1 -16    6.81    0.21
   2  -1 -16    2.19    0.12
   2  -1 -16    2.27    0.12
   2  -1 -16    2.09    0.12
   2  -1 -16    2.09    0.12
   2  -1 -16    2.12    0.12
   1  -1 -16   54.42    0.84
   1  -1 -16   53.62    0.84
   1  -1 -16   53.52    0.83
   0  -1 -16    0.10    0.06
   0  -1 -16    0.15    0.06
  -1  -1 -16    6.22    0.20
  -1  -1 -16    6.32    0.19
  -2  -1 -16   15.40    0.34
  -2  -1 -16   15.65    0.34
  -3  -1 -16    4.30    0.18
  -3  -1 -16    4.22    0.18
   3   1  16    4.52    0.18
   3   1  16    4.62    0.19
   4  -1  16    9.32    0.25
   4  -1  16    8.77    0.23
   4  -1  16    9.00    0.24
   4  -1  16    9.07    0.24
   4  -1  16    9.00    0.24
   4   1  16    8.82    0.27
   4   1  16    8.71    0.27
   5  -1  16    2.15    0.15
   5  -1  16    2.33    0.15
   5  -1  16    2.49    0.15
   5  -1  16    2.17    0.14
   5  -1  16    2.32    0.15
   5   1  16    2.20    0.16
   5   1  16    2.31    0.16
   6  -1  16    0.09    0.09
   6  -1  16    0.12    0.11
   6  -1  16    0.18    0.09
   6  -1  16    0.00    0.07
   6  -1  16    0.15    0.09
   6   1  16    0.23    0.10
   6   1  16    0.20    0.10
   7  -1  16    0.50    0.12
   7  -1  16    0.62    0.13
   7  -1  16    0.60    0.13
   7  -1  16    0.55    0.12
   7   1  16    0.70    0.14
   7   1  16    0.91    0.16
   8  -1  16   -0.03    0.12
   8  -1  16    0.05    0.12
   8  -1  16   -0.04    0.09
   8  -1  16   -0.04    0.10
   8   1  16   -0.07    0.11
   8   1  16    0.14    0.12
   8  -2 -16    0.43    0.15
   8  -2 -16    0.35    0.15
   8  -2 -16    0.37    0.14
   8  -2 -16    0.72    0.16
   7  -2 -16    0.92    0.15
   7  -2 -16    0.71    0.14
   7  -2 -16    0.79    0.15
   7  -2 -16    0.65    0.14
   7  -2 -16    0.83    0.15
   6  -2 -16   11.20    0.37
   6  -2 -16   11.75    0.37
   6  -2 -16   10.97    0.35
   6  -2 -16   11.53    0.37
   6  -2 -16   11.75    0.37
   5  -2 -16    0.18    0.10
   5  -2 -16    0.23    0.10
   5  -2 -16    0.20    0.10
   5  -2 -16    0.20    0.10
   5  -2 -16    0.01    0.09
   4  -2 -16   18.28    0.43
   4  -2 -16   17.85    0.43
   4  -2 -16   18.20    0.43
   4  -2 -16   17.87    0.43
   4  -2 -16   17.96    0.43
   3  -2 -16    3.87    0.19
   3  -2 -16    3.68    0.18
   3  -2 -16    3.51    0.19
   3  -2 -16    3.57    0.18
   3  -2 -16    3.81    0.19
   2  -2 -16    7.30    0.24
   2  -2 -16    7.05    0.23
   2  -2 -16    6.83    0.23
   1  -2 -16    0.16    0.08
   1  -2 -16    0.30    0.09
   1  -2 -16    0.29    0.08
   0  -2 -16    1.16    0.13
   0  -2 -16    1.07    0.13
  -1  -2 -16   -0.04    0.07
  -1  -2 -16   -0.03    0.06
  -2  -2 -16    0.98    0.12
  -2  -2 -16    1.04    0.12
  -3  -2 -16   25.61    0.54
  -3  -2 -16   27.01    0.54
  -4  -2 -16    4.16    0.21
  -4  -2 -16    3.99    0.21
   4   2  16    4.07    0.21
   4   2  16    3.80    0.20
   5   2  16    0.50    0.12
   5   2  16    0.49    0.13
   6   2  16    0.06    0.11
   6   2  16    0.19    0.10
   7   2  16    0.20    0.12
   7   2  16    0.27    0.12
   6  -3 -16    0.15    0.12
   6  -3 -16    0.16    0.13
   6  -3 -16    0.04    0.12
   6  -3 -16   -0.10    0.11
   5  -3 -16   -0.13    0.10
   5  -3 -16    0.10    0.10
   5  -3 -16    0.26    0.12
   5  -3 -16    0.25    0.12
   5  -3 -16    0.21    0.11
   4  -3 -16    0.46    0.13
   4  -3 -16    0.43    0.12
   4  -3 -16    0.36    0.12
   4  -3 -16    0.56    0.13
   4  -3 -16    0.54    0.13
   3  -3 -16    2.31    0.20
   3  -3 -16    2.64    0.20
   3  -3 -16    2.57    0.19
   2  -3 -16    0.16    0.10
   2  -3 -16    0.09    0.10
   2  -3 -16    0.05    0.09
   1  -3 -16    5.46    0.25
   1  -3 -16    5.07    0.24
   1  -3 -16    5.24    0.24
   0  -3 -16    5.46    0.24
   0  -3 -16    5.41    0.24
  -1  -3 -16    1.15    0.15
  -1  -3 -16    1.49    0.16
  -2  -3 -16    0.82    0.14
  -2  -3 -16    1.04    0.14
  -3  -3 -16    2.43    0.19
  -3  -3 -16    2.09    0.19
  -4  -3 -16    1.78    0.20
  -4  -3 -16    1.97    0.21
  -5  -3 -16    0.35    0.13
  -5  -3 -16   -0.02    0.11
   5   3  16    0.15    0.12
   5   3  16    0.25    0.13
   6   3  16    0.47    0.14
   6   3  16    0.38    0.14
   4  -4 -16    2.76    0.26
   4  -4 -16    2.71    0.26
   3  -4 -16    0.90    0.17
   3  -4 -16    0.80    0.17
   2  -4 -16    0.61    0.15
   2  -4 -16    0.48    0.15
   1  -4 -16    3.16    0.24
   1  -4 -16    2.90    0.23
   0  -4 -16   -0.09    0.11
   0  -4 -16    0.13    0.12
  -1  -4 -16    1.07    0.17
  -1  -4 -16    1.10    0.18
  -2  -4 -16    0.51    0.15
  -2  -4 -16    0.52    0.16
  -3  -4 -16    0.10    0.13
  -3  -4 -16    0.05    0.12
   8   0 -17    0.12    0.11
   8   0 -17    0.00    0.10
   7   0 -17    2.26    0.16
   7   0 -17    2.11    0.17
   7   0 -17    2.37    0.16
   7   0 -17    2.56    0.17
   6   0 -17    0.12    0.08
   6   0 -17    0.08    0.07
   6   0 -17    0.04    0.07
   6   0 -17    0.20    0.07
   6   0 -17    0.06    0.07
   4   0 -17    0.17    0.06
   4   0 -17    0.06    0.06
   4   0 -17    0.07    0.06
   4   0 -17   -0.04    0.05
   4   0 -17   -0.03    0.05
   3   0 -17   27.05    0.47
   3   0 -17   27.59    0.47
   3   0 -17   27.96    0.47
   3   0 -17   27.79    0.47
   3   0 -17   27.83    0.47
   2   0 -17    0.00    0.04
   2   0 -17    0.00    0.04
   2   0 -17    0.01    0.04
   1   0 -17   53.49    0.78
   1   0 -17   53.27    0.78
   0   0 -17    0.15    0.05
   0   0 -17    0.09    0.04
  -1   0 -17    9.40    0.21
  -1   0 -17    9.57    0.21
   2   0  17    0.11    0.06
   2   0  17    0.13    0.06
   3   0  17   19.46    0.39
   3   0  17   19.65    0.39
   4   0  17    0.06    0.07
   4   0  17    0.04    0.07
   5   0  17   21.70    0.47
   5   0  17   22.75    0.48
   6   0  17    0.06    0.08
   6   0  17   -0.04    0.07
   7   0  17    1.04    0.15
   7   0  17    0.96    0.16
   7   0  17    0.98    0.15
   7   0  17    0.96    0.15
   8  -1 -17    0.03    0.11
   8  -1 -17    0.05    0.10
   8  -1 -17    0.08    0.11
   8  -1 -17    0.11    0.11
   8  -1 -17    0.12    0.11
   7  -1 -17    0.53    0.12
   7  -1 -17    0.61    0.13
   7  -1 -17    0.66    0.13
   7  -1 -17    0.49    0.13
   7  -1 -17    0.47    0.12
   6  -1 -17    0.63    0.12
   6  -1 -17    0.44    0.11
   6  -1 -17    0.59    0.11
   6  -1 -17    0.64    0.12
   6  -1 -17    0.60    0.12
   5  -1 -17    5.01    0.21
   5  -1 -17    5.10    0.21
   5  -1 -17    5.08    0.21
   5  -1 -17    5.27    0.22
   5  -1 -17    5.36    0.21
   4  -1 -17   14.89    0.35
   4  -1 -17   14.34    0.34
   4  -1 -17   15.06    0.35
   4  -1 -17   15.43    0.35
   4  -1 -17   14.58    0.35
   3  -1 -17    1.43    0.11
   3  -1 -17    1.44    0.11
   3  -1 -17    1.46    0.12
   3  -1 -17    1.53    0.13
   3  -1 -17    1.42    0.11
   2  -1 -17    0.14    0.06
   2  -1 -17    0.17    0.06
   2  -1 -17    0.14    0.06
   1  -1 -17    4.73    0.17
   1  -1 -17    5.04    0.17
   1  -1 -17    4.80    0.17
   0  -1 -17   69.08    1.04
   0  -1 -17   69.23    1.04
  -1  -1 -17   16.01    0.34
  -1  -1 -17   16.44    0.34
  -2  -1 -17   29.85    0.53
  -2  -1 -17   28.77    0.53
  -3  -1 -17    0.61    0.10
  -3  -1 -17    0.41    0.09
   3   1  17    0.47    0.10
   3   1  17    0.64    0.10
   4   1  17    2.91    0.17
   4   1  17    2.89    0.17
   5   1  17    0.45    0.11
   5   1  17    0.46    0.11
   6   1  17    3.83    0.21
   6   1  17    3.62    0.20
   7   1  17    0.07    0.11
   7   1  17   -0.01    0.09
   7  -2 -17    0.02    0.11
   7  -2 -17    0.06    0.11
   7  -2 -17    0.17    0.12
   7  -2 -17    0.35    0.13
   6  -2 -17    0.44    0.13
   6  -2 -17    0.32    0.12
   6  -2 -17    0.45    0.12
   6  -2 -17    0.50    0.12
   6  -2 -17    0.37    0.11
   5  -2 -17    0.66    0.13
   5  -2 -17    0.36    0.11
   5  -2 -17    0.57    0.12
   5  -2 -17    0.66    0.12
   5  -2 -17    0.30    0.10
   4  -2 -17    2.69    0.17
   4  -2 -17    2.77    0.18
   4  -2 -17    2.55    0.17
   4  -2 -17    2.69    0.17
   4  -2 -17    2.51    0.17
   3  -2 -17   14.28    0.37
   3  -2 -17   14.10    0.37
   3  -2 -17   14.65    0.36
   3  -2 -17   14.64    0.37
   3  -2 -17   14.29    0.36
   2  -2 -17    0.21    0.09
   2  -2 -17    0.40    0.09
   2  -2 -17    0.47    0.10
   1  -2 -17   27.76    0.55
   1  -2 -17   27.60    0.55
   1  -2 -17   27.55    0.54
   0  -2 -17   10.10    0.29
   0  -2 -17    9.94    0.29
  -1  -2 -17    2.44    0.15
  -1  -2 -17    1.67    0.14
  -2  -2 -17    5.69    0.22
  -2  -2 -17    5.80    0.22
  -3  -2 -17   14.46    0.38
  -3  -2 -17   13.99    0.37
  -4  -2 -17    0.33    0.11
  -4  -2 -17    0.43    0.11
   4   2  17    0.37    0.12
   4   2  17    0.51    0.12
   5   2  17    3.26    0.21
   5   2  17    2.82    0.19
   6   2  17    0.15    0.11
   6   2  17    0.16    0.10
   7   2  17    0.38    0.13
   7   2  17    0.34    0.13
   6  -3 -17    2.12    0.23
   6  -3 -17    2.61    0.25
   6  -3 -17    2.00    0.22
   6  -3 -17    2.25    0.23
   5  -3 -17    1.94    0.21
   5  -3 -17    1.24    0.18
   5  -3 -17    1.46    0.19
   5  -3 -17    1.88    0.21
   5  -3 -17    1.49    0.19
   4  -3 -17    7.18    0.30
   4  -3 -17    7.21    0.29
   4  -3 -17    7.20    0.30
   4  -3 -17    7.07    0.30
   4  -3 -17    7.17    0.30
   3  -3 -17    0.42    0.13
   3  -3 -17    0.48    0.12
   3  -3 -17    0.51    0.13
   2  -3 -17    0.62    0.12
   2  -3 -17    0.31    0.11
   2  -3 -17    0.53    0.13
   1  -3 -17    0.74    0.13
   1  -3 -17    0.67    0.13
   0  -3 -17    2.06    0.19
   0  -3 -17    1.86    0.18
  -1  -3 -17    0.18    0.10
  -1  -3 -17    0.13    0.11
  -2  -3 -17    8.00    0.30
  -2  -3 -17    8.89    0.32
  -3  -3 -17    0.07    0.10
  -3  -3 -17    0.00    0.10
  -4  -3 -17    0.60    0.14
  -4  -3 -17    0.38    0.13
  -5  -3 -17    0.27    0.13
  -5  -3 -17    0.13    0.12
   5   3  17    0.14    0.11
   5   3  17    0.11    0.12
   3  -4 -17    2.39    0.23
   3  -4 -17    2.73    0.25
   2  -4 -17    0.08    0.12
   2  -4 -17    0.26    0.14
   1  -4 -17    1.52    0.20
   1  -4 -17    1.90    0.21
   0  -4 -17    0.02    0.11
   0  -4 -17   -0.03    0.11
  -1  -4 -17    0.39    0.14
  -1  -4 -17    0.15    0.12
  -2  -4 -17    0.82    0.17
  -2  -4 -17    0.82    0.17
  -3  -4 -17    0.02    0.13
  -3  -4 -17    0.11    0.14
   5   0 -18    0.01    0.08
   5   0 -18    0.07    0.08
   5   0 -18   -0.15    0.09
   5   0 -18    0.02    0.10
   4   0 -18    7.29    0.30
   4   0 -18    7.56    0.22
   4   0 -18    7.20    0.29
   4   0 -18    7.84    0.22
   4   0 -18    7.79    0.22
   3   0 -18    0.04    0.08
   3   0 -18   -0.08    0.04
   3   0 -18    0.03    0.05
   3   0 -18   -0.01    0.04
   3   0 -18   -0.02    0.06
   2   0 -18    0.75    0.08
   2   0 -18    0.76    0.07
   2   0 -18    0.72    0.07
   1   0 -18    0.15    0.04
   1   0 -18    0.10    0.04
   0   0 -18    1.96    0.09
   0   0 -18    1.97    0.09
  -1   0 -18    0.12    0.05
   2   0  18   69.90    1.04
   2   0  18   70.49    1.04
   3   0  18   -0.01    0.06
   3   0  18    0.12    0.06
   4   0  18    3.46    0.17
   4   0  18    3.75    0.17
   5   0  18    0.23    0.09
   5   0  18    0.07    0.08
   6   0  18    1.64    0.16
   6   0  18    1.85    0.18
   7   0  18    0.12    0.10
   7   0  18    0.08    0.10
   7   0  18    0.02    0.10
   7   0  18    0.04    0.11
   8  -1 -18    0.25    0.12
   8  -1 -18    0.61    0.15
   8  -1 -18    0.31    0.12
   8  -1 -18    0.48    0.14
   7  -1 -18    4.88    0.25
   7  -1 -18    4.90    0.24
   7  -1 -18    4.87    0.25
   7  -1 -18    5.19    0.25
   7  -1 -18    5.07    0.25
   6  -1 -18   10.50    0.32
   6  -1 -18   10.62    0.32
   6  -1 -18   10.13    0.32
   6  -1 -18   10.32    0.32
   6  -1 -18   10.32    0.31
   5  -1 -18    6.68    0.24
   5  -1 -18    6.69    0.24
   5  -1 -18    6.61    0.24
   5  -1 -18    6.58    0.24
   5  -1 -18    6.64    0.24
   4  -1 -18    2.77    0.16
   4  -1 -18    2.73    0.16
   4  -1 -18    2.74    0.15
   4  -1 -18    2.80    0.16
   4  -1 -18    2.61    0.15
   3  -1 -18   24.80    0.48
   3  -1 -18   25.14    0.48
   3  -1 -18   24.40    0.47
   3  -1 -18   24.96    0.48
   3  -1 -18   24.77    0.48
   2  -1 -18    2.91    0.14
   2  -1 -18    3.06    0.14
   2  -1 -18    2.89    0.14
   1  -1 -18   14.47    0.32
   1  -1 -18   14.11    0.31
   0  -1 -18    5.60    0.19
   0  -1 -18    5.61    0.18
  -1  -1 -18   10.10    0.26
  -1  -1 -18   10.11    0.26
  -2  -1 -18    5.05    0.18
  -2  -1 -18    5.02    0.19
  -3  -1 -18   17.73    0.39
  -3  -1 -18   17.42    0.39
   3   1  18   17.81    0.40
   3   1  18   17.91    0.39
   4   1  18    0.26    0.09
   4   1  18    0.26    0.09
   5   1  18    1.28    0.15
   5   1  18    1.49    0.15
   6   1  18   -0.06    0.09
   6   1  18    0.02    0.10
   7   1  18    0.02    0.11
   7   1  18    0.17    0.11
   7  -2 -18    5.71    0.30
   7  -2 -18    5.97    0.29
   7  -2 -18    5.76    0.30
   7  -2 -18    5.94    0.30
   6  -2 -18   13.48    0.41
   6  -2 -18   13.12    0.40
   6  -2 -18   13.98    0.41
   6  -2 -18   13.76    0.41
   6  -2 -18   13.98    0.41
   5  -2 -18    0.76    0.14
   5  -2 -18    0.71    0.14
   5  -2 -18    1.01    0.15
   5  -2 -18    1.32    0.16
   5  -2 -18    0.97    0.15
   4  -2 -18    8.47    0.29
   4  -2 -18    8.48    0.29
   4  -2 -18    8.36    0.28
   4  -2 -18    8.77    0.29
   4  -2 -18    9.25    0.29
   3  -2 -18    7.52    0.26
   3  -2 -18    7.55    0.26
   3  -2 -18    7.64    0.27
   3  -2 -18    7.38    0.26
   3  -2 -18    7.42    0.26
   2  -2 -18    0.38    0.10
   2  -2 -18    0.23    0.09
   2  -2 -18    0.32    0.10
   1  -2 -18    4.71    0.20
   1  -2 -18    4.30    0.19
   1  -2 -18    4.22    0.20
   0  -2 -18   13.85    0.35
   0  -2 -18   13.86    0.35
  -1  -2 -18    0.18    0.09
  -1  -2 -18    0.15    0.08
  -2  -2 -18    4.91    0.21
  -2  -2 -18    4.82    0.21
  -3  -2 -18    2.39    0.17
  -3  -2 -18    2.24    0.17
  -4  -2 -18    0.54    0.12
  -4  -2 -18    0.73    0.13
   4   2  18    0.65    0.13
   4   2  18    0.57    0.13
   5   2  18    0.14    0.11
   5   2  18    0.23    0.10
   6   2  18    0.03    0.11
   6   2  18    0.01    0.09
   6  -3 -18    1.96    0.22
   6  -3 -18    1.62    0.21
   6  -3 -18    1.78    0.22
   6  -3 -18    1.93    0.22
   5  -3 -18    2.08    0.22
   5  -3 -18    2.02    0.21
   5  -3 -18    1.76    0.21
   5  -3 -18    2.15    0.21
   4  -3 -18    3.28    0.22
   4  -3 -18    3.45    0.23
   4  -3 -18    3.04    0.22
   4  -3 -18    3.28    0.23
   4  -3 -18    3.38    0.23
   3  -3 -18    8.34    0.32
   3  -3 -18    8.32    0.31
   3  -3 -18    8.06    0.31
   2  -3 -18    2.41    0.21
   2  -3 -18    2.50    0.20
   2  -3 -18    2.62    0.22
   1  -3 -18   10.29    0.34
   1  -3 -18   10.77    0.34
   0  -3 -18   -0.10    0.09
   0  -3 -18    0.01    0.10
  -1  -3 -18    0.45    0.12
  -1  -3 -18    0.63    0.12
  -2  -3 -18    1.02    0.15
  -2  -3 -18    1.12    0.16
  -3  -3 -18    0.38    0.14
  -3  -3 -18    0.11    0.12
  -4  -3 -18    0.13    0.12
  -4  -3 -18    0.17    0.12
  -5  -3 -18    0.62    0.15
  -5  -3 -18    0.58    0.15
   5   3  18    0.38    0.13
   5   3  18    0.55    0.15
   3  -4 -18    2.47    0.25
   3  -4 -18    2.09    0.22
   2  -4 -18    0.07    0.14
   2  -4 -18   -0.23    0.12
   1  -4 -18   -0.07    0.12
   1  -4 -18    0.26    0.13
   0  -4 -18    1.36    0.18
   0  -4 -18    1.65    0.20
  -1  -4 -18    0.20    0.13
  -1  -4 -18    0.25    0.14
  -2  -4 -18    0.56    0.15
  -2  -4 -18    0.31    0.14
  -1   0 -19   88.13    1.28
  -1   0 -19   88.75    1.29
   2   0  19    0.16    0.06
   2   0  19    0.15    0.06
   3   0  19    2.25    0.13
   3   0  19    2.41    0.13
   4   0  19    0.10    0.07
   4   0  19    0.05    0.07
   5   0  19    0.42    0.10
   5   0  19    0.41    0.10
   6   0  19   -0.04    0.08
   6   0  19   -0.04    0.08
   7   0  19   -0.02    0.10
   7   0  19    0.14    0.11
   7   0  19    0.04    0.10
   7   0  19    0.11    0.11
   7  -1 -19    0.55    0.13
   7  -1 -19    0.55    0.13
   7  -1 -19    0.65    0.13
   7  -1 -19    0.78    0.15
   7  -1 -19    0.52    0.12
   6  -1 -19   11.72    0.35
   6  -1 -19   11.72    0.35
   6  -1 -19   12.15    0.35
   6  -1 -19   12.06    0.35
   6  -1 -19   11.55    0.35
   5  -1 -19    0.68    0.11
   5  -1 -19    0.52    0.11
   5  -1 -19    0.53    0.11
   5  -1 -19    0.63    0.11
   5  -1 -19    0.58    0.11
   4  -1 -19    5.00    0.20
   4  -1 -19    5.29    0.20
   4  -1 -19    5.44    0.21
   4  -1 -19    5.50    0.21
   4  -1 -19    5.06    0.20
   3  -1 -19    0.20    0.07
   3  -1 -19    0.25    0.07
   3  -1 -19    0.15    0.06
   3  -1 -19    0.24    0.07
   3  -1 -19    0.22    0.07
   2  -1 -19    7.36    0.22
   2  -1 -19    7.63    0.22
   2  -1 -19    7.49    0.23
   1  -1 -19    0.13    0.06
   1  -1 -19    0.01    0.06
   0  -1 -19   37.73    0.64
   0  -1 -19   38.44    0.64
  -1  -1 -19    3.13    0.15
  -1  -1 -19    3.33    0.15
  -3  -1 -19    0.79    0.11
  -3  -1 -19    0.93    0.11
   3   1  19    0.95    0.12
   3   1  19    0.57    0.10
   4   1  19    4.37    0.20
   4   1  19    4.79    0.21
   5   1  19    0.18    0.09
   5   1  19   -0.02    0.08
   6   1  19    0.84    0.14
   6   1  19    1.22    0.16
   7   1  19    1.03    0.16
   7   1  19    1.01    0.17
   7  -2 -19    1.54    0.19
   7  -2 -19    1.67    0.20
   7  -2 -19    1.83    0.21
   7  -2 -19    1.02    0.17
   6  -2 -19    1.59    0.18
   6  -2 -19    1.15    0.17
   6  -2 -19    1.13    0.16
   6  -2 -19    1.07    0.16
   6  -2 -19    1.27    0.17
   5  -2 -19    9.69    0.33
   5  -2 -19   10.33    0.34
   5  -2 -19   10.36    0.34
   5  -2 -19   10.14    0.33
   5  -2 -19   10.65    0.34
   4  -2 -19    0.03    0.08
   4  -2 -19    0.15    0.09
   4  -2 -19    0.23    0.10
   4  -2 -19    0.16    0.09
   4  -2 -19    0.27    0.10
   3  -2 -19   14.81    0.39
   3  -2 -19   14.95    0.39
   3  -2 -19   14.70    0.38
   2  -2 -19    0.81    0.13
   2  -2 -19    0.75    0.12
   2  -2 -19    0.69    0.12
   1  -2 -19   -0.02    0.08
   1  -2 -19   -0.03    0.07
   0  -2 -19    0.78    0.12
   0  -2 -19    0.96    0.13
  -1  -2 -19    2.35    0.16
  -1  -2 -19    2.40    0.16
  -2  -2 -19    0.88    0.13
  -2  -2 -19    0.63    0.11
  -3  -2 -19    3.82    0.20
  -3  -2 -19    4.05    0.21
  -4  -2 -19    0.85    0.14
  -4  -2 -19    0.92    0.14
   4   2  19    0.51    0.13
   4   2  19    0.58    0.12
   5   2  19    0.34    0.11
   5   2  19    0.39    0.13
   6   2  19    0.00    0.11
   6   2  19    0.04    0.11
   5  -3 -19    1.48    0.19
   5  -3 -19    1.81    0.21
   5  -3 -19    1.76    0.20
   5  -3 -19    1.95    0.22
   4  -3 -19    0.08    0.11
   4  -3 -19    0.18    0.12
   4  -3 -19    0.30    0.12
   4  -3 -19    0.35    0.12
   4  -3 -19    0.00    0.11
   3  -3 -19    1.03    0.16
   3  -3 -19    1.09    0.16
   3  -3 -19    0.98    0.16
   2  -3 -19   10.13    0.35
   2  -3 -19    9.51    0.33
   2  -3 -19    9.21    0.33
   1  -3 -19    0.85    0.15
   1  -3 -19    0.91    0.15
   0  -3 -19    1.28    0.16
   0  -3 -19    1.23    0.16
  -1  -3 -19    0.54    0.13
  -1  -3 -19    0.36    0.13
  -2  -3 -19    3.86    0.23
  -2  -3 -19    3.55    0.23
  -3  -3 -19    0.03    0.11
  -3  -3 -19   -0.08    0.10
  -4  -3 -19   -0.01    0.11
  -4  -3 -19   -0.01    0.11
  -5  -3 -19    0.22    0.14
  -5  -3 -19    0.43    0.14
   5   3  19    0.25    0.14
   5   3  19    0.18    0.12
   2  -4 -19    1.18    0.20
   2  -4 -19    1.13    0.19
   1  -4 -19    0.10    0.13
   1  -4 -19    0.04    0.12
   0  -4 -19    0.34    0.14
   0  -4 -19    0.64    0.16
  -1  -4 -19    0.03    0.12
  -1  -4 -19    0.05    0.13
   4   0  20    0.16    0.08
   4   0  20    0.24    0.09
   5   0  20    0.01    0.07
   5   0  20    0.00    0.08
   6   0  20   -0.08    0.08
   6   0  20   -0.02    0.09
   7   0  20   -0.01    0.10
   7   0  20    0.00    0.14
   7   0  20    0.06    0.16
   7   0  20    0.02    0.10
   7  -1 -20    0.16    0.11
   7  -1 -20    0.01    0.10
   7  -1 -20    0.12    0.10
   7  -1 -20    0.05    0.10
   6  -1 -20    1.11    0.16
   6  -1 -20    0.94    0.14
   6  -1 -20    1.29    0.15
   6  -1 -20    1.45    0.16
   6  -1 -20    1.12    0.14
   5  -1 -20    7.17    0.26
   5  -1 -20    7.04    0.25
   5  -1 -20    7.31    0.26
   5  -1 -20    7.30    0.26
   5  -1 -20    6.98    0.25
   4  -1 -20    0.20    0.08
   4  -1 -20    0.13    0.08
   4  -1 -20    0.45    0.10
   4  -1 -20    0.38    0.09
   4  -1 -20    0.26    0.08
   3  -1 -20   37.90    0.67
   3  -1 -20   37.60    0.67
   3  -1 -20   38.62    0.66
   3  -1 -20   37.72    0.66
   3  -1 -20   37.93    0.67
   2  -1 -20    0.24    0.07
   2  -1 -20    0.35    0.08
   2  -1 -20    0.29    0.08
   1  -1 -20    0.98    0.11
   1  -1 -20    0.86    0.10
   0  -1 -20    6.83    0.21
   0  -1 -20    6.90    0.21
  -1  -1 -20    8.58    0.24
  -1  -1 -20    8.98    0.24
  -2  -1 -20    1.37    0.13
  -2  -1 -20    1.26    0.12
  -3  -1 -20    1.90    0.14
  -3  -1 -20    1.57    0.13
   3   1  20    1.82    0.15
   3   1  20    1.85    0.16
   4   1  20    0.62    0.11
   4   1  20    0.76    0.12
   5   1  20    0.64    0.12
   5   1  20    0.70    0.13
   6   1  20    0.99    0.16
   6   1  20    0.85    0.13
   6  -2 -20    0.29    0.13
   6  -2 -20    0.53    0.13
   6  -2 -20    0.51    0.13
   6  -2 -20    0.39    0.13
   6  -2 -20    0.52    0.14
   5  -2 -20    6.22    0.27
   5  -2 -20    6.36    0.27
   5  -2 -20    6.17    0.27
   5  -2 -20    6.46    0.27
   5  -2 -20    5.88    0.27
   4  -2 -20    0.55    0.12
   4  -2 -20    0.53    0.12
   4  -2 -20    0.57    0.12
   4  -2 -20    0.45    0.12
   4  -2 -20    0.52    0.13
   3  -2 -20    0.24    0.09
   3  -2 -20    0.14    0.09
   3  -2 -20    0.23    0.10
   2  -2 -20    9.28    0.30
   2  -2 -20    9.59    0.30
   2  -2 -20    8.82    0.29
   1  -2 -20    7.19    0.26
   1  -2 -20    7.08    0.26
   0  -2 -20   25.72    0.53
   0  -2 -20   26.08    0.53
  -1  -2 -20    0.23    0.09
  -1  -2 -20    0.41    0.10
  -2  -2 -20    1.35    0.15
  -2  -2 -20    1.19    0.14
  -3  -2 -20    1.31    0.15
  -3  -2 -20    1.51    0.16
  -4  -2 -20    0.05    0.09
  -4  -2 -20    0.11    0.09
   4   2  20    0.41    0.12
   4   2  20    0.02    0.09
   5   2  20    0.05    0.10
   5   2  20    0.19    0.12
   6   2  20    0.14    0.11
   6   2  20    0.09    0.12
   5  -3 -20    2.28    0.24
   5  -3 -20    1.77    0.21
   5  -3 -20    2.26    0.23
   5  -3 -20    2.56    0.25
   4  -3 -20    2.85    0.22
   4  -3 -20    2.81    0.22
   3  -3 -20    3.29    0.23
   3  -3 -20    3.65    0.23
   3  -3 -20    3.68    0.23
   2  -3 -20    0.48    0.12
   2  -3 -20    0.46    0.12
   2  -3 -20    0.37    0.13
   1  -3 -20    2.65    0.22
   1  -3 -20    2.70    0.22
   0  -3 -20    0.28    0.12
   0  -3 -20    0.45    0.13
  -1  -3 -20    2.50    0.20
  -1  -3 -20    2.84    0.21
  -2  -3 -20    0.77    0.15
  -2  -3 -20    0.72    0.15
  -3  -3 -20    2.66    0.23
  -3  -3 -20    1.99    0.20
  -4  -3 -20    0.05    0.12
  -4  -3 -20   -0.03    0.12
   0  -4 -20    1.15    0.19
   0  -4 -20    0.87    0.18
   6  -1 -21    7.41    0.33
   6  -1 -21    7.41    0.28
   6  -1 -21    7.93    0.33
   6  -1 -21    7.51    0.29
   5  -1 -21    2.53    0.18
   5  -1 -21    2.95    0.18
   5  -1 -21    2.75    0.18
   5  -1 -21    2.46    0.16
   4  -1 -21    2.81    0.16
   4  -1 -21    2.77    0.17
   4  -1 -21    2.90    0.17
   4  -1 -21    2.81    0.16
   4  -1 -21    2.97    0.17
   3  -1 -21    1.78    0.15
   3  -1 -21    1.94    0.14
   3  -1 -21    1.88    0.14
   2  -1 -21    9.40    0.26
   2  -1 -21    9.43    0.26
   2  -1 -21    8.91    0.26
   1  -1 -21    5.05    0.18
   1  -1 -21    4.89    0.18
   0  -1 -21    0.46    0.08
   0  -1 -21    0.43    0.08
  -1  -1 -21    5.27    0.19
  -1  -1 -21    5.14    0.19
  -2  -1 -21    0.40    0.09
  -2  -1 -21    0.48    0.09
  -3  -1 -21    0.05    0.06
  -3  -1 -21   -0.09    0.06
   3   1  21   -0.10    0.06
   3   1  21   -0.05    0.07
   5   1  21    0.57    0.12
   5   1  21    0.52    0.11
   6   1  21    1.23    0.16
   6   1  21    1.33    0.18
   6  -2 -21   -0.05    0.11
   6  -2 -21    0.08    0.12
   6  -2 -21    0.32    0.13
   6  -2 -21    0.15    0.12
   6  -2 -21    0.22    0.12
   5  -2 -21    9.71    0.34
   5  -2 -21   10.51    0.35
   5  -2 -21   10.18    0.34
   5  -2 -21   10.69    0.35
   5  -2 -21   10.36    0.35
   4  -2 -21    0.24    0.10
   4  -2 -21    0.28    0.11
   4  -2 -21    0.25    0.11
   4  -2 -21    0.21    0.11
   4  -2 -21    0.09    0.10
   3  -2 -21    2.85    0.19
   3  -2 -21    3.03    0.19
   3  -2 -21    2.92    0.19
   2  -2 -21    6.49    0.25
   2  -2 -21    6.44    0.25
   2  -2 -21    6.69    0.25
   1  -2 -21    3.71    0.19
   1  -2 -21    3.79    0.20
   0  -2 -21    2.91    0.18
   0  -2 -21    2.67    0.17
  -1  -2 -21    2.26    0.16
  -1  -2 -21    2.22    0.16
  -2  -2 -21    1.28    0.15
  -2  -2 -21    1.20    0.15
  -3  -2 -21    0.56    0.12
  -3  -2 -21    0.38    0.11
  -4  -2 -21    0.74    0.13
  -4  -2 -21    0.67    0.13
   4   2  21    0.69    0.13
   4   2  21    0.69    0.14
   5   2  21    0.26    0.13
   5   2  21   -0.01    0.10
   4  -3 -21    2.18    0.22
   4  -3 -21    2.25    0.22
   3  -3 -21    0.94    0.16
   3  -3 -21    0.80    0.16
   3  -3 -21    1.00    0.17
   2  -3 -21    5.11    0.27
   2  -3 -21    4.40    0.26
   2  -3 -21    4.93    0.26
   1  -3 -21    0.89    0.14
   1  -3 -21    1.00    0.16
   0  -3 -21    1.90    0.20
   0  -3 -21    2.03    0.20
  -1  -3 -21    0.26    0.12
  -1  -3 -21    0.23    0.12
  -2  -3 -21    0.39    0.13
  -2  -3 -21    0.30    0.13
  -3  -3 -21    0.26    0.13
  -3  -3 -21    0.35    0.14
  -4  -3 -21    0.58    0.16
  -4  -3 -21    0.60    0.16
   3  -1 -22    1.40    0.15
   3  -1 -22    1.43    0.16
   2  -1 -22    0.05    0.12
   2  -1 -22    0.06    0.07
   2  -1 -22   -0.04    0.06
   1  -1 -22    0.91    0.10
   1  -1 -22    0.62    0.09
   0  -1 -22    7.12    0.22
   0  -1 -22    6.60    0.21
  -1  -1 -22    9.00    0.26
  -1  -1 -22    8.79    0.25
  -2  -1 -22    0.53    0.10
  -2  -1 -22    0.53    0.10
  -3  -1 -22    2.13    0.14
  -3  -1 -22    2.32    0.14
   3   1  22    2.11    0.15
   3   1  22    2.28    0.15
   4   1  22    0.14    0.09
   4   1  22    0.08    0.09
   5   1  22    0.19    0.09
   5   1  22    0.11    0.09
   6   1  22    0.21    0.12
   6   1  22    0.16    0.11
   6  -2 -22    0.30    0.14
   6  -2 -22    0.38    0.13
   6  -2 -22    0.67    0.15
   6  -2 -22    0.28    0.13
   5  -2 -22    0.87    0.15
   5  -2 -22    0.64    0.14
   5  -2 -22    0.59    0.13
   5  -2 -22    0.85    0.15
   5  -2 -22    0.76    0.14
   4  -2 -22    9.19    0.32
   4  -2 -22    9.47    0.32
   4  -2 -22    9.24    0.32
   3  -2 -22    0.24    0.10
   3  -2 -22    0.01    0.09
   3  -2 -22    0.08    0.09
   2  -2 -22    9.76    0.31
   2  -2 -22   10.55    0.32
   2  -2 -22   10.24    0.32
   1  -2 -22   -0.12    0.08
   1  -2 -22    0.01    0.08
   0  -2 -22    0.57    0.11
   0  -2 -22    0.45    0.11
  -1  -2 -22    2.55    0.20
  -1  -2 -22    2.06    0.17
  -2  -2 -22   -0.10    0.08
  -2  -2 -22   -0.03    0.08
  -3  -2 -22    2.16    0.20
  -3  -2 -22    1.96    0.19
  -4  -2 -22    0.66    0.14
  -4  -2 -22    0.81    0.15
   4   2  22    0.32    0.12
   4   2  22    0.56    0.12
   5   2  22    0.04    0.10
   5   2  22    0.14    0.12
   4  -3 -22    1.56    0.20
   4  -3 -22    1.64    0.20
   3  -3 -22    0.19    0.13
   3  -3 -22    0.33    0.13
   2  -3 -22    3.33    0.24
   2  -3 -22    3.42    0.23
   1  -3 -22    4.97    0.26
   1  -3 -22    4.73    0.26
   0  -3 -22    0.11    0.12
   0  -3 -22    0.40    0.13
  -1  -3 -22    1.49    0.19
  -1  -3 -22    1.37    0.18
  -2  -3 -22    0.08    0.12
  -2  -3 -22    0.23    0.13
  -3  -3 -22    1.23    0.19
  -3  -3 -22    1.26    0.19
  -1  -1 -23    1.96    0.20
  -1  -1 -23    2.13    0.20
  -2  -1 -23    0.37    0.09
  -2  -1 -23    0.19    0.08
  -3  -1 -23    0.29    0.09
  -3  -1 -23    0.31    0.08
   3   1  23    0.30    0.09
   3   1  23    0.18    0.09
   4   1  23    0.04    0.09
   4   1  23    0.04    0.08
   5   1  23    0.95    0.14
   5   1  23    0.81    0.14
   5  -2 -23    0.27    0.12
   5  -2 -23    0.27    0.12
   5  -2 -23    0.37    0.12
   5  -2 -23    0.23    0.12
   5  -2 -23    0.29    0.12
   4  -2 -23    2.25    0.20
   4  -2 -23    2.08    0.20
   4  -2 -23    2.13    0.19
   3  -2 -23    0.26    0.11
   3  -2 -23    0.34    0.11
   3  -2 -23    0.35    0.12
   2  -2 -23    0.26    0.10
   2  -2 -23    0.48    0.11
   1  -2 -23    0.18    0.09
   1  -2 -23   -0.02    0.08
   0  -2 -23    2.43    0.19
   0  -2 -23    2.14    0.19
  -1  -2 -23    8.64    0.30
  -1  -2 -23    8.81    0.30
  -2  -2 -23   -0.09    0.09
  -2  -2 -23    0.02    0.10
  -3  -2 -23    0.06    0.10
  -3  -2 -23   -0.07    0.09
  -4  -2 -23    0.64    0.13
  -4  -2 -23    0.64    0.13
   4   2  23    0.73    0.15
   4   2  23    0.89    0.15
   3  -3 -23    2.08    0.22
   3  -3 -23    1.92    0.21
   2  -3 -23    0.10    0.12
   2  -3 -23    0.03    0.11
   1  -3 -23    0.90    0.16
   1  -3 -23    0.55    0.14
   0  -3 -23    0.98    0.17
   0  -3 -23    0.70    0.16
  -1  -3 -23    0.19    0.13
  -1  -3 -23    0.41    0.14
  -2  -3 -23    1.59    0.20
  -2  -3 -23    2.27    0.23
   5  -2 -24    0.51    0.13
   5  -2 -24    0.39    0.13
   5  -2 -24    0.15    0.12
   5  -2 -24    0.66    0.14
   4  -2 -24    4.03    0.23
   4  -2 -24    3.67    0.23
   3  -2 -24    0.68    0.14
   3  -2 -24    0.60    0.13
   3  -2 -24    0.71    0.13
   2  -2 -24    7.88    0.28
   2  -2 -24    7.67    0.28
   1  -2 -24    6.59    0.27
   1  -2 -24    6.72    0.27
   0  -2 -24    1.45    0.16
   0  -2 -24    1.96    0.18
  -1  -2 -24    0.79    0.14
  -1  -2 -24    0.88    0.14
  -2  -2 -24    1.59    0.17
  -2  -2 -24    1.64    0.17
  -3  -2 -24    0.48    0.12
  -3  -2 -24    0.44    0.12
  -4  -2 -24    0.92    0.16
  -4  -2 -24    1.16    0.16
   4   2  24    0.95    0.15
   4   2  24    1.22    0.18
   2  -3 -24    1.20    0.18
   2  -3 -24    0.97    0.17
   1  -3 -24    4.12    0.26
   1  -3 -24    4.81    0.26
   0  -3 -24    0.16    0.12
   0  -3 -24    0.29    0.13
  -1  -3 -24    0.17    0.13
  -1  -3 -24    0.22    0.13
   3  -2 -25    3.66    0.22
   3  -2 -25    3.74    0.22
   2  -2 -25    0.17    0.10
   2  -2 -25    0.05    0.10
   1  -2 -25    3.27    0.20
   1  -2 -25    3.31    0.20
   0  -2 -25    0.39    0.12
   0  -2 -25    0.22    0.11
  -1  -2 -25    0.54    0.12
  -1  -2 -25    0.32    0.11
  -2  -2 -25    0.37    0.12
  -2  -2 -25    0.22    0.11
  -3  -2 -25   -0.13    0.09
  -3  -2 -25    0.13    0.10
  -1  -2 -26    0.67    0.15
  -1  -2 -26    0.95    0.17
  -2  -2 -26    3.40    0.23
  -2  -2 -26    3.65    0.24
   0   0   0    0.00    0.00
;
_shelx_hkl_checksum              18119
loop_
_space_group_symop_operation_xyz
'x, y, z'
'-x+1/2, y+1/2, -z+1/2'
'-x, -y, -z'
'x-1/2, -y-1/2, z-1/2'
loop_
_atom_site_label
_atom_site_type_symbol
_atom_site_fract_x
_atom_site_fract_y
_atom_site_fract_z
_atom_site_U_iso_or_equiv
_atom_site_adp_type
_atom_site_occupancy
_atom_site_site_symmetry_order
_atom_site_calc_flag
_atom_site_refinement_flags_posn
_atom_site_refinement_flags_adp
_atom_site_refinement_flags_occupancy
_atom_site_disorder_assembly
_atom_site_disorder_group
Cl1 Cl 0.17545(9) 0.48504(19) 0.44790(3) 0.0662(3) Uani 1 1 d . . . . .
O1 O 0.1158(2) 0.4075(7) 0.33536(10) 0.0746(7) Uani 1 1 d . . . . .
C7 C 0.2265(3) 0.3579(6) 0.37415(10) 0.0434(5) Uani 1 1 d . . . . .
C1 C 0.4033(2) 0.2018(5) 0.36839(9) 0.0348(4) Uani 1 1 d . . . . .
C2 C 0.4396(3) 0.0884(6) 0.31189(10) 0.0408(5) Uani 1 1 d . . . . .
H2 H 0.3518 0.1112 0.2795 0.049 Uiso 1 1 calc R U . . .
C3 C 0.6037(3) -0.0582(6) 0.30239(12) 0.0507(6) Uani 1 1 d . . . . .
H3 H 0.6287 -0.1360 0.2636 0.061 Uiso 1 1 calc R U . . .
C4 C 0.7303(3) -0.0909(6) 0.34936(13) 0.0555(7) Uani 1 1 d . . . . .
H4 H 0.8427 -0.1925 0.3430 0.067 Uiso 1 1 calc R U . . .
C6 C 0.5316(3) 0.1676(6) 0.41576(11) 0.0460(5) Uani 1 1 d . . . . .
H6 H 0.5070 0.2431 0.4548 0.055 Uiso 1 1 calc R U . . .
C5 C 0.6950(3) 0.0231(7) 0.40567(14) 0.0581(7) Uani 1 1 d . . . . .
H5 H 0.7838 0.0020 0.4378 0.070 Uiso 1 1 calc R U . . .
loop_
_atom_site_aniso_label
_atom_site_aniso_U_11
_atom_site_aniso_U_22
_atom_site_aniso_U_33
_atom_site_aniso_U_23
_atom_site_aniso_U_13
_atom_site_aniso_U_12
Cl1 0.0680(5) 0.0753(5) 0.0581(5) -0.0126(3) 0.0255(3) 0.0079(3)
O1 0.0451(9) 0.1164(18) 0.0620(13) 0.0013(12) 0.0007(8) 0.0259(11)
C7 0.0391(10) 0.0495(12) 0.0425(13) 0.0019(9) 0.0087(8) 0.0035(8)
C1 0.0326(8) 0.0324(9) 0.0397(12) 0.0034(7) 0.0050(7) -0.0019(7)
C2 0.0412(10) 0.0429(11) 0.0388(12) 0.0001(8) 0.0052(8) -0.0003(8)
C3 0.0520(12) 0.0454(12) 0.0568(16) -0.0021(10) 0.0194(11) 0.0025(10)
C4 0.0387(10) 0.0456(12) 0.084(2) 0.0057(12) 0.0136(11) 0.0083(9)
C6 0.0473(11) 0.0481(12) 0.0421(13) 0.0016(9) -0.0021(9) 0.0016(9)
C5 0.0432(12) 0.0573(15) 0.072(2) 0.0091(12) -0.0119(12) 0.0035(10)
loop_
_atom_type_symbol
_atom_type_description
_atom_type_scat_dispersion_real
_atom_type_scat_dispersion_imag
_atom_type_scat_source
C C 0.0033 0.0016 'International Tables Vol C Tables 4.2.6.8 and 6.1.1.4'
H H 0.0000 0.0000 'International Tables Vol C Tables 4.2.6.8 and 6.1.1.4'
O O 0.0106 0.0060 'International Tables Vol C Tables 4.2.6.8 and 6.1.1.4'
Cl Cl 0.1484 0.1585 'International Tables Vol C Tables 4.2.6.8 and 6.1.1.4'
loop_
_geom_angle_atom_site_label_1
_geom_angle_atom_site_label_2
_geom_angle_atom_site_label_3
_geom_angle
_geom_angle_site_symmetry_1
_geom_angle_site_symmetry_3
O1 C7 C1 126.8(2) . .
O1 C7 Cl1 116.85(18) . .
C1 C7 Cl1 116.32(15) . .
C2 C1 C6 119.94(19) . .
C2 C1 C7 116.37(17) . .
C6 C1 C7 123.69(19) . .
C1 C2 C3 120.1(2) . .
C1 C2 H2 119.9 . .
C3 C2 H2 119.9 . .
C4 C3 C2 119.8(2) . .
C4 C3 H3 120.1 . .
C2 C3 H3 120.1 . .
C3 C4 C5 120.3(2) . .
C3 C4 H4 119.8 . .
C5 C4 H4 119.8 . .
C5 C6 C1 119.4(2) . .
C5 C6 H6 120.3 . .
C1 C6 H6 120.3 . .
C4 C5 C6 120.5(2) . .
C4 C5 H5 119.8 . .
C6 C5 H5 119.8 . .
loop_
_geom_bond_atom_site_label_1
_geom_bond_atom_site_label_2
_geom_bond_distance
_geom_bond_site_symmetry_2
Cl1 C7 1.787(2) .
O1 C7 1.177(3) .
C7 C1 1.471(3) .
C1 C2 1.383(3) .
C1 C6 1.389(3) .
C2 C3 1.385(3) .
C2 H2 0.9500 .
C3 C4 1.374(4) .
C3 H3 0.9500 .
C4 C5 1.378(4) .
C4 H4 0.9500 .
C6 C5 1.379(3) .
C6 H6 0.9500 .
C5 H5 0.9500 .
loop_
_geom_torsion_atom_site_label_1
_geom_torsion_atom_site_label_2
_geom_torsion_atom_site_label_3
_geom_torsion_atom_site_label_4
_geom_torsion
_geom_torsion_site_symmetry_1
_geom_torsion_site_symmetry_2
_geom_torsion_site_symmetry_3
_geom_torsion_site_symmetry_4
O1 C7 C1 C2 -3.1(4) . . . .
Cl1 C7 C1 C2 176.96(16) . . . .
O1 C7 C1 C6 176.4(3) . . . .
Cl1 C7 C1 C6 -3.6(3) . . . .
C6 C1 C2 C3 -0.2(3) . . . .
C7 C1 C2 C3 179.3(2) . . . .
C1 C2 C3 C4 0.1(3) . . . .
C2 C3 C4 C5 -0.3(4) . . . .
C2 C1 C6 C5 0.6(3) . . . .
C7 C1 C6 C5 -178.8(2) . . . .
C3 C4 C5 C6 0.7(4) . . . .
C1 C6 C5 C4 -0.9(4) . . . .
