#------------------------------------------------------------------------------
#$Date: 2016-05-06 03:19:51 +0300 (Fri, 06 May 2016) $
#$Revision: 182609 $
#$URL: svn://www.crystallography.net/cod/cif/7/11/89/7118907.cif $
#------------------------------------------------------------------------------
#
# This file is available in the Crystallography Open Database (COD),
# http://www.crystallography.net/
#
# All data on this site have been placed in the public domain by the
# contributors.
#
data_7118907
loop_
_publ_author_name
'Ivanov, Daniil M.'
'Novikov, Alexander S.'
'Ananyev, Ivan V.'
'Kirina, Yulia V.'
'Kukushkin, Vadim Yu'
_publ_section_title
;
 Halogen bonding between metal centers and halocarbons.
;
_journal_issue                   32
_journal_name_full
'Chemical communications (Cambridge, England)'
_journal_page_first              5565
_journal_page_last               5568
_journal_paper_doi               10.1039/c6cc01107a
_journal_volume                  52
_journal_year                    2016
_chemical_formula_moiety         'C10 H20 Cl2 N4 Pt, 2(C H I3)'
_chemical_formula_sum            'C12 H22 Cl2 I6 N4 Pt'
_chemical_formula_weight         1249.72
_space_group_crystal_system      triclinic
_space_group_IT_number           2
_space_group_name_Hall           '-P 1'
_space_group_name_H-M_alt        'P -1'
_symmetry_space_group_name_Hall  '-P 1'
_symmetry_space_group_name_H-M   'P -1'
_atom_sites_solution_hydrogens   geom
_audit_creation_method           SHELXL-2014/6
_audit_update_record
;
2016-01-11 deposited with the CCDC.
2016-03-16 downloaded from the CCDC.
;
_cell_angle_alpha                104.013(5)
_cell_angle_beta                 98.930(5)
_cell_angle_gamma                116.223(7)
_cell_formula_units_Z            1
_cell_length_a                   8.2473(6)
_cell_length_b                   8.7723(6)
_cell_length_c                   11.3779(6)
_cell_measurement_reflns_used    217
_cell_measurement_temperature    100(2)
_cell_measurement_theta_max      25
_cell_measurement_theta_min      3
_cell_volume                     683.18(10)
_computing_cell_refinement       'Bruker SAINT'
_computing_data_collection       'Bruker APEX II'
_computing_data_reduction        'Bruker SAINT'
_computing_molecular_graphics    'Bruker SHELXTL'
_computing_publication_material  'Bruker SHELXTL'
_computing_structure_refinement  'SHELXL-97 (Sheldrick, 1997)'
_computing_structure_solution    'SHELXS-97 (Sheldrick, 1997)'
_diffrn_ambient_temperature      100(2)
_diffrn_measured_fraction_theta_full 0.999
_diffrn_measured_fraction_theta_max 0.999
_diffrn_measurement_device_type  'Bruker APEX II CCD area detector''
_diffrn_measurement_method       'omega scans'
_diffrn_radiation_type           MoK\a
_diffrn_radiation_wavelength     0.71073
_diffrn_reflns_av_R_equivalents  0.0279
_diffrn_reflns_av_unetI/netI     0.0441
_diffrn_reflns_Laue_measured_fraction_full 0.999
_diffrn_reflns_Laue_measured_fraction_max 0.999
_diffrn_reflns_limit_h_max       11
_diffrn_reflns_limit_h_min       -11
_diffrn_reflns_limit_k_max       12
_diffrn_reflns_limit_k_min       -12
_diffrn_reflns_limit_l_max       15
_diffrn_reflns_limit_l_min       -16
_diffrn_reflns_number            7562
_diffrn_reflns_point_group_measured_fraction_full 0.999
_diffrn_reflns_point_group_measured_fraction_max 0.999
_diffrn_reflns_theta_full        25.242
_diffrn_reflns_theta_max         30.000
_diffrn_reflns_theta_min         2.763
_exptl_absorpt_coefficient_mu    12.115
_exptl_absorpt_correction_T_max  0.335
_exptl_absorpt_correction_T_min  0.135
_exptl_absorpt_correction_type   multi-scan
_exptl_absorpt_process_details   SADABS
_exptl_crystal_colour            yellow
_exptl_crystal_density_diffrn    3.038
_exptl_crystal_description       prism
_exptl_crystal_F_000             552
_exptl_crystal_size_max          0.254
_exptl_crystal_size_mid          0.145
_exptl_crystal_size_min          0.120
_refine_diff_density_max         1.959
_refine_diff_density_min         -1.060
_refine_diff_density_rms         0.234
_refine_ls_extinction_method     none
_refine_ls_goodness_of_fit_ref   1.029
_refine_ls_hydrogen_treatment    constr
_refine_ls_matrix_type           full
_refine_ls_number_parameters     117
_refine_ls_number_reflns         3982
_refine_ls_number_restraints     0
_refine_ls_restrained_S_all      1.029
_refine_ls_R_factor_all          0.0394
_refine_ls_R_factor_gt           0.0300
_refine_ls_shift/su_max          0.001
_refine_ls_shift/su_mean         0.000
_refine_ls_structure_factor_coef Fsqd
_refine_ls_weighting_details
'w=1/[\s^2^(Fo^2^)+(0.0300P)^2^] where P=(Fo^2^+2Fc^2^)/3'
_refine_ls_weighting_scheme      calc
_refine_ls_wR_factor_gt          0.0651
_refine_ls_wR_factor_ref         0.0701
_reflns_Friedel_coverage         0.000
_reflns_number_gt                3409
_reflns_number_total             3982
_reflns_threshold_expression     I>2\s(I)
_cod_data_source_file            c6cc01107a2.cif
_cod_data_source_block           a
_cod_depositor_comments
'Adding full bibliography for 7118900--7118914.cif.'
_cod_original_cell_volume        683.18(9)
_cod_database_code               7118907
_shelx_space_group_comment
;
The symmetry employed for this shelxl refinement is uniquely defined
by the following loop, which should always be used as a source of
symmetry information in preference to the above space-group names.
They are only intended as comments.
;
_shelx_estimated_absorpt_t_min   0.149
_shelx_estimated_absorpt_t_max   0.324
_shelxl_version_number           2014/6
_shelx_res_file
;
TITL dan_83_a.res in P-1
REM Old TITL dan_83 in P-1 #2
REM SHELXT solution in P-1
REM R1 0.071, Rweak 0.005, Alpha 0.027, Orientation as input
REM Formula found by SHELXT: C6 N10 Cl2 Pt I6
CELL 0.71073 8.247263 8.772276 11.377921 104.0127 98.9298 116.2235
ZERR 1 0.000562 0.000592 0.000646 0.0053 0.0053 0.007
LATT 1
SFAC C H Cl I N Pt
UNIT 12 22 2 6 4 1
omit -4 60
L.S. 4
size 0.254 0.145 0.120
temp -173.00
PLAN  25
BOND $H
fmap 2
ACTA
OMIT 0 1 0
OMIT -1 0 1
REM <olex2.extras>
REM <HklSrc "%.\\dan_83.hkl">
REM </olex2.extras>

WGHT    0.030000
FVAR       0.31937
PT1   6    0.000000    0.500000    0.500000    10.50000    0.01340    0.01764 =
         0.01803    0.00942    0.00971    0.00892
I2S   4   -0.027599    0.589812    0.173854    11.00000    0.01920    0.01926 =
         0.01983    0.00883    0.00986    0.00977
I1S   4   -0.030659    0.991629    0.175394    11.00000    0.01964    0.02044 =
         0.02029    0.00895    0.00822    0.01071
I3S   4    0.362836    0.944836    0.132343    11.00000    0.01842    0.02696 =
         0.04472    0.01874    0.01542    0.01093
CL1   3   -0.162920    0.273354    0.302365    11.00000    0.01447    0.01737 =
         0.01708    0.00419    0.00598    0.00726
N1    5    0.238513    0.560142    0.459111    11.00000    0.01884    0.02659 =
         0.01985    0.01179    0.01171    0.01364
N2    5    0.513377    0.611243    0.382099    11.00000    0.01591    0.01696 =
         0.02362   -0.00116    0.01119    0.00071
C1S   1    0.063991    0.806692    0.099649    11.00000    0.01899    0.01890 =
         0.01758    0.00831    0.00910    0.00962
AFIX  13
H1S   2    0.002398    0.751906    0.005627    11.00000   -1.20000
AFIX   0
C1    1    0.370642    0.589426    0.424612    11.00000    0.02069    0.01913 =
         0.01830    0.00663    0.00710    0.00890
C4    1    0.490034    0.459797    0.277864    11.00000    0.02004    0.02001 =
         0.01633    0.00091    0.00987    0.01059
AFIX  23
H4A   2    0.389517    0.344597    0.279246    11.00000   -1.20000
H4B   2    0.609621    0.456200    0.291268    11.00000   -1.20000
AFIX   0
C5    1    0.438813    0.474125    0.149716    11.00000    0.02893    0.03939 =
         0.02068    0.00328    0.00348    0.01751
AFIX 137
H5A   2    0.417706    0.366577    0.083282    11.00000   -1.50000
H5B   2    0.542454    0.583025    0.145329    11.00000   -1.50000
H5C   2    0.322924    0.482105    0.137085    11.00000   -1.50000
AFIX   0
C2    1    0.702205    0.780710    0.435834    11.00000    0.02034    0.03163 =
         0.03202    0.00395    0.01435    0.00644
AFIX  23
H2A   2    0.784116    0.768625    0.502111    11.00000   -1.20000
H2B   2    0.762777    0.796067    0.367695    11.00000   -1.20000
AFIX   0
C3    1    0.689052    0.943421    0.491488    11.00000    0.04324    0.02892 =
         0.03874    0.01143    0.00503    0.01231
AFIX 137
H3A   2    0.598170    0.949501    0.428855    11.00000   -1.50000
H3B   2    0.813846    1.051975    0.515841    11.00000   -1.50000
H3C   2    0.646391    0.937019    0.566788    11.00000   -1.50000

AFIX   0
HKLF 4

REM  dan_83_a.res in P-1
REM R1 =  0.0300 for    3409 Fo > 4sig(Fo)  and  0.0394 for all    3982 data
REM    117 parameters refined using      0 restraints

END

WGHT      0.0300      0.0000

REM Highest difference peak  1.959,  deepest hole -1.060,  1-sigma level  0.234
Q1    1  -0.0017  0.4009  0.4058  11.00000  0.05    1.96
Q2    1   1.0012  1.0984  0.5030  11.00000  0.05    1.63
Q3    1   0.0485  0.9315  0.1545  11.00000  0.05    1.35
Q4    1  -0.0091  0.3693  0.4794  11.00000  0.05    1.25
Q5    1  -0.0075  0.9467  0.1102  11.00000  0.05    1.24
Q6    1   0.0104  0.5609  0.1122  11.00000  0.05    1.21
Q7    1   0.2994  0.9802  0.1853  11.00000  0.05    1.18
Q8    1  -0.2190  0.2793  0.3288  11.00000  0.05    1.18
Q9    1   0.6345  0.8134  0.3772  11.00000  0.05    1.17
Q10   1  -0.1491  0.4181  0.4073  11.00000  0.05    1.14
Q11   1  -0.0717  0.5171  0.4551  11.00000  0.05    1.13
Q12   1  -0.0547  1.0521  0.2518  11.00000  0.05    1.10
Q13   1  -0.1068  0.3426  0.3524  11.00000  0.05    1.09
Q14   1  -0.1855  0.2059  0.2811  11.00000  0.05    1.06
Q15   1  -0.0161  0.4420  0.0604  11.00000  0.05    1.05
Q16   1  -0.0376  0.8563  0.0601  11.00000  0.05    1.03
Q17   1  -0.1220  0.6254  0.1941  11.00000  0.05    0.99
Q18   1   0.3956  0.8909  0.0676  11.00000  0.05    0.95
Q19   1  -0.0796  0.6568  0.1594  11.00000  0.05    0.92
Q20   1  -0.0579  0.6455  0.2476  11.00000  0.05    0.92
Q21   1  -0.1167  0.9588  0.1038  11.00000  0.05    0.91
Q22   1   0.4011  0.8805  0.1504  11.00000  0.05    0.90
Q23   1   0.0168  0.3398  0.3083  11.00000  0.05    0.90
Q24   1   0.0226  0.7450  0.1215  11.00000  0.05    0.90
Q25   1  -0.0390  0.7315  0.2837  11.00000  0.05    0.87
;
_shelx_res_checksum              54866
_shelx_hkl_file
;
   0   0   2  256.39    8.35
   0   0  -2  231.49    7.39
   0   0   2  241.85    9.34
   0   0   3 9999.00  173.75
   0   0  -3 9883.70  168.19
   0   0  -4  424.74   13.21
   0   0   4  424.27   16.96
   0   0  -5   44.80    4.34
   0   0   5   46.17    6.01
   0   0  -6 3870.08   72.56
   0   0   6 3926.81   81.89
   0   0  -7  153.94    8.69
   0   0   7  145.31   11.72
   0   0  -8   18.25    3.39
   0   0   8   26.76    5.82
   0   0   9 1329.60   42.62
   0   0  -9 1352.54   33.49
   0   0  10  102.97   11.14
   0   0  11   11.51    5.41
   0   0  12  327.49   21.49
   0   0  13   62.88   10.41
   0   0 -13   70.35   10.52
   0   0  14   10.05    5.08
   0   0 -15  209.27   21.17
   0   1 -16   -5.97    5.99
   0   1 -15  102.38   14.95
   0   1 -14   38.01    8.51
   0  -1  14   29.29    7.43
   0  -1  13    0.68    4.53
   0   1 -13    1.78    4.51
   0  -1  12  271.14   18.70
   0  -1  11  107.95   11.59
   0  -1  10   56.05    8.14
   0   1 -10   61.79    7.09
   0   1  -9  180.61   11.54
   0  -1   9  155.59   12.68
   0   1  -8   70.33    6.99
   0  -1   8   72.31    8.51
   0   1  -8   54.27    4.62
   0   1  -8   59.30    3.40
   0  -1   7  360.72   17.66
   0   1  -7  396.04   12.56
   0   1  -7  371.28   15.80
   0   1  -6  122.72    8.70
   0   1  -6  100.60    3.90
   0  -1   6  134.81    9.61
   0  -1   5  546.50   13.05
   0   1  -5  604.41   19.57
   0  -1   5  599.25   19.10
   0  -1   4  166.54    6.52
   0   1  -4  164.44    9.27
   0   1  -3  602.13   18.38
   0   1  -2 2702.69   44.88
   0   1  -2 2678.72   51.94
   0  -1   2 2651.92   44.60
   0   1  -1  945.15   19.01
   0  -1   0   26.36    2.04
   0   1   1 4447.60   76.49
   0  -1  -2   16.63    3.13
   0   1   2   21.99    3.67
   0   1   3  163.76   10.02
   0  -1  -3  205.33    7.55
   0   1   4 3755.85   75.76
   0  -1  -4 3658.83   62.47
   0   1   4 3586.12   63.54
   0   1   5   11.50    2.12
   0   1   5   16.22    4.52
   0   1   6   33.18    5.98
   0   1   7  567.38   25.37
   0   1   8   -0.46    3.57
   0   1   9  291.17   19.09
   0   1  10  235.84   17.63
   0  -1 -11    5.53    4.31
   0   1  11    1.14    4.28
   0   1  12   22.15    6.58
   0   1  13   63.46   10.37
   0   1  14   21.13    7.49
   0  -1 -14   47.01   11.20
   0   2 -16   12.10    6.42
   0   2 -16    5.78    7.62
   0   2 -15  171.09   19.59
   0   2 -15  169.16   18.03
   0   2 -14    7.89    6.93
   0   2 -14   10.91    6.75
   0   2 -13    6.17    6.00
   0  -2  13    3.93    5.09
   0   2 -12  774.60   38.41
   0  -2  12  670.08   29.95
   0  -2  11   56.84    8.21
   0   2 -11   74.79    8.76
   0  -2  10  157.29   12.92
   0   2 -10  173.46   12.89
   0   2  -9 1723.15   46.39
   0  -2   9 1720.81   47.22
   0  -2   8  223.91   13.37
   0   2  -8  213.84   13.50
   0   2  -7  289.21   15.41
   0  -2   7  311.43   14.36
   0   2  -6 4777.11   94.48
   0   2  -5    4.68    2.73
   0  -2   4 1142.41   21.70
   0   2  -4 1117.82   32.41
   0   2  -3 9250.00  166.16
   0  -2   3 9496.23  153.48
   0  -2   2   15.95    2.18
   0   2  -2   13.70    1.17
   0   2  -2   10.77    2.32
   0   2  -2   18.02    4.04
   0   2  -1  183.16   10.78
   0   2  -1  191.33    6.68
   0  -2   1  191.99    7.78
   0  -2   0 7089.77  123.74
   0   2   0 7093.94  126.85
   0   2   0 7307.89  120.58
   0   2   1   24.75    3.28
   0   2   1   24.61    3.67
   0  -2  -1   27.31    4.30
   0   2   2   48.49    5.12
   0   2   2   42.69    3.50
   0   2   3 4476.13   87.58
   0   2   4  174.74   12.24
   0   2   5   13.03    4.88
   0   2   6  646.93   27.76
   0   2   7  351.22   21.01
   0   2   8   -0.35    4.80
   0   2   9  283.55   20.17
   0  -2  -9  284.48   18.85
   0   2  10  228.42   18.68
   0  -2 -10  211.10   16.34
   0   2  11   40.44    9.00
   0  -2 -11   50.87    8.88
   0   2  12  112.97   14.19
   0   2  13  287.97   22.52
   0  -2 -14   11.07    7.89
   0   2  14   23.56    8.18
   0   3 -17  111.29   15.47
   0   3 -16   38.19   10.51
   0   3 -16   34.11    9.73
   0   3 -15  101.63   15.35
   0   3 -15   92.21   14.34
   0   3 -14  383.24   28.67
   0   3 -14  393.13   28.64
   0   3 -13   11.31    5.24
   0   3 -13    9.97    6.00
   0   3 -13   12.32    7.82
   0  -3  13    5.93    4.01
   0  -3  12   14.30    5.26
   0   3 -12   23.30    6.18
   0   3 -11  383.07   21.50
   0  -3  11  375.12   20.77
   0   3 -11  445.69   31.59
   0  -3  10   14.41    4.30
   0   3 -10   27.73    6.05
   0   3  -9    3.62    3.42
   0  -3   9    4.87    2.90
   0   3  -8 1744.51   48.66
   0   3  -7   45.21    6.99
   0   3  -6  470.30   22.03
   0   3  -5 3929.74   87.54
   0  -3   5 4153.51   71.82
   0   3  -5 4108.30   88.12
   0   3  -4   83.68    9.24
   0   3  -4   71.70    4.67
   0  -3   4   79.59    5.01
   0   3  -4   72.86    7.50
   0   3  -3  478.26   10.10
   0   3  -3  526.87   23.35
   0   3  -3  477.51   16.34
   0  -3   3  483.15   14.37
   0   3  -2 5976.74  118.42
   0  -3   2 5932.99  103.80
   0   3  -2 5935.17  102.46
   0  -3   1  125.20    7.87
   0   3  -1  135.39   11.41
   0   3   0  361.72   17.91
   0  -3   0  365.99   15.61
   0   3   1 6408.29  116.42
   0   3   1 6752.38  120.83
   0  -3  -1 6547.57  123.02
   0   3   2   17.00    3.08
   0  -3  -2   13.72    4.07
   0   3   2   19.22    3.98
   0   3   3   13.74    3.85
   0  -3  -3   17.16    5.51
   0   3   3   12.69    1.70
   0   3   4 2242.86   57.04
   0  -3  -4 2367.89   62.26
   0  -3  -5    4.30    4.52
   0   3   5   -3.01    3.86
   0  -3  -6    2.01    4.66
   0   3   6    8.94    4.18
   0  -3  -7 1018.71   39.38
   0   3   7  994.57   38.92
   0   3   8   52.32    9.46
   0  -3  -8   29.51    7.75
   0   3   9    9.47    5.46
   0  -3  -9   16.44    6.80
   0  -3 -10  185.88   16.83
   0   3  10  181.07   17.54
   0  -3 -11  100.33   12.41
   0   3  11   99.49   13.43
   0   3  12   -0.59    5.58
   0   3  13   69.36   12.01
   0  -3 -13   70.66   13.23
   0   3  14   32.30    9.44
   0   4 -17   21.79    8.66
   0   4 -17   39.81   10.61
   0   4 -16    8.00    7.00
   0   4 -16   20.03    9.05
   0   4 -15  208.96   22.50
   0   4 -15  202.95   21.51
   0   4 -14  267.14   24.84
   0   4 -14  206.54   18.19
   0   4 -14  231.79   23.82
   0   4 -13    2.45    7.27
   0   4 -13   18.47    6.83
   0   4 -13    8.89    6.53
   0  -4  12  262.63   17.75
   0   4 -12  312.05   28.40
   0   4 -12  334.48   27.15
   0   4 -12  274.81   19.91
   0   4 -11  192.07   20.26
   0  -4  11  191.38   13.78
   0   4 -11  219.87   23.99
   0   4 -11  199.80   16.19
   0   4 -10    6.88    6.28
   0   4 -10    8.28    4.73
   0   4  -9 1096.24   38.92
   0   4  -9  917.59   48.23
   0   4  -8   37.79    8.96
   0   4  -8   52.31    8.19
   0   4  -7  111.54   13.29
   0   4  -7  120.79   12.16
   0   4  -7  119.59   10.06
   0  -4   6 1879.69   38.49
   0   4  -6 1877.19   53.05
   0   4  -6 1820.53   54.48
   0   4  -6 1858.95   41.37
   0  -4   5  121.34    6.99
   0   4  -5  113.39    9.77
   0   4  -5  120.42    5.76
   0   4  -5  121.86   12.63
   0   4  -4   61.55    2.66
   0  -4   4   70.78    5.60
   0   4  -4   64.75    6.43
   0   4  -4   71.62   10.28
   0  -4   3 1334.76   31.65
   0   4  -3 1381.94   46.92
   0  -4   2   59.31    5.99
   0   4  -2   67.65   10.62
   0   4  -1  164.61   14.70
   0  -4   1  146.27   10.07
   0  -4   0 1177.97   35.44
   0   4   0 1203.47   39.67
   0  -4  -1  124.93   11.18
   0   4   1  143.13    9.59
   0   4   1  129.14   10.43
   0   4   2  364.11   14.73
   0  -4  -2  389.93   21.65
   0   4   2  364.52   17.28
   0   4   3  172.52    7.66
   0   4   3  165.69   12.62
   0  -4  -3  168.96   15.62
   0  -4  -4  298.60   21.07
   0   4   4  315.00   18.93
   0   4   5  344.31   21.00
   0  -4  -5  337.86   22.94
   0   4   6   64.42   10.07
   0  -4  -6   82.72   12.08
   0   4   7  250.99   19.79
   0  -4  -7  271.16   21.08
   0  -4  -8   16.36    6.69
   0   4   8    9.56    5.75
   0  -4  -9   14.09    6.91
   0   4   9    6.10    6.03
   0   4  10  220.07   20.34
   0  -4 -10  234.29   20.54
   0  -4 -11   10.24    5.25
   0   4  11   -3.12    6.68
   0   4  12   21.22    7.73
   0  -4 -12   18.66    8.00
   0   5 -16    2.75    6.84
   0   5 -15   17.87   10.01
   0   5 -15   -0.53    5.38
   0   5 -15    6.94    8.96
   0   5 -14  511.28   37.54
   0   5 -14  495.88   29.75
   0   5 -14  551.63   36.64
   0   5 -13   30.91   10.47
   0   5 -13   12.77    4.48
   0   5 -13   32.51   11.12
   0   5 -12   59.11   13.27
   0   5 -12   86.55   11.59
   0  -5  12   78.91    9.52
   0   5 -12   74.47   16.00
   0   5 -11 1061.16   47.89
   0   5 -11 1144.58   58.71
   0   5 -10  214.25   17.67
   0   5 -10  184.53   16.74
   0   5 -10  159.69   21.61
   0   5  -9  418.52   30.38
   0   5  -9  491.75   23.52
   0   5  -9  439.77   25.72
   0   5  -8 1866.23   62.42
   0   5  -8 1848.25   58.95
   0   5  -7  157.42   14.29
   0  -5   7  164.07    8.79
   0   5  -7  149.61   15.28
   0   5  -7  164.13    8.64
   0  -5   6  554.10   18.06
   0   5  -6  540.25   13.85
   0   5  -6  536.01   23.98
   0   5  -6  552.12   30.11
   0   5  -5 4734.09  105.94
   0  -5   5 4566.90   77.10
   0   5  -4   61.86   11.16
   0  -5   4   57.17    6.07
   0   5  -4   62.89    6.52
   0   5  -3 1214.43   49.87
   0  -5   3 1220.85   33.35
   0   5  -2 3342.95   93.20
   0  -5   2 3627.79   75.05
   0   5  -1  108.31   13.20
   0  -5   1  117.76   10.52
   0   5   0  343.73   20.72
   0  -5   0  326.73   18.78
   0  -5  -1 1798.05   54.10
   0   5   1 1876.62   48.80
   0   5   2   16.65    4.63
   0   5   2   16.95    3.63
   0  -5  -2   14.97    5.50
   0  -5  -3   46.38    9.05
   0   5   3   38.50    4.09
   0   5   3   47.54    7.54
   0   5   4 1103.85   40.17
   0  -5  -4 1137.04   46.20
   0  -5  -5  400.13   27.02
   0   5   5  398.04   24.49
   0   5   6   10.75    6.14
   0  -5  -6   10.55    6.18
   0  -5  -7  126.19   15.52
   0   5   7  121.40   14.75
   0  -5  -8  330.14   25.59
   0   5   8  301.66   23.70
   0  -5  -9    6.34    6.00
   0   5   9    2.61    6.10
   0  -5 -10   45.95   10.50
   0   5  10   39.24   10.40
   0   5  11  229.38   22.30
   0  -5 -11  232.04   21.54
   0  -5 -11  230.08   22.71
   0   6 -16   53.39   13.95
   0   6 -15   23.36   10.92
   0   6 -15   22.10    8.29
   0   6 -14   22.03   10.66
   0   6 -14   33.29    8.99
   0   6 -13   78.98   12.44
   0   6 -13   83.71   16.90
   0   6 -12  180.46   17.84
   0   6 -12  142.23   21.69
   0   6 -11   27.59   10.49
   0   6 -11   34.46    8.59
   0   6 -10  131.00   15.12
   0   6 -10  110.80   16.64
   0   6  -9  242.82   20.72
   0   6  -9  233.57   20.97
   0   6  -8   -1.53    4.73
   0   6  -8    6.74    4.14
   0  -6   8    6.38    2.11
   0   6  -7  659.32   28.71
   0  -6   7  705.44   22.57
   0   6  -7  652.47   36.51
   0  -6   6  553.78   20.18
   0   6  -6  602.70   35.89
   0   6  -6  560.23   23.75
   0  -6   5  115.21    9.00
   0   6  -5  110.69    9.31
   0   6  -5  117.11   16.61
   0   6  -4  846.45   45.29
   0  -6   4  818.00   27.39
   0  -6   3  245.62   14.49
   0   6  -3  198.63   21.81
   0   6  -2   28.26    8.86
   0  -6   2   30.06    6.26
   0  -6   1 1525.49   45.23
   0   6  -1 1488.49   52.36
   0  -6   0    8.63    5.00
   0   6   0   11.70    5.83
   0   6   1   74.07    8.58
   0  -6  -1   81.35   11.45
   0  -6  -2  683.75   35.40
   0   6   2  662.98   23.05
   0  -6  -3   21.62    8.02
   0  -6  -4   68.31   12.33
   0   6   4   56.51    9.83
   0  -6  -5  236.83   22.23
   0   6   5  229.82   19.27
   0   6   6    0.20    5.37
   0  -6  -6    0.24    6.05
   0  -6  -7   76.48   13.51
   0   6   7   76.36   12.67
   0  -6  -8  149.14   18.62
   0   6   8  128.39   16.40
   0  -6  -9   37.90   11.71
   0   6   9   39.95   11.10
   0  -6  -9   38.45   10.00
   0  -6 -10   21.38    8.42
   0   6  10   30.16    9.59
   0  -6 -10   21.96    9.03
   0  -6 -11   24.95    9.14
   0  -6 -11   17.45    7.80
   0   7 -16   63.14   13.04
   0   7 -15   41.71   10.53
   0   7 -15   39.87   13.87
   0   7 -14  318.96   33.42
   0   7 -14  353.33   27.21
   0   7 -13  179.86   24.91
   0   7 -13  239.54   22.08
   0   7 -12   64.41   15.38
   0   7 -12  119.76   15.79
   0   7 -11  569.76   34.02
   0   7 -11  489.92   35.84
   0   7 -10  240.96   22.56
   0   7 -10  266.63   23.60
   0   7  -9  248.52   23.19
   0   7  -9  274.01   21.35
   0  -7   8 1419.26   37.41
   0   7  -8 1408.17   60.00
   0   7  -8 1356.15   46.70
   0   7  -7  283.42   17.95
   0   7  -7  274.43   26.74
   0  -7   7  285.05   14.84
   0  -7   6  341.78   17.16
   0   7  -6  379.65   32.52
   0  -7   5 1206.86   36.61
   0   7  -5 1141.68   59.46
   0   7  -4  209.01   25.52
   0  -7   4  190.53   13.60
   0  -7   3   22.34    5.44
   0   7  -3   23.71    9.95
   0  -7   2  992.84   37.21
   0   7  -2 1046.25   48.57
   0   7  -1  145.89   15.70
   0  -7   1  147.78   14.77
   0  -7   0   19.14    6.90
   0   7   0   26.85    6.72
   0   7   1  189.71   13.54
   0  -7  -1  161.28   17.50
   0  -7  -2  352.61   26.82
   0  -7  -3    1.83    7.61
   0  -7  -4  -12.40    8.51
   0  -7  -5  288.93   26.43
   0  -7  -6  -12.16    8.51
   0  -7  -7   12.70    8.62
   0  -7  -8  424.14   32.49
   0  -7  -9   20.01    9.26
   0   8 -15   46.87   15.78
   0   8 -15   81.41   14.55
   0   8 -14  -11.11   11.27
   0   8 -14    2.30    5.35
   0   8 -13  186.61   25.49
   0   8 -13  254.39   24.37
   0   8 -12   79.37   15.95
   0   8 -12  106.46   16.36
   0   8 -11   99.18   15.66
   0   8 -11  117.73   17.66
   0   8 -10  678.29   36.54
   0   8 -10  722.08   43.27
   0   8  -9  444.23   34.85
   0   8  -9  379.25   24.93
   0  -8   8  316.88   17.05
   0   8  -8  328.22   31.55
   0  -8   7  892.11   31.20
   0   8  -7 1021.10   58.55
   0  -8   6  157.24   12.75
   0   8  -6  185.62   25.90
   0  -8   5  327.25   19.13
   0   8  -5  253.53   30.39
   0  -8   4 1407.26   44.84
   0   8  -4 1331.02   67.14
   0   8  -3   86.60   15.75
   0  -8   3   81.85   10.67
   0   8  -2  189.45   20.00
   0  -8   2  177.29   16.51
   0   8  -1  830.60   37.79
   0  -8   1  766.71   37.03
   0  -8   0   68.23   11.83
   0  -8  -1   11.36    5.80
   0  -8  -2  332.51   28.59
   0  -8  -3   48.63   12.44
   0  -8  -4    2.83    8.28
   0  -8  -5   47.94   12.63
   0  -8  -6  142.33   20.47
   0  -8  -7    0.26    7.23
   0   9 -14   37.93   12.35
   0   9 -14   94.08   15.93
   0   9 -13   81.64   17.04
   0   9 -13   84.19   15.54
   0   9 -12   19.44    9.07
   0   9 -12   16.87    9.84
   0   9 -11  361.87   32.85
   0   9 -10  124.30   20.40
   0   9  -9   -2.67    7.89
   0   9  -8  299.55   34.51
   0  -9   8  295.90   17.99
   0  -9   7   27.48    6.24
   0   9  -7   38.16   15.11
   0  -9   6   83.33   10.41
   0   9  -6   75.77   19.73
   0   9  -5  289.27   33.53
   0  -9   5  272.85   19.06
   0   9  -4   29.40   12.48
   0  -9   4   28.32    7.51
   0   9  -3   76.45   15.54
   0  -9   3   72.77   11.00
   0   9  -2   36.69    9.64
   0  -9   2   41.83    9.08
   0  -9   1  147.67   17.63
   0  -9   0  166.07   19.45
   0  -9  -1   -8.95    7.15
   0  -9  -2  105.57   18.09
   0  -9  -3   24.69   10.82
   0  -9  -4    3.21    7.93
   0  -9  -5  176.63   24.03
   0  10 -12  295.01   31.72
   0  10 -11  197.83   27.30
   0  10 -10  455.71   43.03
   0  10  -9  233.66   32.86
   0  10  -8  270.87   37.69
   0  10  -7  585.26   53.81
   0 -10   7  596.48   29.34
   0  10  -6  252.14   33.97
   0 -10   6  259.46   19.62
   0  10  -5  138.49   25.47
   0 -10   5  142.89   15.61
   0 -10   4  211.91   19.08
   0  10  -4  229.88   27.02
   0 -10   3  108.48   14.86
   0  10  -3  118.38   17.65
   0 -10   2   14.90    7.42
   0 -10   1  160.71   19.89
   0 -10   0  171.80   22.21
   0 -10  -1    1.77    6.93
   0 -10  -2   11.42    8.76
   0  11 -10  -11.27   16.70
   0  11  -9  166.68   31.41
   0  11  -8  157.22   31.68
   0  11  -7   -3.34   18.28
   0  11  -6  249.61   34.79
   0 -11   6  208.69   19.04
   0 -11   5   26.03    8.20
   0  11  -5    9.73   10.55
   0 -11   4    6.64    6.35
   0 -11   3  209.31   21.48
   0 -11   2   34.97   10.69
   0 -11   1   23.10   10.37
   0  12  -7   14.75   12.83
   0 -12   6   69.73   13.01
   0  12  -6   60.77   17.44
   0 -12   5   -4.07    5.46
   1 -12   3  485.16   34.31
   1 -12   4   25.48    8.60
   1 -12   5   -2.49    5.76
  -1  12  -6  310.86   35.96
  -1  12  -7   17.50   14.31
  -1  12  -8   35.88   19.59
   1 -11  -1   51.62   13.39
   1 -11   0    3.56    7.70
   1 -11   1   42.78   12.41
   1 -11   2   79.40   14.22
   1 -11   3   10.47    5.47
   1 -11   4   64.24   11.29
  -1  11  -4   73.77   15.43
  -1  11  -5    8.38    9.95
   1 -11   5    6.83    4.87
  -1  11  -6   63.36   17.87
   1 -11   6   80.90   11.97
  -1  11  -7   71.75   20.83
  -1  11  -8   21.02   13.19
  -1  11  -9  108.35   26.58
  -1  11 -10   12.41   12.37
  -1  11 -11   15.24   10.00
   1 -10  -4   10.83    9.62
   1 -10  -3  436.79   38.22
   1 -10  -2   -4.27    9.48
   1 -10  -1   40.28   12.33
   1 -10   0  824.78   46.11
   1 -10   1   -7.52    6.66
   1 -10   2    6.49    5.54
   1 -10   3  537.15   30.70
  -1  10  -3  593.46   36.71
  -1  10  -4    1.33    9.00
   1 -10   4    9.82    5.33
  -1  10  -5    2.35   10.53
   1 -10   5    1.53    3.98
  -1  10  -6  422.76   41.56
   1 -10   6  438.55   24.42
  -1  10  -7   42.13   17.30
  -1  10  -8  -11.09   12.81
  -1  10  -9  154.61   25.56
  -1  10 -10  307.10   34.02
  -1  10 -11   15.52    9.81
  -1  10 -12  103.37   19.15
  -1  10 -13  236.30   26.33
   1  -9  -6    1.06    6.95
   1  -9  -5  177.62   23.39
   1  -9  -4   19.21   10.22
   1  -9  -3   13.69    6.92
   1  -9  -2  317.47   28.65
   1  -9  -1   32.31   10.52
   1  -9   0    1.55    5.66
  -1   9  -1  442.92   25.91
   1  -9   1  456.93   29.64
   1  -9   2   10.35    5.65
  -1   9  -2   32.59    9.00
   1  -9   3   12.89    5.77
  -1   9  -3    6.41    5.87
  -1   9  -4  745.71   46.55
   1  -9   4  740.56   32.00
   1  -9   5    7.12    4.71
  -1   9  -5   -1.84    9.85
   1  -9   6   83.20    9.45
  -1   9  -6   45.49   14.26
   1  -9   7  218.33   14.72
  -1   9  -7  204.15   28.51
  -1   9  -8   -1.03    9.35
  -1   9  -9  151.98   22.33
  -1   9 -10  123.56   19.30
  -1   9 -11   28.57   10.07
  -1   9 -12   40.19   11.44
  -1   9 -13   42.84   11.91
  -1   9 -14   76.58   15.10
   1  -8  -8   13.69    9.67
   1  -8  -7    4.06    7.73
   1  -8  -6  491.91   36.46
   1  -8  -5   32.35   10.54
   1  -8  -4   20.03    8.56
   1  -8  -3  635.45   39.15
   1  -8  -2   62.18   12.55
   1  -8  -1   -0.32    6.32
  -1   8   0  425.14   22.30
   1  -8   0  427.73   27.71
   1  -8   1   14.85    5.52
  -1   8  -1   11.31    5.01
  -1   8  -2   -6.35    6.23
   1  -8   2    1.06    3.75
   1  -8   3  340.39   20.12
  -1   8  -3  317.35   27.07
   1  -8   4  385.44   20.55
  -1   8  -4  434.90   34.91
  -1   8  -5    3.86    8.57
   1  -8   5    0.39    3.26
   1  -8   6   35.47    5.74
  -1   8  -6   25.30   10.06
  -1   8  -7  751.49   48.32
   1  -8   7  744.01   26.01
  -1   8  -8    2.13    8.05
  -1   8  -9   65.50   13.83
  -1   8 -10  752.13   42.92
  -1   8 -10  708.74   37.39
  -1   8 -11   55.60   11.36
  -1   8 -11   40.92   10.64
  -1   8 -12    7.63    6.44
  -1   8 -12    6.74    6.50
  -1   8 -13  729.35   40.42
  -1   8 -13  518.46   41.60
  -1   8 -14    6.49    8.08
  -1   8 -14    6.54    5.75
  -1   8 -15   26.65   13.41
  -1   8 -15    8.43    7.94
   1  -7 -10    8.78    8.69
  -1   7   9    3.45    7.03
   1  -7  -9   11.08    8.03
   1  -7  -8  447.59   32.29
  -1   7   8  393.55   29.79
   1  -7  -7   30.23    9.59
  -1   7   7   21.83    8.52
   1  -7  -6  153.18   19.04
  -1   7   6  101.63   14.84
  -1   7   5  701.89   35.86
   1  -7  -5  813.41   43.31
  -1   7   4   57.15    9.81
   1  -7  -4   45.94   10.90
  -1   7   3   43.16    8.01
   1  -7  -3   40.30    9.75
   1  -7  -2 1705.21   61.42
  -1   7   1   16.07    4.47
   1  -7  -1   15.74    6.49
   1  -7   0  163.54   15.96
  -1   7   0  166.82   13.40
  -1   7  -1 1468.29   48.87
   1  -7   1 1425.64   47.05
   1  -7   2   36.05    6.68
  -1   7  -2   50.47   10.21
   1  -7   3   14.72    4.27
  -1   7  -3   13.33    7.63
  -1   7  -4  642.75   40.63
   1  -7   4  715.63   26.07
  -1   7  -5   10.66    7.74
   1  -7   5   17.61    4.12
  -1   7  -6    3.27    7.88
   1  -7   6    7.48    3.03
  -1   7  -7  507.44   35.17
   1  -7   7  514.85   18.73
  -1   7  -8  412.55   23.74
  -1   7  -8  425.23   30.96
  -1   7  -9   -1.07    5.53
  -1   7  -9   15.18    6.69
  -1   7 -10   55.40   11.05
  -1   7 -10   44.38   11.02
  -1   7 -11  398.32   27.80
  -1   7 -11  352.39   29.76
  -1   7 -12    4.61    7.10
  -1   7 -12    2.45    4.45
  -1   7 -13   41.73   13.00
  -1   7 -13   64.39   12.36
  -1   7 -14  283.88   31.16
  -1   7 -14  334.53   26.22
  -1   7 -15   36.73   10.50
  -1   7 -15   18.51   12.39
  -1   7 -16   34.40   11.79
  -1   7 -16   16.71    8.75
   1  -6 -11   19.87    7.52
  -1   6  11   31.43    9.16
   1  -6 -10   -0.94    6.34
  -1   6  10   11.60    6.66
   1  -6  -9  221.39   21.87
  -1   6   9  228.76   22.07
  -1   6   8   19.39    7.95
   1  -6  -8   19.12    8.03
   1  -6  -7   10.98    6.32
  -1   6   7   -1.91    5.03
  -1   6   6  180.43   17.92
   1  -6  -6  196.79   20.35
  -1   6   5   52.76    9.79
   1  -6  -5   56.29   11.43
  -1   6   4  217.78   17.44
   1  -6  -4  216.22   20.16
  -1   6   3  322.22   20.09
   1  -6  -3  348.68   24.92
   1  -6  -2   69.83   11.12
  -1   6   2   68.75    6.27
  -1   6   2   59.83    8.13
  -1   6   1  426.39   18.64
   1  -6  -1  407.86   24.57
   1  -6   0  218.86   16.54
  -1   6   0  215.37   14.77
   1  -6   1  465.99   22.56
  -1   6  -1  494.18   25.87
   1  -6   2  522.86   22.26
  -1   6  -2  547.25   30.44
   1  -6   3   10.67    3.55
  -1   6  -3   20.61    8.29
   1  -6   4  412.48   17.11
  -1   6  -4  388.23   28.27
   1  -6   5  268.69   12.50
  -1   6  -5  284.01   24.18
  -1   6  -5  220.47    6.41
   1  -6   6    5.11    2.62
  -1   6  -6    5.68    1.37
  -1   6  -6    4.54    2.80
  -1   6  -6    4.03    5.82
  -1   6  -7 1094.93   25.88
   1  -6   7 1207.45   28.55
  -1   6  -7 1140.36   48.00
  -1   6  -7 1081.43   37.83
  -1   6  -8   31.57    7.39
   1  -6   8   32.47    3.81
  -1   6  -8   22.88    3.57
  -1   6  -8   33.24    8.63
  -1   6  -9   17.46    7.08
  -1   6  -9   23.50    7.88
  -1   6  -9   20.08    4.31
  -1   6 -10  826.63   38.40
  -1   6 -10  868.11   31.46
  -1   6 -11   19.03    6.09
  -1   6 -11    9.51    5.17
  -1   6 -12   37.32    8.87
  -1   6 -12   25.16    7.84
  -1   6 -12   20.37   10.05
  -1   6 -13  377.93   25.88
  -1   6 -13  273.85   24.94
  -1   6 -13  343.72   33.17
  -1   6 -14    4.74    5.99
  -1   6 -14   -6.71    7.71
  -1   6 -15   68.19   15.54
  -1   6 -15   16.57    6.91
  -1   6 -16  221.90   25.14
  -1   5  12   89.95   14.29
   1  -5 -12   69.91   12.41
  -1   5  11  398.57   28.97
   1  -5 -11  422.72   28.82
   1  -5 -10  150.69   17.24
  -1   5  10  151.19   17.55
  -1   5   9  199.30   19.69
   1  -5  -9  181.13   18.72
   1  -5  -8  554.86   32.26
  -1   5   8  573.79   32.40
   1  -5  -7  140.68   16.24
  -1   5   7  114.60   14.10
  -1   5   6  263.62   20.38
   1  -5  -6  323.18   23.69
   1  -5  -5 1536.89   54.12
  -1   5   5 1474.07   49.63
   1  -5  -4  207.25   18.49
  -1   5   4  202.20   15.82
   1  -5  -3  611.99   30.63
  -1   5   3  581.41   15.46
  -1   5   3  592.56   25.72
   1  -5  -2 1551.42   50.54
  -1   5   2 1559.92   35.19
  -1   5   2 1516.07   42.66
  -1   5   1  675.16   23.96
  -1   5   1  735.15   23.73
   1  -5  -1  666.71   29.54
   1  -5   0   29.92    5.79
  -1   5   0   44.80    6.59
  -1   5  -1 1349.94   43.50
   1  -5   1 1315.41   37.91
   1  -5   2  550.51   20.40
  -1   5  -2  531.34   27.85
   1  -5   3  101.16    7.60
  -1   5  -3   88.68   12.05
  -1   5  -4  293.09    8.04
   1  -5   4  315.73   12.69
  -1   5  -4  326.83   23.04
  -1   5  -5 1698.84   56.66
  -1   5  -5 1695.64   32.45
   1  -5   5 1700.66   36.35
  -1   5  -6   17.86    6.25
  -1   5  -6   21.20    2.88
  -1   5  -6   29.02    5.52
   1  -5   6   30.05    3.28
   1  -5   7    7.00    1.77
  -1   5  -7   10.98    5.35
  -1   5  -7    5.07    2.34
  -1   5  -7   11.43    4.78
  -1   5  -8 1723.70   54.79
  -1   5  -8 1658.56   54.87
  -1   5  -8 1697.99   43.73
  -1   5  -9   27.66    6.83
  -1   5  -9   38.98    7.06
  -1   5  -9   32.66    8.35
  -1   5 -10   11.52    5.87
   1  -5  10    9.77    3.82
  -1   5 -10   13.81    5.91
  -1   5 -10   -2.30    5.64
  -1   5 -11 1261.36   59.44
  -1   5 -11 1224.77   52.72
  -1   5 -12   89.06   16.27
  -1   5 -12  125.59   14.06
  -1   5 -12  111.64   18.21
  -1   5 -13   16.33    6.57
  -1   5 -13   10.98    8.71
  -1   5 -13    2.05    8.22
  -1   5 -14  814.30   38.72
  -1   5 -14  927.88   51.14
  -1   5 -14  909.47   49.08
  -1   5 -15   46.64   13.15
  -1   5 -15   17.45    8.76
  -1   5 -16    8.36    8.84
  -1   5 -16   -9.96   10.14
  -1   5 -17  330.16   29.99
  -1   4  13   49.58   10.53
   1  -4 -12   48.13    9.99
  -1   4  12   69.73   12.88
   1  -4 -11    8.92    6.08
  -1   4  11   13.71    7.17
   1  -4 -10  228.06   19.51
  -1   4  10  229.14   20.46
  -1   4   9   63.33   10.72
   1  -4  -9   70.52   11.24
  -1   4   8   34.63    8.32
  -1   4   7  784.89   35.52
  -1   4   6  383.28   23.33
  -1   4   5   61.11    9.13
  -1   4   4  924.99   33.79
  -1   4   3   85.23    8.92
  -1   4   3   74.33    3.87
  -1   4   2    8.08    2.05
  -1   4   2   11.64    3.29
  -1   4   1 3539.90   71.71
  -1   4   1 3698.31   70.87
  -1   4   0  101.73    9.00
   1  -4   0   98.48    9.14
  -1   4   0   97.75    6.93
  -1   4  -1   24.12    5.16
   1  -4   1   26.40    4.25
  -1   4  -2 1879.81   53.45
   1  -4   2 1922.53   41.94
  -1   4  -3   65.96    3.25
  -1   4  -3   59.19    8.87
   1  -4   3   64.29    5.05
  -1   4  -4  766.95   17.42
   1  -4   4  794.00   19.13
  -1   4  -4  741.04   23.29
  -1   4  -4  733.67   31.50
  -1   4  -5  412.52   17.95
  -1   4  -5  429.25   13.48
  -1   4  -5  421.94   23.28
   1  -4   5  425.96   11.87
  -1   4  -6    6.85    3.89
  -1   4  -6    6.09    3.22
  -1   4  -6    8.57    2.56
   1  -4   6    8.45    1.53
  -1   4  -7  357.70   21.01
  -1   4  -7  325.64   19.55
  -1   4  -7  356.12   16.73
  -1   4  -8  109.51   13.56
  -1   4  -8  109.05   11.39
  -1   4  -8  118.76   11.99
  -1   4  -9  370.70   24.61
  -1   4  -9  355.65   27.27
   1  -4   9  451.71   18.36
  -1   4  -9  441.20   23.62
  -1   4 -10  156.91   18.94
  -1   4 -10  143.66   17.28
  -1   4 -10  190.37   15.60
   1  -4  10  186.71   12.64
  -1   4 -11   -7.98    8.62
   1  -4  11    1.22    3.20
  -1   4 -11    6.91    4.72
  -1   4 -11    0.87    6.78
  -1   4 -12  293.38   20.31
  -1   4 -12  250.28   25.35
  -1   4 -12  290.00   26.54
  -1   4 -13   65.07   14.36
  -1   4 -13   46.45    8.52
  -1   4 -13   48.03   11.20
  -1   4 -14   35.80   11.05
  -1   4 -14   16.51    8.47
  -1   4 -15  181.21   20.34
  -1   4 -15  173.73   21.31
  -1   4 -16   -6.01    6.96
  -1   4 -16   -4.91    7.33
  -1   4 -17    6.45    7.02
  -1   3  14  118.05   15.73
  -1   3  13  175.54   18.50
   1  -3 -12   44.30    9.16
  -1   3  12   41.27    9.58
  -1   3  11  212.05   19.53
  -1   3  10  186.82   17.78
  -1   3   9  250.29   19.77
  -1   3   8  681.82   32.30
  -1   3   7  630.75   29.94
  -1   3   6  154.56   13.86
  -1   3   5  558.72   25.79
  -1   3   4  411.02   20.48
  -1   3   3    3.74    3.18
  -1   3   2 1016.96   21.36
  -1   3   2 1039.46   29.45
  -1   3   1 1450.92   39.63
  -1   3   1 1534.06   32.49
  -1   3   1 1485.82   34.42
  -1   3   0   67.31    4.92
  -1   3   0   65.59    6.21
  -1   3   0   64.58    7.58
  -1   3  -1   15.39    5.06
  -1   3  -1   28.64    5.02
   1  -3   2 4494.29   79.44
  -1   3  -2 4580.49   75.09
  -1   3  -2 4603.20   93.75
  -1   3  -2 4364.55   91.62
  -1   3  -3  671.90   15.43
  -1   3  -3  683.05   26.33
  -1   3  -3  653.01   25.82
  -1   3  -3  652.38   19.36
   1  -3   3  686.06   15.71
   1  -3   4  221.79    6.56
  -1   3  -4  213.68   14.31
  -1   3  -4  214.43    8.85
  -1   3  -4  208.72   11.18
  -1   3  -5 2693.09   53.69
  -1   3  -5 2570.47   58.72
  -1   3  -5 2657.13   62.78
  -1   3  -5 2482.78   45.84
  -1   3  -6    7.71    3.03
  -1   3  -6   14.91    4.57
  -1   3  -6   11.66    4.16
  -1   3  -6   13.19    1.58
  -1   3  -7   97.23    4.57
  -1   3  -7  131.27   11.39
  -1   3  -7  115.74   13.07
   1  -3   7  128.13    8.25
  -1   3  -7  115.86   11.48
  -1   3  -8 2730.71   82.00
   1  -3   8 3182.59   65.89
  -1   3  -8 3224.62   72.98
  -1   3  -8 2854.63   80.55
   1  -3   9   25.03    5.03
  -1   3  -9   23.54    7.43
  -1   3  -9   17.50    6.49
  -1   3  -9   29.56    6.09
  -1   3 -10  115.84   16.15
   1  -3  10  110.50   10.13
  -1   3 -10  126.11   12.05
  -1   3 -10  106.01   15.82
  -1   3 -11 1446.73   58.94
   1  -3  11 1254.93   39.62
  -1   3 -11 1396.60   56.71
  -1   3 -11 1285.86   42.38
  -1   3 -12   -1.17    7.17
   1  -3  12   -3.88    3.44
  -1   3 -12    7.91    5.68
  -1   3 -12   -0.32    5.74
  -1   3 -13   -3.00    6.24
  -1   3 -13    2.73    4.86
  -1   3 -14  548.77   36.23
  -1   3 -14  509.50   32.23
  -1   3 -15    2.87    5.48
  -1   3 -15    1.71    6.24
  -1   3 -16   14.63    9.15
  -1   3 -16   14.48    6.43
  -1   2  15   73.74   12.69
  -1   2  14   12.27    7.07
  -1   2  13  338.90   24.82
  -1   2  12  194.57   18.28
  -1   2  11  251.26   20.12
  -1   2  10  650.57   31.70
  -1   2   9  568.45   28.38
  -1   2   8  434.78   24.07
  -1   2   7 1593.56   48.84
  -1   2   6  429.11   22.08
  -1   2   5  850.44   30.92
  -1   2   4 2921.15   65.15
  -1   2   4 2729.60   53.77
  -1   2   3  598.59   17.84
  -1   2   3  623.78   22.68
   1  -2  -2  348.09    9.36
  -1   2   2  344.94   13.07
  -1   2   2  351.74   14.66
  -1   2   1 1923.57   35.70
  -1   2   1 1992.95   41.70
  -1   2   1 1896.81   39.74
  -1   2   0  617.53   14.84
  -1   2   0  624.62   16.79
  -1   2   0  622.30   19.26
   1  -2   1  679.58   13.79
  -1   2  -1  606.46   19.03
  -1   2  -1  611.48   19.60
  -1   2  -1  637.07   13.20
  -1   2  -2 2122.61   39.83
   1  -2   2 2063.44   35.70
  -1   2  -2 1983.71   45.81
  -1   2  -2 2052.07   36.92
  -1   2  -2 1995.50   44.39
  -1   2  -3 2580.55   50.04
  -1   2  -3 2582.56   52.82
  -1   2  -3 2398.45   54.87
  -1   2  -3 2537.48   47.64
  -1   2  -4  127.04    9.65
  -1   2  -4  150.42    8.89
  -1   2  -4  130.58    8.07
  -1   2  -4  128.93    8.76
  -1   2  -5   14.92    4.11
  -1   2  -5    6.79    3.66
  -1   2  -5    7.23    3.37
   1  -2   5    9.69    2.67
  -1   2  -6 2424.58   64.67
   1  -2   6 2505.45   53.54
  -1   2  -6 2525.31   57.92
   1  -2   7   99.95    8.38
  -1   2  -7   92.91   11.91
  -1   2  -7  102.66    9.27
  -1   2  -8   73.15    8.19
  -1   2  -8   68.84   11.19
   1  -2   8   78.42    7.98
   1  -2   9 1237.55   37.40
  -1   2  -9 1280.84   38.40
   1  -2  10   16.99    5.20
  -1   2 -10   13.67    7.17
  -1   2 -10   24.58    8.71
  -1   2 -10   12.21    4.35
  -1   2 -11    9.34    4.24
   1  -2  11    7.40    3.94
  -1   2 -11   15.70    8.51
  -1   2 -11    6.99    6.99
  -1   2 -12 1154.44   50.97
   1  -2  12 1047.01   37.44
  -1   2 -12 1129.74   46.45
  -1   2 -13   11.13    5.96
  -1   2 -13   10.71    9.06
  -1   2 -14   22.70    7.18
  -1   2 -14   25.93    8.63
  -1   2 -15  321.20   27.01
  -1   2 -16   18.04    8.10
  -1   1  16   59.67   12.11
  -1   1  15    3.70    5.29
  -1   1  14   92.78   12.89
  -1   1  13   61.30   10.27
  -1   1  12    0.99    4.24
  -1   1  11  263.75   19.63
  -1   1  10  180.90   15.84
  -1   1   9   56.97    9.26
  -1   1   8  263.05   17.44
   1  -1  -8  250.05    9.88
   1  -1  -7   40.88    3.76
  -1   1   7   35.32    6.71
   1  -1  -6  457.54   13.22
  -1   1   6  463.94   21.58
  -1   1   5  341.40    9.46
  -1   1   5  378.43   18.35
   1  -1  -5  366.30   10.68
  -1   1   4  272.09   14.55
  -1   1   4  265.45    8.29
   1  -1  -4  245.02    7.86
  -1   1   3  818.53   25.06
  -1   1   2  378.67   14.20
  -1   1   1  893.39   21.31
   1  -1   0 1720.71   32.60
   1  -1   0 1723.02   29.88
  -1   1  -1  115.01    4.21
   1  -1   1  108.82    3.93
  -1   1  -1  111.63    4.21
  -1   1  -1  113.44    5.69
  -1   1  -2 3726.10   61.91
   1  -1   2 3747.28   61.62
  -1   1  -2 3840.62   64.93
   1  -1   2 3687.25   62.74
  -1   1  -2 3758.76   63.21
  -1   1  -2 3716.52   65.58
  -1   1  -2 3703.50   68.48
  -1   1  -3  576.33   12.43
  -1   1  -3  599.88   12.60
   1  -1   3  613.31   16.25
  -1   1  -3  627.70   17.66
   1  -1   3  594.28   12.62
  -1   1  -3  600.76   18.67
  -1   1  -3  603.40   18.36
  -1   1  -4   13.27    3.49
  -1   1  -4   18.09    2.39
  -1   1  -4   15.47    1.90
  -1   1  -4   16.48    3.61
   1  -1   4   18.35    3.23
   1  -1   5 3518.24   67.52
  -1   1  -5 3406.85   67.47
  -1   1  -5 3308.48   58.30
  -1   1  -5 3205.29   73.31
  -1   1  -5 3243.13   60.10
   1  -1   6  255.44   13.50
  -1   1  -6  263.28   13.17
   1  -1   7    2.70    3.16
  -1   1  -7    9.17    3.49
   1  -1   8  860.55   30.09
  -1   1  -8  886.85   28.01
  -1   1  -9    7.07    2.82
  -1   1  -9   10.74    3.41
   1  -1   9    5.00    3.53
  -1   1  -9    6.56    5.10
   1  -1  10   41.11    7.37
  -1   1 -10   49.49    9.46
  -1   1 -10   42.00    6.11
  -1   1 -11  538.99   33.41
   1  -1  11  513.51   25.02
  -1   1 -11  568.86   29.95
  -1   1 -12   15.99    7.80
  -1   1 -12   17.37    6.48
   1  -1  12   19.24    5.40
   1  -1  13    2.99    4.44
  -1   1 -13    4.05    6.57
  -1   1 -13   -2.22    4.48
  -1   1 -14   82.98   14.20
  -1   1 -15   13.39    7.99
  -1   0  15  281.21   22.17
  -1   0  14  246.25   20.25
  -1   0  13  249.71   19.69
  -1   0  12  650.59   31.37
  -1   0  11  247.74   18.34
  -1   0  10  719.52   31.28
  -1   0   9  668.62   29.13
   1   0  -9  696.72   20.84
   1   0  -9  717.04   22.71
   1   0  -8  735.66   21.06
  -1   0   8  684.05   28.29
   1   0  -8  714.66   22.27
   1   0  -7 1142.36   29.44
  -1   0   7 1154.87   36.60
   1   0  -7 1176.73   28.15
  -1   0   6 1857.13   46.66
   1   0  -6 1759.05   39.32
   1   0  -6 1825.82   37.81
   1   0  -5   91.99    5.51
  -1   0   5   93.33    7.90
   1   0  -5   88.67    6.08
   1   0  -4  392.88   12.93
   1   0  -4  416.81   11.93
   1   0  -3 1483.73   28.71
   1   0  -2  117.32    4.81
   1   0  -1   14.50    1.90
   1   0   0 3726.70   61.94
   1   0   0 3700.65   61.00
   1   0   0 3667.13   63.13
  -1   0  -1   26.68    2.25
   1   0   1   25.42    2.54
  -1   0  -1   23.23    2.26
   1   0   1   25.55    1.51
   1   0   2 1010.44   21.73
  -1   0  -2  932.84   23.80
   1   0   2  923.93   21.85
  -1   0  -2 1018.78   20.15
  -1   0  -2  996.90   21.50
  -1   0  -3 5881.74  102.62
   1   0   3 5861.10  103.36
   1   0   4  558.95   19.20
  -1   0  -4  539.32   18.53
  -1   0  -4  544.53   16.51
   1   0   5  323.44   15.44
  -1   0  -5  322.60   14.93
  -1   0  -5  336.88   12.91
  -1   0  -6 3839.40   79.73
   1   0   6 3877.99   81.52
  -1   0  -6 3924.62   74.04
   1   0   7   14.62    4.59
  -1   0  -7   20.06    4.45
  -1   0  -8  362.94   18.29
   1   0   8  350.77   19.36
   1   0   9 2275.14   60.52
  -1   0  -9 2283.54   56.86
  -1   0 -10   31.76    7.34
   1   0  10   34.74    6.75
  -1   0 -11  135.07   13.40
  -1   0 -11  146.54   17.34
   1   0  11  142.13   13.79
  -1   0 -12  694.77   37.74
   1   0  12  703.78   31.94
   1   0  13   13.33    5.46
  -1   0 -13   10.56    6.63
  -1   0 -14   36.21   10.15
   1   1 -16    0.68    6.09
  -1  -1  15   37.88    8.90
  -1  -1  14  145.48   15.32
  -1  -1  13    2.42    4.59
  -1  -1  12  362.35   22.66
  -1  -1  11  449.76   24.57
   1   1 -11  502.85   21.66
  -1  -1  10  140.09   12.95
   1   1 -10  153.43   11.43
   1   1  -9  420.48   13.13
   1   1  -9  450.27   19.26
  -1  -1   9  441.51   22.05
   1   1  -8  483.96   19.42
   1   1  -8  449.99   13.69
  -1  -1   8  489.53   21.42
   1   1  -7   11.23    2.14
   1   1  -7    9.00    2.96
  -1  -1   7   12.91    3.63
   1   1  -6 1413.96   36.10
   1   1  -6 1476.46   29.97
   1   1  -5   62.59    4.19
   1   1  -5   62.34    5.98
   1   1  -4   20.48    3.49
   1   1  -4   18.35    2.50
   1   1  -3 2446.30   45.95
   1   1  -3 2360.86   49.37
  -1  -1   2  928.11   20.41
   1   1  -2  949.69   22.42
   1   1  -1  611.38   17.45
   1   1  -1  629.50   11.93
  -1  -1   1  591.33   11.66
  -1  -1   1  593.78   14.98
  -1  -1   0  249.68    8.93
  -1  -1   0  246.84    6.90
   1   1   0  229.11   10.31
  -1  -1  -1  102.23    5.71
  -1  -1  -1  111.78    6.55
   1   1   2 1120.98   26.85
  -1  -1  -2 1132.89   28.73
   1   1   3  419.13   15.57
  -1  -1  -3  387.88   16.71
   1   1   4  723.20   24.24
  -1  -1  -4  738.11   26.06
  -1  -1  -5  475.48   21.72
   1   1   5  490.68   20.97
   1   1   6    0.31    2.73
  -1  -1  -6    2.08    3.30
   1   1   7  725.77   29.33
  -1  -1  -7  734.51   29.46
   1   1   8  310.66   19.46
  -1  -1  -8  339.50   19.69
   1   1   9    6.93    4.54
  -1  -1  -9    2.44    4.46
   1   1  10  262.29   19.26
  -1  -1 -10  292.33   18.56
   1   1  11   18.74    6.56
  -1  -1 -11   24.31    8.02
   1   1  12    3.88    4.96
  -1  -1 -12    7.19    6.97
   1   1  13  206.88   18.36
  -1  -1 -13  183.47   20.32
  -1  -1 -14   23.39    9.41
   1   2 -17   12.87    7.51
   1   2 -16   62.28   12.42
  -1  -2  15  256.61   20.53
   1   2 -15  272.89   23.31
  -1  -2  14   25.85    8.19
  -1  -2  13  208.99   17.55
  -1  -2  12  521.39   27.24
   1   2 -12  586.21   26.40
  -1  -2  11   29.78    6.37
   1   2 -11   31.91    6.10
  -1  -2  10  138.87   12.12
   1   2 -10  136.50   11.73
  -1  -2   9  791.98   27.98
   1   2  -9  712.07   27.52
   1   2  -8   91.30    9.08
   1   2  -8   97.13    7.01
   1   2  -7   56.61    6.15
   1   2  -7   72.90    7.71
   1   2  -6  510.66   19.66
   1   2  -6  539.76   21.36
   1   2  -5  146.87   10.23
   1   2  -5  127.27    9.85
   1   2  -4  106.99    8.77
   1   2  -4  102.32    8.67
  -1  -2   4   97.88    5.75
   1   2  -3 2977.43   63.02
  -1  -2   3 2880.22   54.66
   1   2  -3 2898.61   62.72
   1   2  -2 1107.22   19.59
  -1  -2   2 1145.81   26.18
   1   2  -2 1155.76   32.23
   1   2  -2 1141.00   32.45
  -1  -2   1 1989.99   33.79
   1   2  -1 1969.46   34.74
   1   2  -1 2020.88   37.39
  -1  -2   1 2003.78   41.22
  -1  -2   0 1745.30   39.06
  -1  -2   0 1772.02   33.14
  -1  -2  -1  989.68   27.76
  -1  -2  -1  965.33   24.32
   1   2   2  849.94   24.68
  -1  -2  -2  894.89   28.22
  -1  -2  -3 3389.41   73.54
   1   2   3 3176.87   67.66
  -1  -2  -4  239.04   16.14
   1   2   4  235.33   14.07
  -1  -2  -5  702.63   29.50
   1   2   5  712.49   27.20
  -1  -2  -6 2474.48   65.94
   1   2   6 2420.78   62.72
   1   2   7  335.71   20.55
  -1  -2  -7  336.77   21.29
  -1  -2  -8  150.09   14.67
   1   2   8  136.18   13.80
  -1  -2  -9  660.33   30.84
   1   2   9  677.92   32.09
   1   2  10   19.82    6.99
  -1  -2 -10   42.93    9.74
  -1  -2 -10   23.62    6.70
  -1  -2 -11   33.40    9.07
   1   2  11   46.25    9.73
   1   2  12  266.48   21.31
  -1  -2 -12  289.64   24.78
   1   2  13   33.94    8.87
  -1  -2 -13   51.62   10.56
   1   3 -17  196.92   21.17
   1   3 -17  230.46   22.90
   1   3 -16   50.84   11.78
   1   3 -16   75.98   13.53
   1   3 -15  145.02   18.23
  -1  -3  14  538.71   29.45
   1   3 -14  616.52   36.91
   1   3 -13  169.31   15.43
  -1  -3  13  149.66   15.27
   1   3 -12  222.44   17.05
  -1  -3  12  206.29   16.51
  -1  -3  11  777.44   30.64
   1   3 -11  833.41   33.36
   1   3 -10   97.55   10.92
   1   3  -9  664.70   28.04
   1   3  -8 1177.29   38.54
   1   3  -7  130.23   11.63
   1   3  -6  312.09   17.71
   1   3  -5 1477.66   43.74
  -1  -3   5 1512.35   33.52
   1   3  -4  141.06   12.34
  -1  -3   4  150.23    8.28
   1   3  -3  184.54   14.27
  -1  -3   3  170.32    9.09
   1   3  -3  154.46    9.36
  -1  -3   2 1141.08   29.53
   1   3  -2 1155.62   26.95
   1   3  -1  200.40    7.34
   1   3  -1  195.59   14.77
  -1  -3   1  179.64   10.51
  -1  -3   1  179.27    5.35
   1   3   0   76.76    9.57
  -1  -3   0   64.36    4.30
  -1  -3   0   58.84    6.59
  -1  -3  -1 2020.30   43.32
  -1  -3  -1 2034.73   50.27
   1   3   2  385.15   16.72
  -1  -3  -2  409.25   20.72
   1   3   2  371.38   18.87
  -1  -3  -3  740.62   31.13
   1   3   3  713.19   26.19
  -1  -3  -4 1337.19   46.28
   1   3   4 1294.40   40.84
   1   3   5  345.68   20.14
  -1  -3  -5  328.51   22.22
  -1  -3  -6   83.01   11.42
   1   3   6   69.23    9.79
   1   3   7 1404.65   48.89
  -1  -3  -7 1477.21   51.37
   1   3   8   43.25    8.70
  -1  -3  -8   49.61    9.31
  -1  -3  -9   77.83   11.85
   1   3   9   88.17   12.56
  -1  -3  -9   98.81   13.99
   1   3  10  641.01   33.94
  -1  -3 -10  676.29   36.72
  -1  -3 -10  621.79   32.28
  -1  -3 -11   47.77   10.63
   1   3  11   66.29   11.18
   1   3  12    7.77    7.71
  -1  -3 -12   18.64    7.50
   1   3  13  102.55   14.77
   1   4 -17   -0.46    8.24
   1   4 -17   12.28    8.07
   1   4 -16   98.02   15.80
   1   4 -16  132.52   17.36
   1   4 -15  140.60   17.53
   1   4 -15   91.48   15.72
   1   4 -14   41.25   11.94
  -1  -4  14   14.40    6.47
   1   4 -14   32.28    7.26
   1   4 -13   53.98   13.46
   1   4 -13   55.71   10.37
  -1  -4  13   84.18   10.96
   1   4 -12   76.00   15.51
   1   4 -12   60.32    9.96
  -1  -4  12   55.40    8.52
   1   4 -11  216.22   17.20
   1   4 -10  139.43   14.01
   1   4  -9   45.63    8.12
   1   4  -8  475.99   24.95
  -1  -4   7    9.22    2.51
   1   4  -7    5.73    4.29
   1   4  -6  225.04   17.11
   1   4  -6  249.38   18.44
  -1  -4   6  272.33   12.12
  -1  -4   5 1582.99   37.27
   1   4  -5 1606.73   51.25
   1   4  -5 1498.39   43.88
   1   4  -4  148.59   14.64
  -1  -4   4  146.05    9.26
   1   4  -4  146.43   10.31
  -1  -4   3  391.31   16.31
   1   4  -3  408.95   25.19
   1   4  -3  396.30   14.94
   1   4  -2 1277.07   28.72
   1   4  -2 1266.01   47.63
  -1  -4   2 1183.59   33.70
  -1  -4   1  181.98    5.83
   1   4  -1  167.39   16.95
  -1  -4   1  195.87   12.32
  -1  -4   0 1532.36   32.22
   1   4   0 1419.61   50.84
  -1  -4   0 1542.08   43.29
   1   4   1  518.06   26.28
  -1  -4  -1  472.02   23.23
  -1  -4  -1  450.11   17.07
  -1  -4  -2  376.11   22.52
  -1  -4  -2  404.65   19.17
  -1  -4  -3  620.31   31.09
   1   4   3  723.61   23.62
   1   4   4  101.07   10.87
  -1  -4  -4   79.31   12.08
  -1  -4  -5    1.14    5.01
   1   4   5    4.67    4.04
   1   4   6  395.14   24.54
  -1  -4  -6  444.37   28.07
  -1  -4  -7   19.38    7.50
   1   4   7   16.22    5.75
  -1  -4  -7   24.62    8.41
  -1  -4  -8   -1.34    5.97
  -1  -4  -8   -1.94    6.07
   1   4   8    2.25    5.31
  -1  -4  -9  172.04   18.40
   1   4   9  135.83   16.41
  -1  -4  -9  165.50   17.85
   1   4  10  103.88   14.86
  -1  -4 -10  101.86   14.07
  -1  -4 -10   75.94   14.03
   1   4  11   13.53    7.68
  -1  -4 -11   13.38    7.56
   1   4  12   17.31    6.88
  -1  -4 -12   32.04   10.24
   1   5 -16    8.65    7.48
   1   5 -15   16.06    7.00
   1   5 -15   39.48   12.51
   1   5 -14  642.20   34.94
   1   5 -14  698.54   45.31
   1   5 -13   13.18    8.82
   1   5 -13   21.67    7.53
   1   5 -12   89.31   12.20
   1   5 -12  116.80   19.20
   1   5 -12  109.51   15.98
   1   5 -11 1020.64   41.44
   1   5 -11  813.65   50.54
   1   5 -10    3.79    6.96
   1   5 -10    7.08    4.90
   1   5  -9   -5.82    7.74
   1   5  -9    2.48    5.31
   1   5  -8 1001.10   41.50
   1   5  -8  930.18   43.99
  -1  -5   8 1039.72   28.72
   1   5  -8 1010.49   30.49
  -1  -5   7  268.40   13.17
   1   5  -7  273.35   21.20
   1   5  -7  285.23   10.92
   1   5  -7  260.92   19.49
   1   5  -6    7.04    5.29
   1   5  -6    6.96    1.04
  -1  -5   6    4.66    2.65
   1   5  -6    6.22    3.27
   1   5  -5  968.32   43.13
  -1  -5   5  932.61   28.22
   1   5  -5  900.45   29.84
   1   5  -4  426.22   17.27
   1   5  -4  467.33   31.02
  -1  -5   4  421.57   18.32
  -1  -5   3  465.09   20.01
   1   5  -3  480.72   32.04
   1   5  -3  486.98   16.99
   1   5  -2 1789.84   66.78
  -1  -5   2 1890.58   48.99
  -1  -5   1 1091.97   21.74
  -1  -5   1 1185.48   37.58
   1   5  -1 1144.60   49.26
  -1  -5   0  943.05   35.18
  -1  -5   0  881.94   22.22
   1   5   0 1002.28   42.09
  -1  -5  -1 1617.09   40.40
  -1  -5  -1 1714.60   53.98
   1   5   2  600.94   24.42
  -1  -5  -2  570.56   30.58
  -1  -5  -2  545.82   23.14
  -1  -5  -3  602.56   33.02
  -1  -5  -3  603.46   27.37
  -1  -5  -4 1413.47   48.36
  -1  -5  -4 1403.02   54.53
  -1  -5  -5  179.24   17.05
  -1  -5  -5  163.11   18.05
  -1  -5  -6  383.73   25.75
  -1  -5  -6  331.98   26.40
   1   5   6  345.10   23.96
  -1  -5  -7  507.91   30.77
  -1  -5  -7  522.61   33.02
   1   5   7  474.89   29.70
  -1  -5  -8  142.65   17.10
  -1  -5  -8  167.11   19.34
   1   5   8  121.06   15.75
   1   5   9   21.70    7.39
  -1  -5  -9   31.86    8.89
  -1  -5  -9   19.34    8.89
  -1  -5 -10  171.67   18.86
   1   5  10  150.55   18.25
  -1  -5 -10  197.67   20.30
  -1  -5 -11   47.79   11.19
   1   6 -16  190.59   24.91
   1   6 -16  168.86   20.20
   1   6 -15    9.51    6.10
   1   6 -15    4.53    7.61
   1   6 -14   98.41   20.35
   1   6 -14  104.90   15.00
   1   6 -13  412.09   37.10
   1   6 -13  400.90   27.96
   1   6 -12   -6.68    5.51
   1   6 -12    8.44   10.33
   1   6 -11  130.78   20.11
   1   6 -11  192.14   18.61
   1   6 -10  150.30   17.01
   1   6 -10  155.77   20.04
  -1  -6   9    4.35    2.36
   1   6  -9   -5.72    6.67
  -1  -6   8  698.18   24.13
   1   6  -8  710.14   37.78
   1   6  -8  665.64   33.29
  -1  -6   7  205.11   12.47
   1   6  -7  196.75   20.47
   1   6  -7  188.57   15.35
  -1  -6   6   29.33    5.09
   1   6  -6   48.72   12.21
   1   6  -6   35.70    6.24
   1   6  -5  216.89   13.25
  -1  -6   5  222.13   13.81
   1   6  -5  238.39   24.90
   1   6  -4   36.02    5.09
   1   6  -4   20.31   10.12
  -1  -6   4   34.15    6.07
   1   6  -3  509.28   37.78
  -1  -6   3  513.31   23.22
  -1  -6   2   90.37   10.13
   1   6  -2   72.38   13.90
   1   6  -1   24.63    8.30
  -1  -6   1   18.36    6.11
  -1  -6   0  314.60   21.62
   1   6   0  358.21   24.37
   1   6   1   11.47    4.98
  -1  -6  -1   -4.30    5.83
  -1  -6  -2  295.99   16.61
  -1  -6  -2  314.18   24.59
  -1  -6  -3  313.75   25.93
  -1  -6  -3  314.23   19.56
  -1  -6  -4   26.12    9.19
  -1  -6  -4   23.76    6.82
  -1  -6  -5  130.05   17.57
  -1  -6  -5  110.20   13.39
  -1  -6  -6   56.84   12.94
  -1  -6  -6   64.36   11.72
  -1  -6  -7    0.34    6.43
  -1  -6  -7    3.70    6.93
  -1  -6  -8  131.39   17.23
  -1  -6  -8  130.33   17.57
  -1  -6  -9   41.13   10.83
  -1  -6 -10   -9.28    7.63
   1   7 -16    3.79    6.57
   1   7 -15   16.25   10.27
   1   7 -15   -2.13    6.00
   1   7 -14  257.55   31.28
   1   7 -14  326.16   26.90
   1   7 -13   43.11   14.00
   1   7 -13   61.91   12.49
   1   7 -12   -1.29    6.77
   1   7 -12   11.58    5.65
   1   7 -11  173.26   19.43
   1   7 -11  153.43   20.91
   1   7 -10  257.33   23.48
   1   7 -10  292.26   25.38
   1   7  -9    0.70    3.98
  -1  -7   9    1.13    2.76
   1   7  -9    3.66    6.27
   1   7  -8  373.62   22.83
   1   7  -8  395.68   31.60
  -1  -7   8  400.28   19.00
  -1  -7   7  717.38   27.31
   1   7  -7  674.27   29.03
   1   7  -6  347.15   33.77
  -1  -7   6  297.53   17.23
   1   7  -6  306.94   17.18
   1   7  -5  545.87   43.28
  -1  -7   5  497.62   23.48
   1   7  -4 1121.47   62.95
  -1  -7   4 1269.91   41.00
  -1  -7   3  329.86   20.15
   1   7  -3  312.08   31.36
   1   7  -2  622.98   40.69
  -1  -7   2  527.96   27.43
   1   7  -1  537.28   33.44
  -1  -7   1  457.05   27.13
   1   7   0  379.33   24.25
  -1  -7   0  359.40   25.43
  -1  -7  -1  823.90   41.72
  -1  -7  -2  357.75   28.68
  -1  -7  -3  182.41   21.50
  -1  -7  -4  158.27   20.32
  -1  -7  -5  129.37   19.05
  -1  -7  -6   35.38   11.40
  -1  -7  -7   74.73   14.51
  -1  -7  -8   71.27   14.50
   1   8 -15   -0.09    6.10
   1   8 -14   12.73   10.66
   1   8 -14   53.03   12.43
   1   8 -13  278.89   31.04
   1   8 -13  345.50   29.42
   1   8 -12   -5.02    7.25
   1   8 -12    2.15    8.26
   1   8 -11   37.78   10.98
   1   8 -11   60.14   13.47
   1   8 -10  344.58   25.94
   1   8 -10  384.35   32.26
   1   8  -9   65.33   10.51
   1   8  -9   92.53   17.33
  -1  -8   9   73.07    8.48
  -1  -8   8    2.46    3.69
   1   8  -8   -5.39    7.92
   1   8  -8    5.27    4.73
   1   8  -7  183.62   26.16
  -1  -8   7  156.82   13.08
   1   8  -6  322.34   36.54
  -1  -8   6  304.31   19.21
   1   8  -5   -4.49   10.06
  -1  -8   5    4.37    4.10
   1   8  -4  297.06   33.28
  -1  -8   4  373.85   22.83
  -1  -8   3  361.69   23.27
   1   8  -3  401.13   35.37
   1   8  -2  215.27   23.15
  -1  -8   2  193.41   18.24
   1   8  -1  399.83   27.70
  -1  -8   1  372.46   26.55
  -1  -8   0  480.66   32.48
  -1  -8  -1   74.11   14.27
  -1  -8  -2  280.19   27.00
  -1  -8  -3  117.93   18.30
  -1  -8  -4   76.24   16.65
  -1  -8  -5  224.91   25.91
  -1  -8  -6   99.78   17.58
   1   9 -13  152.61   21.56
   1   9 -13  150.01   21.42
   1   9 -12   28.55    9.69
   1   9 -12   27.41   10.43
   1   9 -11   49.36   11.19
   1   9 -11   76.20   16.47
   1   9 -10  370.56   36.05
   1   9  -9  -10.03    8.52
   1   9  -8   55.00   18.41
  -1  -9   8   50.99    8.23
   1   9  -7  480.46   48.33
  -1  -9   7  417.46   23.70
  -1  -9   6    9.89    5.41
   1   9  -6   -2.13   10.69
   1   9  -5  175.51   28.11
  -1  -9   5  138.31   14.37
   1   9  -4  212.29   29.20
  -1  -9   4  216.83   18.92
   1   9  -3   57.76   14.41
  -1  -9   3   23.76    7.03
  -1  -9   2  165.38   18.32
  -1  -9   1  151.86   18.63
  -1  -9   0    1.13    6.43
  -1  -9  -1   80.61   16.03
  -1  -9  -2   40.47   11.70
  -1  -9  -3   -1.77    8.92
   1  10 -11    4.48    8.43
   1  10 -10  106.41   23.04
   1  10  -9  348.70   41.73
  -1 -10   8   33.92    7.82
   1  10  -8   40.72   19.09
   1  10  -7  155.21   30.05
  -1 -10   7  188.56   17.57
  -1 -10   6  441.68   27.06
   1  10  -6  404.25   44.96
   1  10  -5  167.32   28.40
  -1 -10   5  164.00   17.01
   1  10  -4  153.52   24.07
  -1 -10   4  141.85   16.94
  -1 -10   3  510.21   32.98
  -1 -10   2  123.85   17.69
  -1 -10   1  142.32   20.03
  -1 -10   0  260.52   27.43
  -1 -10  -1  132.01   21.26
   1  11  -9   36.84   20.45
   1  11  -8   64.58   21.35
   1  11  -7   18.35   16.30
  -1 -11   7   27.37    7.96
   1  11  -6   -8.60   12.82
  -1 -11   6    1.78    6.37
  -1 -11   5   99.20   14.34
  -1 -11   4    8.68    6.43
  -1 -11   3   21.54    8.89
   2 -12   1   20.87    9.84
   2 -12   2   -5.05    7.69
   2 -12   3  266.60   24.17
   2 -12   4    3.71    7.08
  -2  12  -5   28.33   11.74
  -2  12  -6  464.13   41.64
  -2  12  -7   52.05   19.34
  -2  12  -8   15.46   14.90
  -2  12  -9  419.92   48.46
   2 -11  -2    4.17    8.59
   2 -11  -1   91.20   17.52
   2 -11   0   93.54   17.71
   2 -11   1   -2.42    7.10
   2 -11   2  249.76   23.05
   2 -11   3    9.00    5.71
  -2  11  -3   17.04    8.03
  -2  11  -4   14.15    8.48
   2 -11   4    4.01    4.71
  -2  11  -5  294.18   30.83
   2 -11   5  293.85   21.29
  -2  11  -6   41.74   15.73
  -2  11  -7   16.39   12.22
  -2  11  -8  165.80   29.58
  -2  11  -9    4.31   11.63
  -2  11 -10   66.08   20.84
  -2  11 -11  135.29   24.07
   2 -10  -5    3.92    9.14
   2 -10  -4   -5.82   10.51
   2 -10  -3  274.04   28.52
   2 -10  -2   59.24   14.08
   2 -10  -1   19.43    9.02
   2 -10   0  809.79   44.08
   2 -10   1   96.08   15.00
   2 -10   2  255.26   21.84
  -2  10  -2  251.29   20.60
  -2  10  -3  798.75   41.41
   2 -10   3  836.30   37.44
  -2  10  -4   89.44   16.01
   2 -10   4   69.18   10.28
  -2  10  -5  202.03   25.92
   2 -10   5  185.76   15.55
   2 -10   6 1100.74   38.60
  -2  10  -6  965.89   60.88
  -2  10  -7   12.35   10.50
  -2  10  -8  220.24   30.30
  -2  10  -9  916.51   59.60
  -2  10 -10   79.81   17.95
  -2  10 -11   64.37   16.74
  -2  10 -12  408.37   35.07
  -2  10 -13   32.26   11.07
   2  -9  -7   15.77   10.07
   2  -9  -6   79.65   15.39
   2  -9  -5   41.20   12.31
   2  -9  -4  -12.60    8.63
   2  -9  -3   69.72   14.15
   2  -9  -2  128.81   18.74
   2  -9  -1  180.39   20.08
   2  -9   0    1.69    5.54
   2  -9   1  116.42   14.49
  -2   9  -1  134.22   13.62
   2  -9   2  200.78   17.60
  -2   9  -2  202.22   18.36
  -2   9  -3    3.68    6.11
   2  -9   3   -1.77    4.15
  -2   9  -4  314.28   28.48
   2  -9   4  352.24   20.43
  -2   9  -5  131.18   20.49
   2  -9   5  145.49   12.68
   2  -9   6   62.72    7.82
  -2   9  -6   60.45   15.65
  -2   9  -7  374.03   36.04
  -2   9  -8  129.31   21.90
  -2   9  -9   -0.21    7.77
  -2   9 -10  454.04   36.17
  -2   9 -11   15.26    8.59
  -2   9 -12    2.06    6.23
  -2   9 -13  275.59   26.23
  -2   9 -14   18.33    8.94
   2  -8  -9  102.42   16.88
  -2   8   8   68.92   14.75
   2  -8  -8   86.28   16.24
   2  -8  -7    2.19    7.58
  -2   8   7   -6.17    8.34
  -2   8   6  156.54   18.34
   2  -8  -6  164.93   20.65
  -2   8   5   63.54   11.73
   2  -8  -5   85.10   15.12
  -2   8   4  112.45   14.06
   2  -8  -4   82.65   14.75
   2  -8  -3  576.97   36.22
  -2   8   3  559.78   29.06
   2  -8  -2  441.88   31.20
   2  -8  -1  303.25   24.58
  -2   8   1  283.86   15.79
   2  -8   0  883.35   39.49
  -2   8   0  832.41   31.41
   2  -8   1  513.60   27.62
  -2   8  -1  481.58   25.54
   2  -8   2  186.63   15.30
  -2   8  -2  205.25   18.28
   2  -8   3 1577.17   47.01
  -2   8  -3 1541.05   59.08
   2  -8   4  231.49   14.94
  -2   8  -4  223.05   23.55
   2  -8   5  393.17   18.56
  -2   8  -5  344.72   30.70
  -2   8  -6  970.95   53.45
   2  -8   6 1029.53   30.98
  -2   8  -7  178.19   23.00
  -2   8  -8   58.30   13.19
  -2   8  -9  469.02   33.87
  -2   8 -10   61.31   12.58
  -2   8 -11   10.79    5.92
  -2   8 -12  165.71   19.11
  -2   8 -13  192.98   20.79
  -2   8 -14   -2.76    6.42
  -2   8 -15    6.50    6.18
  -2   7  10   -2.43    5.36
   2  -7 -10   13.32    8.43
  -2   7   9   13.93    8.42
   2  -7  -9   21.90    9.43
   2  -7  -8  336.65   27.60
  -2   7   8  312.49   26.09
  -2   7   7    2.24    5.07
   2  -7  -7    4.33    5.82
  -2   7   6    4.35    6.29
   2  -7  -6    1.60    6.36
  -2   7   5  374.20   25.43
   2  -7  -5  370.33   27.97
   2  -7  -4  163.77   18.55
  -2   7   4  164.84   15.86
   2  -7  -3   21.63    7.69
  -2   7   3   23.49    6.55
   2  -7  -2  528.50   31.70
  -2   7   2  514.65   24.57
  -2   7   2  515.63   18.91
   2  -7  -1  230.26   19.98
  -2   7   1  223.23   14.61
  -2   7   1  229.57   13.42
   2  -7   0  262.58   19.61
  -2   7   0  254.40   15.77
  -2   7  -1 1756.76   52.10
   2  -7   1 1728.94   52.28
  -2   7  -2  931.25   39.07
   2  -7   2  911.56   32.82
  -2   7  -3  624.31   34.29
   2  -7   3  596.27   24.01
   2  -7   4 1550.77   40.82
  -2   7  -4 1468.12   59.33
  -2   7  -5  438.52   31.89
   2  -7   5  425.41   17.27
  -2   7  -6  378.31   29.54
  -2   7  -6  320.14   10.79
   2  -7   6  339.29   14.06
  -2   7  -7 1804.43   67.79
  -2   7  -7 1755.04   37.56
   2  -7   7 1809.35   39.08
  -2   7  -8  122.46    7.93
  -2   7  -8  133.87   17.00
  -2   7  -9  247.08   12.72
  -2   7  -9  283.09   23.84
  -2   7 -10  742.35   39.11
  -2   7 -10  822.93   40.41
  -2   7 -11  166.94   18.11
  -2   7 -11  138.34   18.54
  -2   7 -12   13.39    9.46
  -2   7 -12   11.35    6.80
  -2   7 -13  208.94   20.64
  -2   7 -13  180.94   23.99
  -2   7 -14   55.52   13.93
  -2   7 -14   64.64   12.07
  -2   7 -15  -20.72   11.70
  -2   7 -15   11.92    7.86
   2  -6 -12    9.83    8.32
  -2   6  11   53.24   11.52
   2  -6 -11   64.91   12.91
  -2   6  10   -2.61    6.23
   2  -6 -10   22.65    8.80
   2  -6  -9   59.89   12.09
  -2   6   9   37.10    9.42
  -2   6   8  154.63   18.15
   2  -6  -8  149.52   17.59
  -2   6   7    1.24    4.82
  -2   6   6  150.75   16.25
  -2   6   5  547.24   29.40
  -2   6   4   10.44    5.13
  -2   6   3  356.34   20.71
  -2   6   3  350.88   12.58
  -2   6   2  254.86   16.00
  -2   6   2  293.78   12.67
  -2   6   1  101.27    9.32
  -2   6   1   93.01    8.05
   2  -6   0 1327.48   44.31
  -2   6   0 1359.51   36.17
  -2   6   0 1414.69   39.89
   2  -6   1  424.01   21.31
  -2   6  -1  451.61   22.70
   2  -6   2   14.01    3.92
  -2   6  -2   20.87    5.99
   2  -6   3 1044.91   30.31
  -2   6  -3 1025.32   42.50
  -2   6  -4   81.26   12.24
   2  -6   4   88.41    7.00
  -2   6  -5  180.41   18.36
  -2   6  -5  191.33    7.98
   2  -6   5  210.04    9.97
  -2   6  -6  747.92   38.02
  -2   6  -6  737.74   20.00
   2  -6   6  748.38   19.67
  -2   6  -7    8.45    2.45
   2  -6   7    9.65    1.99
  -2   6  -7   13.65    6.51
  -2   6  -8   85.68    7.38
  -2   6  -8  103.57   11.96
  -2   6  -8  102.24   13.44
  -2   6  -9   86.18    8.46
  -2   6  -9  115.81   14.11
  -2   6  -9   92.78   13.09
  -2   6 -10  148.32   17.56
  -2   6 -10  174.01   13.87
  -2   6 -10  166.81   16.78
  -2   6 -11  206.95   17.94
  -2   6 -11  203.30   18.80
  -2   6 -12    0.24    5.72
  -2   6 -12    6.49    4.56
  -2   6 -12   -3.14    7.19
  -2   6 -13   80.74   15.65
  -2   6 -13   58.52   13.25
  -2   6 -13   92.34   13.10
  -2   6 -14   54.05   13.90
  -2   6 -14   61.03   11.24
  -2   6 -14   26.40   11.92
  -2   6 -15    5.67    9.16
  -2   6 -15    9.90    7.90
  -2   6 -16  141.15   19.92
   2  -5 -12   -6.81    7.48
  -2   5  12   12.13    7.01
   2  -5 -11  333.81   25.68
  -2   5  11  362.17   27.43
  -2   5  10   45.82   10.43
  -2   5   9   85.51   12.72
  -2   5   8  356.72   25.07
  -2   5   7  342.10   23.90
  -2   5   6  150.47   15.28
  -2   5   5  726.78   32.80
  -2   5   4  925.20   35.54
  -2   5   3 1016.04   35.25
  -2   5   2 1519.47   34.12
  -2   5   2 1491.18   41.44
  -2   5   1 2262.56   62.71
  -2   5   1 2295.12   52.58
  -2   5   1 2382.50   50.65
  -2   5   0 1652.80   42.03
  -2   5   0 1592.28   50.60
  -2   5   0 1604.24   38.16
  -2   5  -1 2634.80   62.79
  -2   5  -1 2551.98   69.96
   2  -5   2 1655.86   40.32
  -2   5  -2 1561.08   52.16
  -2   5  -2 1660.45   49.22
   2  -5   3 1194.35   29.71
  -2   5  -3 1197.67   44.26
  -2   5  -3 1152.87   24.41
  -2   5  -3 1171.80   42.15
  -2   5  -4 3563.39   90.72
   2  -5   4 3822.86   68.85
  -2   5  -4 3678.69   66.25
  -2   5  -4 3721.40   92.01
  -2   5  -5 1346.35   30.44
   2  -5   5 1426.13   28.87
  -2   5  -5 1331.30   48.03
  -2   5  -6  557.34   23.41
  -2   5  -6  582.68   18.27
   2  -5   6  577.74   13.64
  -2   5  -6  600.80   30.22
  -2   5  -7  913.87   37.98
   2  -5   7  865.74   19.44
  -2   5  -7  939.87   33.68
  -2   5  -7  898.62   26.44
   2  -5   8  526.10   17.29
  -2   5  -8  565.57   22.54
  -2   5  -8  528.24   28.12
  -2   5  -8  496.51   26.84
  -2   5  -9   45.26    7.79
  -2   5  -9   32.08    8.18
  -2   5  -9   34.72    7.53
  -2   5 -10  304.77   21.96
  -2   5 -10  300.34   20.93
  -2   5 -11  396.14   24.43
  -2   5 -11  371.27   27.75
  -2   5 -12   40.80   13.20
  -2   5 -12   25.12    9.83
  -2   5 -12   43.89    9.01
  -2   5 -13   15.98    9.45
  -2   5 -13   27.53   11.76
  -2   5 -13   35.69    8.66
  -2   5 -14  544.60   36.76
  -2   5 -14  506.02   39.29
  -2   5 -15    6.43    9.75
  -2   5 -15   -1.99    6.21
  -2   5 -16    9.64    7.46
  -2   5 -16   -5.61    8.77
  -2   4  13  117.61   16.27
  -2   4  12   14.86    7.06
  -2   4  11   67.04   12.32
  -2   4  10   72.68   11.89
  -2   4   9   21.10    6.76
  -2   4   8  142.43   15.15
  -2   4   7  170.00   15.72
  -2   4   6  267.31   19.28
  -2   4   5    7.75    4.38
  -2   4   4   55.98    8.37
  -2   4   4   64.83    7.58
  -2   4   3 1307.60   39.54
  -2   4   3 1276.15   37.44
  -2   4   2   33.22    5.44
  -2   4   2   27.93    5.83
  -2   4   2   42.87    3.89
  -2   4   1  224.73   10.51
  -2   4   1  221.85   14.47
  -2   4   1  231.39   11.78
  -2   4   0 1220.02   28.96
  -2   4   0 1214.08   38.29
  -2   4   0 1225.87   32.39
  -2   4  -1  823.47   20.09
  -2   4  -1  730.68   29.32
  -2   4  -1  794.99   26.84
  -2   4  -2 1530.14   30.13
  -2   4  -2 1522.74   43.30
  -2   4  -2 1474.02   44.47
   2  -4   3 1873.65   37.86
  -2   4  -3 1807.40   51.45
  -2   4  -3 1906.29   36.81
  -2   4  -4  184.88   14.08
   2  -4   4  192.92    6.74
  -2   4  -4  168.89    7.89
  -2   4  -4  172.49   14.12
  -2   4  -5 1685.97   40.54
  -2   4  -5 1699.75   35.39
  -2   4  -5 1584.66   48.35
   2  -4   5 1639.11   31.05
  -2   4  -6  386.34   21.82
   2  -4   6  379.18   10.06
  -2   4  -6  417.78   16.33
  -2   4  -6  386.19   20.14
  -2   4  -6  391.47   18.84
  -2   4  -7   28.75    6.81
   2  -4   7   22.74    3.46
  -2   4  -7   19.99    4.67
  -2   4  -7   24.82    5.99
   2  -4   8 1118.66   29.72
  -2   4  -8 1191.73   39.73
  -2   4  -8 1163.34   40.51
   2  -4   9  109.16    8.44
  -2   4  -9  114.02   13.23
  -2   4  -9  127.65   12.78
  -2   4  -9   97.69   13.79
  -2   4 -10    1.93    5.23
  -2   4 -10    3.43    5.52
  -2   4 -10    0.28    3.63
  -2   4 -11  193.15   16.20
  -2   4 -11  153.69   20.15
  -2   4 -11  183.47   20.28
  -2   4 -12   40.24    8.09
  -2   4 -12   34.06    9.69
  -2   4 -12   57.39   14.07
  -2   4 -13   26.19    8.44
  -2   4 -13   52.90   14.36
  -2   4 -14  105.36   18.24
  -2   4 -14   78.05   13.76
  -2   4 -15   22.87   10.25
  -2   4 -15   35.02   10.41
  -2   4 -16    7.75    7.48
  -2   3  14  113.38   15.33
  -2   3  13  157.13   17.84
  -2   3  12   -8.18    7.10
  -2   3  11   89.78   12.69
  -2   3  10  448.04   27.15
  -2   3   9   51.77    9.54
  -2   3   8  430.78   24.97
  -2   3   7 1467.22   48.34
  -2   3   6  778.54   23.44
  -2   3   6  875.12   34.09
  -2   3   5  602.08   26.80
  -2   3   5  560.25   19.44
  -2   3   4 3474.01   77.61
  -2   3   4 3314.15   67.94
  -2   3   3  745.03   27.29
  -2   3   3  742.58   23.89
  -2   3   2 1673.07   42.61
  -2   3   2 1714.61   41.90
  -2   3   1 1548.37   36.72
  -2   3   1 1621.20   40.76
  -2   3   1 1559.60   33.87
  -2   3   0 1626.75   41.99
  -2   3   0 1611.08   34.06
  -2   3   0 1699.32   37.32
  -2   3  -1 2479.02   45.11
  -2   3  -1 2490.12   53.63
  -2   3  -1 2535.57   44.12
  -2   3  -2 2079.32   49.28
   2  -3   2 1979.00   35.98
  -2   3  -2 1994.51   48.32
  -2   3  -2 2026.80   38.11
   2  -3   3  239.05    8.55
  -2   3  -3  233.75   13.52
  -2   3  -3  238.43    9.12
  -2   3  -3  231.19   14.37
   2  -3   4  761.35   16.54
  -2   3  -4  733.92   27.44
  -2   3  -4  775.82   20.42
  -2   3  -4  742.65   24.87
   2  -3   5 1185.54   23.40
   2  -3   5 1234.87   26.59
  -2   3  -5 1232.23   38.53
  -2   3  -5 1272.70   34.37
  -2   3  -5 1206.53   31.49
  -2   3  -5 1279.50   33.95
   2  -3   6   89.39    6.11
  -2   3  -6   79.49    8.10
   2  -3   6   64.46    2.88
  -2   3  -6   94.36    7.97
  -2   3  -6   89.33    8.82
  -2   3  -6   81.98    9.02
   2  -3   7  391.70   15.02
  -2   3  -7  374.11   20.88
  -2   3  -7  377.18   20.76
  -2   3  -7  384.54   16.87
  -2   3  -7  382.94   20.37
  -2   3  -8  956.02   40.15
  -2   3  -8  935.28   38.49
   2  -3   8 1032.26   29.05
  -2   3  -8  995.84   35.18
  -2   3  -9   33.89    9.20
   2  -3   9   20.40    4.61
  -2   3  -9   13.19    4.36
  -2   3  -9   27.16    8.09
  -2   3 -10    0.06    3.36
  -2   3 -10    0.20    5.46
   2  -3  10    2.33    3.05
  -2   3 -10    4.36    8.40
  -2   3 -11  678.67   36.40
  -2   3 -11  726.85   42.97
  -2   3 -11  726.42   30.60
  -2   3 -12   61.15   11.50
  -2   3 -12   45.05   12.34
  -2   3 -13   18.45    8.09
  -2   3 -13   29.28   11.56
  -2   3 -14  419.95   33.32
  -2   3 -14  321.65   24.35
  -2   3 -15   15.62    9.04
  -2   2  15    6.27    7.22
  -2   2  14   -7.44    6.09
  -2   2  13  193.98   18.78
  -2   2  12   23.37    6.64
  -2   2  11   26.43    7.45
  -2   2  10  372.51   23.58
   2  -2 -10  359.72   18.29
  -2   2   9  802.81   34.67
  -2   2   8  157.00   14.45
   2  -2  -7  158.50    6.84
  -2   2   7  167.85   14.27
  -2   2   7  161.83    7.74
  -2   2   6 1524.33   33.38
  -2   2   6 1544.90   46.05
   2  -2  -6 1510.02   30.65
  -2   2   5  702.62   27.73
  -2   2   5  682.78   19.62
  -2   2   4 1499.54   42.17
  -2   2   3 4134.58   83.97
  -2   2   2 3989.77   78.82
  -2   2   1 1815.56   40.24
  -2   2   0 4925.48   88.18
  -2   2   0 5165.48   85.36
  -2   2   0 5062.27   89.73
   2  -2   0 5035.95   88.52
   2  -2   1 2417.16   45.67
  -2   2  -1 2453.17   44.49
  -2   2  -1 2466.15   50.29
   2  -2   2 1796.57   34.58
  -2   2  -2 1830.55   35.54
  -2   2  -2 1748.83   41.83
  -2   2  -3 1124.40   26.10
   2  -2   3 1079.22   19.71
  -2   2  -3 1076.11   31.04
   2  -2   3 1101.63   22.69
  -2   2  -4 1559.76   35.70
   2  -2   4 1560.04   30.68
  -2   2  -4 1459.79   40.02
  -2   2  -4 1537.24   36.23
   2  -2   4 1533.11   29.81
   2  -2   5 2056.50   38.45
  -2   2  -5 2042.74   43.94
  -2   2  -5 2029.16   49.28
   2  -2   5 2095.30   42.74
  -2   2  -5 2210.77   48.65
  -2   2  -5 2048.49   50.92
   2  -2   6 1515.60   34.80
  -2   2  -6 1506.96   32.63
  -2   2  -6 1461.72   43.39
  -2   2  -6 1493.59   40.85
  -2   2  -6 1499.14   40.69
  -2   2  -7  106.92    5.00
   2  -2   7  131.10    9.23
  -2   2  -7  141.71   12.64
  -2   2  -7  130.81   10.80
  -2   2  -7  133.55    7.46
  -2   2  -7  111.62   12.52
  -2   2  -7  105.81    5.67
  -2   2  -8  376.16   18.98
  -2   2  -8  323.10   21.05
  -2   2  -8  308.31   23.83
   2  -2   8  379.08   17.06
  -2   2  -8  270.15   11.52
   2  -2   9  521.76   21.87
  -2   2  -9  457.98   31.34
  -2   2  -9  492.00   27.56
  -2   2  -9  498.39   22.76
   2  -2  10    1.57    2.99
  -2   2 -10   12.06    6.12
  -2   2 -10    8.93    4.49
  -2   2 -10    8.82    8.74
  -2   2 -11  147.44   15.98
   2  -2  11  137.83   11.98
  -2   2 -11  150.37   19.18
  -2   2 -12  336.68   28.63
  -2   2 -12  283.24   21.44
  -2   2 -13    9.39    8.06
  -2   2 -13   -3.68    4.78
  -2   2 -14   18.81    9.94
  -2   2 -15  203.54   22.59
  -2   1  16   97.25   14.54
  -2   1  15   45.75   10.03
  -2   1  14   11.08    6.43
  -2   1  13  152.28   15.91
  -2   1  12   11.60    5.84
  -2   1  11   96.67   12.43
  -2   1  10  782.17   34.28
   2  -1 -10  819.66   26.96
   2  -1  -9    8.87    3.70
   2  -1  -9    3.18    2.15
  -2   1   9    4.11    4.06
   2  -1  -8  166.93    9.23
  -2   1   8  138.97    6.07
   2  -1  -8  165.93   10.90
  -2   1   8  167.20   14.05
  -2   1   7  831.83   32.04
   2  -1  -7  849.54   26.38
   2  -1  -7  858.61   23.28
   2  -1  -6   24.61    4.11
  -2   1   6   27.98    5.57
   2  -1  -6   26.62    3.46
  -2   1   5 1234.26   35.45
   2  -1  -5 1221.48   31.06
   2  -1  -4  735.65   21.36
  -2   1   4  754.82   23.75
   2  -1  -3  170.23    8.55
   2  -1  -2 1355.23   29.57
   2  -1  -1 1201.55   26.36
  -2   1   0  749.12   16.60
   2  -1   0  727.01   17.86
   2  -1   1 1042.54   23.08
  -2   1  -1 1095.77   22.70
  -2   1  -1 1044.05   21.39
  -2   1  -2   14.15    2.41
   2  -1   2   15.67    2.30
  -2   1  -2   19.74    2.14
   2  -1   3  294.05    9.43
  -2   1  -3  292.32   12.29
  -2   1  -3  280.83    8.83
   2  -1   3  290.46   10.21
   2  -1   4  466.91   14.33
  -2   1  -4  480.56   15.62
  -2   1  -4  447.27   18.31
  -2   1  -4  470.28   18.13
   2  -1   4  465.57   14.79
  -2   1  -4  467.02   13.32
  -2   1  -5  406.35   20.28
   2  -1   5  465.68   16.76
  -2   1  -5  458.14   14.88
  -2   1  -5  467.47   17.59
  -2   1  -5  439.82   18.29
  -2   1  -6  590.45   19.96
   2  -1   6  642.10   22.22
  -2   1  -6  620.87   29.33
  -2   1  -6  621.38   23.82
  -2   1  -6  600.52   22.47
   2  -1   7    7.09    3.34
  -2   1  -7    4.26    2.69
  -2   1  -7    2.50    3.72
  -2   1  -7    6.27    3.17
  -2   1  -7    4.83    1.33
  -2   1  -7   -3.48    6.42
  -2   1  -8  258.60   15.03
  -2   1  -8  265.23   23.23
   2  -1   8  287.59   16.29
  -2   1  -8  248.63   17.40
  -2   1  -9  556.48   34.87
   2  -1   9  571.16   24.77
  -2   1  -9  580.30   28.12
  -2   1 -10   13.75    5.44
   2  -1  10    6.48    3.73
  -2   1 -10   -2.67    6.63
   2  -1  11  213.89   15.83
  -2   1 -11  223.15   22.90
  -2   1 -11  225.47   17.46
  -2   1 -12   64.20   13.43
  -2   1 -13    7.90    6.93
  -2   1 -14  205.28   22.46
  -2   0  16  140.02   16.81
  -2   0  15  163.71   17.43
  -2   0  14   83.25   12.49
  -2   0  13  131.69   14.87
  -2   0  12  817.51   36.40
  -2   0  11  169.98   15.57
   2   0 -10  144.30   10.72
  -2   0  10  148.99   14.18
   2   0  -9 2023.97   48.81
  -2   0   9 1942.64   56.46
   2   0  -8  697.02   22.12
  -2   0   8  649.48   27.17
   2   0  -8  677.77   22.95
  -2   0   7  536.80   22.25
   2   0  -7  535.23   18.29
   2   0  -7  522.73   19.04
   2   0  -6 5091.25   95.28
   2   0  -6 5208.29   93.74
   2   0  -5 2413.77   48.68
   2   0  -4  337.78   12.20
   2   0  -3 5327.84   93.21
   2   0  -2 2906.86   54.44
  -2   0   1 1574.11   29.63
   2   0  -1 1550.91   33.08
  -2   0   1 1582.13   32.00
  -2   0   0 4944.81   83.86
  -2   0   0 5064.64   86.28
   2   0   0 4928.74   88.07
  -2   0  -1 2962.23   54.54
   2   0   1 3013.12   57.55
  -2   0  -1 3018.47   55.19
   2   0   2  560.13   17.55
  -2   0  -2  561.29   16.96
  -2   0  -2  558.02   16.05
  -2   0  -3 2622.74   52.52
   2   0   3 2569.58   53.51
  -2   0  -3 2644.39   55.97
   2   0   3 2685.57   51.90
  -2   0  -4  144.49   11.23
  -2   0  -4  150.85    9.50
  -2   0  -4  156.54    7.55
   2   0   4  156.36    9.31
  -2   0  -5  118.76    9.61
  -2   0  -5  109.09   11.38
   2   0   5  125.43    9.34
  -2   0  -5  125.20    8.05
  -2   0  -6  841.47   29.63
  -2   0  -6  798.94   35.66
  -2   0  -6  820.78   26.44
   2   0   6  796.77   27.70
  -2   0  -7    1.06    3.67
   2   0   7    6.98    3.12
  -2   0  -7    6.42    3.22
  -2   0  -7    7.57    6.33
  -2   0  -8   38.33    6.88
  -2   0  -8   35.04    6.80
   2   0   8   40.29    7.00
  -2   0  -8   46.16   10.47
  -2   0  -9 1100.84   38.59
  -2   0  -9 1061.87   49.19
  -2   0  -9 1066.56   36.63
   2   0   9 1061.94   37.78
   2   0  10   61.44    9.17
  -2   0 -10   78.86   13.91
  -2   0 -11   62.12   12.46
   2   0  11   67.82    9.81
  -2   0 -12  392.73   30.01
   2   0  12  384.71   23.31
  -2   0 -13   64.84   12.82
  -2   0 -14   25.59    9.13
   2   1 -17   12.83    7.32
  -2  -1  16    6.71    6.44
  -2  -1  15   84.66   12.92
  -2  -1  14   91.65   13.02
  -2  -1  13   83.41   11.70
  -2  -1  12  119.56   13.45
   2   1 -11  190.23   13.94
  -2  -1  11  170.71   15.45
  -2  -1  10    9.32    4.67
   2   1 -10   18.36    5.16
   2   1  -9  132.72   10.76
  -2  -1   9  130.64   11.39
   2   1  -9  138.10    9.12
   2   1  -8 1407.08   38.67
   2   1  -8 1336.60   34.04
   2   1  -7   36.90    4.66
   2   1  -7   32.80    5.24
   2   1  -6  133.60    8.39
   2   1  -6  128.01    9.44
   2   1  -5 2030.47   47.73
   2   1  -5 2146.96   45.36
   2   1  -4   54.07    5.40
  -2  -1   3  874.51   22.44
   2   1  -3  909.12   24.89
  -2  -1   2 3480.87   64.50
   2   1  -2 3453.69   67.82
  -2  -1   1  562.66   16.67
  -2  -1   1  549.79   13.06
   2   1  -1  557.02   18.85
   2   1   0  830.43   24.55
  -2  -1   0  799.26   18.27
  -2  -1   0  821.11   21.92
  -2  -1  -1 1512.75   35.22
   2   1   1 1497.50   37.69
  -2  -1  -1 1558.08   32.62
  -2  -1  -2  139.62    8.52
   2   1   2  136.28    9.58
  -2  -1  -2  154.50    9.46
  -2  -1  -3 1234.78   34.57
  -2  -1  -3 1261.56   34.89
   2   1   3 1223.20   31.63
  -2  -1  -4  200.19   13.80
  -2  -1  -4  214.10   14.72
   2   1   4  213.97   12.41
  -2  -1  -5  103.30   10.86
   2   1   5   93.77    9.01
  -2  -1  -5   86.79    5.77
  -2  -1  -5   85.62   11.31
  -2  -1  -6  419.66   26.64
   2   1   6  434.46   21.32
  -2  -1  -6  406.31   22.77
  -2  -1  -6  452.75   16.42
  -2  -1  -7  147.22   14.13
   2   1   7  146.29   12.98
  -2  -1  -7  144.48   16.75
  -2  -1  -7  152.27   10.12
  -2  -1  -8  121.71   13.13
   2   1   8  111.71   11.71
  -2  -1  -8  103.84   14.34
   2   1   9  147.17   14.38
  -2  -1  -9  174.29   15.47
  -2  -1  -9  154.23   18.17
   2   1  10   37.48    8.29
  -2  -1 -10   34.08   10.28
   2   1  11   82.27   11.33
  -2  -1 -11  102.31   15.29
   2   1  12   52.26    9.91
  -2  -1 -12   41.09   10.64
  -2  -1 -13   57.08   13.03
   2   2 -17    1.17    8.07
  -2  -2  16   11.46    8.29
  -2  -2  15  465.60   29.03
  -2  -2  14    7.94    6.56
  -2  -2  13   32.47    7.84
   2   2 -12 1016.16   37.77
  -2  -2  12  928.73   37.76
  -2  -2  11  178.95   14.70
   2   2 -11  152.96   13.74
   2   2 -10   33.09    6.57
   2   2  -9 2877.60   64.01
   2   2  -9 2769.75   67.35
   2   2  -8  284.74   16.66
   2   2  -8  274.89   15.63
   2   2  -7   38.48    6.51
   2   2  -7   42.44    6.60
   2   2  -6 3152.13   69.94
   2   2  -6 3055.68   69.23
   2   2  -5  409.25   18.99
  -2  -2   5  404.35   14.63
   2   2  -5  427.90   19.54
   2   2  -4  823.43   28.05
   2   2  -4  774.69   27.19
  -2  -2   4  782.32   22.19
   2   2  -3 3349.04   72.68
  -2  -2   3 3339.35   65.17
   2   2  -2  570.63   22.85
  -2  -2   2  596.18   19.05
   2   2  -1  338.68   17.18
  -2  -2   1  365.03   10.02
  -2  -2   1  371.09   14.69
  -2  -2   0 1787.35   34.02
   2   2   0 1723.09   45.40
  -2  -2   0 1827.60   41.11
  -2  -2  -1  178.20    8.71
  -2  -2  -1  168.90   10.91
  -2  -2  -2  156.28    9.94
  -2  -2  -2  163.40   11.68
  -2  -2  -3  493.12   21.41
  -2  -2  -3  510.89   23.33
  -2  -2  -4  164.17   13.70
  -2  -2  -4  134.18   12.87
   2   2   4  143.90   11.18
  -2  -2  -5   56.29    9.57
   2   2   5   48.71    7.07
  -2  -2  -5   52.18    9.23
   2   2   6  498.86   24.81
  -2  -2  -6  491.65   27.69
  -2  -2  -6  548.83   30.87
  -2  -2  -7  310.74   22.28
   2   2   7  287.43   19.48
  -2  -2  -7  288.59   23.59
  -2  -2  -8  155.55   15.95
   2   2   8  166.47   15.37
  -2  -2  -8  171.52   18.67
  -2  -2  -9  323.61   22.67
   2   2   9  285.45   21.03
  -2  -2  -9  324.17   25.98
   2   2  10  160.44   16.39
  -2  -2 -10  176.72   19.39
   2   2  11   44.58    9.03
  -2  -2 -11   21.60    8.04
  -2  -2 -12  243.80   23.70
   2   2  12  243.73   20.73
   2   3 -17  104.93   16.69
   2   3 -16   10.24    8.78
  -2  -3  15  155.22   17.14
  -2  -3  14  480.88   28.75
   2   3 -14  523.04   29.33
  -2  -3  13   17.70    5.49
   2   3 -13   36.09    8.06
  -2  -3  12   45.90    8.22
   2   3 -12   54.39    9.40
   2   3 -11 1358.09   46.23
   2   3 -10   22.33    5.72
   2   3  -9   43.00    7.73
   2   3  -9   62.34    8.98
   2   3  -8 2276.53   65.00
   2   3  -8 2228.62   59.77
   2   3  -7  555.86   25.55
   2   3  -7  505.69   28.03
   2   3  -6  205.71   17.78
   2   3  -6  213.99   15.33
  -2  -3   6  217.68   11.17
   2   3  -5 5513.82  119.83
  -2  -3   5 5408.28   99.63
   2   3  -5 5254.06  111.22
   2   3  -4  875.25   35.66
   2   3  -4  820.83   32.17
  -2  -3   4  827.57   25.04
   2   3  -3  169.21   14.21
   2   3  -3  169.11   14.50
  -2  -3   3  164.95   10.12
   2   3  -2 2456.22   63.21
  -2  -3   2 2322.61   40.95
  -2  -3   2 2357.75   52.52
  -2  -3   1  568.45   13.97
   2   3  -1  580.52   14.67
  -2  -3   1  553.25   21.23
  -2  -3   0  799.29   19.60
  -2  -3   0  800.87   27.47
  -2  -3  -1 1499.31   34.62
  -2  -3  -1 1529.44   43.49
  -2  -3  -2  123.38   12.06
  -2  -3  -2  132.92    9.72
  -2  -3  -3  123.38   11.07
  -2  -3  -3  117.25   12.97
  -2  -3  -4  712.28   33.69
  -2  -3  -4  666.36   29.98
  -2  -3  -5   88.60   12.43
  -2  -3  -5   83.30   11.59
   2   3   6   -3.41    4.52
  -2  -3  -6    0.10    5.66
  -2  -3  -6    2.10    4.71
   2   3   7  148.01   14.88
  -2  -3  -7  167.38   17.57
  -2  -3  -7  177.49   18.76
  -2  -3  -8   42.37    9.25
   2   3   8   22.03    7.12
  -2  -3  -8   37.91    9.41
  -2  -3  -9   20.20    7.71
   2   3   9   11.82    6.33
  -2  -3  -9    9.96    5.66
   2   3  10  250.34   20.88
  -2  -3 -10  227.77   22.68
   2   3  11   47.60    9.99
  -2  -3 -11   69.20   12.71
  -2  -3 -12   16.33    8.85
   2   4 -16   -4.22    6.03
  -2  -4  15  227.36   20.27
   2   4 -15  271.68   26.10
   2   4 -14    6.48    5.03
  -2  -4  14   -1.89    6.20
   2   4 -13   13.26    5.47
   2   4 -12  652.46   32.89
   2   4 -11   16.77    5.85
   2   4 -10  139.64   14.20
   2   4  -9  503.53   26.62
   2   4  -8   33.19    7.01
   2   4  -7  569.05   28.59
  -2  -4   7  576.43   20.78
   2   4  -6  764.22   34.04
  -2  -4   6  772.06   24.89
  -2  -4   5   37.34    5.29
   2   4  -5   36.00    7.71
   2   4  -4  612.32   31.00
   2   4  -4  601.29   21.87
  -2  -4   4  592.25   21.13
   2   4  -3   48.38   10.30
  -2  -4   3   43.83    6.00
   2   4  -3   51.52    5.40
   2   4  -2  389.49   26.42
  -2  -4   2  385.36    9.69
   2   4  -2  417.63   13.62
  -2  -4   2  395.22   18.45
   2   4  -1  487.83   29.83
  -2  -4   1  507.03   22.41
  -2  -4   1  522.86   13.47
   2   4   0   30.91    8.35
  -2  -4   0   26.75    5.77
  -2  -4   0   31.29    3.49
   2   4   1  376.58   24.95
  -2  -4  -1  374.74   14.62
  -2  -4  -1  412.05   22.62
   2   4   2    7.88    4.59
  -2  -4  -2    4.52    2.65
  -2  -4  -2    6.51    4.67
  -2  -4  -3  131.44   15.54
   2   4   3  160.64   13.53
  -2  -4  -3  166.23   13.31
  -2  -4  -4  822.24   34.43
  -2  -4  -4  795.12   39.49
  -2  -4  -5    9.53    6.09
  -2  -4  -5    7.45    4.28
  -2  -4  -6   54.80   11.11
  -2  -4  -6   51.12   11.11
  -2  -4  -7  167.24   19.16
  -2  -4  -7  145.80   16.84
  -2  -4  -8   -0.61    5.06
  -2  -4  -8  -10.19    8.07
  -2  -4  -9  132.66   16.85
  -2  -4  -9  133.28   17.28
  -2  -4 -10   79.98   14.15
  -2  -4 -11   -5.05    6.83
   2   5 -16    8.45    7.94
   2   5 -15    4.16    5.69
   2   5 -15    5.78    7.78
   2   5 -14  760.39   39.54
   2   5 -14  915.83   52.34
   2   5 -13   10.66    9.30
   2   5 -13   18.18    6.98
   2   5 -12   -3.87    8.57
   2   5 -12    4.64    4.96
   2   5 -11 1710.29   57.89
   2   5 -11 1448.02   70.51
   2   5 -10  153.07   15.93
   2   5 -10  115.64   18.64
   2   5  -9   18.43    7.04
   2   5  -9    1.86    6.85
   2   5  -8 2729.35   79.01
  -2  -5   8 2910.44   63.32
   2   5  -8 2851.57   84.74
   2   5  -7  171.13   17.31
   2   5  -7  172.87   16.05
  -2  -5   7  180.14   11.83
   2   5  -6   34.52    6.84
  -2  -5   6   37.78    5.86
   2   5  -6   36.21    9.00
   2   5  -5 2183.64   53.86
   2   5  -5 2221.88   72.46
  -2  -5   5 2106.28   52.62
   2   5  -4  143.43    9.80
   2   5  -4  161.93   18.80
  -2  -5   4  145.66   11.45
  -2  -5   3  108.65   10.35
   2   5  -3  117.93   16.75
   2   5  -3  126.11    8.07
   2   5  -2 1432.62   62.21
  -2  -5   2 1654.56   47.07
  -2  -5   1   15.65    5.36
   2   5  -1   14.44    9.07
  -2  -5   1   12.45    2.06
  -2  -5   0   11.48    2.27
   2   5   0   17.04    7.72
  -2  -5   0    6.15    5.32
  -2  -5  -1  447.71   26.45
  -2  -5  -1  422.55   16.25
  -2  -5  -2  192.76   12.60
  -2  -5  -2  201.75   19.37
  -2  -5  -3    8.56    5.52
  -2  -5  -3   -0.37    3.51
  -2  -5  -4  359.71   22.76
  -2  -5  -4  363.94   28.31
  -2  -5  -5  155.88   16.40
  -2  -5  -5  148.42   18.18
  -2  -5  -6  175.97   20.79
  -2  -5  -6  169.52   18.16
  -2  -5  -7  213.44   21.41
  -2  -5  -7  250.74   24.04
  -2  -5  -8  230.94   22.11
  -2  -5  -8  225.99   22.99
  -2  -5  -9   95.86   14.80
  -2  -5  -9  114.05   16.37
  -2  -5 -10   47.71   11.94
   2   6 -16   66.55   14.15
   2   6 -16   51.21   14.67
   2   6 -15   32.74    9.32
   2   6 -15   57.56   15.41
   2   6 -14   15.41   11.19
   2   6 -14   11.44    6.75
   2   6 -13  325.90   25.93
   2   6 -13  309.12   32.44
   2   6 -12   17.12    9.15
   2   6 -12   34.86    9.30
   2   6 -11    5.37    4.75
   2   6 -11   -8.13   10.62
   2   6 -10  741.01   39.10
   2   6 -10  792.10   45.21
  -2  -6   9   19.11    4.64
   2   6  -9   25.98    8.31
   2   6  -9   11.04    5.37
  -2  -6   8   29.87    5.39
   2   6  -8   48.59   10.84
   2   6  -8   33.09    7.66
   2   6  -7 1093.19   50.85
  -2  -6   7 1070.56   34.49
   2   6  -7 1062.34   38.96
  -2  -6   6   73.04    8.61
   2   6  -6   58.61   13.30
   2   6  -6   81.77    9.15
  -2  -6   5  120.95   11.21
   2   6  -5  123.36   18.53
   2   6  -5  108.95    9.39
   2   6  -4 1124.24   58.33
   2   6  -4 1110.90   31.09
  -2  -6   4 1053.89   36.66
   2   6  -3   -1.07   10.22
  -2  -6   3    0.77    3.25
   2   6  -2  218.40   25.94
  -2  -6   2  305.43   19.94
   2   6  -1  406.84   32.26
  -2  -6   1  359.85   22.97
  -2  -6   0    3.68    5.76
   2   6   0  -13.01    7.44
   2   6   1  347.25   23.72
  -2  -6  -1  301.81   24.09
  -2  -6  -2  248.80   22.74
  -2  -6  -3   16.15    8.56
  -2  -6  -4   63.57   13.81
  -2  -6  -5   34.02   10.34
  -2  -6  -6   65.92   14.26
  -2  -6  -7   41.91   12.18
  -2  -6  -8   13.86    8.71
  -2  -6  -9    6.42    8.32
   2   7 -16    1.63    6.76
   2   7 -15   -8.17    7.72
   2   7 -15   26.76   13.49
   2   7 -14  549.39   44.24
   2   7 -14  538.69   35.62
   2   7 -13    3.33    5.78
   2   7 -13   -0.78    7.59
   2   7 -12   16.09    9.33
   2   7 -12    8.99    7.19
   2   7 -11  807.27   43.99
   2   7 -11  888.67   48.38
   2   7 -10   12.86    7.05
   2   7 -10    7.22    6.78
   2   7  -9    9.14    6.82
  -2  -7   9   19.47    5.21
   2   7  -9   26.94    7.81
   2   7  -8  723.35   44.51
  -2  -7   8  656.77   27.27
   2   7  -8  681.54   31.51
  -2  -7   7    7.35    3.40
   2   7  -7    5.14    3.76
   2   7  -7    6.29    8.67
  -2  -7   6    7.71    3.85
   2   7  -6   19.64    4.86
   2   7  -6   12.65    8.09
   2   7  -5  495.45   42.36
  -2  -7   5  508.75   25.23
   2   7  -4  128.91   22.25
  -2  -7   4  134.83   13.26
   2   7  -3   13.37    8.99
  -2  -7   3   -1.25    3.94
   2   7  -2  114.01   18.85
  -2  -7   2  121.33   13.86
   2   7  -1  374.09   30.07
  -2  -7   1  269.12   22.03
  -2  -7   0   15.89    7.46
  -2  -7  -1   93.76   14.95
  -2  -7  -2  365.70   30.41
  -2  -7  -3   81.94   15.89
  -2  -7  -4   62.51   15.18
  -2  -7  -5  383.86   33.53
  -2  -7  -6   18.82   10.77
  -2  -7  -7   46.71   13.05
   2   8 -14   13.24    6.98
   2   8 -14    8.82    7.71
   2   8 -13  489.76   35.48
   2   8 -13  381.15   35.11
   2   8 -12   -1.16    6.38
   2   8 -12   14.89    9.02
   2   8 -11   10.92    7.39
   2   8 -11   -4.47    8.03
   2   8 -10 1129.80   58.53
   2   8 -10 1189.62   49.06
   2   8  -9   11.58    7.42
   2   8  -9   21.74    6.74
  -2  -8   9   19.94    5.83
  -2  -8   8    5.16    3.64
   2   8  -8    5.63    9.40
   2   8  -8   12.22    5.42
   2   8  -7 1106.18   66.58
  -2  -8   7 1105.45   40.53
  -2  -8   6   -2.84    4.65
   2   8  -6   13.47   12.11
  -2  -8   5   13.40    4.99
   2   8  -5  -10.54   12.31
   2   8  -4  493.17   45.54
  -2  -8   4  505.18   28.24
  -2  -8   3    4.96    5.32
   2   8  -3    7.89    9.71
   2   8  -2   24.70   10.94
  -2  -8   2    8.38    5.57
  -2  -8   1  393.66   29.05
  -2  -8   0   70.09   13.31
  -2  -8  -1   -3.18    6.76
  -2  -8  -2   40.58   11.61
  -2  -8  -3   95.78   17.61
  -2  -8  -4    4.40    7.76
   2   9 -13    0.14    6.28
   2   9 -12   62.66   15.18
   2   9 -12   43.67   11.61
   2   9 -11  140.30   22.24
   2   9 -11  110.51   15.23
   2   9 -10    0.87    9.75
   2   9 -10   13.04    6.74
   2   9  -9   81.27   20.26
  -2  -9   9   50.26    8.75
  -2  -9   8   66.92   10.15
   2   9  -8   54.72   19.06
   2   9  -7  103.68   24.35
  -2  -9   7  124.65   14.41
   2   9  -6   94.94   24.30
  -2  -9   6  114.59   13.72
  -2  -9   5   -2.19    6.19
   2   9  -5   -0.46   14.70
   2   9  -4  113.60   23.29
  -2  -9   4  102.60   13.76
   2   9  -3   34.74   12.47
  -2  -9   3   41.68   10.06
  -2  -9   2   21.27    8.74
  -2  -9   1  306.28   27.88
  -2  -9   0   -1.91    6.66
  -2  -9  -1    4.12    6.93
  -2  -9  -2  189.39   25.36
   2  10 -10  430.73   44.88
   2  10  -9   28.50   15.97
   2  10  -8   16.96   16.81
  -2 -10   8   11.48    6.21
   2  10  -7  309.55   42.31
  -2 -10   7  335.53   24.55
   2  10  -6   10.67   13.74
  -2 -10   6   25.19    8.38
  -2 -10   5   -4.12    6.63
   2  10  -5   21.13   15.24
  -2 -10   4   99.57   14.93
  -2 -10   3  154.89   19.46
  -2 -10   2   -9.89    7.80
   2  11  -6  171.27   30.39
   3 -13   3    5.98    6.25
  -3  13  -6   41.78   14.39
  -3  13  -7    0.72   10.23
   3 -12   0  252.98   28.03
   3 -12   1   22.32    9.07
   3 -12   2  136.35   18.38
   3 -12   3  171.70   18.97
   3 -12   4   20.16    7.26
  -3  12  -4   21.25    9.28
  -3  12  -5   53.83   14.05
  -3  12  -6  188.56   26.15
  -3  12  -7   -7.67   14.39
  -3  12  -8    4.38   13.22
  -3  12  -9   86.02   22.18
   3 -11  -3    0.40    8.54
   3 -11  -2   33.70   12.03
   3 -11  -1   44.30   12.71
   3 -11   0  121.77   18.20
   3 -11   1   63.81   13.18
   3 -11   2    7.52    6.32
   3 -11   3  166.89   17.48
  -3  11  -3  142.51   16.87
   3 -11   4   30.51    7.01
  -3  11  -4   27.98   10.37
  -3  11  -5   83.16   16.18
  -3  11  -6  184.81   26.53
  -3  11  -7   19.73   12.66
  -3  11  -8   44.02   15.76
  -3  11  -9  166.85   27.07
  -3  11 -10    9.15    9.10
  -3  11 -11  172.49   26.04
   3 -10  -6  366.45   33.02
   3 -10  -5   49.60   13.28
   3 -10  -4    0.71    8.55
   3 -10  -3  333.44   30.93
   3 -10  -2   23.64    9.91
   3 -10  -1   40.73   11.50
   3 -10   0  514.45   34.27
  -3  10  -1   12.20    5.68
   3 -10   1    2.33    5.76
   3 -10   2    3.50    5.15
  -3  10  -2    9.48    5.87
  -3  10  -3  488.99   31.19
   3 -10   3  536.60   28.85
   3 -10   4  134.09   13.55
  -3  10  -4  137.88   18.11
   3 -10   5   -7.87    5.32
  -3  10  -5   15.57    9.37
  -3  10  -6  249.97   28.94
  -3  10  -7  122.94   22.18
  -3  10  -8   67.55   16.48
  -3  10  -9  470.54   40.48
  -3  10 -10  232.83   28.04
  -3  10 -11  206.40   25.47
  -3  10 -12  291.39   28.72
  -3  10 -13  135.58   19.55
   3  -9  -8  175.78   22.59
   3  -9  -7   -7.54    6.85
  -3   9   7   -2.34    7.28
  -3   9   6   28.55    9.33
   3  -9  -6   49.92   13.25
  -3   9   5  200.62   20.62
   3  -9  -5  243.52   25.89
   3  -9  -4   -2.25    6.98
  -3   9   4   20.99    7.44
  -3   9   3  101.53   12.89
   3  -9  -3   92.56   15.80
   3  -9  -2  441.70   32.60
   3  -9  -1    9.42    6.13
   3  -9   0  113.98   15.16
  -3   9   0  121.19   11.65
   3  -9   1  229.13   19.95
  -3   9  -1  223.86   17.38
  -3   9  -2    6.26    5.23
   3  -9   2    1.53    3.92
   3  -9   3  432.97   23.73
  -3   9  -3  451.87   29.71
   3  -9   4  207.28   15.41
  -3   9  -4  204.67   21.98
   3  -9   5   28.78    6.07
  -3   9  -5   30.29   12.59
  -3   9  -6  135.68   20.70
  -3   9  -7  122.55   20.22
  -3   9  -8  286.90   29.65
  -3   9  -9   55.78   13.74
  -3   9 -10   36.41   11.25
  -3   9 -11  148.36   19.69
  -3   9 -12   -3.11    6.13
  -3   9 -13  150.17   19.20
  -3   9 -14   78.77   14.31
   3  -8  -9  285.96   27.55
  -3   8   9  253.40   25.04
  -3   8   8    1.35    6.91
   3  -8  -8    3.81    7.05
   3  -8  -7   -5.65    5.90
  -3   8   7    3.90    6.24
   3  -8  -6  286.36   25.96
  -3   8   6  256.81   23.26
   3  -8  -5    4.48    6.36
  -3   8   5    4.43    4.79
  -3   8   4   43.12    9.08
   3  -8  -4   26.67    9.90
   3  -8  -3  424.90   30.26
  -3   8   3  412.95   24.83
  -3   8   2   39.18    7.50
   3  -8  -2   21.66    7.51
  -3   8   1    1.16    2.74
  -3   8   1    2.75    3.19
   3  -8  -1   -0.78    5.00
   3  -8   0  209.94   19.06
  -3   8   0  191.30   13.97
   3  -8   1  395.12   23.85
  -3   8  -1  349.94   21.17
   3  -8   2   15.28    5.12
  -3   8  -2   -4.73    4.52
   3  -8   3  227.83   15.32
  -3   8  -3  251.77   21.19
   3  -8   4  713.28   26.50
  -3   8  -4  697.74   38.95
   3  -8   5  221.39   12.99
  -3   8  -5  190.04   21.65
  -3   8  -6  433.34   33.03
  -3   8  -7 1098.34   54.18
  -3   8  -8  233.51   24.20
  -3   8  -9  309.33   27.00
  -3   8 -10  352.49   28.07
  -3   8 -11  174.20   19.82
  -3   8 -12  386.20   28.96
  -3   8 -13  223.09   22.19
  -3   8 -14   74.47   13.78
  -3   8 -15  101.13   16.98
   3  -7 -11  334.22   28.34
  -3   7  10   17.69    8.37
   3  -7 -10   -3.63    6.73
  -3   7   9   -2.17    6.39
   3  -7  -9   15.96    8.31
  -3   7   8  544.19   33.87
  -3   7   7  101.63   14.42
  -3   7   6    4.32    6.21
  -3   7   5 1202.12   47.33
  -3   7   4   26.38    7.18
  -3   7   3   18.05    6.41
  -3   7   2  862.90   32.52
  -3   7   2  837.87   26.00
  -3   7   1    6.75    3.93
  -3   7   1    8.60    3.41
  -3   7   0  123.52    9.76
  -3   7   0  128.61   10.96
  -3   7  -1  837.36   32.65
  -3   7  -1  889.37   43.37
   3  -7   2   91.73    9.55
  -3   7  -2   81.94   10.80
  -3   7  -2   72.56   13.18
   3  -7   3   -2.34    3.12
  -3   7  -3    2.50    5.48
  -3   7  -3    8.83    8.33
   3  -7   4  526.47   19.94
  -3   7  -4  504.12   31.32
  -3   7  -5  754.59   20.71
  -3   7  -5  811.17   41.32
   3  -7   6    9.79    2.46
  -3   7  -6    3.86    6.75
  -3   7  -6    6.35    2.04
  -3   7  -7  560.29   34.63
  -3   7  -7  553.23   18.83
  -3   7  -8  606.01   35.27
  -3   7  -8  580.40   20.76
  -3   7  -9  195.41   12.41
  -3   7  -9  175.77   18.70
  -3   7 -10  485.49   22.44
  -3   7 -10  519.37   32.06
  -3   7 -11  415.28   28.28
  -3   7 -11  429.64   23.34
  -3   7 -12  164.20   16.59
  -3   7 -12  161.11   17.78
  -3   7 -13  213.01   21.41
  -3   7 -13  234.50   21.81
  -3   7 -14  150.26   18.54
  -3   7 -15   30.68    8.99
  -3   6  12   60.83   12.59
   3  -6 -12   78.30   14.22
  -3   6  11   34.21   10.45
  -3   6  10  103.37   15.07
  -3   6   9   74.21   12.49
  -3   6   8   -4.14    6.49
  -3   6   7  145.40   16.26
  -3   6   6  114.71   14.03
  -3   6   5  169.30   16.16
  -3   6   4  117.56   13.01
  -3   6   3   24.73    6.08
  -3   6   3   15.70    5.68
  -3   6   2  539.86   23.72
  -3   6   2  552.86   28.54
  -3   6   2  545.72   19.05
  -3   6   1  165.25   11.42
  -3   6   1  175.39   16.21
  -3   6   1  174.47   11.11
  -3   6   0   17.56    4.44
  -3   6   0   23.31    4.16
  -3   6   0   20.92    7.26
  -3   6  -1 1059.52   27.69
  -3   6  -1  993.45   41.88
  -3   6  -1 1020.26   35.14
  -3   6  -2  113.51   11.99
  -3   6  -2  104.06   12.91
   3  -6   3   97.04    8.01
  -3   6  -3   99.34   12.15
  -3   6  -3   81.30   11.94
   3  -6   4 1717.03   37.84
  -3   6  -4 1572.76   34.71
  -3   6  -4 1623.89   56.27
  -3   6  -4 1550.72   54.54
   3  -6   5   32.16    3.48
  -3   6  -5   35.10    8.69
  -3   6  -5   30.78    3.69
  -3   6  -5   32.16    8.41
  -3   6  -6  337.68   13.90
  -3   6  -6  321.28   22.98
   3  -6   6  333.94   13.29
  -3   6  -6  336.38   24.25
   3  -6   6  349.41   10.13
   3  -6   7  652.01   18.12
  -3   6  -7  641.40   21.58
  -3   6  -7  578.60   32.57
  -3   6  -8   30.38    8.27
  -3   6  -8   15.69    3.99
  -3   6  -9  502.30   22.70
  -3   6  -9  521.35   30.28
  -3   6 -10  340.64   20.87
  -3   6 -10  373.62   25.15
  -3   6 -11   12.42    5.84
  -3   6 -11    8.04    4.93
  -3   6 -12  119.73   14.85
  -3   6 -12   74.61   12.38
  -3   6 -13   49.14   11.61
  -3   6 -13   80.61   12.71
  -3   6 -14   14.72    7.19
  -3   6 -14   -2.20    9.43
  -3   6 -15   47.47   14.60
  -3   6 -16   34.92   12.78
  -3   5  13   -4.28    6.75
  -3   5  12   10.13    7.73
  -3   5  11  708.71   38.81
  -3   5  10    4.35    5.40
  -3   5   9   32.12    8.33
  -3   5   8 1216.00   48.41
  -3   5   7   31.02    7.72
  -3   5   6   11.54    5.13
  -3   5   5 1072.93   40.76
  -3   5   5 1035.18   35.19
  -3   5   4   15.00    5.62
  -3   5   4   17.84    4.93
  -3   5   3   12.71    4.61
  -3   5   3   11.88    3.96
  -3   5   2 1349.80   39.64
  -3   5   2 1362.68   43.24
  -3   5   1 1040.43   30.25
  -3   5   1 1012.53   37.01
  -3   5   1 1009.30   28.71
  -3   5   0  238.49   11.39
  -3   5   0  231.13   16.90
  -3   5   0  239.10   13.42
  -3   5  -1  298.75   11.37
  -3   5  -1  292.22   16.26
  -3   5  -1  255.15   18.46
  -3   5  -2 1771.57   54.13
  -3   5  -2 1857.77   51.10
  -3   5  -3  436.72   14.02
  -3   5  -3  428.32   23.76
  -3   5  -3  444.18   23.46
   3  -5   4  696.77   18.08
  -3   5  -4  684.04   30.68
  -3   5  -4  666.84   19.35
  -3   5  -4  659.28   30.63
   3  -5   5 1924.94   35.12
   3  -5   5 1892.29   40.24
  -3   5  -5 1924.84   55.63
  -3   5  -5 1803.01   57.57
  -3   5  -5 1991.44   42.45
   3  -5   6 1055.41   24.35
  -3   5  -6 1038.48   40.93
  -3   5  -6 1059.64   29.00
  -3   5  -6 1027.68   37.55
   3  -5   7  694.23   17.02
  -3   5  -7  707.38   24.32
  -3   5  -7  723.87   30.00
  -3   5  -7  694.05   33.00
  -3   5  -8 2107.47   53.57
  -3   5  -8 2113.88   63.15
  -3   5  -9  339.63   20.58
  -3   5  -9  337.87   22.73
  -3   5 -10  398.46   25.49
  -3   5 -10  415.99   25.18
  -3   5 -11  570.88   35.42
  -3   5 -11  629.13   36.94
  -3   5 -11  671.91   32.87
  -3   5 -12  148.32   20.60
  -3   5 -12  181.60   17.33
  -3   5 -13  183.75   24.46
  -3   5 -13  234.45   19.87
  -3   5 -14  342.75   33.37
  -3   5 -15   90.25   18.65
  -3   4  14   -7.06    6.69
  -3   4  13  250.77   22.73
  -3   4  12    0.53    5.07
  -3   4  11   -1.69    4.29
  -3   4  10  474.24   28.90
  -3   4   9    9.26    5.69
  -3   4   8   78.61   11.39
  -3   4   7 1110.62   42.25
  -3   4   7  976.71   30.43
  -3   4   6   64.02    9.93
  -3   4   6   65.50    7.50
  -3   4   5  111.41   11.95
  -3   4   5   99.92    9.06
  -3   4   4  929.74   34.57
  -3   4   4  848.91   29.14
  -3   4   3    5.36    3.53
  -3   4   3    4.47    3.13
  -3   4   2  765.04   27.37
  -3   4   2  802.45   28.89
  -3   4   1  342.67   15.49
  -3   4   1  328.40   18.11
  -3   4   0   32.91    4.92
  -3   4   0   34.76    6.44
  -3   4   0   28.24    3.74
  -3   4  -1  545.93   15.64
  -3   4  -1  594.79   15.03
  -3   4  -1  525.08   24.31
  -3   4  -1  583.31   22.39
   3  -4   2  306.45   12.73
  -3   4  -2  311.35   11.15
  -3   4  -2  276.35   17.49
  -3   4  -2  320.08   17.11
   3  -4   3  635.47   18.66
  -3   4  -3  640.77   26.60
  -3   4  -3  630.49   26.55
  -3   4  -3  651.17   18.39
  -3   4  -4   55.23    8.35
   3  -4   4   46.97    4.10
  -3   4  -4   52.15    4.99
  -3   4  -4   45.50    6.68
  -3   4  -5    7.14    5.07
  -3   4  -5    1.17    3.58
   3  -4   5    6.95    1.82
  -3   4  -5    4.02    2.31
  -3   4  -6  792.04   27.59
   3  -4   6  745.51   17.02
  -3   4  -6  741.33   23.79
  -3   4  -6  765.67   31.62
  -3   4  -7   50.68    8.67
  -3   4  -7   72.66    8.46
  -3   4  -7   66.08    7.85
   3  -4   7   55.10    3.61
   3  -4   7   59.73    4.39
  -3   4  -8  162.13   13.76
  -3   4  -8  165.43   12.05
  -3   4  -8  154.08   14.38
  -3   4  -9  458.79   27.05
  -3   4  -9  504.82   28.63
  -3   4  -9  538.38   27.45
  -3   4 -10   12.77    5.49
  -3   4 -10    5.81    5.37
  -3   4 -10    6.72    5.85
  -3   4 -11  103.95   14.57
  -3   4 -11  135.33   18.41
  -3   4 -11  143.20   14.47
  -3   4 -12  344.55   32.27
  -3   4 -12  402.12   24.38
  -3   4 -12  365.34   27.12
  -3   4 -13   -4.51    8.92
  -3   4 -14   53.43   13.42
  -3   4 -15   59.64   15.52
  -3   3  14  350.57   27.09
  -3   3  13   33.71    8.76
  -3   3  12   11.52    6.00
  -3   3  11  418.55   26.99
  -3   3  10  139.42   15.28
   3  -3 -10   94.59   10.62
   3  -3  -9   11.00    4.66
  -3   3   9   14.73    5.50
  -3   3   8  489.12   26.69
  -3   3   8  453.22   16.89
   3  -3  -7  294.11   10.61
  -3   3   7  300.78   20.14
  -3   3   7  279.08   13.25
  -3   3   6    9.91    4.58
  -3   3   6   12.29    3.74
  -3   3   5  357.37   20.40
  -3   3   5  356.05   15.84
  -3   3   4 1707.51   48.52
  -3   3   3   82.26    8.87
  -3   3   2   33.68    5.61
   3  -3  -1 2809.20   57.94
  -3   3   1 2712.00   59.43
   3  -3   0  395.81   14.86
  -3   3   0  359.20   14.24
   3  -3   1  346.00   13.16
  -3   3  -1  363.81   11.92
  -3   3  -1  354.12   15.98
  -3   3  -1  343.29   10.66
   3  -3   2 4920.26   88.25
  -3   3  -2 4957.85   98.16
  -3   3  -2 5037.79   87.94
   3  -3   3  993.31   23.66
  -3   3  -3  993.87   25.04
  -3   3  -3  971.00   32.23
   3  -3   4   84.35    5.25
   3  -3   4   64.95    2.78
  -3   3  -4   82.82    6.51
  -3   3  -4   91.67    9.98
  -3   3  -5 2903.71   63.45
  -3   3  -5 2855.28   61.45
   3  -3   5 2986.82   54.57
  -3   3  -5 2858.09   69.97
  -3   3  -6  424.54   17.80
  -3   3  -6  433.52   19.51
   3  -3   6  460.40   13.31
  -3   3  -6  426.39   22.13
   3  -3   6  430.92   13.05
   3  -3   7  326.03   10.77
  -3   3  -7  324.75   14.96
  -3   3  -7  330.51   19.26
  -3   3  -7  308.30   19.07
   3  -3   7  350.78   13.32
   3  -3   8 1285.69   33.08
  -3   3  -8 1255.48   46.29
  -3   3  -8 1265.33   33.25
  -3   3  -8 1274.53   42.40
  -3   3  -8 1166.00   41.45
  -3   3  -9  277.78   23.41
  -3   3  -9  276.41   18.38
  -3   3  -9  234.99   18.48
  -3   3 -10  176.20   20.62
  -3   3 -10  191.49   15.38
  -3   3 -10  160.04   16.29
  -3   3 -11  712.47   44.69
  -3   3 -11  780.94   32.64
  -3   3 -11  776.15   37.06
  -3   3 -12   23.84    8.36
  -3   3 -12   21.55   10.11
  -3   3 -13   14.77    9.69
  -3   3 -14  161.60   22.21
  -3   3 -15   13.64    8.46
  -3   2  15    6.17    6.59
  -3   2  14   24.13    7.86
  -3   2  13  558.13   32.33
  -3   2  12   -4.13    4.97
  -3   2  11    3.72    5.00
  -3   2  10 1408.45   50.08
   3  -2 -10 1416.57   42.24
  -3   2   9   16.97    6.15
   3  -2  -9    9.01    4.32
   3  -2  -8   60.98    5.77
   3  -2  -8   57.52    7.83
  -3   2   8   62.50    9.74
  -3   2   8   53.98    5.36
   3  -2  -7 1559.78   35.93
  -3   2   7 1476.67   47.61
   3  -2  -7 1500.48   42.40
   3  -2  -6  232.71   14.24
  -3   2   6  245.01   16.51
   3  -2  -5   78.89    7.78
  -3   2   5   91.12    9.43
   3  -2  -4 1203.92   33.14
  -3   2   4 1196.28   34.92
   3  -2  -3  352.49   15.16
  -3   2   3  360.94   15.65
   3  -2  -2   17.94    3.49
   3  -2  -1  641.85   19.31
   3  -2   0 2383.25   49.09
  -3   2   0 2493.49   46.96
   3  -2   1   61.80    5.08
  -3   2  -1   52.08    4.28
  -3   2  -2   51.55    2.70
  -3   2  -2   40.85    4.16
   3  -2   2   39.54    4.04
  -3   2  -3 2782.50   49.29
  -3   2  -3 2841.37   56.18
   3  -2   3 2859.37   54.28
  -3   2  -4  254.86   12.46
   3  -2   4  272.58   10.83
  -3   2  -4  251.33    8.40
   3  -2   5  198.14    8.49
  -3   2  -5  188.58   12.19
  -3   2  -5  176.96    7.20
   3  -2   5  191.68    9.14
   3  -2   6 2412.07   49.22
   3  -2   6 2507.64   50.66
  -3   2  -6 2447.82   61.22
  -3   2  -6 2360.34   46.22
  -3   2  -7  510.01   17.33
  -3   2  -7  534.17   27.56
   3  -2   7  526.35   19.45
  -3   2  -7  502.47   16.06
   3  -2   8   96.99    8.77
  -3   2  -8  105.38   14.48
  -3   2  -8   68.19    8.99
  -3   2  -9 1331.52   56.02
   3  -2   9 1301.60   38.02
  -3   2  -9 1197.41   42.41
  -3   2 -10   74.28   10.39
  -3   2 -10   73.55   15.01
  -3   2 -11  202.74   23.92
  -3   2 -11  178.33   16.24
  -3   2 -12  478.71   36.22
  -3   2 -13   39.52   11.80
  -3   2 -14   49.08   12.71
  -3   1  16   44.10   10.36
  -3   1  15   32.83    9.84
  -3   1  14   48.73   10.30
  -3   1  13   54.65   10.96
  -3   1  12  154.50   16.08
  -3   1  11  147.99   15.24
  -3   1  10  125.01   13.85
   3  -1 -10  158.27   12.06
   3  -1  -9  107.08    9.70
  -3   1   9   81.10   10.83
   3  -1  -9   80.26    7.75
   3  -1  -8    8.62    3.08
  -3   1   8    6.10    3.94
   3  -1  -8    4.24    3.15
   3  -1  -7  974.47   27.90
  -3   1   7  935.48   33.21
   3  -1  -7  944.77   29.82
   3  -1  -6  612.27   22.16
  -3   1   6  624.96   24.32
   3  -1  -5    5.08    2.40
   3  -1  -4 1618.90   38.54
   3  -1  -3   76.73    6.37
   3  -1  -2   84.37    6.42
  -3   1   1 4283.04   74.83
   3  -1  -1 4203.20   78.59
  -3   1   0  117.77    6.18
   3  -1   0  118.83    7.35
   3  -1   1   10.99    2.75
  -3   1  -1    8.38    2.17
  -3   1  -1    8.32    2.09
  -3   1  -2 2251.31   46.34
   3  -1   2 2316.59   47.68
  -3   1  -2 2253.63   44.81
  -3   1  -3   55.40    5.69
   3  -1   3   62.94    5.69
  -3   1  -3   77.60    5.57
   3  -1   4  545.80   18.69
  -3   1  -4  577.66   17.84
  -3   1  -4  560.16   20.90
   3  -1   5  746.95   22.29
   3  -1   5  712.06   22.86
  -3   1  -5  731.23   27.84
  -3   1  -5  774.22   23.05
   3  -1   6  146.76   10.02
  -3   1  -6  161.86   14.62
  -3   1  -6  161.67   10.78
   3  -1   7  207.52   13.13
  -3   1  -7  214.99   18.89
  -3   1  -7  189.24   12.96
  -3   1  -8  206.61   20.78
   3  -1   8  204.71   14.00
   3  -1   9   21.66    5.74
  -3   1  -9    7.04    6.65
   3  -1  10  115.93   11.64
  -3   1 -10  145.33   19.88
  -3   1 -11   68.98   14.72
  -3   1 -12   37.92   12.35
  -3   1 -13   28.76    9.54
  -3   1 -14   63.14   13.89
  -3   0  16  269.27   23.87
  -3   0  15   31.24    8.94
  -3   0  14   42.83   10.11
  -3   0  13  754.35   36.90
  -3   0  12  272.15   21.35
  -3   0  11   46.94    8.94
   3   0 -11   57.53    7.92
  -3   0  10  593.39   28.87
   3   0 -10  629.96   24.21
   3   0 -10  637.04   25.47
  -3   0   9  339.19   20.05
   3   0  -9  380.44   18.02
   3   0  -9  370.86   18.40
   3   0  -8   12.00    3.77
   3   0  -8    9.58    3.62
   3   0  -7  718.39   25.02
   3   0  -7  713.32   24.32
   3   0  -6 1218.21   32.99
   3   0  -5  114.45    8.31
   3   0  -4   67.07    6.05
   3   0  -3 5192.17   95.60
   3   0  -2    7.22    2.42
  -3   0   1   29.33    3.03
   3   0  -1   33.65    4.63
  -3   0   1   27.90    3.62
  -3   0   0 5664.67   98.33
   3   0   0 5748.34  104.69
  -3   0   0 5751.46  101.95
  -3   0  -1  615.03   17.59
   3   0   1  620.73   20.77
  -3   0  -1  600.06   18.86
   3   0   2   63.39    6.43
  -3   0  -2   62.41    5.61
  -3   0  -2   57.57    5.55
   3   0   3 6694.87  124.18
  -3   0  -3 6683.83  122.80
  -3   0  -3 6917.42  122.55
   3   0   4  677.55   24.06
  -3   0  -4  694.82   25.57
  -3   0  -4  707.04   24.23
  -3   0  -5    7.66    4.34
  -3   0  -5    7.50    3.73
  -3   0  -6 2449.63   62.79
  -3   0  -6 2610.95   70.98
   3   0   6 2408.62   58.00
   3   0   7  231.49   15.06
  -3   0  -7  222.93   20.32
  -3   0  -7  217.11   16.83
   3   0   8   62.06    8.37
  -3   0  -8   62.35   12.46
  -3   0  -8   60.75    9.83
   3   0   9  751.28   31.66
  -3   0  -9  834.28   44.99
   3   0  10   89.27   11.04
  -3   0 -10  125.71   17.90
  -3   0 -11    4.98    6.89
  -3   0 -12  467.88   34.65
  -3   0 -13    5.78    8.49
  -3  -1  17    3.61    5.68
  -3  -1  16    7.89    6.90
  -3  -1  15  197.07   19.67
  -3  -1  14   54.07   10.37
  -3  -1  13    5.53    4.94
   3   1 -12  626.01   28.64
  -3  -1  12  561.69   30.08
  -3  -1  11   27.24    6.37
   3   1 -11   37.84    7.25
   3   1 -10   31.07    6.00
   3   1 -10   36.37    6.26
   3   1  -9 1117.05   36.74
   3   1  -9 1112.32   34.82
   3   1  -8   73.39    8.55
   3   1  -8   70.98    7.92
   3   1  -7  181.40   12.78
   3   1  -7  167.48   11.52
   3   1  -6  302.52   15.54
   3   1  -5   66.06    7.24
   3   1  -4  969.45   29.34
  -3  -1   3  253.16   11.79
   3   1  -3  238.81   13.17
   3   1  -2  558.21   21.17
  -3  -1   2  594.84   19.30
  -3  -1   1  158.30    7.14
  -3  -1   1  183.03   10.16
   3   1  -1  163.54   10.88
   3   1   0   63.64    6.99
  -3  -1   0   64.13    4.70
  -3  -1   0   50.29    5.61
   3   1   1 1799.94   46.19
  -3  -1  -1 1819.34   39.04
  -3  -1  -1 1848.05   43.18
   3   1   2  141.95   11.00
  -3  -1  -2  136.32    9.06
  -3  -1  -2  144.02   10.71
  -3  -1  -3    5.92    3.27
  -3  -1  -3    6.96    3.26
   3   1   3   -3.27    3.75
  -3  -1  -4 1046.79   34.80
  -3  -1  -4  994.18   34.90
  -3  -1  -5   12.09    5.09
  -3  -1  -5    9.72    4.77
  -3  -1  -6  133.90   15.20
  -3  -1  -6  129.16   14.24
  -3  -1  -7  779.86   39.68
  -3  -1  -7  760.81   35.94
  -3  -1  -8   34.01    7.93
   3   1   8   21.01    6.00
  -3  -1  -8   31.78    9.88
   3   1   9   10.77    5.86
  -3  -1  -9    8.37    7.63
   3   1  10   93.78   12.19
  -3  -1 -10  135.33   19.03
  -3  -1 -11   -8.88    7.65
  -3  -1 -12   42.20   11.91
  -3  -2  17   39.10   11.06
  -3  -2  16  129.00   16.65
  -3  -2  15  149.83   17.38
  -3  -2  14    6.23    5.01
   3   2 -13  105.69   12.75
  -3  -2  13  104.03   13.01
   3   2 -12  242.62   18.65
  -3  -2  12  277.10   19.80
   3   2 -11   24.98    5.90
   3   2 -10  133.35   12.61
   3   2 -10  135.25   12.19
   3   2  -9 1146.66   39.53
   3   2  -9 1138.34   38.96
   3   2  -8   45.24    7.49
   3   2  -8   62.67    8.56
   3   2  -7   60.80    8.54
   3   2  -7   52.71    7.64
   3   2  -6 2783.53   67.48
   3   2  -6 2884.80   69.23
  -3  -2   5  119.84    8.51
   3   2  -5  130.12   11.77
   3   2  -4   71.51    8.58
  -3  -2   4   70.71    6.67
   3   2  -3 5331.85  108.77
  -3  -2   3 5371.54  100.88
   3   2  -2   79.93    8.91
  -3  -2   2   89.46    5.03
  -3  -2   2   87.95    7.75
  -3  -2   1   57.24    4.33
   3   2  -1   51.44    7.31
  -3  -2   1   69.71    6.93
   3   2   0 5096.71  107.55
  -3  -2   0 5297.88   92.72
  -3  -2   0 5362.89  102.36
   3   2   1  116.60   11.24
  -3  -2  -1  111.89    7.31
  -3  -2  -1  108.61    9.78
  -3  -2  -2    5.84    3.32
  -3  -2  -2    7.17    2.74
  -3  -2  -3 1971.00   49.19
  -3  -2  -3 1880.95   54.54
  -3  -2  -4   74.94   10.71
  -3  -2  -4   90.61   10.32
  -3  -2  -5   51.67   10.14
  -3  -2  -5   53.93    9.43
  -3  -2  -6 1155.84   47.01
  -3  -2  -6 1116.13   46.82
  -3  -2  -7    8.09    5.54
  -3  -2  -7    5.17    5.22
  -3  -2  -8   10.60    7.65
  -3  -2  -8    5.05    6.44
  -3  -2  -9  302.90   26.55
  -3  -2 -10   22.88    9.68
  -3  -2 -11   -4.89    7.08
  -3  -2 -12   68.87   13.79
  -3  -3  16   23.99    8.45
  -3  -3  15  328.60   25.52
   3   3 -14   66.94   11.18
  -3  -3  14   46.02    9.81
   3   3 -13  111.67   13.56
   3   3 -12  493.16   27.92
   3   3 -11  331.18   21.90
   3   3 -10    4.42    4.56
   3   3 -10    3.31    4.82
   3   3  -9  185.86   17.24
   3   3  -9  178.95   15.52
   3   3  -8  454.14   27.43
   3   3  -8  444.39   24.12
   3   3  -7   43.36    9.56
   3   3  -7   55.97    8.54
   3   3  -6   60.50    9.99
   3   3  -6   58.59    8.62
  -3  -3   6   64.59    6.77
  -3  -3   5 1793.64   44.31
   3   3  -5 1859.46   57.64
   3   3  -5 1680.66   51.86
   3   3  -4   14.18    5.10
  -3  -3   4    9.38    3.56
   3   3  -4    9.04    5.21
   3   3  -3   77.17   10.22
  -3  -3   3   69.05    7.58
   3   3  -2 3517.31   86.73
  -3  -3   2 3680.61   64.54
  -3  -3   2 3502.98   76.21
   3   3  -1    3.56    1.29
  -3  -3   1    2.83    2.85
   3   3  -1    5.64    4.84
  -3  -3   1    4.81    1.54
  -3  -3   0    5.52    2.09
  -3  -3   0   11.15    4.46
  -3  -3  -1 2577.19   53.81
  -3  -3  -1 2715.71   66.87
  -3  -3  -2  186.20   11.46
  -3  -3  -2  193.30   16.33
  -3  -3  -3    2.13    4.63
  -3  -3  -3    7.20    3.74
  -3  -3  -4 1898.54   54.52
  -3  -3  -4 1875.88   62.84
  -3  -3  -5   51.46   11.46
  -3  -3  -5   56.17    9.92
  -3  -3  -6    6.92    7.51
  -3  -3  -6   -2.27    5.98
  -3  -3  -7  581.83   34.91
  -3  -3  -7  565.11   35.06
  -3  -3  -8   26.93    9.17
  -3  -3  -8   25.51    9.03
  -3  -3  -9    9.09    7.64
  -3  -3 -10  269.16   25.46
  -3  -3 -11   -3.15    7.30
  -3  -4  16   30.33    9.15
   3   4 -16   52.95   12.95
   3   4 -15   18.68    7.98
  -3  -4  15   21.72    7.29
   3   4 -14   90.43   13.87
   3   4 -13    6.59    5.75
   3   4 -12  256.76   20.94
   3   4 -11  273.54   21.08
   3   4 -10   42.34    8.89
   3   4  -9  707.54   39.07
   3   4  -9  564.03   30.19
   3   4  -8  309.84   27.37
   3   4  -8  351.94   23.48
   3   4  -7    0.04    4.40
   3   4  -7    3.82    7.20
  -3  -4   7    2.12    2.75
   3   4  -6 1481.56   52.06
   3   4  -6 1504.64   61.23
  -3  -4   6 1501.64   41.26
  -3  -4   5   10.16    4.10
   3   4  -5    2.74    5.62
   3   4  -5    4.41    4.54
  -3  -4   4   32.59    5.85
   3   4  -4   40.74    9.01
   3   4  -3 1692.94   59.38
   3   4  -3 1778.16   40.90
  -3  -4   3 1609.15   45.84
   3   4  -2   35.06    3.82
  -3  -4   2   37.82    6.66
  -3  -4   2   36.18    3.33
   3   4  -1   53.93   11.66
  -3  -4   1   75.19    5.25
  -3  -4   1   70.34    9.29
  -3  -4   0  742.08   20.75
  -3  -4   0  761.45   32.17
  -3  -4  -1    0.03    4.31
  -3  -4  -1    1.70    1.95
  -3  -4  -2  154.27   10.74
  -3  -4  -2  181.16   17.40
  -3  -4  -3  468.92   21.97
  -3  -4  -3  489.14   30.57
  -3  -4  -4   17.01    7.84
  -3  -4  -4   24.40    6.19
  -3  -4  -5   48.11   11.47
  -3  -4  -5   44.73    8.79
  -3  -4  -6   81.08   14.74
  -3  -4  -6   57.41   10.99
  -3  -4  -7   53.77   11.99
  -3  -4  -7   60.52   12.03
  -3  -4  -8   50.56   12.00
  -3  -4  -8   39.64   10.58
  -3  -4  -9   47.10   11.48
  -3  -4 -10   31.14    9.46
   3   5 -16   38.90   12.36
   3   5 -16   27.48    9.81
   3   5 -15   81.54   16.67
   3   5 -15   68.06   13.03
   3   5 -14  302.71   25.31
   3   5 -14  313.03   31.20
   3   5 -13   10.97    5.90
   3   5 -12   17.66    7.20
   3   5 -11  443.45   29.01
   3   5 -10    6.83    5.40
   3   5  -9    6.19    5.20
   3   5  -8 1826.88   63.63
  -3  -5   8 1940.07   50.35
  -3  -5   7   51.81    7.28
   3   5  -7   35.61    8.97
   3   5  -7   29.77    7.33
   3   5  -6  236.91   21.93
   3   5  -6  234.06   16.62
  -3  -5   6  257.08   15.82
   3   5  -5 2390.17   78.66
   3   5  -5 2430.60   58.74
  -3  -5   5 2354.45   60.64
   3   5  -4   14.13    6.65
   3   5  -4    5.94    2.98
  -3  -5   4    7.67    4.02
   3   5  -3  105.16   16.23
   3   5  -3  113.07    7.62
  -3  -5   3   95.44   10.47
   3   5  -2 2440.64   86.07
  -3  -5   2 2666.49   68.28
  -3  -5   1   68.49    9.93
   3   5  -1   33.69   10.63
   3   5   0  189.83   21.22
  -3  -5   0  194.61   17.41
   3   5   1 2719.92   79.99
  -3  -5  -1 2095.49   69.50
  -3  -5  -2    5.73    5.61
  -3  -5  -3   20.27    9.07
  -3  -5  -4  699.36   41.71
  -3  -5  -5   -0.15    7.31
  -3  -5  -6    1.92    7.49
  -3  -5  -7  410.56   32.72
  -3  -5  -8   23.19   10.19
   3   6 -16   58.33   12.75
   3   6 -15   44.58   13.25
   3   6 -15   11.87    7.46
   3   6 -14  224.91   22.97
   3   6 -14  238.28   28.96
   3   6 -13   45.07   13.68
   3   6 -13   17.53    7.32
   3   6 -12    7.42    8.10
   3   6 -12   18.19    8.12
   3   6 -11   74.98   15.09
   3   6 -11   92.52   14.08
   3   6 -10   73.28   13.00
   3   6 -10   56.09   12.06
   3   6  -9  176.41   19.79
   3   6  -9  187.30   19.51
  -3  -6   9  189.72   13.95
   3   6  -8   58.76    9.68
  -3  -6   8   59.96    8.09
   3   6  -8   55.21   12.83
   3   6  -7  101.02   16.05
  -3  -6   7  102.63   10.64
   3   6  -7  128.46   12.75
   3   6  -6  226.71   15.13
  -3  -6   6  207.04   15.50
   3   6  -6  227.93   24.41
   3   6  -5   17.03    4.34
   3   6  -5   25.39   12.09
  -3  -6   5   17.00    5.53
   3   6  -4  527.61   41.36
  -3  -6   4  545.14   26.86
   3   6  -3  190.31   25.33
  -3  -6   3  201.16   16.46
   3   6  -2   23.71   11.87
  -3  -6   2   24.66    6.24
   3   6  -1  468.48   36.66
  -3  -6   1  441.70   27.44
  -3  -6   0   79.29   12.84
   3   6   0  107.05   16.52
  -3  -6  -1   23.28    8.23
  -3  -6  -2  481.69   34.01
  -3  -6  -3    1.32    7.12
  -3  -6  -4   -5.14    7.73
  -3  -6  -5  223.45   25.53
  -3  -6  -6    9.71    8.79
  -3  -6  -7   17.17   10.11
   3   7 -15   -8.27    8.30
   3   7 -14  289.85   27.00
   3   7 -14  211.59   28.05
   3   7 -13   60.97   12.48
   3   7 -13   18.45    8.86
   3   7 -12   32.47   11.05
   3   7 -12   36.39   10.65
   3   7 -11  508.20   36.38
   3   7 -11  512.05   36.06
   3   7 -10  104.01   16.83
   3   7 -10   84.35   13.38
  -3  -7  10  109.76   11.34
   3   7  -9  186.15   22.96
  -3  -7   9  168.48   14.19
   3   7  -9  179.79   17.36
   3   7  -8  749.98   46.88
  -3  -7   8  788.19   32.31
   3   7  -8  769.69   33.63
  -3  -7   7   52.88    9.34
   3   7  -7   63.80    8.98
   3   7  -7   67.76   17.47
   3   7  -6  122.78   21.86
  -3  -7   6  128.88   13.24
   3   7  -5 1366.71   73.23
  -3  -7   5 1349.16   47.19
  -3  -7   4   32.52    7.68
   3   7  -4   41.03   13.97
   3   7  -3  119.09   21.30
  -3  -7   3  145.58   15.20
   3   7  -2 1030.88   57.98
  -3  -7   2  868.00   41.11
   3   7  -1   17.05   10.31
  -3  -7   1   32.97    9.65
  -3  -7   0   -1.31    6.73
  -3  -7  -1  511.98   36.47
  -3  -7  -2    6.04    8.19
  -3  -7  -3   -4.94    8.72
  -3  -7  -4  178.44   23.95
  -3  -7  -5   67.79   16.53
   3   8 -13  263.19   26.92
   3   8 -13  220.23   26.12
   3   8 -12   25.69   10.50
   3   8 -12   42.73   12.93
   3   8 -11    9.58    6.94
   3   8 -11   -8.75    9.47
   3   8 -10  235.37   27.04
   3   8 -10  256.12   21.65
  -3  -8  10  240.54   17.60
  -3  -8   9   25.90    6.40
   3   8  -9   32.24    8.47
   3   8  -9   37.31   13.84
  -3  -8   8   50.75    9.12
   3   8  -8   69.76   18.13
   3   8  -7  691.86   53.95
  -3  -8   7  580.25   30.07
  -3  -8   6   73.30   11.11
   3   8  -6  100.39   22.47
  -3  -8   5  114.18   13.94
   3   8  -5   78.48   21.14
  -3  -8   4  680.03   35.09
   3   8  -4  631.29   52.39
  -3  -8   3   17.65    7.02
   3   8  -3   23.08   13.31
  -3  -8   2   32.41    9.48
  -3  -8   1  734.90   42.59
  -3  -8   0   13.14    9.17
  -3  -8  -1   26.54    9.91
  -3  -8  -2  341.41   33.15
  -3  -8  -3   12.07   10.75
   3   9 -12    9.01    7.46
   3   9 -11  167.41   25.61
   3   9 -10   55.62   15.91
   3   9  -9   10.56   12.92
  -3  -9   9    4.51    4.78
   3   9  -8  328.89   40.15
  -3  -9   8  325.56   23.30
   3   9  -7   43.02   15.26
  -3  -9   7   23.61    7.58
   3   9  -6   -4.23   13.98
  -3  -9   6   -2.62    6.54
   3   9  -5  160.81   28.72
  -3  -9   5  205.13   20.05
  -3  -9   4    3.04    5.90
   3   9  -4   11.27    9.70
  -3  -9   3   49.19   11.12
  -3  -9   2  150.12   19.54
  -3  -9   1    0.89    6.86
  -3 -10   9  109.74   14.41
  -3 -10   8  138.41   16.27
   3  10  -8  175.32   34.27
   3  10  -7  282.38   40.37
  -3 -10   7  343.83   26.06
   3  10  -6    7.20   11.98
  -3 -10   6   14.05    7.70
   4 -13   2  395.04   31.59
  -4  13  -5  281.94   28.24
  -4  13  -6    8.08   10.47
  -4  13  -7   30.15   13.35
   4 -12  -1   15.57    8.74
   4 -12   0  356.81   32.15
   4 -12   1   20.10    8.41
   4 -12   2   10.45    6.85
   4 -12   3  481.21   31.11
  -4  12  -4   39.13   11.21
  -4  12  -5   30.26   11.23
  -4  12  -6  667.81   47.75
  -4  12  -7   60.48   18.47
  -4  12  -8   19.26   11.59
  -4  12  -9  301.16   38.40
   4 -11  -4   90.71   18.04
   4 -11  -3    0.26    8.77
   4 -11  -2   21.43   10.81
   4 -11  -1  259.79   27.12
   4 -11   0    4.62    6.77
   4 -11   1   14.90    7.28
   4 -11   2  145.15   16.90
  -4  11  -2  147.85   15.91
   4 -11   3   -1.25    4.67
  -4  11  -3   -1.18    6.18
   4 -11   4  166.25   16.07
  -4  11  -4  135.50   18.44
  -4  11  -5  115.40   18.89
  -4  11  -6   20.49   11.09
  -4  11  -7   96.08   20.01
  -4  11  -8   42.72   15.14
  -4  11  -9  101.44   22.04
  -4  11 -10  124.38   23.68
  -4  11 -11   19.49   10.38
   4 -10  -6  324.75   31.56
  -4  10   6  266.25   25.57
  -4  10   5   24.60    9.04
   4 -10  -5   10.22    8.62
  -4  10   4   14.83    6.77
   4 -10  -4    6.14    9.82
   4 -10  -3  794.62   47.89
   4 -10  -2    6.02    7.03
   4 -10  -1    0.73    9.84
   4 -10   0 1086.07   50.60
  -4  10  -1   94.67   11.87
   4 -10   1   88.58   14.05
   4 -10   2    8.81    5.34
  -4  10  -2   -3.08    4.66
   4 -10   3 1510.10   50.25
  -4  10  -3 1461.53   56.52
   4 -10   4   79.11   10.27
  -4  10  -4   84.09   14.66
  -4  10  -5   12.03    7.66
  -4  10  -6  865.76   52.32
  -4  10  -7    9.10    8.80
  -4  10  -8   50.73   14.31
  -4  10  -9  578.99   44.06
  -4  10 -10    7.14    9.32
  -4  10 -11    0.67    7.36
  -4  10 -12  261.36   27.56
  -4  10 -13   30.55   10.17
  -4   9   8   93.69   15.51
   4  -9  -8   68.43   14.31
   4  -9  -7   21.73    9.82
  -4   9   7   24.47    9.51
   4  -9  -6    7.64    7.75
  -4   9   6   10.83    7.28
  -4   9   5   64.33   12.28
   4  -9  -5   84.56   16.04
  -4   9   4   43.34   10.21
   4  -9  -4   41.09   11.06
   4  -9  -3   16.10    7.47
  -4   9   3   16.10    6.90
   4  -9  -2  354.43   28.85
  -4   9   2  313.34   20.82
   4  -9  -1    4.99    5.36
  -4   9   1    9.47    4.72
  -4   9   0   10.72    4.50
   4  -9   0   10.54    6.13
   4  -9   1  801.35   37.37
  -4   9  -1  823.83   34.42
   4  -9   2   12.46    4.83
  -4   9  -2   12.36    5.89
   4  -9   3    4.30    4.23
  -4   9  -3    6.15    6.03
   4  -9   4  691.34   27.91
  -4   9  -4  683.09   39.08
  -4   9  -5   33.97   10.50
  -4   9  -6  104.19   17.64
  -4   9  -7  694.02   44.99
  -4   9  -8   13.00    7.35
  -4   9  -9   71.74   15.08
  -4   9 -10  185.67   22.59
  -4   9 -11   15.14    8.43
  -4   9 -12   92.14   15.55
  -4   9 -13   68.05   13.32
  -4   9 -14   12.30    8.77
   4  -8 -10    7.56    8.15
  -4   8   9  326.20   27.81
  -4   8   8   15.68    7.90
  -4   8   7   28.84    9.31
  -4   8   6  631.73   35.79
  -4   8   5   12.08    7.57
  -4   8   4   25.23    7.32
  -4   8   3 1268.35   45.33
  -4   8   2   39.18    7.68
  -4   8   1   47.52    6.86
  -4   8   1   56.75    7.99
  -4   8   1   62.37   11.96
  -4   8   0 1646.22   44.06
  -4   8   0 1701.63   64.59
  -4   8   0 1661.39   48.25
  -4   8  -1    1.43    4.01
  -4   8  -1   11.27    8.89
  -4   8  -2    9.46    6.41
  -4   8  -2   13.30    8.88
   4  -8   2   -2.90    4.42
   4  -8   3  784.32   29.48
  -4   8  -3  722.49   42.86
  -4   8  -3  769.08   37.43
   4  -8   4    5.89    3.04
  -4   8  -4    6.09    6.06
  -4   8  -4   14.19    9.00
   4  -8   5   33.23    4.96
  -4   8  -5   26.52    9.03
  -4   8  -5   31.90   10.62
  -4   8  -6  606.60   19.88
  -4   8  -6  615.19   38.50
  -4   8  -7  138.41   18.71
  -4   8  -7  114.60    8.50
  -4   8  -8    2.20    6.70
  -4   8  -8   -1.52    2.95
  -4   8  -9  187.64   12.79
  -4   8  -9  232.07   23.32
  -4   8 -10  328.44   27.35
  -4   8 -11   -4.81    7.53
  -4   8 -12  158.58   18.80
  -4   8 -13  189.65   20.85
  -4   8 -14    2.10    5.80
  -4   8 -15   81.35   15.26
  -4   7  11  207.02   22.01
  -4   7  10   -0.15    6.76
  -4   7   9    0.22    5.44
  -4   7   8  345.34   26.67
  -4   7   7    5.29    7.07
  -4   7   6   -2.06    5.82
  -4   7   5 1339.31   50.47
  -4   7   4    3.93    4.93
  -4   7   4    2.02    5.48
  -4   7   3  128.69   13.29
  -4   7   3  116.50   14.28
  -4   7   2 1899.56   52.95
  -4   7   2 1989.43   62.93
  -4   7   1   10.15    3.65
  -4   7   1    5.72    2.75
  -4   7   1    7.74    7.06
  -4   7   0   22.91    5.52
  -4   7   0   14.57    3.69
  -4   7   0   21.20    8.87
  -4   7  -1 2815.98   58.24
  -4   7  -1 2687.03   81.07
  -4   7  -1 2669.88   68.79
  -4   7  -2  136.62   16.47
  -4   7  -2  144.26   13.95
  -4   7  -3   61.01   10.24
  -4   7  -3   53.47   11.63
   4  -7   4 2023.90   46.03
  -4   7  -4 1840.39   41.46
  -4   7  -4 1978.33   67.33
  -4   7  -4 2009.53   65.38
   4  -7   5    6.98    2.34
   4  -7   5   11.88    3.44
  -4   7  -5   15.12    7.15
  -4   7  -5    7.88    2.58
  -4   7  -6   -0.23    7.23
   4  -7   6    4.33    2.71
  -4   7  -6    2.63    2.11
  -4   7  -6    9.84    6.12
  -4   7  -7  681.87   23.43
  -4   7  -7  654.30   34.73
  -4   7  -7  660.25   37.33
  -4   7  -8    0.29    5.27
  -4   7  -8    8.48    3.73
  -4   7  -9   15.25    7.09
  -4   7  -9   16.70    4.77
  -4   7 -10  525.17   25.18
  -4   7 -10  526.03   32.86
  -4   7 -11   92.66   14.50
  -4   7 -11  116.50   12.97
  -4   7 -12   -0.91    4.88
  -4   7 -12    0.59    5.12
  -4   7 -13  133.04   16.62
  -4   7 -13   86.01   15.35
  -4   7 -14  133.04   16.98
  -4   7 -14  102.19   18.21
  -4   7 -15  -17.97   12.29
  -4   6  12  166.89   19.96
  -4   6  11   96.01   15.75
  -4   6  10    8.95    7.72
  -4   6   9  185.16   19.41
  -4   6   8   65.64   11.97
  -4   6   7   11.30    6.52
  -4   6   6  704.95   35.02
  -4   6   6  674.83   29.75
  -4   6   5   11.03    4.59
  -4   6   5    5.93    4.97
  -4   6   4   18.86    6.39
  -4   6   4   10.36    5.26
  -4   6   3  780.88   32.42
  -4   6   3  758.39   33.01
  -4   6   2   11.42    5.41
  -4   6   2   14.91    5.07
  -4   6   1  375.70   17.63
  -4   6   1  381.65   23.62
  -4   6   0  474.68   17.76
  -4   6   0  464.63   26.84
  -4   6   0  453.58   20.81
  -4   6  -1   13.03    4.45
  -4   6  -1    7.61    2.35
  -4   6  -1    1.75    4.01
  -4   6  -2  423.33   26.35
  -4   6  -2  426.96   23.07
   4  -6   3  277.74   14.18
  -4   6  -3  260.03   11.52
  -4   6  -3  269.02   20.69
  -4   6  -3  248.89   18.98
   4  -6   4  247.83   12.70
  -4   6  -4  236.68   11.27
  -4   6  -4  250.29   20.10
  -4   6  -4  227.00   19.04
   4  -6   5  319.09   11.05
   4  -6   5  319.99   13.88
  -4   6  -5  321.88   14.11
  -4   6  -5  279.87   20.94
  -4   6  -5  260.49   21.21
  -4   6  -6   -0.86    5.27
   4  -6   6    2.87    1.93
  -4   6  -6    3.15    2.38
  -4   6  -6    1.53    4.56
  -4   6  -7  221.93   12.96
  -4   6  -7  202.03   16.99
  -4   6  -7  233.69   20.51
  -4   6  -8  116.68   14.25
  -4   6  -8  111.78   10.03
  -4   6  -8  104.91   12.32
  -4   6  -9   55.33   11.04
  -4   6  -9   34.03    6.47
  -4   6 -10  390.09   23.39
  -4   6 -10  363.73   25.68
  -4   6 -11    4.43    5.17
  -4   6 -11   -1.30    6.57
  -4   6 -12   17.38    7.61
  -4   6 -12    4.80    7.68
  -4   6 -13  216.09   25.17
  -4   6 -13  285.69   23.16
  -4   6 -14    7.31   10.45
  -4   6 -15   40.82   14.13
  -4   5  13   21.49    8.74
  -4   5  12   11.35    7.51
   4  -5 -11  474.77   27.41
  -4   5  11  516.94   32.46
   4  -5 -10    8.43    5.65
  -4   5  10    7.32    5.43
  -4   5   9  116.86   14.66
  -4   5   8 1652.22   57.33
  -4   5   7   69.10   11.23
  -4   5   7   83.45    9.31
  -4   5   6  439.06   26.15
  -4   5   6  424.71   21.06
  -4   5   5 2323.11   66.07
  -4   5   5 2237.89   58.21
  -4   5   4   35.02    7.74
  -4   5   4   34.57    6.91
  -4   5   3  251.39   17.43
  -4   5   3  246.48   16.89
  -4   5   2 3900.87   85.12
  -4   5   2 3867.56   88.97
  -4   5   1   13.40    4.06
  -4   5   1   13.83    4.89
  -4   5   0  547.68   18.64
  -4   5   0  574.09   27.93
  -4   5   0  555.61   22.49
   4  -5   1 2917.77   63.46
  -4   5  -1 2998.06   55.44
  -4   5  -1 2816.37   74.72
  -4   5  -1 2829.88   67.84
  -4   5  -2   91.37    4.59
   4  -5   2   68.86    6.87
  -4   5  -2   79.22    6.18
  -4   5  -2   85.03   11.04
  -4   5  -2   78.55    9.55
   4  -5   3   49.13    5.52
  -4   5  -3   35.60    7.62
  -4   5  -3   44.11    4.65
  -4   5  -3   37.95    7.56
   4  -5   4 1345.10   33.10
  -4   5  -4 1389.90   34.03
  -4   5  -4 1315.15   46.98
   4  -5   5   75.71    3.73
  -4   5  -5   79.76   11.17
   4  -5   5   77.82    6.08
  -4   5  -5   91.58    7.60
  -4   5  -5   79.30   10.36
  -4   5  -6   57.55    9.80
   4  -5   6   47.14    4.56
  -4   5  -6   49.21    6.08
  -4   5  -6   43.11    7.26
  -4   5  -7  496.29   21.34
  -4   5  -7  482.70   23.65
  -4   5  -7  501.35   28.38
  -4   5  -8  447.22   22.07
  -4   5  -8  476.17   23.08
  -4   5  -8  469.71   27.39
  -4   5  -9   36.54    8.25
  -4   5  -9   45.11    8.08
  -4   5 -10   75.04   11.69
  -4   5 -10   59.54   10.77
  -4   5 -11  450.43   31.68
  -4   5 -11  471.59   28.28
  -4   5 -12   15.22    6.38
  -4   5 -12   19.67    8.95
  -4   5 -13   64.51   15.15
  -4   5 -14  342.74   34.52
  -4   5 -15   60.15   15.65
  -4   4  14   66.19   12.84
  -4   4  13  142.64   17.83
  -4   4  12   34.84    9.58
  -4   4  11   -0.16    4.75
   4  -4 -11    8.16    5.00
   4  -4 -10  247.08   18.56
  -4   4  10  258.73   21.46
   4  -4  -9  262.32   19.27
  -4   4   9  273.01   21.30
   4  -4  -8   12.22    5.25
  -4   4   8    5.89    4.62
  -4   4   8   12.95    3.79
   4  -4  -7  449.47   24.67
  -4   4   7  494.44   27.43
  -4   4   7  480.89   20.56
   4  -4  -6  126.57   12.82
  -4   4   6  163.10   15.28
  -4   4   6  150.78   11.54
   4  -4  -5   16.46    4.54
  -4   4   5   24.36    6.05
  -4   4   5   27.20    5.45
   4  -4  -4 2227.39   58.89
  -4   4   4 2392.46   62.77
   4  -4  -3  475.63   22.05
  -4   4   3  493.76   23.81
   4  -4  -2  131.05   10.72
  -4   4   2  131.74   11.64
   4  -4  -1 2034.84   49.24
  -4   4   1 2056.47   50.63
   4  -4   0   76.56    7.38
  -4   4   0   81.26    7.17
   4  -4   1    6.86    2.79
  -4   4  -1    9.43    2.52
  -4   4  -1    6.88    1.88
   4  -4   2 2636.19   52.93
  -4   4  -2 2662.77   51.01
  -4   4  -2 2621.72   62.44
  -4   4  -3   23.90    5.86
   4  -4   3   23.61    3.79
  -4   4  -3   26.60    3.95
  -4   4  -4    9.17    5.38
  -4   4  -4    8.14    2.71
   4  -4   4   10.93    2.55
  -4   4  -5 1174.62   35.67
  -4   4  -5 1171.73   30.07
   4  -4   5 1138.34   25.24
  -4   4  -5 1083.29   39.25
  -4   4  -6   22.29    6.80
   4  -4   6   23.99    3.55
  -4   4  -6   24.92    5.82
  -4   4  -6   23.32    4.49
  -4   4  -7  161.10   12.11
  -4   4  -7  148.00   12.00
  -4   4  -7  181.10   16.08
   4  -4   7  180.95    8.76
  -4   4  -8  216.34   13.82
  -4   4  -8  197.86   15.73
  -4   4  -8  206.76   17.46
  -4   4  -9    9.80    5.86
  -4   4  -9    2.76    5.80
  -4   4 -10   73.48   12.72
  -4   4 -10   82.13   11.58
  -4   4 -11   87.96   15.57
  -4   4 -12  102.48   18.09
  -4   4 -13   41.41   13.67
  -4   4 -14    9.77   11.09
  -4   3  15    9.66    7.77
  -4   3  14  259.56   23.38
  -4   3  13   56.74   11.16
  -4   3  12   88.14   13.52
  -4   3  11  635.82   34.13
   4  -3 -11  611.99   28.31
  -4   3  10  277.17   21.79
   4  -3 -10  282.23   18.76
  -4   3   9  129.15   14.53
   4  -3  -9  118.93   12.36
   4  -3  -8 1084.26   38.78
  -4   3   8 1135.64   43.45
  -4   3   8 1091.79   31.66
   4  -3  -7  104.75   11.26
  -4   3   7   97.40   12.00
   4  -3  -6  326.30   18.76
  -4   3   6  331.94   20.84
   4  -3  -5 2674.18   64.60
  -4   3   5 2737.53   68.53
   4  -3  -4  357.64   18.01
  -4   3   4  350.76   19.12
   4  -3  -3  206.07   12.93
  -4   3   3  214.22   13.63
   4  -3  -2 1892.39   45.88
  -4   3   2 1909.21   45.86
  -4   3   1  278.14   12.85
   4  -3  -1  282.32   13.62
   4  -3   0   73.63    6.95
  -4   3   0   70.72    5.55
   4  -3   1 1150.55   29.98
  -4   3  -1 1190.02   28.54
   4  -3   2  241.34   11.53
  -4   3  -2  275.75   11.75
   4  -3   3    8.54    2.40
  -4   3  -3    4.42    0.85
  -4   3  -3    4.56    2.29
  -4   3  -4  124.38    8.84
   4  -3   4  116.51    7.58
  -4   3  -5 1341.66   37.27
   4  -3   5 1421.65   33.59
   4  -3   6    8.28    2.51
  -4   3  -6    6.10    2.75
   4  -3   7   14.48    3.27
  -4   3  -7    7.78    3.52
  -4   3  -7   12.29    4.42
  -4   3  -8  729.81   33.91
  -4   3  -9   28.30    9.09
  -4   3 -10   -9.02    7.75
  -4   3 -11  644.24   43.19
  -4   3 -12   40.96   13.33
  -4   3 -13    0.60    8.51
  -4   3 -14  366.84   33.30
  -4   2  15    2.19    6.18
  -4   2  14   12.53    6.59
  -4   2  13  330.53   25.25
  -4   2  12  139.42   16.06
  -4   2  11   36.09    8.98
   4  -2 -11   29.11    6.71
  -4   2  10 1133.84   45.81
   4  -2 -10 1250.99   40.99
   4  -2  -9  331.52   16.10
  -4   2   9  293.10   21.49
   4  -2  -9  306.32   18.63
  -4   2   8  444.61   25.28
   4  -2  -8  445.43   22.12
  -4   2   7 2500.16   65.75
   4  -2  -7 2481.06   61.39
  -4   2   6  570.63   25.31
   4  -2  -6  598.03   24.26
  -4   2   5  832.70   29.21
   4  -2  -5  837.89   28.50
   4  -2  -4 3846.71   79.30
   4  -2  -3  138.12    9.96
   4  -2  -2  630.88   21.55
   4  -2  -1 6260.08  113.82
  -4   2   0  241.11   10.47
   4  -2   0  253.99   12.40
  -4   2  -1  237.64   10.57
   4  -2   1  224.53   11.33
  -4   2  -2 1853.43   41.30
   4  -2   2 1868.79   42.42
  -4   2  -3  176.14   10.23
   4  -2   3  205.94   11.11
  -4   2  -4   45.38    5.82
  -4   2  -4   38.93    4.30
   4  -2   4   42.10    5.23
  -4   2  -5  763.94   27.26
  -4   2  -5  772.73   22.29
   4  -2   5  802.11   24.48
   4  -2   6  305.44   14.32
  -4   2  -6  298.49   17.91
  -4   2  -6  285.73   12.98
  -4   2  -7   15.58    5.89
  -4   2  -8  113.90   14.74
  -4   2  -9  570.49   35.90
  -4   2 -10   -1.13    6.92
  -4   2 -11    2.86    8.74
  -4   2 -12  180.94   23.45
  -4   2 -13    5.95    9.61
  -4   1  16   47.62   11.61
  -4   1  15    1.97    5.44
  -4   1  14   66.46   12.41
  -4   1  13  110.87   14.97
  -4   1  12   -2.55    4.58
  -4   1  11  278.20   21.86
   4  -1 -10  110.36   10.40
  -4   1  10   97.60   12.22
   4  -1 -10   94.10   10.27
  -4   1   9    9.37    4.97
   4  -1  -9   11.68    4.04
   4  -1  -9    4.44    4.03
  -4   1   8 1166.45   39.83
   4  -1  -8 1125.02   36.47
   4  -1  -7  214.59   13.89
   4  -1  -6  147.10   11.10
   4  -1  -5  648.58   23.55
   4  -1  -4    2.35    2.16
   4  -1  -3  793.38   25.20
   4  -1  -2  487.29   18.45
  -4   1   1  234.83   10.08
   4  -1  -1  256.91   12.76
  -4   1   0  864.99   22.56
   4  -1   0  855.95   26.29
  -4   1  -1   25.04    3.68
   4  -1   1   34.48    5.09
  -4   1  -1   22.28    3.55
  -4   1  -2  724.18   21.92
   4  -1   2  723.64   23.99
  -4   1  -2  721.81   22.13
  -4   1  -3  655.12   22.20
  -4   1  -3  710.02   22.49
   4  -1   3  671.17   23.35
  -4   1  -4   21.28    4.37
  -4   1  -4   11.61    3.46
   4  -1   4   18.14    4.10
   4  -1   5  797.66   26.86
  -4   1  -5  712.29   28.04
  -4   1  -5  793.10   27.18
  -4   1  -6   42.18    6.53
  -4   1  -6   35.74    7.50
  -4   1  -7    2.94    4.07
  -4   1  -7    3.24    5.79
  -4   1  -8  772.58   40.60
  -4   1  -9   13.96    7.12
  -4   1 -10   12.35    8.34
  -4   1 -11  166.09   21.87
  -4   1 -12   -4.29    8.00
  -4   1 -13   13.97    8.50
  -4   0  16  192.58   20.52
  -4   0  15  128.20   16.80
  -4   0  14  104.86   15.10
  -4   0  13  574.80   33.38
  -4   0  12  331.50   23.80
   4   0 -11  834.40   32.61
  -4   0  11  734.96   34.50
   4   0 -10 1295.49   41.41
  -4   0  10 1198.94   43.27
   4   0 -10 1227.88   39.84
   4   0  -9  975.50   34.27
   4   0  -9  960.47   34.01
   4   0  -8  646.57   26.18
   4   0  -8  615.32   25.52
   4   0  -7 2700.13   63.07
   4   0  -6  501.59   21.26
   4   0  -5  840.90   27.85
   4   0  -4 3512.22   73.64
   4   0  -3  887.52   28.28
  -4   0   2  229.86   11.85
   4   0  -2  223.53   13.17
  -4   0   1 1226.79   32.51
  -4   0   1 1250.21   28.92
   4   0  -1 1252.46   35.15
  -4   0   0  843.39   22.68
  -4   0   0  885.61   25.86
   4   0   0  835.69   27.67
  -4   0  -1    8.34    2.84
   4   0   1    4.59    2.56
  -4   0  -1    4.74    1.85
   4   0   2  429.67   19.56
  -4   0  -2  446.39   16.87
  -4   0  -2  435.76   18.34
   4   0   3 1191.36   36.28
  -4   0  -3 1159.91   33.11
  -4   0  -3 1220.50   35.28
  -4   0  -4   41.09    6.45
   4   0   4   41.54    6.64
  -4   0  -4   38.27    6.05
  -4   0  -5    5.44    4.00
  -4   0  -5    5.35    3.61
  -4   0  -6 1385.40   47.84
  -4   0  -6 1284.49   45.42
  -4   0  -7   -2.98    5.44
  -4   0  -7    4.16    6.63
  -4   0  -8    9.07    6.49
  -4   0  -9  662.22   40.61
  -4   0 -10   17.07    8.79
  -4   0 -11    0.01    7.15
  -4   0 -12  454.55   34.92
  -4  -1  16    6.21    6.77
  -4  -1  15  126.51   16.89
  -4  -1  14  169.53   18.49
  -4  -1  13    6.86    6.05
   4   1 -12  118.23   12.86
  -4  -1  12  114.33   13.55
   4   1 -11  267.89   18.88
   4   1 -10   39.73    7.45
   4   1 -10   31.22    6.87
   4   1  -9  901.35   34.15
   4   1  -9  851.71   33.75
   4   1  -8  458.54   23.10
   4   1  -8  444.65   22.88
   4   1  -7  353.64   19.54
   4   1  -6 1558.50   45.26
   4   1  -5  488.32   22.09
   4   1  -4   16.76    4.29
  -4  -1   3 1902.60   45.47
   4   1  -3 1869.71   49.33
   4   1  -2    9.02    3.92
  -4  -1   2   15.20    2.69
  -4  -1   2    7.51    2.92
  -4  -1   1   31.65    5.11
   4   1  -1   22.47    4.93
  -4  -1   1   18.06    3.01
   4   1   0 1842.30   49.84
  -4  -1   0 1861.22   40.44
  -4  -1   0 1923.23   47.07
  -4  -1  -1  163.13    9.37
   4   1   1  162.18   12.69
  -4  -1  -1  167.87   11.63
   4   1   2  188.27   13.91
  -4  -1  -2  184.20   10.88
  -4  -1  -2  179.05   12.84
   4   1   3  267.07   17.24
  -4  -1  -3  259.88   14.49
  -4  -1  -3  258.34   16.68
  -4  -1  -4   55.67    9.09
  -4  -1  -4   56.71    7.73
  -4  -1  -5  262.16   18.44
  -4  -1  -5  265.43   20.47
  -4  -1  -6   81.35   12.74
  -4  -1  -6  120.84   14.10
  -4  -1  -7   99.66   14.63
  -4  -1  -7   98.42   14.41
  -4  -1  -8   40.14   10.67
  -4  -1  -9   10.01    7.85
  -4  -1 -10  120.00   18.81
  -4  -1 -11   44.38   12.19
  -4  -2  17   43.43   12.05
  -4  -2  16  176.02   20.44
  -4  -2  15  417.35   29.80
  -4  -2  14  120.34   15.51
   4   2 -13  282.19   21.46
  -4  -2  13  250.79   20.60
   4   2 -12  420.69   25.51
   4   2 -11  186.20   16.57
   4   2 -10  789.78   34.59
   4   2 -10  796.28   34.67
   4   2  -9  427.92   23.91
   4   2  -9  399.36   23.96
   4   2  -8  222.14   16.89
   4   2  -8  229.62   17.87
   4   2  -7  773.14   31.87
   4   2  -7  739.34   32.50
   4   2  -6  765.40   32.30
   4   2  -5   33.42    6.95
  -4  -2   5   28.65    4.76
   4   2  -4  312.14   19.13
  -4  -2   4  295.45   15.46
   4   2  -3  369.32   20.75
  -4  -2   3  341.73   16.81
   4   2  -2   30.59    5.88
  -4  -2   2   31.56    3.72
  -4  -2   2   35.50    5.68
  -4  -2   1   52.93    6.83
   4   2  -1   51.67    8.26
  -4  -2   1   50.47    4.67
   4   2   0 1164.99   40.41
  -4  -2   0 1175.24   29.43
  -4  -2   0 1212.46   37.06
   4   2   1   90.52   10.85
  -4  -2  -1   83.85    6.96
  -4  -2  -1   88.54    9.66
  -4  -2  -2  112.71    8.89
  -4  -2  -2  107.45   11.34
  -4  -2  -3 1110.48   34.49
  -4  -2  -3 1135.86   42.56
  -4  -2  -4  134.85   12.43
  -4  -2  -4  111.37   14.57
  -4  -2  -5   30.36    8.85
  -4  -2  -5   15.40    6.06
  -4  -2  -6  794.32   37.81
  -4  -2  -6  781.23   41.74
  -4  -2  -7   -4.20    6.33
  -4  -2  -7    9.57    6.46
  -4  -2  -8   40.99   10.82
  -4  -2  -9  470.19   34.10
  -4  -2 -10    8.31    7.56
  -4  -2 -11   37.48   11.56
  -4  -3  17  151.86   20.78
  -4  -3  16   56.24   12.12
  -4  -3  15  238.87   22.55
   4   3 -14  342.39   25.58
   4   3 -13  220.64   20.11
   4   3 -12  623.49   33.29
   4   3 -11  573.45   31.26
   4   3 -10  553.39   29.80
   4   3 -10  557.42   31.72
   4   3  -9  743.12   34.19
   4   3  -9  698.70   36.65
   4   3  -8  489.92   30.45
   4   3  -8  543.65   28.37
   4   3  -7  235.66   20.36
   4   3  -7  244.32   18.51
   4   3  -6 1662.24   57.65
   4   3  -6 1693.10   53.18
  -4  -3   6 1670.42   45.15
   4   3  -5  574.17   30.74
  -4  -3   5  564.59   23.40
   4   3  -4  153.43   15.30
  -4  -3   4  164.27   12.26
   4   3  -3  845.02   37.06
  -4  -3   3  917.49   31.71
   4   3  -2  611.07   30.98
  -4  -3   2  671.03   18.91
  -4  -3   2  607.11   25.82
   4   3  -1   15.66    6.05
  -4  -3   1    7.35    3.42
  -4  -3   1   13.80    2.75
   4   3  -1   13.91    2.14
  -4  -3   0  189.21   10.02
  -4  -3   0  189.46   14.95
  -4  -3  -1  277.77   13.38
  -4  -3  -1  270.58   19.05
  -4  -3  -2   25.32    7.25
  -4  -3  -2   24.56    4.80
  -4  -3  -3   41.71    9.47
  -4  -3  -3   39.44    6.45
  -4  -3  -4  626.79   27.97
  -4  -3  -4  604.63   36.26
  -4  -3  -5   26.07    9.54
  -4  -3  -5    9.07    4.44
  -4  -3  -6   38.28   10.74
  -4  -3  -6   19.44    7.56
  -4  -3  -7  376.78   28.29
  -4  -3  -7  395.81   31.30
  -4  -3  -8   21.84    8.14
  -4  -3  -9   15.94    9.38
  -4  -3 -10  224.07   23.56
  -4  -4  17    3.20    7.25
  -4  -4  16   51.76   11.17
   4   4 -15  102.58   15.48
   4   4 -14    4.66    5.26
   4   4 -13  257.22   22.58
   4   4 -12   99.33   13.89
   4   4 -11   14.59    5.64
   4   4 -10  139.45   15.78
   4   4 -10  169.76   19.02
   4   4  -9   25.64    7.31
   4   4  -9   29.33   10.87
   4   4  -8  141.15   19.30
   4   4  -8  185.26   17.60
   4   4  -7  103.14   13.37
   4   4  -7  120.34   16.88
  -4  -4   7  127.16   11.11
  -4  -4   6   14.96    4.61
   4   4  -6   26.06    7.13
   4   4  -6   13.87    7.47
   4   4  -5  339.59   24.62
   4   4  -5  349.78   27.07
  -4  -4   5  342.42   19.02
   4   4  -4   28.52    8.15
  -4  -4   4   25.56    5.41
   4   4  -4   25.64    8.12
   4   4  -3  276.15   23.63
   4   4  -3  288.12   13.52
  -4  -4   3  277.53   17.87
  -4  -4   2  722.32   20.06
  -4  -4   2  668.14   29.40
  -4  -4   1   17.86    5.28
  -4  -4   1   29.48    4.02
  -4  -4   0  236.98   11.63
  -4  -4   0  231.90   18.41
  -4  -4  -1  237.49   12.67
  -4  -4  -1  281.51   21.57
  -4  -4  -2    6.02    6.69
  -4  -4  -2   10.06    3.36
  -4  -4  -3  463.60   22.04
  -4  -4  -3  485.92   33.41
  -4  -4  -4   62.09   13.46
  -4  -4  -4   46.02    7.74
  -4  -4  -5   25.09    9.67
  -4  -4  -5   29.41    7.20
  -4  -4  -6  196.05   23.31
  -4  -4  -6  192.81   18.85
  -4  -4  -7   34.87   12.06
  -4  -4  -7   22.38    8.81
  -4  -4  -8   -6.54    6.71
  -4  -4  -9   57.03   13.76
   4   5 -16  105.79   17.23
   4   5 -15  201.25   22.12
   4   5 -15  209.64   25.92
   4   5 -14  645.96   39.15
   4   5 -13  140.46   17.92
   4   5 -12  228.77   21.79
   4   5 -11  620.16   35.71
   4   5 -10  122.92   15.77
   4   5  -9  407.44   28.70
   4   5  -8  538.11   33.73
  -4  -5   8  561.36   25.58
   4   5  -7  169.90   18.82
  -4  -5   7  157.24   13.37
   4   5  -6  115.39   16.01
   4   5  -6  104.68   11.09
  -4  -5   6  105.54   11.21
   4   5  -5  534.23   36.20
   4   5  -5  576.91   24.00
  -4  -5   5  587.98   27.48
  -4  -5   4   38.64    7.39
   4   5  -4   36.16   10.13
  -4  -5   3   32.91    6.94
   4   5  -3   14.51    9.66
   4   5  -2  471.82   35.41
  -4  -5   2  464.66   26.17
  -4  -5   1   52.18    9.68
   4   5  -1   64.00   14.19
  -4  -5   0   28.61    7.40
   4   5   0   27.95    9.50
   4   5   1 1053.31   48.34
  -4  -5  -1  798.22   41.97
  -4  -5  -2  137.57   18.15
  -4  -5  -3  126.24   19.19
  -4  -5  -4  531.74   39.10
  -4  -5  -5   47.90   13.83
  -4  -5  -6   29.18   11.44
  -4  -5  -7  422.89   34.34
   4   6 -15    6.22    9.20
   4   6 -15   -0.88    6.08
   4   6 -14   86.20   19.78
   4   6 -14  100.76   16.59
   4   6 -13  191.37   25.49
   4   6 -13  193.22   22.02
   4   6 -12   10.12    7.61
   4   6 -12   30.90   10.09
   4   6 -11  285.47   25.58
   4   6 -11  241.88   25.92
   4   6 -10  434.61   31.53
   4   6 -10  367.79   29.77
   4   6  -9   27.44    7.57
  -4  -6   9   37.42    7.23
   4   6  -9   35.92   10.27
   4   6  -8  279.44   26.25
   4   6  -8  269.22   20.66
  -4  -6   8  272.52   18.47
   4   6  -7   80.61   10.21
   4   6  -7   86.61   15.79
  -4  -6   7   83.92   10.55
   4   6  -6    9.55    7.35
  -4  -6   6    0.83    4.49
   4   6  -5  555.42   41.63
  -4  -6   5  500.75   27.27
  -4  -6   4   40.42    8.21
   4   6  -4   40.34   13.39
  -4  -6   3   -0.42    5.69
   4   6  -3   16.47   10.80
   4   6  -2  150.31   22.60
  -4  -6   2  162.83   16.94
   4   6  -1   55.72   13.71
  -4  -6   1   23.29    7.81
  -4  -6   0  117.76   16.50
  -4  -6  -1   13.63    6.83
  -4  -6  -2   15.83    8.94
  -4  -6  -3   19.31    9.82
  -4  -6  -4   21.61   10.39
  -4  -6  -5  102.93   17.99
  -4  -6  -6   39.55   12.31
   4   7 -14  217.62   24.45
   4   7 -14  185.32   26.04
   4   7 -13   15.02    8.30
   4   7 -13   -8.44   10.87
   4   7 -12  109.50   17.06
   4   7 -12   80.42   15.32
   4   7 -11  341.67   30.16
   4   7 -11  343.79   28.57
   4   7 -10   17.70    6.58
   4   7 -10   28.06   12.02
   4   7  -9   38.88    9.11
   4   7  -9   14.03    9.61
  -4  -7   9   27.99    6.87
   4   7  -8  156.79   22.25
  -4  -7   8  134.70   14.22
   4   7  -7  130.35   21.99
  -4  -7   7  136.93   14.73
  -4  -7   6   11.01    5.78
   4   7  -6   -0.78    8.71
   4   7  -5  146.16   24.86
  -4  -7   5  205.31   18.33
   4   7  -4  127.43   23.49
  -4  -7   4  145.56   16.06
  -4  -7   3   96.57   13.63
   4   7  -3   71.41   17.13
   4   7  -2  476.23   40.43
  -4  -7   2  426.58   29.75
  -4  -7   1  311.12   26.82
  -4  -7   0   71.28   14.93
  -4  -7  -1  245.59   27.25
  -4  -7  -2   40.81   13.95
  -4  -7  -3   55.13   14.52
   4   8 -13  335.25   30.83
   4   8 -12   31.25   10.06
   4   8 -12   49.87   12.91
   4   8 -11  168.19   24.05
   4   8 -10  307.35   32.89
  -4  -8  10  253.13   19.50
   4   8  -9   20.38   11.67
  -4  -8   9   21.65    6.84
   4   8  -8  105.18   21.24
  -4  -8   8  150.64   15.56
   4   8  -7  200.09   30.08
  -4  -8   7  223.90   19.42
  -4  -8   6   -3.23    5.13
   4   8  -6   21.09   11.49
  -4  -8   5   -6.52    6.91
   4   8  -5   -9.06   13.23
  -4  -8   4   84.39   13.37
   4   8  -4  101.29   22.42
  -4  -8   3   39.20   10.70
   4   8  -3   67.68   15.68
  -4  -8   2   -2.44    6.57
  -4  -8   1  158.55   21.72
  -4  -8   0   34.69   12.57
  -4  -9  10  143.58   15.81
  -4  -9   9   40.00    9.59
   4   9  -9   15.15   11.93
   4   9  -8   48.49   19.26
  -4  -9   8   35.71    8.96
   4   9  -7  243.99   37.05
  -4  -9   7  233.71   21.44
  -4  -9   6   -2.10    6.30
   4   9  -6   27.65   16.13
   4   9  -5   54.64   20.03
  -4  -9   5   11.60    7.48
   5 -13   1   11.01    6.95
  -5  13  -5  266.56   27.44
  -5  13  -6    1.35    9.05
  -5  13  -7   -3.12   10.47
   5 -12  -2    1.44    8.06
   5 -12  -1  210.29   26.07
   5 -12   0  132.11   19.61
   5 -12   1    1.71    6.58
   5 -12   2   56.41   11.82
  -5  12  -3  121.49   16.23
  -5  12  -4   17.92    8.51
  -5  12  -5    6.95    7.95
  -5  12  -6  238.88   28.72
  -5  12  -7   -0.46    9.10
  -5  12  -8   -7.41    9.28
  -5  12  -9  458.43   44.99
  -5  11   5   27.78    9.71
   5 -11  -4    2.43    7.49
   5 -11  -3   55.84   14.23
   5 -11  -2    3.61    8.00
   5 -11  -1   88.40   16.71
   5 -11   0   78.51   15.02
   5 -11   1    6.49    6.12
   5 -11   2  162.57   17.28
  -5  11  -2  140.05   16.18
   5 -11   3   98.09   12.88
  -5  11  -3   88.40   13.79
  -5  11  -4   -4.38    6.78
  -5  11  -5  237.42   26.11
  -5  11  -6   -8.01    9.44
  -5  11  -7  -12.62   11.55
  -5  11  -8  312.37   35.01
  -5  11  -9    2.69    9.10
  -5  11 -10   11.60   10.40
  -5  11 -11  111.19   20.30
  -5  10   7  125.53   18.50
   5 -10  -6  158.06   21.59
  -5  10   6  150.95   19.79
  -5  10   5   53.82   12.42
   5 -10  -5   50.26   13.81
  -5  10   4  124.52   16.45
  -5  10   3  317.80   23.26
   5 -10  -2  -11.26    8.74
  -5  10   2    7.31    5.48
   5 -10  -1   -8.70    9.80
   5 -10   0  330.60   27.06
  -5  10   0  339.89   21.11
  -5  10  -1    7.15    4.41
   5 -10   1   -0.47    6.24
   5 -10   2   -0.69    6.76
  -5  10  -2    1.53    4.87
   5 -10   3  913.83   37.06
  -5  10  -3  859.85   42.43
  -5  10  -4    2.88    6.30
  -5  10  -5  100.78   17.04
   5 -10   6  917.10   34.02
  -5  10  -6  878.24   51.78
  -5  10  -7    0.14    7.38
  -5  10  -8   29.66   12.55
  -5  10  -9  852.01   52.78
  -5  10 -10    0.50    7.54
  -5  10 -11   30.51   11.21
  -5  10 -12  636.35   42.78
  -5   9   8   74.69   14.52
  -5   9   7   51.67   12.40
  -5   9   6  133.07   17.29
  -5   9   5   72.39   12.40
  -5   9   4    7.77    5.82
  -5   9   3  293.07   21.49
  -5   9   2   24.08    6.74
  -5   9   2   29.71    9.43
  -5   9   1   19.79    5.55
  -5   9   1   27.33   10.03
  -5   9   0  177.29   12.79
  -5   9   0  159.85   20.75
  -5   9   0  175.18   14.65
  -5   9  -1  116.21   18.84
  -5   9  -1  127.24   13.58
  -5   9  -2  117.33   19.06
  -5   9  -2  118.23   14.04
   5  -9   3   13.81    4.84
  -5   9  -3   22.03    6.85
  -5   9  -3   14.77    9.84
   5  -9   4  120.28   11.10
  -5   9  -4  101.86   15.83
  -5   9  -4  123.72   20.07
  -5   9  -5  107.63   16.94
   5  -9   5  110.43   10.78
  -5   9  -5  128.28   19.94
  -5   9  -6    8.74    7.42
   5  -9   6    1.67    2.84
  -5   9  -6   -0.34    7.12
  -5   9  -7  272.92   27.78
  -5   9  -8   39.80   11.98
  -5   9  -9   15.22    8.76
  -5   9 -10  306.92   28.84
  -5   9 -11   26.59    9.65
  -5   9 -12   -6.48    7.71
  -5   9 -13  178.91   21.63
   5  -8 -10   88.15   15.14
  -5   8  10  108.45   16.65
  -5   8   9  186.69   20.78
  -5   8   8    6.25    5.81
  -5   8   7   -0.75    5.57
  -5   8   6  307.45   25.01
  -5   8   5   89.28   13.01
  -5   8   5   89.05   13.37
  -5   8   4   -3.16    5.05
  -5   8   4   -1.56    6.80
  -5   8   3  334.85   22.10
  -5   8   3  309.96   24.56
  -5   8   2   85.54   10.26
  -5   8   2  128.00   16.10
  -5   8   1   27.90    5.83
  -5   8   1   33.88   10.05
  -5   8   0 1166.33   34.25
  -5   8   0 1188.75   51.91
  -5   8   0 1084.46   38.15
  -5   8  -1  231.07   12.57
  -5   8  -1  208.17   22.88
  -5   8  -1  206.59   16.99
  -5   8  -2  302.73   26.62
  -5   8  -2  278.09   20.79
  -5   8  -3 1184.65   54.07
  -5   8  -3 1136.64   47.02
   5  -8   4  175.14   12.03
   5  -8   4  146.64   11.76
  -5   8  -4  165.53   19.95
  -5   8  -4  142.99   17.74
  -5   8  -5   98.52   14.74
   5  -8   5  102.98    9.67
  -5   8  -5   96.29    7.94
  -5   8  -5   83.24   13.90
   5  -8   6 1401.66   38.26
  -5   8  -6 1310.84   35.94
  -5   8  -6 1327.30   55.69
  -5   8  -7   14.08    7.70
  -5   8  -7   25.76    5.11
  -5   8  -8  108.03   16.79
  -5   8  -8  129.75   10.87
  -5   8  -8  137.92   17.21
  -5   8  -9  698.66   28.02
  -5   8  -9  755.18   42.66
  -5   8 -10   28.75    9.71
  -5   8 -10   39.71    7.50
  -5   8 -11    1.50    5.57
  -5   8 -11   13.87    6.16
  -5   8 -12  303.21   23.02
  -5   8 -12  288.66   26.07
  -5   8 -13   17.00    7.46
  -5   8 -14    1.05    7.18
  -5   7  11  323.07   27.44
   5  -7 -11  272.12   23.54
   5  -7 -10   27.60    9.64
  -5   7  10   31.61   11.18
   5  -7  -9   94.90   14.85
  -5   7   9  131.58   17.20
  -5   7   8  280.94   24.21
  -5   7   7   20.96    7.58
  -5   7   7   15.53    7.12
  -5   7   6  258.23   22.18
  -5   7   6  219.40   18.19
  -5   7   5  481.60   29.37
  -5   7   5  501.87   27.84
  -5   7   4    9.81    5.23
  -5   7   4   17.07    6.19
  -5   7   3   30.49    7.38
  -5   7   3   18.07    6.77
  -5   7   2  828.45   32.42
  -5   7   2  868.75   39.15
  -5   7   1  165.61   12.14
  -5   7   1  162.26   17.16
  -5   7   0   -0.63    2.80
  -5   7   0   10.71    7.28
  -5   7  -1  818.46   23.55
  -5   7  -1  733.30   38.04
  -5   7  -1  717.69   31.22
  -5   7  -2   69.66   10.55
   5  -7   2   78.38    8.78
  -5   7  -2   76.41   13.08
   5  -7   3  116.94   10.23
  -5   7  -3  120.47   15.81
  -5   7  -3  110.24   13.46
   5  -7   4 1695.41   43.71
  -5   7  -4 1605.35   39.70
  -5   7  -4 1600.73   59.27
  -5   7  -4 1635.66   58.48
  -5   7  -5  121.87   15.97
   5  -7   5  132.91    9.97
  -5   7  -5  123.02    9.30
  -5   7  -5  150.59   17.04
   5  -7   6  340.79   15.41
  -5   7  -6  346.19   16.48
  -5   7  -6  318.62   23.67
  -5   7  -6  285.61   25.15
  -5   7  -7 1214.17   36.10
  -5   7  -7 1146.65   46.25
  -5   7  -7 1161.65   51.84
  -5   7  -8   61.89   12.16
  -5   7  -8   63.30    8.37
  -5   7  -8   57.64   10.38
  -5   7  -9   66.40   12.70
  -5   7  -9   90.35   10.16
  -5   7  -9   84.76   12.64
  -5   7 -10  834.54   34.75
  -5   7 -10  840.91   42.77
  -5   7 -11    5.31    6.38
  -5   7 -11   -2.75    4.51
  -5   7 -12   44.18   10.87
  -5   7 -12   32.81   10.41
  -5   7 -13  360.75   30.50
  -5   7 -13  397.64   29.63
  -5   7 -14   17.19    9.26
  -5   6  12   38.97   11.50
  -5   6  11   59.25   11.99
   5  -6 -11   41.22    9.63
   5  -6 -10   31.09    7.89
  -5   6  10   42.72   10.30
   5  -6  -9   33.45    8.63
  -5   6   9   38.28    9.16
   5  -6  -8  257.90   21.75
  -5   6   8  306.75   23.95
   5  -6  -7   47.36   10.09
  -5   6   7   73.88   11.98
  -5   6   7   68.11    9.45
  -5   6   6  101.89   13.28
  -5   6   6  113.43   12.20
  -5   6   5  362.90   24.34
  -5   6   5  340.98   21.16
  -5   6   4   10.44    5.39
  -5   6   4    3.64    3.92
  -5   6   3  443.40   24.43
  -5   6   3  434.07   25.03
   5  -6  -2  880.00   34.89
  -5   6   2  942.86   34.31
  -5   6   2  923.02   38.38
   5  -6  -1   27.04    6.25
  -5   6   1   18.28    4.69
  -5   6   1   30.89    7.94
   5  -6   0  574.67   24.82
  -5   6   0  612.13   32.09
  -5   6   0  592.52   20.64
  -5   6  -1  311.29   12.03
   5  -6   1  276.29   15.94
  -5   6  -1  281.49   22.01
  -5   6  -2   28.23    6.86
  -5   6  -2   32.36    3.17
   5  -6   2   22.89    4.88
   5  -6   3 1329.87   36.91
  -5   6  -3 1356.15   34.57
  -5   6  -3 1373.10   50.74
  -5   6  -3 1321.74   47.92
   5  -6   4   91.67    7.97
  -5   6  -4  101.47    8.16
  -5   6  -4  103.71   13.69
  -5   6  -4  102.39   13.34
  -5   6  -5   33.64    8.95
  -5   6  -5   43.61    5.77
   5  -6   5   35.78    4.98
  -5   6  -5   40.12    8.36
   5  -6   6  578.06   19.55
  -5   6  -6  570.28   22.58
  -5   6  -6  556.14   28.91
  -5   6  -6  542.66   32.06
  -5   6  -7   23.23    7.85
  -5   6  -7   37.67    6.29
  -5   6  -7   41.70    8.15
  -5   6  -8   64.42   11.60
  -5   6  -8   64.45    8.73
  -5   6  -8   73.65   10.48
  -5   6  -9  255.94   17.80
  -5   6  -9  231.53   21.92
  -5   6 -10    2.24    5.56
  -5   6 -10    2.46    4.41
  -5   6 -11   17.22    8.35
  -5   6 -11   26.17    7.59
  -5   6 -12   65.10   13.34
  -5   6 -13   36.28   11.84
  -5   6 -14   13.52    9.41
  -5   5  13   25.26    9.53
  -5   5  12   -0.31    6.54
  -5   5  11  387.06   28.19
   5  -5 -11  353.70   24.23
  -5   5  10    0.62    5.92
   5  -5 -10    4.49    4.84
   5  -5  -9   40.65    9.43
  -5   5   9   58.74   11.35
   5  -5  -8  864.10   38.61
  -5   5   8  893.20   40.42
  -5   5   8  816.30   31.03
  -5   5   7   25.71    8.01
   5  -5  -7   17.61    6.59
  -5   5   7   22.39    5.15
   5  -5  -6   14.01    5.58
  -5   5   6   21.16    6.60
  -5   5   6   20.63    5.61
   5  -5  -5  839.67   35.81
  -5   5   5  918.01   38.13
  -5   5   5  932.94   34.57
   5  -5  -4  296.06   19.54
  -5   5   4  347.27   21.94
  -5   5   4  294.38   18.89
   5  -5  -3  123.39   12.29
  -5   5   3  112.01   12.24
  -5   5   2 1612.26   48.30
   5  -5  -2 1623.28   46.98
   5  -5  -1  550.07   23.62
  -5   5   1  534.07   23.16
  -5   5   0  894.28   27.32
   5  -5   0  853.85   29.31
  -5   5  -1 2956.36   56.65
   5  -5   1 2994.83   65.10
  -5   5  -1 2886.21   59.50
  -5   5  -2 1005.37   20.48
   5  -5   2 1036.16   30.37
  -5   5  -2 1004.56   27.81
   5  -5   3  983.40   28.79
  -5   5  -3  975.31   28.01
   5  -5   4 2286.16   50.05
  -5   5  -4 2228.73   64.23
  -5   5  -4 2284.04   51.94
  -5   5  -4 2173.09   65.29
  -5   5  -5  198.64   16.58
   5  -5   5  221.34   11.35
  -5   5  -5  197.57   12.33
  -5   5  -5  192.02   17.61
  -5   5  -6  498.72   25.06
  -5   5  -6  454.25   20.37
   5  -5   6  471.48   17.24
  -5   5  -6  443.83   27.88
  -5   5  -7 2073.66   56.31
  -5   5  -7 1915.86   51.88
  -5   5  -7 1983.55   63.80
  -5   5  -8  107.97   11.44
  -5   5  -8  101.61   10.97
  -5   5  -8  106.77   14.20
  -5   5  -9  245.30   18.85
  -5   5 -10  512.24   30.99
  -5   5 -11  113.98   16.99
  -5   5 -12   21.26   10.04
  -5   5 -13  136.01   21.99
  -5   5 -14   64.21   16.47
  -5   4  14   68.35   12.66
  -5   4  13  111.05   16.36
  -5   4  12   50.58   11.12
   5  -4 -11  134.09   14.16
  -5   4  11  123.86   15.75
  -5   4  10  408.61   27.47
   5  -4 -10  380.21   23.97
  -5   4   9   -4.21    5.15
   5  -4  -9   -1.61    4.37
  -5   4   8  306.38   22.75
   5  -4  -8  327.23   21.93
  -5   4   8  318.84   17.56
  -5   4   7  210.65   18.28
   5  -4  -7  196.19   16.70
  -5   4   6   49.18    8.94
   5  -4  -6   43.26    8.01
   5  -4  -5  609.73   27.97
  -5   4   5  627.58   29.91
  -5   4   4  185.77   15.32
   5  -4  -4  222.74   15.55
  -5   4   3  237.37   16.27
   5  -4  -3  212.78   14.64
  -5   4   2   56.92    7.74
   5  -4  -2   50.76    7.09
  -5   4   1  151.74   11.43
   5  -4  -1  150.72   11.07
  -5   4   0 1133.97   32.50
   5  -4   0 1154.16   33.50
  -5   4  -1    9.03    2.78
  -5   4  -1    9.27    2.64
   5  -4   1    8.73    2.97
  -5   4  -2  429.69   13.67
   5  -4   2  484.61   18.45
  -5   4  -2  485.46   17.54
   5  -4   3  551.90   19.88
  -5   4  -3  618.65   21.21
  -5   4  -4  123.64    9.57
   5  -4   4  114.28    8.42
  -5   4  -5  883.87   29.06
   5  -4   5  905.04   26.61
  -5   4  -6  404.91   19.62
   5  -4   6  419.21   16.88
  -5   4  -7   58.51    7.83
  -5   4  -7   45.39    7.45
  -5   4  -8  426.83   24.08
  -5   4  -9   52.68   10.23
  -5   4 -10    5.50    6.04
  -5   4 -11  260.93   26.52
  -5   4 -12   21.17    9.35
  -5   4 -13    3.23    8.79
  -5   3  14  134.69   17.48
  -5   3  13   -5.34    5.97
  -5   3  12   -1.89    5.08
  -5   3  11  359.72   26.45
   5  -3 -11  356.40   22.53
  -5   3  10  183.78   18.29
   5  -3 -10  147.66   14.43
  -5   3   9   35.45    8.48
   5  -3  -9   37.72    8.39
  -5   3   8  312.62   22.21
   5  -3  -8  284.58   19.39
  -5   3   7  909.81   37.47
   5  -3  -7  849.68   34.13
  -5   3   6   21.18    5.96
   5  -3  -6   31.66    6.59
  -5   3   5 1202.28   39.54
   5  -3  -5 1186.75   38.56
  -5   3   4 1410.88   41.45
   5  -3  -4 1431.97   42.11
   5  -3  -3 1159.78   35.79
   5  -3  -2 1936.75   48.45
   5  -3  -1 1982.33   48.22
   5  -3   0  981.18   29.32
  -5   3   0  953.64   26.24
  -5   3  -1 2295.95   49.48
   5  -3   1 2289.79   51.84
  -5   3  -2  609.82   20.51
   5  -3   2  566.55   20.62
  -5   3  -3  536.38   19.97
   5  -3   3  507.29   19.43
  -5   3  -4 1985.83   48.85
   5  -3   4 2090.08   48.41
  -5   3  -5  389.10   18.66
   5  -3   5  391.81   17.04
  -5   3  -6  116.93   10.96
   5  -3   6  135.17    9.86
   5  -3   7  496.23   19.79
  -5   3  -7  472.88   24.76
  -5   3  -8  187.88   17.38
  -5   3  -9    7.38    5.88
  -5   3 -10  164.97   20.89
  -5   3 -11  157.20   21.58
  -5   3 -12   14.10   10.06
  -5   3 -13   20.58   13.07
  -5   2  15   35.24    9.72
  -5   2  14   -4.89    7.87
  -5   2  13  519.32   33.12
  -5   2  12    8.13    6.73
  -5   2  11   50.74    9.79
   5  -2 -11   42.49    8.14
  -5   2  10  355.57   25.10
   5  -2 -10  401.43   23.09
  -5   2   9   17.36    7.15
   5  -2  -9   17.26    5.87
  -5   2   8    5.29    4.31
   5  -2  -8    5.22    4.20
  -5   2   7  881.91   34.30
   5  -2  -7  871.69   33.25
   5  -2  -6  620.55   26.34
   5  -2  -5  103.90    9.87
   5  -2  -4  677.90   25.75
   5  -2  -3 1489.27   40.59
   5  -2  -2  288.60   15.12
  -5   2   1 1730.99   38.86
   5  -2  -1 1709.04   43.32
  -5   2   0 1106.40   28.64
   5  -2   0 1063.93   31.71
  -5   2  -1 1236.35   31.84
   5  -2   1 1249.35   34.96
  -5   2  -2 2091.76   47.99
   5  -2   2 2111.87   50.61
  -5   2  -3 1202.14   33.69
   5  -2   3 1223.95   34.99
  -5   2  -4  478.74   20.67
   5  -2   4  514.27   20.85
   5  -2   5 1036.68   32.37
  -5   2  -5 1028.06   34.07
  -5   2  -5 1041.98   31.32
   5  -2   6  205.78   13.31
  -5   2  -6  190.75   12.64
  -5   2  -6  200.81   15.11
   5  -2   7  194.50   13.35
  -5   2  -7  196.72   16.87
  -5   2  -8  594.32   33.42
  -5   2  -9  176.41   19.97
  -5   2 -10   55.72   12.82
  -5   2 -11   90.05   17.71
  -5   2 -12  106.12   19.85
  -5   1  15   47.84   10.86
  -5   1  14   46.72   10.98
  -5   1  13  276.43   23.92
  -5   1  12   67.50   12.46
   5  -1 -11   25.79    6.65
   5  -1 -11   12.93    4.52
  -5   1  11   17.84    6.95
   5  -1 -10  432.89   22.53
  -5   1  10  369.05   24.16
   5  -1 -10  401.23   23.03
   5  -1  -9    6.06    4.60
  -5   1   9    9.00    4.74
   5  -1  -8  167.14   13.93
   5  -1  -7 1085.77   37.14
   5  -1  -6  148.50   12.16
   5  -1  -5  431.30   20.40
   5  -1  -4 1061.10   33.39
   5  -1  -3   11.93    3.84
   5  -1  -2 1563.69   42.12
  -5   1   1  271.41   11.96
   5  -1  -1  264.32   14.91
  -5   1   0  103.50    7.37
   5  -1   0  100.91    9.44
  -5   1  -1 1310.22   33.47
   5  -1   1 1288.88   37.80
  -5   1  -1 1306.13   35.41
  -5   1  -2  339.19   15.37
   5  -1   2  355.11   17.89
  -5   1  -2  348.66   16.63
  -5   1  -3  103.26    8.85
  -5   1  -3  100.80    9.25
   5  -1   3  110.14   10.09
   5  -1   4  453.91   21.39
  -5   1  -4  452.00   20.40
  -5   1  -4  462.60   21.43
  -5   1  -5   31.72    6.38
  -5   1  -5   24.14    5.88
   5  -1   5   28.86    5.83
   5  -1   6  133.64   11.87
  -5   1  -6  150.03   14.39
  -5   1  -6  135.49   13.37
  -5   1  -7  237.17   19.59
  -5   1  -8   79.36   12.98
  -5   1  -9   19.78    8.76
  -5   1 -10   -2.51    8.39
  -5   1 -11   60.61   14.85
  -5   1 -12  102.18   18.66
  -5   0  16  271.38   25.45
  -5   0  15   26.29   10.10
  -5   0  14    2.97    6.90
  -5   0  13  418.68   28.83
   5   0 -12  125.89   13.42
  -5   0  12   88.31   12.70
   5   0 -11   46.42    8.57
   5   0 -11   46.77    8.26
  -5   0  11   44.55    9.02
   5   0 -10  516.60   26.38
   5   0 -10  510.17   26.81
   5   0  -9  816.36   33.33
   5   0  -9  798.37   33.80
   5   0  -8  303.12   19.41
   5   0  -7  369.29   20.70
   5   0  -6 1469.10   44.45
   5   0  -5  825.56   30.61
   5   0  -4 1416.56   42.07
   5   0  -3 2721.75   65.18
  -5   0   2 1712.22   38.30
   5   0  -2 1668.34   46.71
  -5   0   2 1719.31   43.56
  -5   0   1 1073.23   27.92
   5   0  -1 1051.76   34.73
  -5   0   1 1033.30   31.84
  -5   0   0 1886.52   42.61
   5   0   0 1857.59   50.50
  -5   0   0 1925.95   47.69
  -5   0  -1  888.86   26.35
  -5   0  -1  884.76   29.74
   5   0   1  867.99   31.56
   5   0   2 1223.76   39.48
  -5   0  -2 1218.19   33.86
  -5   0  -2 1246.66   37.97
   5   0   3  788.24   30.90
  -5   0  -3  744.01   26.80
   5   0   4  583.88   26.78
  -5   0  -4  537.52   23.83
  -5   0  -4  622.30   28.52
  -5   0  -5  592.62   27.28
  -5   0  -5  595.45   30.47
  -5   0  -6  663.44   32.05
  -5   0  -6  687.93   35.14
  -5   0  -7   45.50   10.77
  -5   0  -8   86.76   14.48
  -5   0  -9  214.73   23.28
  -5   0 -10   -1.99    8.74
  -5   0 -11   49.74   13.82
  -5  -1  16   63.74   13.81
  -5  -1  15  298.23   26.26
  -5  -1  14    5.34    6.09
   5   1 -13   92.99   12.30
  -5  -1  13   68.28   11.63
   5   1 -12  213.43   18.37
   5   1 -11  113.67   13.39
   5   1 -11  114.06   13.35
   5   1 -10  232.39   18.47
   5   1 -10  226.82   18.54
   5   1  -9   91.21   11.69
   5   1  -9   82.64   11.13
   5   1  -8  140.41   13.91
   5   1  -7   40.15    7.50
   5   1  -6  123.10   12.23
   5   1  -5 1070.22   37.98
   5   1  -4    5.08    3.57
   5   1  -3  135.36   12.20
  -5  -1   3  141.96   11.13
  -5  -1   2 1276.17   37.62
  -5  -1   2 1306.00   31.62
   5   1  -2 1247.32   41.18
   5   1  -1   29.05    6.48
  -5  -1   1   25.71    5.16
  -5  -1   1   23.30    3.72
   5   1   0  564.69   26.58
  -5  -1   0  584.79   19.77
  -5  -1   0  572.92   24.17
   5   1   1  900.24   34.95
  -5  -1  -1  892.17   26.95
  -5  -1  -1  896.92   32.47
   5   1   2  209.74   16.11
  -5  -1  -2  205.64   12.44
  -5  -1  -2  203.58   15.73
   5   1   3  357.32   21.99
  -5  -1  -3  372.20   18.36
  -5  -1  -3  367.08   22.42
  -5  -1  -4  361.61   19.96
  -5  -1  -4  362.99   24.18
  -5  -1  -5   11.84    6.71
  -5  -1  -5    5.14    4.38
  -5  -1  -6  335.62   23.72
  -5  -1  -6  368.57   28.22
  -5  -1  -7   40.46    9.90
  -5  -1  -8   -6.37    9.43
  -5  -1  -9  160.25   20.78
  -5  -1 -10   56.97   13.90
  -5  -2  16  159.78   20.36
  -5  -2  15  202.57   21.80
   5   2 -14    0.20    5.73
  -5  -2  14    5.62    6.26
   5   2 -13   99.95   14.20
   5   2 -12  859.39   40.01
   5   2 -11    5.23    5.48
   5   2 -10  114.31   14.03
   5   2 -10   99.18   13.09
   5   2  -9 1042.82   41.84
   5   2  -9 1015.30   43.72
   5   2  -8  345.86   22.64
   5   2  -8  357.61   24.23
   5   2  -7  231.73   19.05
   5   2  -6 1891.81   58.98
  -5  -2   5  785.84   28.89
   5   2  -5  775.40   34.26
   5   2  -4  181.11   15.79
  -5  -2   4  180.42   13.28
   5   2  -3 1542.43   50.50
  -5  -2   3 1563.24   44.61
  -5  -2   2  301.76   13.05
   5   2  -2  293.86   20.26
  -5  -2   2  307.95   17.77
   5   2  -1  770.55   34.07
  -5  -2   1  835.49   24.29
  -5  -2   1  804.25   31.00
   5   2   0  869.66   36.83
  -5  -2   0  916.78   26.73
  -5  -2   0  954.44   35.37
   5   2   1  197.82   17.29
  -5  -2  -1  209.34   12.08
  -5  -2  -1  209.72   16.36
  -5  -2  -2  252.55   14.48
  -5  -2  -2  267.63   19.65
  -5  -2  -3  452.53   21.42
  -5  -2  -3  515.10   30.10
  -5  -2  -4   -2.48    6.34
  -5  -2  -4    3.53    3.58
  -5  -2  -5   57.10   12.73
  -5  -2  -5   61.34    9.84
  -5  -2  -6  171.03   20.61
  -5  -2  -6  158.13   16.77
  -5  -2  -7   -5.56    5.76
  -5  -2  -8   16.22    7.25
  -5  -2  -9  177.59   22.46
  -5  -2 -10   19.05   10.01
  -5  -3  16  -11.09    8.69
   5   3 -15  183.50   20.31
  -5  -3  15  219.20   22.20
   5   3 -14  108.43   15.19
   5   3 -13    1.57    5.09
   5   3 -12  349.44   25.96
   5   3 -11  412.08   27.72
   5   3 -10   30.06    9.30
   5   3 -10   32.12    8.15
   5   3  -9  194.03   20.65
   5   3  -9  183.12   17.53
   5   3  -8 1296.31   54.14
   5   3  -8 1324.64   49.31
   5   3  -7  100.29   14.55
   5   3  -7  106.23   13.16
   5   3  -6  116.12   14.98
  -5  -3   6  118.23   11.16
   5   3  -5 1125.77   46.95
  -5  -3   5 1148.52   38.31
   5   3  -4  633.94   33.51
  -5  -3   4  642.63   27.53
   5   3  -3  429.25   26.89
  -5  -3   3  421.55   22.21
   5   3  -2 1739.44   59.90
  -5  -3   2 1870.81   41.73
  -5  -3   2 1758.15   52.50
   5   3  -1  639.03   33.40
  -5  -3   1  647.62   21.31
  -5  -3   1  647.96   30.05
  -5  -3   0  321.33   14.71
  -5  -3   0  339.03   21.95
  -5  -3  -1  736.86   25.04
  -5  -3  -1  754.13   35.74
  -5  -3  -2  154.27   11.44
  -5  -3  -2  174.23   18.11
  -5  -3  -3  410.95   20.95
  -5  -3  -3  433.41   30.63
  -5  -3  -4  246.30   17.47
  -5  -3  -4  258.99   25.20
  -5  -3  -5   65.03   14.87
  -5  -3  -5   73.18   11.33
  -5  -3  -6   99.28   18.20
  -5  -3  -6   92.49   13.48
  -5  -3  -7  202.47   20.86
  -5  -3  -8  -14.79   10.11
  -5  -3  -9   19.51    9.10
   5   4 -16    2.74    7.99
  -5  -4  16   -6.28    6.85
   5   4 -15  176.71   21.00
   5   4 -14   41.57   11.05
   5   4 -13   17.07    7.70
   5   4 -12  380.78   28.56
   5   4 -11    2.99    6.00
   5   4 -10   42.68   12.31
   5   4 -10   46.44    9.77
   5   4  -9  820.52   41.15
   5   4  -9  886.56   49.70
   5   4  -8    3.07    6.87
   5   4  -8    0.94    4.74
   5   4  -7  195.93   19.55
   5   4  -7  181.58   21.79
  -5  -4   7  179.01   14.34
   5   4  -6  327.35   25.19
   5   4  -6  380.06   29.94
  -5  -4   6  349.21   20.63
  -5  -4   5   57.19    8.76
   5   4  -5   44.47    9.88
   5   4  -5   40.60    9.89
   5   4  -4  442.99   30.53
   5   4  -4  445.71   30.79
  -5  -4   4  460.88   24.36
  -5  -4   3  227.59   17.53
  -5  -4   2   -1.80    4.35
  -5  -4   1  173.11   16.43
  -5  -4   0   51.98   10.13
  -5  -4  -1  144.31   17.19
  -5  -4  -2  117.06   16.69
  -5  -4  -3    6.46    6.59
  -5  -4  -4   47.77   13.61
  -5  -4  -5   -7.79   10.21
  -5  -4  -6   79.31   17.74
   5   5 -15   82.54   15.11
   5   5 -14  427.91   33.07
   5   5 -13   25.89    8.04
   5   5 -12   21.33    8.14
   5   5 -11  958.42   47.60
   5   5 -10   40.92    9.93
   5   5  -9   60.06   12.44
   5   5  -8 1473.93   61.30
  -5  -5   8 1539.47   49.05
   5   5  -7  368.66   29.60
  -5  -5   7  357.55   21.88
  -5  -5   6   86.25   11.21
   5   5  -6   72.15   14.14
   5   5  -5 1561.98   66.90
  -5  -5   5 1609.25   52.13
   5   5  -4  288.53   27.95
  -5  -5   4  349.05   22.73
  -5  -5   3  103.64   12.83
   5   5  -3   96.94   18.07
   5   5  -2  608.74   42.66
  -5  -5   2  663.09   34.40
   5   5  -1  169.26   22.22
  -5  -5   1  183.27   18.69
   5   5   0  209.61   23.88
  -5  -5   0  179.64   19.85
  -5  -5  -1  565.93   37.31
  -5  -5  -2   14.25    8.93
  -5  -5  -3   12.70   10.09
  -5  -5  -4  198.42   25.74
  -5  -5  -5    3.32    8.31
  -5  -5  -6    9.24    7.88
   5   6 -14   41.35   13.67
   5   6 -14   52.08   12.62
   5   6 -13   39.05   12.98
   5   6 -13   57.29   13.69
   5   6 -12   72.46   15.29
   5   6 -12   82.03   15.14
   5   6 -11   22.17    8.10
   5   6 -11   28.85    9.56
   5   6 -10  301.86   28.28
   5   6 -10  275.14   24.78
   5   6  -9   13.38    6.01
   5   6  -9   15.36    8.35
  -5  -6   8   -0.69    4.37
   5   6  -8   16.67    8.62
   5   6  -7  635.44   43.13
  -5  -6   7  586.65   30.18
  -5  -6   6    5.70    4.96
   5   6  -6   -0.39    8.66
  -5  -6   5   56.89   10.14
   5   6  -5   46.30   14.89
   5   6  -4  405.83   37.31
  -5  -6   4  389.89   26.04
  -5  -6   3   68.52   11.70
   5   6  -3   61.51   16.00
  -5  -6   2   58.76   11.68
   5   6  -2   97.34   19.03
   5   6  -1  380.19   33.74
  -5  -6   1  295.25   26.18
  -5  -6   0   27.92    9.14
  -5  -6  -1  105.05   18.07
  -5  -6  -2   61.73   16.15
  -5  -6  -3    8.16    8.66
  -5  -6  -4  124.23   21.07
   5   7 -13   -9.05    7.60
   5   7 -12    2.52    7.13
   5   7 -12    6.72    6.49
   5   7 -11  621.08   42.75
   5   7 -10   74.21   16.06
  -5  -7   9    1.74    4.36
   5   7  -9   15.14   12.06
   5   7  -8  803.09   52.79
  -5  -7   8  755.25   36.35
  -5  -7   7   14.86    6.36
   5   7  -7    3.37    8.87
  -5  -7   6   81.53   12.67
   5   7  -6   79.59   19.53
   5   7  -5  333.37   36.77
  -5  -7   5  342.23   25.38
  -5  -7   4   10.96    6.83
   5   7  -4   18.06   11.98
  -5  -7   3   13.21    7.07
   5   7  -3   49.47   15.86
  -5  -7   2  194.41   22.28
  -5  -7   1    9.98    7.00
  -5  -7   0   17.35   10.46
  -5  -7  -1   44.86   13.14
  -5  -8   9   24.98    7.06
   5   8  -9   25.59   14.31
  -5  -8   8   23.31    7.73
   5   8  -8   10.86   11.83
   5   8  -7  637.04   53.84
  -5  -8   7  616.18   34.81
  -5  -8   6   52.97   11.15
   5   8  -6   60.92   19.71
   5   8  -5    9.16   13.08
  -5  -8   5   31.98    8.62
   5   8  -4  550.81   48.86
  -5  -8   4  517.90   35.06
   6 -13   0   25.17   11.42
  -6  13  -4   87.39   15.48
  -6  13  -5   74.92   16.55
  -6  13  -6   11.11    9.81
   6 -12  -2   35.01   11.93
   6 -12  -1  274.42   29.51
   6 -12   0  249.14   26.46
   6 -12   1  175.44   20.84
  -6  12  -3  192.15   20.78
  -6  12  -4   55.43   13.53
   6 -12   4   60.49   10.89
  -6  12  -5  200.85   25.27
   6 -12   5  209.50   18.16
  -6  12  -6   76.75   17.23
  -6  12  -7   19.31    9.56
  -6  12  -8  126.11   23.42
  -6  11   6   -9.38    8.59
   6 -11  -5   24.74   10.00
  -6  11   5   12.39    6.67
   6 -11  -4   75.45   16.98
  -6  11   4   42.34   10.72
   6 -11  -3   11.16    7.79
  -6  11   3   17.88    6.76
   6 -11  -2  150.53   23.39
   6 -11  -1   29.50   10.29
   6 -11   0   -1.95    7.31
   6 -11   1  113.27   16.89
  -6  11  -2   50.43   10.67
   6 -11   2   53.13   11.24
  -6  11  -3  105.21   15.46
  -6  11  -4   47.01   12.24
   6 -11   4   38.89    8.66
  -6  11  -5   21.21    9.88
   6 -11   5    5.49    4.16
  -6  11  -6   82.24   17.96
  -6  11  -7    7.09   10.80
  -6  11  -8   86.03   19.45
  -6  11  -9   73.71   18.69
  -6  11 -10   16.49   10.72
  -6  10   7   75.01   14.98
  -6  10   6  265.50   25.77
  -6  10   5  192.64   20.69
  -6  10   4  202.13   19.86
  -6  10   3  632.37   33.08
  -6  10   2  232.95   18.28
  -6  10   2  227.22   25.16
  -6  10   1  140.46   12.95
  -6  10   1  155.69   22.04
  -6  10   0  572.70   41.35
  -6  10  -1   81.76   17.34
  -6  10  -2  262.73   29.46
  -6  10  -2  277.18   22.15
   6 -10   3  366.10   22.97
  -6  10  -3  418.24   37.34
  -6  10  -3  405.92   28.95
  -6  10  -4   83.51   15.24
   6 -10   4   81.44   10.35
  -6  10  -4   63.03   16.29
  -6  10  -5   74.66   15.49
   6 -10   5   79.48    9.74
  -6  10  -5   84.64   18.00
  -6  10  -6  493.09   39.65
  -6  10  -6  390.42   34.53
  -6  10  -7   -2.50    6.76
  -6  10  -8    3.44    9.28
  -6  10  -9  263.26   29.25
  -6  10 -10  -11.89   10.60
  -6  10 -11   -7.51    8.13
   6  -9  -9   87.79   16.46
  -6   9   9   78.29   15.48
   6  -9  -8  121.84   18.89
  -6   9   8  115.73   17.27
   6  -9  -7    5.75    7.83
  -6   9   7   -4.54    6.68
  -6   9   6   84.83   14.43
  -6   9   5  360.21   27.29
  -6   9   5  353.61   27.26
  -6   9   4    1.98    4.79
  -6   9   4   -2.35    6.69
  -6   9   3  102.97   12.82
  -6   9   3  113.33   16.96
  -6   9   2  322.46   20.60
  -6   9   2  331.83   27.85
  -6   9   1   26.23    5.94
  -6   9   1   54.49   13.31
  -6   9   0  394.28   18.95
  -6   9   0  396.60   31.91
   6  -9   1  450.40   26.08
  -6   9  -1  444.45   35.20
   6  -9   2   38.51    7.65
  -6   9  -2   49.20   13.40
  -6   9  -2   64.10   10.82
   6  -9   3  245.22   17.16
  -6   9  -3  246.53   26.40
  -6   9  -3  222.35   21.19
   6  -9   4  174.29   14.06
  -6   9  -4  176.66   22.41
  -6   9  -4  174.19   20.46
  -6   9  -5    1.67    6.68
   6  -9   5    6.34    4.40
  -6   9  -5    2.04    7.78
  -6   9  -6  347.16   17.09
  -6   9  -6  379.33   31.79
  -6   9  -6  337.27   30.73
  -6   9  -7   49.73   14.46
  -6   9  -7   57.92    7.78
  -6   9  -7   61.30   13.63
  -6   9  -8    8.73    8.41
  -6   9  -8    0.56    3.25
  -6   9  -8   10.99    7.33
  -6   9  -9   82.03   16.38
  -6   9  -9  115.25   11.45
  -6   9 -10  106.64   17.91
  -6   9 -11   87.67   16.27
  -6   9 -12    5.72    6.62
   6  -8 -11   -9.72    6.87
  -6   8  10   -1.52    6.90
   6  -8 -10   19.72    9.41
   6  -8  -9  276.62   25.54
  -6   8   9  283.64   26.30
   6  -8  -8   53.06   12.13
  -6   8   8   52.89   11.41
   6  -8  -7   86.19   15.91
  -6   8   7   72.77   13.46
   6  -8  -6  688.32   40.63
  -6   8   6  765.04   40.31
  -6   8   6  670.10   35.12
   6  -8  -5   44.19   11.00
  -6   8   5   43.96    9.65
  -6   8   5   38.69    9.61
   6  -8  -4   93.77   14.71
  -6   8   4   72.55   12.13
  -6   8   4   85.75   13.36
   6  -8  -3  478.15   30.85
  -6   8   3  584.18   29.88
  -6   8   3  551.95   32.96
   6  -8  -2   16.90    6.79
  -6   8   2   38.23    7.24
  -6   8   2   40.58   11.00
   6  -8  -1  217.45   18.46
  -6   8   1  252.37   15.67
  -6   8   1  229.90   22.34
  -6   8   0  598.44   22.36
   6  -8   0  563.54   28.46
  -6   8   0  569.33   35.85
   6  -8   1   -3.59    4.46
  -6   8  -1   13.00    7.46
   6  -8   2   46.66    7.63
  -6   8  -2   64.98   13.27
   6  -8   3  325.80   18.73
  -6   8  -3  348.02   29.21
  -6   8  -3  298.24   23.66
   6  -8   4  171.28   12.96
  -6   8  -4  154.85   19.54
  -6   8  -4  149.30   17.90
  -6   8  -5    1.31    5.46
   6  -8   5    3.14    2.97
  -6   8  -5    7.77    3.40
  -6   8  -5   14.16    8.64
   6  -8   6  240.18   14.30
  -6   8  -6  225.15   14.24
  -6   8  -6  214.83   21.12
  -6   8  -6  233.60   23.90
  -6   8  -7  101.97   16.79
  -6   8  -7  122.37   10.91
  -6   8  -7  106.71   14.58
  -6   8  -8   45.57   11.99
  -6   8  -8   49.51    7.48
  -6   8  -8   54.45   10.78
  -6   8  -9  363.03   21.16
  -6   8  -9  346.95   26.18
  -6   8  -9  326.04   29.03
  -6   8 -10  204.42   17.00
  -6   8 -10  189.64   22.28
  -6   8 -11   72.87   13.89
  -6   8 -11   63.31   10.69
  -6   8 -12  182.35   19.59
  -6   8 -12  180.61   21.28
  -6   8 -13   60.23   14.04
  -6   7  11  227.73   23.45
   6  -7 -11  198.29   20.56
  -6   7  10  104.28   15.65
   6  -7 -10   71.47   13.07
   6  -7  -9   23.92    9.12
  -6   7   9   33.65   10.03
   6  -7  -8  737.53   40.42
  -6   7   8  741.90   39.91
   6  -7  -7   36.19   10.15
  -6   7   7   61.80   11.47
  -6   7   7   40.10    9.18
  -6   7   6  136.53   16.51
   6  -7  -6  115.49   16.06
  -6   7   6  137.39   14.88
   6  -7  -5  954.56   44.17
  -6   7   5 1052.26   44.93
  -6   7   5 1071.37   42.95
   6  -7  -4  266.16   21.65
  -6   7   4  315.23   22.86
  -6   7   4  266.51   21.36
   6  -7  -3  257.00   20.16
  -6   7   3  275.57   20.16
  -6   7   3  278.76   21.88
   6  -7  -2 1570.06   52.16
  -6   7   2 1585.03   48.90
  -6   7   2 1653.55   58.56
  -6   7   1  268.71   16.10
   6  -7  -1  261.43   18.58
  -6   7   1  263.72   22.77
  -6   7   0  262.88   13.63
   6  -7   0  254.43   17.38
  -6   7   0  243.24   22.09
  -6   7  -1  943.65   25.15
   6  -7   1  907.36   33.38
   6  -7   2   41.30    6.81
  -6   7  -2   32.63   10.39
   6  -7   3  410.22   19.85
  -6   7  -3  387.51   17.11
  -6   7  -3  427.38   30.48
   6  -7   4  687.28   25.72
  -6   7  -4  633.19   23.55
  -6   7  -4  676.54   37.16
  -6   7  -4  623.25   34.91
  -6   7  -5    1.80    2.82
  -6   7  -5   16.64    6.67
   6  -7   5    8.43    3.01
  -6   7  -5   15.10    7.15
  -6   7  -6   18.37    8.08
  -6   7  -6   27.60    5.55
  -6   7  -6   24.24    8.00
   6  -7   6   22.37    4.64
  -6   7  -7  352.27   18.96
  -6   7  -7  361.73   24.69
  -6   7  -7  309.54   27.07
  -6   7  -8  140.22   12.90
  -6   7  -8  126.44   14.72
  -6   7  -8  126.93   17.31
  -6   7  -9    7.39    4.76
  -6   7  -9   -7.78    6.85
  -6   7 -10  256.97   19.94
  -6   7 -11   62.75   12.15
  -6   7 -12   30.99   10.85
  -6   7 -13  199.58   25.24
  -6   6  12  101.56   15.66
  -6   6  11    1.04    5.63
   6  -6 -11   -5.46    6.44
  -6   6  10   11.83    6.64
   6  -6 -10   15.84    6.35
  -6   6   9  215.35   20.98
   6  -6  -9  225.19   21.00
  -6   6   8   17.29    6.61
   6  -6  -8   14.06    6.30
  -6   6   8   14.32    5.63
  -6   6   7  204.36   19.44
   6  -6  -7  176.01   18.49
  -6   6   7  197.82   16.48
   6  -6  -6  125.19   15.02
  -6   6   6  117.46   14.50
  -6   6   6   98.00   11.82
   6  -6  -5    8.48    5.71
  -6   6   5    5.70    5.33
  -6   6   5   13.69    5.74
   6  -6  -4  536.94   29.28
  -6   6   4  553.93   29.84
  -6   6   4  563.39   29.57
  -6   6   3  161.80   15.26
   6  -6  -3  189.34   15.98
  -6   6   3  174.98   16.95
  -6   6   2  115.23   12.23
   6  -6  -2  127.62   12.88
  -6   6   2  116.88   14.37
  -6   6   1  194.31   14.08
   6  -6  -1  201.08   15.13
  -6   6   0    8.71    3.24
   6  -6   0    1.85    3.85
  -6   6  -1  569.25   17.72
   6  -6   1  585.71   24.43
   6  -6   2  151.41   11.70
  -6   6  -2  151.17   10.26
  -6   6  -2  157.24   18.01
  -6   6  -3   38.48    8.86
  -6   6  -3   35.26    5.60
   6  -6   3   42.94    6.15
   6  -6   4  470.87   19.70
  -6   6  -4  477.38   20.07
  -6   6  -4  494.69   29.68
  -6   6  -5    2.81    5.64
  -6   6  -5    0.43    2.92
   6  -6   5   11.69    3.49
  -6   6  -6  203.31   13.83
  -6   6  -6  194.48   17.33
   6  -6   6  185.26   11.43
  -6   6  -7  462.54   22.90
  -6   6  -7  510.14   27.79
  -6   6  -8    5.11    4.06
  -6   6  -8    6.81    5.19
  -6   6  -9  165.02   15.49
  -6   6 -10  105.08   14.05
  -6   6 -11   14.69    7.96
  -6   6 -12  124.30   19.12
  -6   6 -13   54.09   14.89
  -6   5  13   10.99    7.44
  -6   5  12    0.28    6.90
  -6   5  11  653.91   38.15
   6  -5 -11  646.77   34.64
  -6   5  10   80.91   12.77
   6  -5 -10   78.08   12.76
  -6   5   9   14.05    6.75
   6  -5  -9   22.98    7.96
  -6   5   8 1407.89   53.60
   6  -5  -8 1374.66   51.85
  -6   5   8 1371.18   44.82
  -6   5   7  296.72   22.91
   6  -5  -7  297.37   22.52
  -6   5   7  304.26   19.57
  -6   5   6   18.36    6.74
   6  -5  -6   14.54    6.75
  -6   5   5 2346.39   68.26
   6  -5  -5 2238.07   65.46
  -6   5   4   20.14    6.94
   6  -5  -4   25.64    6.59
  -6   5   3  181.69   15.78
   6  -5  -3  178.84   14.70
  -6   5   2 1270.74   43.28
   6  -5  -2 1294.30   41.47
  -6   5   1   21.43    6.12
   6  -5  -1   16.77    5.12
  -6   5   0  130.77   11.00
   6  -5   0  121.02   10.95
  -6   5  -1 1248.91   32.77
   6  -5   1 1199.14   36.25
  -6   5  -1 1182.89   32.57
   6  -5   2  152.08   11.22
  -6   5  -2  167.16   10.89
  -6   5  -3   50.90    6.35
   6  -5   3   49.62    6.37
  -6   5  -4  494.13   21.18
   6  -5   4  526.58   20.57
  -6   5  -5  585.81   23.92
   6  -5   5  571.71   21.61
  -6   5  -6   66.06    9.78
  -6   5  -6   56.16    7.69
   6  -5   6   70.16    7.63
  -6   5  -7  527.77   26.49
  -6   5  -7  487.47   24.23
  -6   5  -8  266.29   18.85
  -6   5  -9  192.85   17.57
  -6   5 -10  397.24   28.32
  -6   5 -11  237.71   24.54
  -6   5 -12   66.83   15.11
  -6   5 -13  106.69   20.28
  -6   4  14   27.36   10.07
  -6   4  13  142.14   18.16
  -6   4  12    9.44    6.39
  -6   4  11   40.02   10.90
   6  -4 -11   34.49    8.81
  -6   4  10  543.92   33.26
   6  -4 -10  608.86   32.49
  -6   4   9   10.48    6.14
   6  -4  -9   12.24    6.84
  -6   4   8    5.49    6.52
   6  -4  -8    9.21    5.25
  -6   4   7  816.01   37.52
   6  -4  -7  751.51   34.79
  -6   4   6   57.02    9.53
   6  -4  -6   47.90    8.70
  -6   4   5  225.69   17.45
   6  -4  -5  208.22   16.28
  -6   4   4 1470.84   46.30
   6  -4  -4 1408.20   45.15
  -6   4   3  192.80   14.34
   6  -4  -3  220.63   15.72
  -6   4   2  358.00   18.46
   6  -4  -2  360.49   19.19
  -6   4   1 1152.85   33.67
   6  -4  -1 1066.83   34.93
  -6   4   0    4.88    2.76
   6  -4   0    8.62    3.27
  -6   4  -1  490.84   19.35
   6  -4   1  544.58   21.79
  -6   4  -2  173.86   11.23
   6  -4   2  166.95   11.44
   6  -4   3   19.26    4.37
  -6   4  -3    7.88    3.25
  -6   4  -4  412.97   19.17
   6  -4   4  369.44   17.57
  -6   4  -5  258.88   15.73
   6  -4   5  268.57   14.91
  -6   4  -6  154.83   13.10
   6  -4   6  177.27   12.00
  -6   4  -7   11.93    5.18
  -6   4  -8   39.30    8.11
  -6   4  -9  163.14   17.30
  -6   4 -10   11.65    6.52
  -6   4 -11   53.40   13.23
  -6   4 -12   18.11    9.69
  -6   3  14  388.39   30.58
  -6   3  13   -0.33    6.95
  -6   3  12   10.70    7.12
  -6   3  11  901.96   44.52
   6  -3 -11  937.66   39.93
  -6   3  10    0.72    5.72
   6  -3 -10   13.20    5.53
  -6   3   9    1.25    5.00
   6  -3  -9    6.81    5.56
  -6   3   8  919.22   39.99
   6  -3  -8  893.81   37.70
  -6   3   7    5.36    4.64
   6  -3  -7    7.55    4.36
  -6   3   6   68.60    9.75
   6  -3  -6   75.56   10.02
   6  -3  -5  566.23   26.49
   6  -3  -4   28.10    6.00
   6  -3  -3   26.85    5.32
   6  -3  -2  576.28   24.13
   6  -3  -1  914.16   30.89
   6  -3   0    2.56    2.62
  -6   3   0    4.67    2.37
  -6   3  -1  134.59    9.43
   6  -3   1  121.52   10.12
  -6   3  -2  980.31   29.91
   6  -3   2  974.29   31.61
   6  -3   3   62.34    7.36
  -6   3  -3   71.21    7.52
  -6   3  -4  396.73   19.33
   6  -3   4  410.51   19.50
  -6   3  -5  996.14   34.60
   6  -3   5 1053.45   33.67
   6  -3   6  267.35   15.92
  -6   3  -6  239.65   16.82
  -6   3  -7  212.59   17.22
  -6   3  -8  635.58   33.31
  -6   3  -9   68.91   12.92
  -6   3 -10  142.27   19.51
  -6   3 -11  113.13   20.71
  -6   3 -12   45.97   14.47
  -6   2  15    6.64    7.22
  -6   2  14   12.14    7.15
  -6   2  13  896.72   46.06
  -6   2  12    2.15    5.93
  -6   2  11   14.43    7.41
   6  -2 -11   11.81    5.11
  -6   2  10 1420.65   53.70
   6  -2 -10 1426.98   50.48
  -6   2   9   67.21   10.65
   6  -2  -9   48.47    9.23
  -6   2   8   24.47    7.00
   6  -2  -8   18.82    5.87
   6  -2  -7 2155.11   61.08
   6  -2  -6  214.50   16.18
   6  -2  -5    5.09    3.42
   6  -2  -4 1682.84   47.96
   6  -2  -3    1.72    3.02
   6  -2  -2  106.40   10.08
  -6   2   1 1021.80   28.76
   6  -2  -1 1049.92   34.11
   6  -2   0   41.61    6.32
  -6   2   0   47.10    5.77
   6  -2   1   12.71    4.51
  -6   2  -1    3.56    2.33
  -6   2  -2  621.33   23.10
   6  -2   2  608.97   25.33
  -6   2  -3  469.07   20.66
   6  -2   3  456.26   21.74
   6  -2   4   34.40    6.73
  -6   2  -4   28.98    5.55
   6  -2   5  209.29   14.86
  -6   2  -5  190.51   14.79
   6  -2   6  434.01   22.17
  -6   2  -6  424.96   23.67
  -6   2  -7   24.95    7.37
  -6   2  -8  253.97   22.46
  -6   2  -9  274.34   25.82
  -6   2 -10   61.56   14.31
  -6   2 -11   84.48   16.89
  -6   1  15   63.64   13.56
  -6   1  14  219.24   23.07
  -6   1  13   43.88   11.13
  -6   1  12   87.48   14.28
   6  -1 -11  134.99   14.15
   6  -1 -11  122.50   13.98
  -6   1  11  126.28   15.15
   6  -1 -10   66.08   10.47
   6  -1  -9  474.84   26.70
   6  -1  -8  138.73   13.73
   6  -1  -7   65.98    9.36
   6  -1  -6  155.65   13.66
   6  -1  -5    3.86    3.06
   6  -1  -4  674.74   28.16
   6  -1  -3  225.49   15.45
   6  -1  -2   27.26    5.76
  -6   1   1  860.95   25.88
   6  -1  -1  850.95   31.97
  -6   1   0   51.29    5.95
   6  -1   0   63.52    8.58
  -6   1  -1  101.66    8.57
   6  -1   1  101.80   10.67
  -6   1  -1   93.25    9.46
  -6   1  -2 1192.97   34.96
  -6   1  -2 1210.45   38.44
   6  -1   2 1204.88   39.67
  -6   1  -3   37.19    6.68
   6  -1   3   39.65    7.44
  -6   1  -3   42.02    6.83
  -6   1  -4   35.37    7.40
   6  -1   4   38.98    7.32
  -6   1  -4   46.14    7.08
   6  -1   5  521.45   25.89
  -6   1  -5  505.93   24.98
  -6   1  -5  492.72   27.40
   6  -1   6   18.23    6.46
  -6   1  -6    9.73    5.14
  -6   1  -7  171.56   17.51
  -6   1  -8  158.78   18.79
  -6   1  -9    8.99    8.32
  -6   1 -10   67.33   15.24
  -6   1 -11   45.36   13.16
  -6   0  15   26.94   10.61
  -6   0  14    2.45    5.73
  -6   0  13  889.38   43.85
   6   0 -12   -1.47    5.19
  -6   0  12    0.32    5.30
   6   0 -11   28.64    8.56
   6   0 -11   40.48    9.04
   6   0 -10 2150.20   64.29
   6   0 -10 1929.32   64.20
   6   0  -9   51.21    9.91
   6   0  -8   49.91    9.53
   6   0  -7 1163.14   43.23
   6   0  -6   67.34    9.80
   6   0  -5    2.92    3.63
   6   0  -4  723.39   30.86
   6   0  -3  152.20   13.49
  -6   0   2  103.95    7.82
   6   0  -2  107.47   11.31
  -6   0   1  307.07   14.32
   6   0  -1  300.45   19.00
  -6   0   1  319.91   17.69
  -6   0   0 1439.37   37.42
  -6   0   0 1417.31   42.94
   6   0   0 1452.16   46.26
  -6   0  -1   49.35    7.82
   6   0   1   43.13    7.71
  -6   0  -1   46.54    6.09
   6   0   2  105.62   11.88
  -6   0  -2  110.69    9.58
  -6   0  -2  108.42   11.28
   6   0   3 1103.65   41.02
  -6   0  -3 1104.40   35.75
  -6   0  -3 1150.53   42.21
   6   0   4  172.19   15.71
  -6   0  -4  160.59   13.36
  -6   0  -4  161.20   16.29
  -6   0  -5  225.54   17.32
  -6   0  -5  200.43   19.68
  -6   0  -6  851.01   38.08
  -6   0  -7  216.78   20.44
  -6   0  -8   75.85   14.10
  -6   0  -9  407.06   32.86
  -6   0 -10   41.61   12.91
  -6  -1  15  318.36   27.87
  -6  -1  14   25.64    9.16
   6   1 -13   -0.41    5.04
   6   1 -12  715.60   37.16
   6   1 -11   49.92    9.98
   6   1 -11   38.45    8.91
   6   1 -10   21.51    7.15
   6   1 -10    6.81    5.85
   6   1  -9  970.70   43.08
   6   1  -8    6.42    5.76
   6   1  -7  140.34   14.85
   6   1  -6 1225.00   45.44
   6   1  -5   12.38    5.42
   6   1  -4  121.75   12.96
  -6  -1   3  153.56   12.77
   6   1  -3  179.33   15.62
  -6  -1   2    4.60    3.43
   6   1  -2    5.15    4.10
  -6  -1   2    2.31    2.16
   6   1  -1  394.77   23.77
  -6  -1   1  434.11   17.64
  -6  -1   1  389.44   21.15
   6   1   0   63.84   10.04
  -6  -1   0   69.43    9.19
  -6  -1   0   64.28    6.82
  -6  -1  -1   76.11    9.82
   6   1   1   83.98   11.44
  -6  -1  -1   73.83    7.67
  -6  -1  -2   63.07   10.20
   6   1   2   47.63    9.45
  -6  -1  -2   63.29    7.80
  -6  -1  -3   13.35    6.17
  -6  -1  -3   19.29    4.94
   6   1   3   17.60    6.18
  -6  -1  -4  374.03   21.57
  -6  -1  -4  414.13   29.23
  -6  -1  -5   19.65    9.24
  -6  -1  -5   16.60    6.02
  -6  -1  -6   -6.81    6.34
  -6  -1  -7  139.16   17.32
  -6  -1  -8  -14.09    7.96
  -6  -1  -9   49.44   12.92
  -6  -2  15   39.79   10.85
   6   2 -14   15.01    5.88
   6   2 -13  584.78   35.17
   6   2 -12  138.58   16.86
   6   2 -11   13.65    8.29
   6   2 -11    0.80    4.90
   6   2 -10  350.85   25.20
   6   2 -10  295.57   24.88
   6   2  -9  136.90   15.69
   6   2  -9  129.31   16.50
   6   2  -8   61.65   11.70
   6   2  -7  299.85   23.37
   6   2  -6  668.10   34.60
   6   2  -5   15.17    7.06
  -6  -2   4    4.30    3.76
   6   2  -4   17.44    6.26
   6   2  -3 1149.00   45.64
  -6  -2   3 1197.69   40.54
  -6  -2   2    7.69    4.37
   6   2  -2   -0.64    4.16
  -6  -2   2    2.25    2.41
  -6  -2   1    0.81    4.41
  -6  -2   1    2.84    2.46
   6   2  -1    3.06    5.45
   6   2   0 1054.99   44.19
  -6  -2   0 1074.22   31.77
  -6  -2   0 1105.81   41.56
   6   2   1  126.17   15.13
  -6  -2  -1  152.15   11.16
  -6  -2  -1  147.49   15.53
  -6  -2  -2   30.50    8.69
  -6  -2  -2   21.11    4.60
  -6  -2  -3 1044.80   36.53
  -6  -2  -3 1163.50   51.58
  -6  -2  -4   74.49   14.71
  -6  -2  -4   52.10    8.49
  -6  -2  -5   14.63    9.40
  -6  -2  -5   16.02    6.07
  -6  -2  -6  278.92   22.77
  -6  -2  -6  298.44   30.06
  -6  -2  -7   24.50    8.41
  -6  -2  -8   70.34   13.65
   6   3 -15  565.63   37.09
   6   3 -14   63.54   12.61
   6   3 -13   15.29    7.89
   6   3 -12  824.96   43.80
   6   3 -11   -0.28    5.55
   6   3 -10   14.82    8.24
   6   3 -10   28.76    7.92
   6   3  -9  948.98   49.21
   6   3  -9  994.71   45.41
   6   3  -8   42.47   11.00
   6   3  -8   40.48    9.14
   6   3  -7    2.09    5.71
   6   3  -7   -3.35    5.30
   6   3  -6  297.87   25.14
  -6  -3   6  356.50   21.12
   6   3  -5  134.05   16.73
  -6  -3   5  125.38   12.74
  -6  -3   4   35.74    7.52
   6   3  -4   45.10    9.66
   6   3  -3  129.40   16.21
  -6  -3   3  132.42   13.34
   6   3  -2  387.57   27.63
  -6  -3   2  400.56   23.89
  -6  -3   1   20.16    7.02
   6   3  -1   17.00    7.25
  -6  -3   1   15.28    4.00
  -6  -3   0   -2.62    5.52
  -6  -3   0   -0.38    2.50
  -6  -3  -1  614.95   24.15
  -6  -3  -1  672.83   37.01
  -6  -3  -2   14.59    7.26
  -6  -3  -2   15.14    4.77
  -6  -3  -3    7.70    7.23
  -6  -3  -3   23.71    5.99
  -6  -3  -4  410.58   24.05
  -6  -3  -4  408.67   34.83
  -6  -3  -5   39.50   14.10
  -6  -3  -5   37.67    8.79
  -6  -3  -6   21.79    8.65
   6   4 -15   40.71   11.27
   6   4 -14  151.74   19.72
   6   4 -13   51.19   12.04
   6   4 -12   43.44   10.75
   6   4 -11  201.62   21.02
   6   4 -10   34.99   11.63
   6   4 -10   35.19    9.68
   6   4  -9  279.57   24.57
   6   4  -9  247.85   27.42
   6   4  -8  194.84   20.49
   6   4  -8  186.95   23.28
   6   4  -7   15.42    6.78
   6   4  -7   17.33    8.44
  -6  -4   7   11.40    5.07
   6   4  -6  486.16   33.86
   6   4  -6  489.94   35.71
  -6  -4   6  488.19   26.59
   6   4  -5  169.21   19.90
   6   4  -5  188.85   22.05
  -6  -4   5  180.24   16.02
  -6  -4   4    6.65    4.82
   6   4  -4   10.23    9.24
  -6  -4   3  548.85   29.64
  -6  -4   2   -2.00    5.86
  -6  -4   1    6.42    6.27
  -6  -4   0  449.17   31.14
  -6  -4  -1    0.42    7.26
  -6  -4  -2   33.65   11.25
  -6  -4  -3  146.42   21.47
  -6  -4  -4    7.97   10.04
  -6  -4  -5   76.84   18.01
   6   5 -14   54.99   13.02
   6   5 -13   34.59   11.19
   6   5 -12  285.65   26.81
   6   5 -11  157.00   20.38
   6   5 -10    0.68    6.12
   6   5  -9   98.07   15.95
   6   5  -8  236.81   24.42
  -6  -5   7    3.77    4.83
   6   5  -7   -0.45    6.15
  -6  -5   6   58.69    9.99
   6   5  -6   30.32   10.21
   6   5  -5  834.39   50.10
  -6  -5   5  828.61   37.89
  -6  -5   4    5.67    5.41
   6   5  -4   -4.89    7.04
  -6  -5   3    2.11    6.16
   6   5  -3    4.42    8.98
   6   5  -2  789.44   49.99
  -6  -5   2  833.26   41.88
  -6  -5   1    2.73    6.13
   6   5  -1   26.12   12.05
  -6  -5   0   -2.92    6.03
  -6  -5  -1  572.32   40.76
  -6  -5  -2   77.49   16.62
  -6  -5  -3    6.86    9.53
  -6  -5  -4  375.38   37.72
   6   6 -13  -12.02   14.03
   6   6 -12    2.41    8.78
   6   6 -12   16.31    9.02
   6   6 -11  250.50   27.09
   6   6 -10   -0.82    7.41
   6   6  -9   29.67   11.32
   6   6  -8  159.32   23.05
  -6  -6   8  134.22   15.18
  -6  -6   7   33.14    8.41
   6   6  -7   16.21    9.58
   6   6  -6  107.64   20.76
  -6  -6   6  145.82   16.25
  -6  -6   5   57.63   11.33
   6   6  -5   49.64   15.90
  -6  -6   4   51.36   11.00
   6   6  -4   51.67   15.34
  -6  -6   3   84.59   14.04
   6   6  -3  106.32   19.96
  -6  -6   2   28.68    9.66
   6   6  -2   53.60   15.19
  -6  -6   1  216.08   24.05
  -6  -6   0   33.71   11.32
  -6  -6  -1   11.81   10.05
   6   7  -9  -15.30    9.97
   6   7  -8  363.44   37.22
  -6  -7   8  354.72   25.81
  -6  -7   7   23.41    7.62
   6   7  -7   17.06   10.28
  -6  -7   6   47.68   10.76
   6   7  -6   17.67   13.38
   6   7  -5  377.36   40.67
  -6  -7   5  351.39   27.32
  -6  -7   4   11.97    8.74
   6   7  -4   -9.25   11.27
   7 -13   0   21.42   11.03
   7 -13   2  180.81   21.68
   7 -13   3   15.44    6.71
   7 -13   4   83.64   13.36
  -7  13  -5  294.79   30.06
   7 -12  -2  -12.96   12.63
   7 -12  -2   -5.52    8.99
   7 -12  -1   70.20   15.98
   7 -12  -1   89.70   17.26
   7 -12   0   80.88   16.47
   7 -12   0   99.87   17.24
   7 -12   1   10.81    6.44
   7 -12   2   43.39   10.58
   7 -12   3  310.24   24.19
   7 -12   4   20.03    7.56
  -7  12  -5   56.78   14.59
  -7  12  -6  250.35   30.25
  -7  12  -7   44.94   16.84
  -7  11   6    9.32    6.99
   7 -11  -5   12.52   10.24
  -7  11   5   17.60    8.06
   7 -11  -4  173.84   25.32
   7 -11  -3   19.92   10.81
   7 -11  -2   14.19    8.73
  -7  11   2   34.22   11.57
   7 -11  -1  180.93   21.40
  -7  11   1  185.31   25.08
   7 -11   0  -10.61    7.68
  -7  11   0   -5.21    9.61
   7 -11   1   47.96   11.20
  -7  11  -1   46.18   15.00
   7 -11   2  290.38   22.84
  -7  11  -2  328.52   35.70
   7 -11   3    2.47    4.14
  -7  11  -3   23.26   13.87
   7 -11   4   70.77   10.81
  -7  11  -4   82.95   20.37
   7 -11   5  149.22   14.64
  -7  11  -5  149.19   25.30
  -7  11  -5  141.29   21.29
  -7  11  -6    2.64    7.77
  -7  11  -6   11.40   10.96
  -7  11  -7  118.64   22.16
  -7  11  -8   63.83   17.37
  -7  11  -9   -0.68    8.07
   7 -10  -7   42.25   14.62
  -7  10   7   60.76   12.59
   7 -10  -6  119.63   20.55
  -7  10   6  110.86   16.97
   7 -10  -5    7.11    8.13
  -7  10   5   -1.10    6.71
  -7  10   5   -9.17    8.98
   7 -10  -4  102.31   18.13
  -7  10   4  138.36   16.69
  -7  10   4  121.01   17.97
  -7  10   3  363.03   24.34
   7 -10  -3  367.79   31.33
  -7  10   3  386.22   31.57
   7 -10  -2   25.51    9.08
  -7  10   2   67.38   14.87
   7 -10  -1   17.09    7.04
  -7  10   1   18.16   10.69
   7 -10   0  884.72   41.67
  -7  10   0  868.16   51.35
   7 -10   1   38.44    9.09
  -7  10  -1   63.68   14.95
   7 -10   2   21.95    6.52
  -7  10  -2   12.90   10.86
   7 -10   3  867.03   36.29
  -7  10  -3  877.27   54.50
   7 -10   4  153.37   14.23
  -7  10  -4  147.91   22.94
   7 -10   5   74.38    9.93
  -7  10  -5   72.47   17.55
  -7  10  -5   75.81   15.84
  -7  10  -6 1037.65   56.75
  -7  10  -6  925.27   53.63
  -7  10  -7  114.64   20.51
  -7  10  -7  117.28   19.74
  -7  10  -8   18.77   11.90
  -7  10  -8   26.42   12.02
  -7  10  -9  386.50   35.57
  -7  10 -10   35.71   12.62
  -7   9   9  113.71   17.22
   7  -9  -9  101.49   17.57
  -7   9   8  -12.16    9.13
   7  -9  -8  -10.82    8.03
   7  -9  -7   -3.79    7.32
  -7   9   7   -7.31    7.93
   7  -9  -6  221.77   24.64
  -7   9   6  169.32   19.40
  -7   9   6  191.78   20.37
  -7   9   5   48.83   10.99
  -7   9   5   60.57   11.79
   7  -9  -4   27.16    9.65
  -7   9   4   25.06    6.91
  -7   9   4   32.71   10.26
   7  -9  -3   46.36   11.07
  -7   9   3   35.38    8.33
  -7   9   3   36.10   10.78
  -7   9   2  119.91   12.44
   7  -9  -2  151.70   17.49
  -7   9   2  143.38   18.96
   7  -9  -1  112.81   14.61
  -7   9   1  111.56   17.35
   7  -9   0   39.54    8.55
  -7   9   0   52.14   13.92
   7  -9   1  306.99   21.34
  -7   9  -1  297.25   28.87
   7  -9   2    1.56    4.02
  -7   9  -2    2.11    7.76
   7  -9   3    6.46    4.02
  -7   9  -3    3.53    7.03
   7  -9   4  752.78   31.03
  -7   9  -4  733.31   46.21
   7  -9   5   -0.16    3.64
  -7   9  -5    7.59    7.51
  -7   9  -6   27.30    5.70
  -7   9  -6   28.60   11.97
  -7   9  -7  388.87   20.84
  -7   9  -7  384.29   31.02
  -7   9  -8   12.34    4.74
  -7   9  -8    0.35    6.34
  -7   9  -9   88.41   10.99
  -7   9  -9   91.13   15.31
  -7   9 -10  260.70   19.63
  -7   9 -11    2.94    6.00
   7  -8 -11    7.77    9.14
  -7   8  10   23.72    9.22
   7  -8 -10   14.32    6.87
  -7   8   9  111.19   16.76
   7  -8  -9   96.88   16.19
  -7   8   8   -2.81    7.30
   7  -8  -8  -10.42    8.45
  -7   8   7    3.74    6.72
   7  -8  -7   19.58    8.01
  -7   8   7   16.75    7.70
  -7   8   6  524.74   33.34
   7  -8  -6  433.90   32.27
  -7   8   6  514.33   31.28
  -7   8   5   -0.46    6.46
   7  -8  -5    1.86    5.35
  -7   8   5   11.86    7.05
  -7   8   4   17.48    6.89
   7  -8  -4   -0.33    5.88
  -7   8   4   14.63    8.27
  -7   8   3 1038.70   42.40
   7  -8  -3 1008.44   44.97
  -7   8   3 1088.52   48.65
  -7   8   2   10.25    5.49
   7  -8  -2    5.92    5.30
  -7   8   2    3.24    6.88
  -7   8   1   10.83    3.77
   7  -8  -1    4.41    4.46
  -7   8   1   19.25    9.15
   7  -8   0 1352.38   46.51
  -7   8   0 1295.35   57.90
   7  -8   1  135.94   13.42
  -7   8  -1  158.01   20.21
   7  -8   2   13.36    4.86
  -7   8  -2   20.48    9.69
   7  -8   3 1451.52   44.93
  -7   8  -3 1404.76   62.31
  -7   8  -4   27.82    5.28
   7  -8   4   33.76    6.32
  -7   8  -4   27.05   10.17
  -7   8  -5   33.11    6.24
   7  -8   5   29.08    5.85
  -7   8  -6  499.80   23.34
  -7   8  -6  469.38   32.38
  -7   8  -7    6.13    3.89
  -7   8  -7    5.32    6.91
  -7   8  -8   67.12    9.38
  -7   8  -8   62.09   12.02
  -7   8  -9  359.50   22.78
  -7   8 -10   17.43    6.54
  -7   8 -11    2.98    6.89
  -7   8 -12  151.68   19.90
  -7   7  11   74.99   14.49
   7  -7 -11   54.03   12.21
  -7   7  10    8.02    6.15
   7  -7 -10   10.45    6.38
  -7   7   9  150.83   18.37
   7  -7  -9  152.45   19.00
  -7   7   8  202.61   20.98
   7  -7  -8  210.67   21.82
  -7   7   7    7.58    6.03
   7  -7  -7    4.22    6.18
  -7   7   7    3.04    5.45
  -7   7   6   11.88    7.15
   7  -7  -6   27.76    8.93
  -7   7   6   17.62    7.00
  -7   7   5  384.32   26.90
   7  -7  -5  364.18   26.63
  -7   7   5  369.86   25.63
  -7   7   4   -1.08    5.18
   7  -7  -4    4.29    4.78
  -7   7   4    3.75    4.94
  -7   7   3   16.66    6.47
   7  -7  -3   30.05    7.67
  -7   7   3   29.17    9.16
  -7   7   2 1597.91   50.75
   7  -7  -2 1574.43   52.56
  -7   7   2 1540.58   59.27
  -7   7   1   38.82    6.82
   7  -7  -1   21.23    6.94
  -7   7   1   28.64    9.19
   7  -7   0   13.62    5.25
  -7   7   0    7.05    7.90
   7  -7   1 1979.21   55.27
  -7   7  -1 1949.12   72.06
   7  -7   2   64.88    8.90
  -7   7  -2   55.04   12.51
  -7   7  -3   24.69    5.15
  -7   7  -3   22.11    9.44
   7  -7   3   23.05    5.36
   7  -7   4 1482.12   42.64
  -7   7  -4 1423.07   41.60
  -7   7  -4 1497.04   59.63
  -7   7  -5  222.36   14.97
   7  -7   5  226.87   14.38
  -7   7  -5  241.95   22.55
  -7   7  -6   23.38    5.78
  -7   7  -6   29.09    9.68
  -7   7  -7  965.53   35.69
  -7   7  -7 1018.09   44.03
  -7   7  -8   31.49    7.21
  -7   7  -8   15.45    6.78
  -7   7  -9   18.61    6.84
  -7   7 -10  298.19   22.96
  -7   7 -11   12.26    7.57
  -7   7 -12   18.38   11.00
  -7   6  12   32.44    9.78
  -7   6  11  107.89   16.26
   7  -6 -11   75.81   13.40
  -7   6  10   20.17    8.10
   7  -6 -10   16.98    6.98
  -7   6   9  272.21   24.12
   7  -6  -9  265.60   23.63
  -7   6   8   89.45   14.34
   7  -6  -8   93.48   14.27
  -7   6   8  126.65   14.05
  -7   6   7   12.14    7.12
   7  -6  -7   24.41    8.36
  -7   6   7   18.06    7.29
  -7   6   6  351.11   25.36
   7  -6  -6  321.87   24.62
  -7   6   6  351.78   23.66
  -7   6   5   26.97    7.29
   7  -6  -5   28.58    8.45
  -7   6   4    7.79    5.21
   7  -6  -4    5.09    4.78
  -7   6   3  765.75   35.75
   7  -6  -3  779.95   34.34
  -7   6   2   -4.78    5.45
   7  -6  -2    2.45    3.94
  -7   6   1   55.31    8.85
   7  -6  -1   71.41    9.88
  -7   6   0  739.83   27.62
   7  -6   0  793.51   31.28
   7  -6   1   15.85    4.73
   7  -6   2  319.97   17.89
  -7   6  -2  313.45   16.16
  -7   6  -3  291.27   16.05
   7  -6   3  265.88   16.07
   7  -6   4    3.15    2.81
  -7   6  -4   -2.21    3.60
  -7   6  -5  217.05   19.86
  -7   6  -5  223.98   15.07
   7  -6   5  231.24   14.20
  -7   6  -6  185.10   14.47
  -7   6  -6  162.28   16.58
  -7   6  -7  100.42   11.44
  -7   6  -7  108.31   13.65
  -7   6  -8   76.73   10.73
  -7   6  -9   27.52    7.66
  -7   6 -10   87.71   14.03
  -7   6 -11   29.21   10.65
  -7   6 -12   20.24   10.07
  -7   5  13   26.32   10.29
  -7   5  12   22.22    9.67
  -7   5  11  432.99   31.34
   7  -5 -11  459.15   30.48
  -7   5  10    6.40    5.83
   7  -5 -10   23.95    9.52
  -7   5   9   -0.11    5.06
  -7   5   9   12.21    6.20
   7  -5  -9    9.12    6.88
  -7   5   8  777.29   39.81
   7  -5  -8  801.28   39.71
  -7   5   7   22.38    8.00
   7  -5  -7    4.50    5.30
  -7   5   6   26.60    7.62
   7  -5  -6   34.86    8.94
  -7   5   5 2253.40   68.23
   7  -5  -5 2258.35   67.27
  -7   5   4   37.58    8.77
   7  -5  -4   44.23    8.52
  -7   5   3  275.41   19.80
   7  -5  -3  286.15   19.42
  -7   5   2 2641.88   69.49
   7  -5  -2 2607.77   67.69
  -7   5   1   54.61    8.52
   7  -5  -1   58.39    8.36
  -7   5   0   23.57    5.42
   7  -5   0   22.94    5.47
  -7   5  -1 2712.56   61.78
   7  -5   1 2837.28   66.95
  -7   5  -2  132.34   10.57
   7  -5   2  134.27   11.54
   7  -5   3   31.06    5.87
  -7   5  -3   24.90    5.26
  -7   5  -4 1746.25   47.89
   7  -5   4 1736.69   46.68
   7  -5   5    5.10    3.40
  -7   5  -5    4.59    3.54
  -7   5  -6    5.85    3.45
   7  -5   6    1.75    3.27
  -7   5  -7  672.32   32.13
  -7   5  -7  630.70   29.63
  -7   5  -8    4.10    4.61
  -7   5  -9    3.28    5.17
  -7   5 -10  315.68   26.73
  -7   5 -11   32.85   11.76
  -7   4  13   34.26   10.55
  -7   4  12   12.94    8.02
  -7   4  11  255.56   24.03
   7  -4 -11  241.37   21.51
  -7   4  10   91.54   14.70
   7  -4 -10  125.91   15.55
  -7   4   9   34.99    9.14
   7  -4  -9   28.78    8.55
  -7   4   8   55.91   11.01
   7  -4  -8   70.27   11.27
  -7   4   7  360.93   24.88
   7  -4  -7  368.14   24.57
  -7   4   6  326.88   22.42
   7  -4  -6  288.32   21.18
  -7   4   5    1.81    4.58
   7  -4  -5    5.65    5.01
  -7   4   4  346.78   20.57
   7  -4  -4  348.98   21.48
   7  -4  -3   56.06    8.60
   7  -4  -2   -2.33    4.06
   7  -4  -1 1392.25   42.95
   7  -4   0   33.68    6.27
  -7   4   0   50.21    6.34
   7  -4   1   16.37    4.76
  -7   4  -1   30.42    5.53
  -7   4  -2 1115.56   34.19
   7  -4   2 1095.49   35.60
   7  -4   3   23.31    5.37
  -7   4  -3   15.48    4.46
   7  -4   4   45.59    6.93
  -7   4  -4   40.48    6.66
  -7   4  -5  680.31   28.74
   7  -4   5  725.19   28.48
   7  -4   6   17.21    4.91
  -7   4  -6   12.73    5.28
  -7   4  -7   19.26    6.54
  -7   4  -8  333.53   24.44
  -7   4  -9   26.07    8.61
  -7   4 -10   74.47   15.24
  -7   4 -11   67.49   15.60
  -7   3  14  218.62   24.13
  -7   3  13   59.62   13.49
  -7   3  12    2.03    7.90
  -7   3  11  644.01   38.32
   7  -3 -11  595.69   33.72
  -7   3  10   32.80    9.00
   7  -3 -10   18.51    7.00
  -7   3   9   93.97   13.62
   7  -3  -9  103.11   13.52
  -7   3   8 1484.22   53.02
   7  -3  -8 1432.17   52.12
  -7   3   7  149.16   15.13
   7  -3  -7  139.74   15.22
   7  -3  -6  151.47   14.69
   7  -3  -5 1583.20   50.65
   7  -3  -4    4.56    3.67
   7  -3  -3  107.94   11.19
   7  -3  -2 2351.42   60.94
   7  -3  -1   13.61    4.66
  -7   3   0   88.95    8.36
   7  -3   0   96.41   10.11
  -7   3  -1 1241.45   36.43
   7  -3   1 1266.84   40.28
   7  -3   2   34.11    6.61
  -7   3  -2   18.40    4.47
  -7   3  -3   54.80    7.50
   7  -3   3   58.24    8.21
  -7   3  -4  530.03   24.37
   7  -3   4  539.57   24.94
   7  -3   5    8.42    4.81
  -7   3  -5   11.08    4.56
  -7   3  -6    9.62    4.79
   7  -3   6    5.86    4.56
  -7   3  -7  153.18   15.75
  -7   3  -8  165.81   18.02
  -7   3  -9    4.16    5.93
  -7   3 -10   32.31   11.45
  -7   3 -11  115.28   20.49
  -7   2  14   79.77   15.28
  -7   2  13  405.37   32.27
  -7   2  12    7.32    7.66
   7  -2 -11   -6.19    7.82
  -7   2  11   14.46    7.09
  -7   2  10  655.02   35.50
   7  -2 -10  657.18   34.97
   7  -2  -9  104.54   13.70
  -7   2   9  102.06   13.25
   7  -2  -8    0.73    5.37
   7  -2  -7 1380.01   48.66
   7  -2  -6   51.40    9.22
   7  -2  -5  224.86   16.88
   7  -2  -4 2448.10   65.03
   7  -2  -3   71.38    9.59
   7  -2  -2  318.17   19.37
  -7   2   1 1870.06   46.21
   7  -2  -1 1991.15   55.29
  -7   2   0   23.08    4.53
   7  -2   0   30.40    6.62
  -7   2  -1   55.49    6.96
   7  -2   1   52.54    8.27
  -7   2  -2 2085.63   53.02
   7  -2   2 2154.67   58.92
   7  -2   3    3.74    4.37
  -7   2  -3   -6.29    4.21
   7  -2   4   10.52    5.38
  -7   2  -4   19.96    5.68
   7  -2   5  682.43   30.62
  -7   2  -5  659.37   30.02
  -7   2  -6   30.00    7.96
   7  -2   6   29.41    7.01
  -7   2  -7   18.64    6.84
  -7   2  -8  191.37   20.44
  -7   2  -9   18.78    8.50
  -7   2 -10    6.17    8.43
  -7   1  14  131.39   19.00
  -7   1  13  117.74   16.98
  -7   1  12    7.76    6.07
   7  -1 -12    4.90    5.06
   7  -1 -11  365.79   25.05
  -7   1  11  325.18   25.05
   7  -1 -11  327.84   25.56
   7  -1 -10  271.26   22.84
   7  -1  -9    5.91    5.00
   7  -1  -8  636.00   33.10
   7  -1  -7   56.76    9.80
   7  -1  -6   18.96    6.11
   7  -1  -5 1245.19   44.63
   7  -1  -4   25.79    6.55
   7  -1  -3  108.87   12.34
   7  -1  -2  389.46   22.70
  -7   1   1   26.20    4.84
   7  -1  -1    7.90    3.80
  -7   1   0  285.49   15.41
   7  -1   0  333.22   21.08
  -7   1  -1  137.76   10.79
   7  -1   1  150.21   14.16
   7  -1   2   21.65    6.38
  -7   1  -2   22.63    5.12
   7  -1   3  143.68   14.17
  -7   1  -3  134.29   11.96
  -7   1  -3  116.69   13.37
  -7   1  -4    5.30    5.20
   7  -1   4    6.90    5.18
  -7   1  -4    1.11    3.83
   7  -1   5  196.86   17.10
  -7   1  -5  146.01   14.55
  -7   1  -6  113.78   14.05
  -7   1  -7   18.25    7.38
  -7   1  -8   72.18   13.52
  -7   1  -9    4.19    6.77
  -7   0  15   22.65    8.02
  -7   0  14   18.63    8.63
   7   0 -13  491.60   31.05
  -7   0  13  431.91   30.81
   7   0 -12  126.87   15.51
   7   0 -11   37.12    9.72
   7   0 -11   70.71   14.01
   7   0 -10 1199.45   52.03
   7   0  -9  155.73   17.65
   7   0  -8  519.44   30.98
   7   0  -7 2115.13   66.58
   7   0  -6  312.62   22.48
   7   0  -5  337.86   22.72
   7   0  -4 2441.28   69.16
   7   0  -3   59.23   10.11
   7   0  -2  184.51   16.36
  -7   0   1 1951.32   47.79
   7   0  -1 1874.85   58.56
  -7   0   0   49.76    8.32
   7   0   0   44.06    8.58
  -7   0   0   48.95    6.56
  -7   0  -1   77.20    8.26
   7   0   1   83.76   11.49
  -7   0  -1  100.44   12.13
   7   0   2  449.11   26.78
  -7   0  -2  479.88   22.20
  -7   0  -2  474.36   27.24
  -7   0  -3   51.32   10.38
  -7   0  -3   62.41    8.64
   7   0   3   75.30   11.34
  -7   0  -4    0.01    5.98
  -7   0  -4    1.24    3.52
   7   0   4    6.26    6.30
  -7   0  -5  204.76   17.75
  -7   0  -6  178.07   18.24
  -7   0  -7   11.64    8.08
  -7   0  -8   42.14   11.07
  -7   0  -9  172.71   22.55
  -7  -1  15   66.98   13.35
  -7  -1  14   15.42    8.42
   7   1 -13   65.36   12.92
   7   1 -12  219.54   21.69
   7   1 -11  260.94   23.10
   7   1 -11  254.52   24.08
   7   1 -10    8.04    6.99
   7   1 -10   10.03    5.86
   7   1  -9  168.75   18.67
   7   1  -8  304.91   24.50
   7   1  -7   10.73    6.07
   7   1  -6  735.07   36.75
   7   1  -5  148.12   16.02
   7   1  -4  112.22   13.88
   7   1  -3 1272.97   48.47
   7   1  -2  141.23   15.42
  -7  -1   2  142.83   13.36
  -7  -1   1    7.75    4.48
  -7  -1   1    5.87    2.79
   7   1  -1    7.32    5.02
   7   1   0  618.59   33.18
  -7  -1   0  641.67   24.63
  -7  -1   0  662.14   31.71
  -7  -1  -1    4.24    4.54
  -7  -1  -1   -1.18    2.74
   7   1   1    3.49    5.75
   7   1   2    3.12    5.05
  -7  -1  -2    3.77    3.28
   7   1   3  429.29   28.61
  -7  -1  -3  405.19   22.23
  -7  -1  -3  414.57   30.00
  -7  -1  -4    7.11    6.96
  -7  -1  -4    8.94    5.53
  -7  -1  -5   13.10    7.77
  -7  -1  -5   19.00    6.85
  -7  -1  -6   80.19   13.19
  -7  -1  -7    2.92    5.80
  -7  -1  -8   17.28    7.95
   7   2 -14   49.08   12.05
   7   2 -13  478.10   34.05
   7   2 -12  323.25   27.40
   7   2 -11  207.49   23.40
   7   2 -11  190.59   21.09
   7   2 -10  621.26   36.42
   7   2 -10  642.28   40.53
   7   2  -9  315.97   27.76
   7   2  -9  330.38   25.99
   7   2  -8   72.37   13.32
   7   2  -7 1137.06   50.75
   7   2  -6   82.96   12.81
   7   2  -5   98.98   14.53
   7   2  -4  853.49   41.28
  -7  -2   4  806.58   34.41
   7   2  -3  226.48   20.81
  -7  -2   3  216.98   17.75
  -7  -2   2   18.17    6.07
   7   2  -2    4.08    5.41
   7   2  -1  206.63   20.16
  -7  -2   1  207.77   13.25
  -7  -2   1  197.12   17.93
  -7  -2   0   82.33   12.17
  -7  -2   0   79.77    8.38
   7   2   0   94.68   13.71
  -7  -2  -1    5.67    5.61
   7   2   1   10.76    6.49
  -7  -2  -1    9.26    3.90
  -7  -2  -2   63.15   12.95
  -7  -2  -2   63.99    8.54
  -7  -2  -3  183.76   15.17
  -7  -2  -3  199.40   23.08
  -7  -2  -4  -10.23   10.16
  -7  -2  -4    6.65    5.73
  -7  -2  -5   -0.74    8.10
  -7  -2  -5    6.30    5.06
  -7  -2  -6  162.98   18.33
  -7  -2  -7    4.41    6.30
   7   3 -15  248.72   26.13
   7   3 -14  144.58   19.66
   7   3 -13   45.89   12.57
   7   3 -12  352.71   29.81
   7   3 -11  169.04   20.13
   7   3 -11  192.39   24.03
   7   3 -10  174.19   19.73
   7   3 -10  195.41   24.49
   7   3  -9  926.81   51.69
   7   3  -9  974.80   47.60
   7   3  -8  218.55   24.42
   7   3  -8  249.12   23.68
   7   3  -7  304.72   27.89
   7   3  -6  963.11   48.81
   7   3  -5  185.57   20.46
  -7  -3   5  174.40   16.11
   7   3  -4   58.88   12.76
  -7  -3   4   71.03   10.61
   7   3  -3 1019.52   49.05
  -7  -3   3 1008.36   41.96
  -7  -3   2   50.03    9.88
   7   3  -2   49.16   11.32
  -7  -3   1   39.28    9.38
   7   3  -1   69.92   13.24
  -7  -3   0  548.25   34.00
  -7  -3  -1  118.96   17.08
  -7  -3  -2  -12.75    8.83
  -7  -3  -3   65.84   14.41
  -7  -3  -4   20.70   11.47
   7   4 -13  122.32   18.90
   7   4 -12   64.19   13.18
   7   4 -11  -14.79    9.34
   7   4 -10  301.14   27.72
   7   4 -10  314.22   32.45
   7   4  -9   30.60    9.43
   7   4  -9   41.54   14.14
   7   4  -8    9.42    8.11
   7   4  -8    7.70    8.02
   7   4  -7  184.17   22.21
   7   4  -7  183.70   23.37
   7   4  -6   22.60    9.01
   7   4  -6   22.17    9.53
  -7  -4   6   16.31    5.91
   7   4  -5  162.30   21.01
   7   4  -5  108.67   17.16
  -7  -4   5  140.58   15.73
  -7  -4   4   95.57   13.08
   7   4  -4   68.44   14.36
  -7  -4   3   15.09    5.39
  -7  -4   2  132.54   16.13
  -7  -4   1   17.23    7.77
  -7  -4   0  156.92   20.18
  -7  -4  -1  108.46   18.51
  -7  -4  -2  -22.74   12.05
  -7  -4  -3   62.20   16.04
  -7  -4  -4    0.85    9.61
   7   5 -11  359.72   31.93
   7   5 -10  237.59   25.90
   7   5  -9  400.48   33.81
   7   5  -8  240.06   26.93
   7   5  -7   62.74   16.50
  -7  -5   7  101.05   13.70
   7   5  -6  482.75   39.53
  -7  -5   6  482.46   29.83
  -7  -5   5  121.29   15.76
   7   5  -5  160.67   23.67
  -7  -5   4   77.48   13.24
   7   5  -4   84.14   18.44
   7   5  -3  219.50   29.22
  -7  -5   3  188.44   20.26
  -7  -5   2  145.48   18.47
   7   5  -2  160.81   24.87
  -7  -5   1    3.72    7.92
  -7  -5   0   53.16   14.13
  -7  -5  -1  112.71   20.02
   7   6  -8  303.08   33.25
  -7  -6   7  127.87   16.05
   7   6  -7  167.87   25.83
  -7  -6   6   28.95    9.00
   7   6  -6   21.81   10.20
   7   6  -5  268.80   33.97
  -7  -6   5  215.13   21.41
  -7  -6   4   39.93   10.37
   7   6  -4   19.59   10.38
   7   6  -3   21.25   12.92
   8 -13   3   23.84    8.89
   8 -12  -1  326.46   30.51
  -8  12   1  381.35   38.06
   8 -12   0   -6.13    7.33
  -8  12   0    2.81   10.48
   8 -12   1    4.33    5.75
  -8  12  -1   -8.89   11.24
   8 -12   2  385.08   27.61
  -8  12  -2  378.90   41.02
   8 -12   3   38.34    9.66
  -8  12  -3   25.08   13.89
   8 -12   4    2.82    4.67
  -8  12  -4    4.92   14.51
  -8  12  -5  134.08   26.16
  -8  11   5   34.84   11.53
   8 -11  -4    0.65    8.60
  -8  11   4   12.67    9.46
   8 -11  -3   73.04   15.48
  -8  11   3   49.18   13.52
   8 -11  -2   31.41   11.08
  -8  11   2   38.87   13.18
   8 -11  -1   11.86    7.68
  -8  11   1   13.70   11.44
   8 -11   0  144.03   17.89
  -8  11   0  121.93   22.89
   8 -11   1   29.25    8.32
  -8  11  -1   34.78   14.55
   8 -11   2   92.31   12.97
  -8  11  -2   59.72   17.44
   8 -11   3   62.30   10.87
  -8  11  -3   76.64   20.27
   8 -11   4    7.42    5.28
  -8  11  -4   -6.40   11.59
  -8  11  -5  141.24   24.50
  -8  11  -6   83.83   19.19
  -8  11  -7   -1.04   10.40
  -8  11  -8  146.93   24.25
  -8  10   7  238.42   24.72
   8 -10  -7  259.50   28.84
  -8  10   6  100.20   16.67
   8 -10  -6   95.99   17.25
  -8  10   6   87.26   16.00
  -8  10   5   81.80   14.59
   8 -10  -5   71.01   15.67
  -8  10   5   73.16   15.68
   8 -10  -4  406.01   33.64
  -8  10   4  472.43   35.08
   8 -10  -3   42.55   11.96
  -8  10   3   82.73   16.29
   8 -10  -2   42.04   11.18
  -8  10   2   43.06   13.37
   8 -10  -1  376.18   27.84
  -8  10   1  346.55   32.75
   8 -10   0  195.87   19.32
  -8  10   0  227.55   27.24
   8 -10   1   14.21    6.54
  -8  10  -1  -16.11   10.81
   8 -10   2  100.30   12.73
  -8  10  -2  119.20   21.01
   8 -10   3  257.76   19.35
  -8  10  -3  211.05   28.04
   8 -10   4   -3.63    5.03
  -8  10  -4   -3.12    8.61
  -8  10  -5   40.39   13.77
  -8  10  -6  519.75   40.07
  -8  10  -7   11.81    4.65
  -8  10  -7   20.79    8.91
  -8  10  -8   -4.13    5.02
  -8  10  -8    5.31    8.33
  -8   9   9  112.01   17.58
   8  -9  -9  100.51   18.22
  -8   9   8   48.08   11.99
   8  -9  -8   48.34   13.30
  -8   9   7   10.14    7.83
   8  -9  -7    4.76    8.58
  -8   9   6  272.50   25.23
   8  -9  -6  329.46   30.04
  -8   9   6  326.54   27.11
  -8   9   5   23.52    8.43
   8  -9  -5   18.32    9.17
  -8   9   5   22.75    9.22
  -8   9   4   71.67   12.31
   8  -9  -4   60.94   12.95
  -8   9   4   51.68   13.19
   8  -9  -3  365.73   28.21
  -8   9   3  352.22   29.69
   8  -9  -2   29.96    8.98
  -8   9   2   21.21   10.74
   8  -9  -1    9.15    6.24
  -8   9   1   13.26    7.86
   8  -9   0  417.28   26.06
  -8   9   0  365.02   33.20
   8  -9   1    8.72    4.82
  -8   9  -1    1.05    9.32
   8  -9   2   52.37    9.03
  -8   9  -2   34.27   12.56
   8  -9   3  248.25   18.33
  -8   9  -3  247.00   28.80
   8  -9   4   71.14    9.79
  -8   9  -4   49.49   13.54
  -8   9  -5   62.45   14.69
   8  -9   5   64.08    8.91
  -8   9  -6   29.03    6.62
  -8   9  -6   20.48   10.00
  -8   9  -7   58.22    8.98
  -8   9  -7   57.11   13.91
  -8   9  -8   42.33    8.08
  -8   9  -8   45.22   11.27
  -8   9  -9   16.90    7.20
  -8   9 -10  123.36   15.20
  -8   9 -11   14.60    5.65
  -8   8  10  112.45   17.14
   8  -8 -10  131.50   19.47
  -8   8   9  135.92   18.75
   8  -8  -9  120.78   18.16
  -8   8   8   -3.17    7.31
   8  -8  -8   10.05    7.76
  -8   8   7  334.33   27.54
   8  -8  -7  330.12   29.00
  -8   8   7  314.09   25.39
  -8   8   6  108.47   15.68
   8  -8  -6   87.97   15.41
  -8   8   6  111.51   15.21
  -8   8   5   -5.07    6.22
   8  -8  -5   13.46    7.35
  -8   8   5   13.01    8.41
   8  -8  -4  150.45   17.81
  -8   8   4  106.77   15.01
  -8   8   4  109.60   16.11
  -8   8   3  219.79   19.19
   8  -8  -3  229.90   20.71
  -8   8   3  259.46   24.43
   8  -8  -2   40.49    9.20
  -8   8   2   21.15    8.35
   8  -8  -1   12.78    6.21
  -8   8   1   12.62    7.59
   8  -8   0  247.31   19.25
  -8   8   0  255.07   26.69
   8  -8   1   45.84    8.25
  -8   8  -1   33.57   11.97
  -8   8  -2   16.31    9.25
   8  -8   2    5.30    4.71
   8  -8   3  811.19   32.72
  -8   8  -3  734.14   45.76
  -8   8  -4   14.64    4.54
  -8   8  -4   38.65   10.96
   8  -8   4   31.74    6.65
  -8   8  -5   17.06    5.17
  -8   8  -5   14.61    8.30
   8  -8   5   16.26    5.15
  -8   8  -6  621.57   28.20
  -8   8  -6  711.80   40.63
  -8   8  -7    9.95    5.63
  -8   8  -7   24.18    9.93
  -8   8  -8    9.09    4.81
  -8   8  -8   -5.20    6.14
  -8   8  -9  430.94   26.58
  -8   8 -10    3.05    4.88
  -8   8 -11    5.59    7.48
  -8   7  11  112.76   17.17
   8  -7 -11   83.27   15.41
  -8   7  10  107.33   16.56
   8  -7 -10   95.67   16.03
  -8   7   9  553.03   35.88
   8  -7  -9  507.42   35.78
  -8   7   8  270.22   24.91
   8  -7  -8  290.67   26.75
  -8   7   8  286.82   23.04
  -8   7   7  147.31   17.94
   8  -7  -7  130.80   17.90
  -8   7   7  130.39   16.04
  -8   7   6  495.92   32.14
   8  -7  -6  433.36   30.73
  -8   7   6  450.95   29.57
  -8   7   5  176.35   19.04
   8  -7  -5  200.82   20.14
  -8   7   5  201.46   20.38
  -8   7   4   12.92    6.31
  -8   7   4   19.87    8.25
   8  -7  -4   15.07    6.58
  -8   7   3  562.62   31.50
   8  -7  -3  574.26   31.70
   8  -7  -2  134.52   14.71
  -8   7   2  113.56   13.43
   8  -7  -1   52.74    9.06
   8  -7   0  138.68   13.76
   8  -7   1  410.73   22.92
   8  -7   2   28.72    6.79
  -8   7  -3   20.90    8.34
  -8   7  -3    7.25    4.50
   8  -7   3   16.22    5.33
  -8   7  -4  321.36   19.01
  -8   7  -4  332.92   27.85
   8  -7   4  321.22   18.83
   8  -7   5   19.21    4.82
  -8   7  -5   13.25    7.53
  -8   7  -5    9.79    4.16
  -8   7  -6    0.52    3.96
  -8   7  -6    3.12    6.64
  -8   7  -7  547.55   27.99
  -8   7  -7  635.28   35.47
  -8   7  -8   -6.43    5.36
  -8   7  -9   20.68    7.05
  -8   7 -10  383.74   28.38
  -8   7 -11   17.59    9.71
  -8   6  12   39.24   10.33
  -8   6  11   40.62   11.65
   8  -6 -11   21.53    9.66
  -8   6  10  149.05   19.26
   8  -6 -10  156.88   19.80
  -8   6   9   52.99   11.51
   8  -6  -9   52.89   12.36
  -8   6   8   80.03   13.49
  -8   6   8   91.72   13.30
   8  -6  -8   86.08   14.66
  -8   6   7   57.66   11.84
   8  -6  -7   67.94   12.92
  -8   6   6   45.85   11.15
   8  -6  -6   49.02   10.77
  -8   6   5  416.36   28.29
   8  -6  -5  436.24   28.28
  -8   6   4   87.81   13.16
   8  -6  -4  107.29   13.65
  -8   6   3   89.95   12.78
   8  -6  -3   89.92   11.95
  -8   6   2  191.07   17.37
   8  -6  -2  184.90   16.15
   8  -6  -1    5.75    4.52
   8  -6   0  359.86   21.28
   8  -6   1  319.01   19.45
   8  -6   2   16.39    4.89
  -8   6  -2   23.89    5.26
  -8   6  -3  298.92   17.59
   8  -6   3  282.84   17.46
  -8   6  -4   91.17   10.31
   8  -6   4   95.40   10.12
   8  -6   5    3.32    3.21
  -8   6  -5    5.23    4.34
  -8   6  -6  487.63   30.27
  -8   6  -6  403.71   23.36
  -8   6  -7    7.47    5.92
  -8   6  -7    5.71    4.49
  -8   6  -8   -2.43    4.80
  -8   6  -9  182.74   18.79
  -8   6 -10   26.27    9.50
  -8   5  12  229.39   24.30
   8  -5 -12  241.42   23.18
  -8   5  11  415.62   32.23
   8  -5 -11  427.46   30.74
  -8   5  10   63.54   13.15
   8  -5 -10   66.87   12.84
  -8   5   9  224.49   22.26
   8  -5  -9  227.71   22.49
  -8   5   8  399.72   29.01
   8  -5  -8  395.46   28.90
  -8   5   7   42.57   10.33
   8  -5  -7   51.76   10.76
  -8   5   6  361.90   26.29
   8  -5  -6  345.33   25.16
  -8   5   5  670.28   34.34
   8  -5  -5  653.47   33.61
  -8   5   4   12.32    6.47
   8  -5  -4    7.90    5.68
  -8   5   3   26.47    7.02
   8  -5  -3   33.50    7.93
  -8   5   2  586.70   28.28
   8  -5  -2  597.74   28.85
  -8   5   1   74.49    9.81
   8  -5  -1   70.16    9.91
   8  -5   0    5.59    3.78
  -8   5  -1  668.55   25.77
   8  -5   1  625.60   27.87
   8  -5   2   29.14    6.53
  -8   5  -2   31.18    6.14
  -8   5  -3  132.16   11.82
   8  -5   3  122.13   11.72
  -8   5  -4 1274.67   41.80
   8  -5   4 1328.87   42.56
  -8   5  -5   90.56   10.88
   8  -5   5  110.18   11.69
  -8   5  -6  130.34   13.51
  -8   5  -7  727.08   34.07
  -8   5  -8   12.40    6.27
  -8   5  -9   27.88    9.06
  -8   5 -10  499.47   36.40
  -8   4  13  209.36   23.71
  -8   4  12    9.96    8.85
   8  -4 -12   -2.10    6.88
  -8   4  11  240.15   24.25
   8  -4 -11  219.15   21.92
  -8   4  10  217.42   22.60
   8  -4 -10  206.87   21.09
  -8   4   9   45.67   10.68
   8  -4  -9   30.61    9.23
  -8   4   8  564.02   33.43
   8  -4  -8  511.05   31.72
  -8   4   7  431.97   27.71
   8  -4  -7  394.26   27.27
  -8   4   6    4.54    4.64
   8  -4  -6    6.09    5.49
  -8   4   5  528.10   27.70
   8  -4  -5  483.89   27.97
   8  -4  -4  126.96   13.89
   8  -4  -3   26.32    6.66
   8  -4  -2  502.41   25.96
   8  -4  -1   81.61   10.11
   8  -4   0   55.69    8.72
  -8   4   0   59.40    7.36
   8  -4   1   20.73    5.74
  -8   4  -1   30.00    5.90
   8  -4   2   76.72    9.65
  -8   4  -2   69.50    8.62
  -8   4  -3  240.09   16.09
   8  -4   3  245.36   17.36
  -8   4  -4    1.29    3.83
   8  -4   4   -3.57    5.03
  -8   4  -5  130.28   13.33
   8  -4   5  161.43   14.31
  -8   4  -6   70.69   10.30
  -8   4  -7   -3.66    5.03
  -8   4  -8  288.70   23.91
  -8   4  -9   33.07   10.59
  -8   4 -10  -13.23    9.40
  -8   3  13   -2.98    8.06
   8  -3 -12   69.69   12.63
  -8   3  12   90.55   16.81
   8  -3 -11  156.26   18.48
  -8   3  11  185.84   21.30
   8  -3 -10    7.72    6.44
  -8   3  10    1.93    6.16
   8  -3  -9  117.34   15.73
  -8   3   9  150.70   17.06
  -8   3   8  468.29   28.65
   8  -3  -8  419.54   28.18
   8  -3  -7  113.47   14.30
   8  -3  -6    4.77    4.75
   8  -3  -5  341.55   22.77
   8  -3  -4  574.72   28.91
   8  -3  -3    8.32    4.77
   8  -3  -2  674.14   30.99
   8  -3  -1  384.92   22.80
  -8   3   0  269.41   15.71
   8  -3   0  293.89   19.92
  -8   3  -1  987.09   33.37
   8  -3   1 1020.58   38.60
  -8   3  -2  284.62   17.28
   8  -3   2  291.48   19.62
  -8   3  -3  257.75   16.94
   8  -3   3  240.13   17.89
  -8   3  -4  639.78   29.01
   8  -3   4  655.12   30.58
   8  -3   5   40.69    8.12
  -8   3  -5   30.86    6.87
  -8   3  -6   62.25   10.40
  -8   3  -7  517.86   30.99
  -8   3  -8   51.82   11.96
  -8   3  -9   15.92    8.17
  -8   2  14  106.14   17.60
  -8   2  13  417.78   32.93
  -8   2  12  198.02   22.51
   8  -2 -11  151.36   18.31
  -8   2  11  152.57   18.08
  -8   2  10  715.35   38.12
   8  -2 -10  727.49   39.70
   8  -2  -9   18.42    7.87
   8  -2  -8  254.85   21.99
   8  -2  -7  273.43   21.93
   8  -2  -6   16.55    6.32
   8  -2  -5  182.09   16.90
   8  -2  -4  614.22   30.87
   8  -2  -3  123.57   13.56
   8  -2  -2   -0.86    4.18
  -8   2   1  518.42   21.82
   8  -2  -1  548.57   28.50
  -8   2   0  347.97   18.18
   8  -2   0  348.92   22.36
   8  -2   1   35.96    8.21
  -8   2  -1   31.61    5.89
  -8   2  -2  602.94   26.21
   8  -2   2  632.16   30.96
   8  -2   3   55.09    9.83
  -8   2  -3   57.71    8.83
   8  -2   4  185.49   16.93
  -8   2  -4  172.86   14.90
   8  -2   5  626.29   32.03
  -8   2  -5  600.65   30.43
  -8   2  -6   73.72   11.73
  -8   2  -7   55.62   11.15
  -8   2  -8  266.42   25.34
  -8   1  14   28.59   10.19
  -8   1  13   36.57   11.41
  -8   1  12  106.22   15.98
   8  -1 -12   97.58   14.44
   8  -1 -11   36.37   11.05
   8  -1 -10  377.20   29.72
   8  -1  -9   68.77   12.86
   8  -1  -8   19.40    6.95
   8  -1  -7  515.71   31.50
   8  -1  -6   16.27    6.31
   8  -1  -5  218.48   19.24
   8  -1  -4  598.73   31.64
   8  -1  -3   93.94   12.51
   8  -1  -2  383.70   24.52
  -8   1   1  483.16   21.21
   8  -1  -1  520.09   28.98
   8  -1   0    0.76    4.09
  -8   1   0   -5.20    3.74
  -8   1  -1  455.12   22.16
   8  -1   1  540.23   29.70
  -8   1  -2   40.90    6.84
   8  -1   2   33.62    8.39
   8  -1   3    1.06    5.26
  -8   1  -3    2.86    3.63
   8  -1   4  318.84   23.42
  -8   1  -4  340.90   21.93
  -8   1  -5   64.82   10.62
   8  -1   5   43.22    9.44
  -8   1  -6   -2.74    5.35
  -8   1  -7   58.65   12.67
  -8   1  -8    4.30    8.00
  -8   0  14   15.34    6.95
   8   0 -13  454.56   32.42
   8   0 -12    4.63    6.42
   8   0 -11   46.42   10.52
   8   0 -11   48.68   12.41
   8   0 -10  409.03   31.64
   8   0  -9   14.71    5.69
   8   0  -8    0.49    5.77
   8   0  -7  556.18   33.50
   8   0  -6  366.66   26.37
   8   0  -5   64.41   11.23
   8   0  -4  430.21   27.56
   8   0  -3  384.89   26.00
   8   0  -2  156.25   16.52
   8   0  -1  965.38   42.52
  -8   0   1  912.08   31.24
   8   0   0  379.16   26.40
  -8   0   0  389.41   19.67
   8   0   1  400.40   26.97
  -8   0  -1  342.96   19.25
  -8   0  -1  359.15   25.01
   8   0   2  594.80   33.75
  -8   0  -2  576.70   26.46
  -8   0  -2  583.16   34.44
   8   0   3  251.42   22.17
  -8   0  -3  217.55   16.83
  -8   0  -3  215.20   22.34
   8   0   4  147.45   17.40
  -8   0  -4  121.63   13.56
  -8   0  -5  333.47   23.99
  -8   0  -6   24.78    8.92
  -8   0  -7   78.66   14.27
   8   1 -14   14.43    7.74
   8   1 -13  259.30   25.60
   8   1 -12  316.75   27.77
   8   1 -11   24.23   10.02
   8   1 -11   35.99   10.53
   8   1 -10  174.51   21.38
   8   1  -9  122.66   17.70
   8   1  -8   26.81    9.58
   8   1  -7  292.16   25.28
   8   1  -6   43.68   10.10
   8   1  -5   88.84   13.76
   8   1  -4   94.85   14.15
   8   1  -3   83.10   13.07
   8   1  -2  367.83   26.94
   8   1  -1    9.04    5.83
  -8  -1   1    8.65    4.02
  -8  -1   1   11.51    6.50
  -8  -1   0   78.22   12.35
  -8  -1   0   97.72    9.94
   8   1   0   94.80   14.51
   8   1   1  278.67   24.04
  -8  -1  -1  303.31   18.21
  -8  -1  -1  270.64   23.54
  -8  -1  -2    0.10    6.66
  -8  -1  -2   -2.48    3.74
  -8  -1  -3  178.84   15.40
  -8  -1  -3  195.64   22.90
  -8  -1  -4  111.77   13.44
  -8  -1  -5    7.59    5.23
  -8  -1  -6   90.46   13.77
   8   2 -14   39.88   13.14
   8   2 -13  182.61   23.31
   8   2 -12  106.89   17.58
   8   2 -11    3.75    6.03
   8   2 -11   28.59   12.59
   8   2 -10  159.37   19.47
   8   2 -10  139.90   20.51
   8   2  -9  433.30   34.89
   8   2  -8   47.22   12.61
   8   2  -7   86.70   15.04
   8   2  -6  427.77   31.81
   8   2  -5  119.97   17.17
   8   2  -4  321.12   26.70
   8   2  -3  496.67   33.35
  -8  -2   3  462.33   27.74
   8   2  -2  279.17   25.16
  -8  -2   2  240.00   20.55
   8   2  -1  287.38   26.07
  -8  -2   1  242.43   21.51
   8   2   0  348.09   28.63
  -8  -2   0  309.24   25.88
  -8  -2  -1   52.03   12.22
  -8  -2  -2  287.09   28.83
  -8  -2  -3   99.10   17.67
   8   3 -12  249.57   26.82
   8   3 -11   27.59   10.28
   8   3 -11   11.69    8.61
   8   3 -10   57.29   17.56
   8   3 -10   38.17   10.50
   8   3  -9  178.11   22.04
   8   3  -9  262.20   29.02
   8   3  -8   59.81   14.11
   8   3  -8   76.92   16.02
   8   3  -7    7.56    7.68
   8   3  -6  188.84   22.77
   8   3  -5  408.41   32.62
   8   3  -4   24.61    9.50
  -8  -3   4   23.30    7.24
  -8  -3   3   92.62   13.86
   8   3  -3   90.05   15.69
   8   3  -2  253.54   25.87
  -8  -3   2  258.60   22.94
  -8  -3   1   82.16   14.32
  -8  -3   0  206.51   23.20
  -8  -3  -1  252.97   27.43
  -8  -3  -2  125.57   21.63
  -8  -3  -3  148.75   22.89
   8   4 -10  -12.63   13.81
   8   4 -10   -0.94    8.59
   8   4  -9  211.37   27.73
   8   4  -9  224.03   26.08
   8   4  -8   12.41    9.26
   8   4  -8    7.58    7.06
   8   4  -7   56.94   13.53
   8   4  -7   54.83   14.93
   8   4  -6  411.96   36.16
   8   4  -6  336.48   32.85
   8   4  -5    2.86    8.91
   8   4  -5    4.92    7.08
  -8  -4   5   13.07    6.77
  -8  -4   4  106.06   14.82
   8   4  -4  101.03   19.80
  -8  -4   3  104.54   15.43
  -8  -4   2    7.37    6.75
  -8  -4   1  188.48   22.54
  -8  -4   0   14.70    9.95
   8   5  -7   52.79   14.97
   8   5  -6   68.56   17.58
   8   5  -5  381.09   40.37
   8   5  -4  180.39   27.38
   8   5  -3  149.84   24.86
   9 -12   0  103.14   16.45
   9 -12   1   57.62   12.07
  -9  12  -1   31.00   15.67
   9 -12   2  395.79   27.81
  -9  12  -2  350.63   40.63
   9 -12   3   90.05   13.27
  -9  11   5   88.08   18.02
  -9  11   4   71.23   16.23
   9 -11  -3    8.74    9.19
  -9  11   3   -1.60    8.87
   9 -11  -2   72.85   14.83
  -9  11   2   68.71   16.39
   9 -11  -1   43.90   11.11
  -9  11   1   29.07   12.16
   9 -11   0    2.44    4.98
  -9  11   0    2.60    8.93
   9 -11   1  209.05   20.08
  -9  11  -1  215.90   29.86
   9 -11   2    5.50    5.24
  -9  11  -2   -8.76   10.37
   9 -11   3   -1.25    5.49
  -9  11  -3    4.82   12.79
   9 -11   4  147.86   15.60
  -9  11  -4  138.03   26.90
  -9  11  -5   38.96   16.69
  -9  11  -6   46.46   15.03
  -9  11  -7    6.67    9.28
  -9  11  -8   -3.89   10.80
   9 -10  -6  233.67   28.16
  -9  10   6  270.67   27.52
   9 -10  -5   60.68   14.56
  -9  10   5   65.38   14.59
   9 -10  -4  193.18   23.36
  -9  10   4  207.80   25.06
   9 -10  -3  227.56   24.08
  -9  10   3  225.39   25.95
   9 -10  -2  184.30   20.57
  -9  10   2  170.48   23.63
   9 -10  -1  443.24   30.07
  -9  10   1  392.40   36.22
   9 -10   0  282.11   22.99
  -9  10   0  265.06   30.78
   9 -10   1  277.75   22.19
  -9  10  -1  265.35   31.25
   9 -10   2  323.48   23.03
  -9  10  -2  289.35   34.24
   9 -10   3  224.67   18.93
  -9  10  -3  281.34   32.98
  -9  10  -4   75.27   18.99
   9 -10   4   57.55   10.10
  -9  10  -5  377.99   35.48
  -9  10  -6  169.95   25.45
  -9  10  -7   24.37    7.26
  -9  10  -7   36.37   13.63
  -9  10  -8  132.11   14.43
  -9  10  -8   96.29   17.43
  -9  10  -9  175.70   17.38
  -9   9   8   41.65   11.93
   9  -9  -8   58.57   15.84
  -9   9   7   22.29    8.30
   9  -9  -7   17.95    9.84
  -9   9   7   43.15   11.84
  -9   9   6  109.15   16.61
   9  -9  -6   80.10   15.41
  -9   9   6   72.72   14.32
   9  -9  -5  137.96   19.41
  -9   9   5  129.44   17.96
   9  -9  -4    0.24    6.01
  -9   9   4    8.40    7.90
   9  -9  -3  163.63   19.31
  -9   9   3  128.82   19.04
   9  -9  -2  383.59   27.73
  -9   9   2  376.11   33.85
   9  -9  -1   25.45    8.44
  -9   9   1    8.77    8.16
   9  -9   0  102.50   13.50
  -9   9   0  109.07   20.22
   9  -9   1  170.60   16.53
  -9   9  -1  146.79   23.28
  -9   9  -2   39.70   13.86
   9  -9   2   41.88    8.53
   9  -9   3  342.64   22.34
  -9   9  -3  379.10   35.35
   9  -9   4  177.13   15.88
  -9   9  -4  180.49   24.53
  -9   9  -5   48.45   13.22
  -9   9  -6  169.51   15.33
  -9   9  -6  200.16   24.31
  -9   9  -7   72.96   10.80
  -9   9  -7   75.20   15.87
  -9   9  -8   -7.47    5.81
  -9   9  -9  115.96   14.54
   9  -8 -10   73.36   16.10
  -9   8   9  270.38   26.45
   9  -8  -9  291.46   28.89
  -9   8   8   30.92   10.61
   9  -8  -8   28.79   11.95
  -9   8   7  106.00   17.05
   9  -8  -7  124.12   19.27
  -9   8   7  106.75   15.94
  -9   8   6  375.14   29.38
   9  -8  -6  360.84   30.48
  -9   8   6  336.40   28.10
  -9   8   5   90.45   14.74
   9  -8  -5  111.97   17.43
  -9   8   5   84.27   15.23
   9  -8  -4  252.49   23.57
  -9   8   4  239.63   24.30
   9  -8  -3  607.98   35.14
  -9   8   3  536.13   38.00
  -9   8   2   81.40   16.40
   9  -8  -2   76.26   12.48
   9  -8  -1  241.94   20.56
  -9   8   1  193.99   24.01
   9  -8   0  288.90   21.53
  -9   8   0  254.37   27.96
  -9   8  -1   49.61   15.33
   9  -8   1   47.36    9.22
   9  -8   2  275.42   19.91
  -9   8  -2  262.96   28.95
   9  -8   3  177.63   15.65
  -9   8  -3  216.34   25.50
   9  -8   4   15.57    5.23
  -9   8  -4   10.35    4.98
  -9   8  -4   12.72    9.62
  -9   8  -5   68.59    9.82
  -9   8  -5   64.98   14.17
  -9   8  -6  139.35   14.42
  -9   8  -6  180.18   21.55
  -9   8  -7   31.20    8.17
  -9   8  -7   27.47   10.02
  -9   8  -8   15.63    6.43
  -9   8  -9  104.51   14.39
   9  -7 -11  104.94   17.22
  -9   7  10    8.19    7.04
   9  -7 -10   -5.71    8.79
  -9   7   9  254.60   25.04
   9  -7  -9  217.02   24.29
  -9   7   8  289.85   25.95
   9  -7  -8  291.37   27.60
  -9   7   8  280.59   24.37
  -9   7   7   88.83   14.58
  -9   7   7   90.01   15.08
   9  -7  -7   97.44   16.68
  -9   7   6  233.68   22.55
   9  -7  -6  196.88   21.45
  -9   7   5  770.46   41.42
   9  -7  -5  769.63   41.36
  -9   7   4  106.57   15.42
   9  -7  -4  114.86   15.46
   9  -7  -3  270.33   22.40
   9  -7  -2  718.10   35.40
   9  -7  -1  327.91   22.67
   9  -7   0  519.99   28.13
   9  -7   1  709.48   32.41
   9  -7   2  238.80   18.02
  -9   7  -3  267.86   17.73
   9  -7   3  290.81   19.21
  -9   7  -4  265.33   18.21
   9  -7   4  271.29   18.45
  -9   7  -5   34.35   11.46
  -9   7  -5   47.98    8.50
  -9   7  -6  239.82   18.76
  -9   7  -6  278.46   24.91
  -9   7  -7  167.45   16.46
  -9   7  -7  201.79   21.41
  -9   7  -8    5.22    5.08
  -9   7  -9   37.43    9.78
   9  -6 -12   80.45   14.91
  -9   6  11   44.20   12.97
   9  -6 -11   13.68   10.05
  -9   6  10   55.75   13.74
   9  -6 -10   75.88   15.74
  -9   6   9  178.42   20.96
   9  -6  -9  178.82   21.60
  -9   6   8    1.86    5.91
   9  -6  -8   -1.77    7.71
  -9   6   7  139.80   17.91
   9  -6  -7  123.39   17.55
  -9   6   6  339.92   27.28
   9  -6  -6  402.50   29.20
  -9   6   5    5.68    6.19
   9  -6  -5   12.04    6.99
  -9   6   4  232.87   21.29
   9  -6  -4  205.30   19.40
  -9   6   3   93.89   13.81
   9  -6  -3   79.09   11.76
   9  -6  -2   11.94    5.37
   9  -6  -1  490.93   27.24
   9  -6   0   58.80    9.80
   9  -6   1   48.14    7.96
   9  -6   2   77.69   10.15
  -9   6  -2   89.61    9.95
   9  -6   3    5.33    4.09
  -9   6  -3    4.15    4.18
  -9   6  -4  149.19   13.90
   9  -6   4  138.77   13.60
  -9   6  -5   25.79    6.44
   9  -6   5   20.51    5.61
  -9   6  -6   17.53    5.91
  -9   6  -7   85.97   12.18
  -9   6  -8   -9.73    6.35
  -9   6  -9   61.39   12.19
  -9   5  12  116.81   18.89
   9  -5 -12   91.26   15.97
  -9   5  11  486.52   36.12
   9  -5 -11  464.68   34.15
  -9   5  10   64.73   14.32
   9  -5 -10  105.19   16.45
  -9   5   9   27.80    9.23
   9  -5  -9   31.88    9.91
  -9   5   8  912.94   46.38
   9  -5  -8  912.54   46.69
  -9   5   7  125.75   16.68
   9  -5  -7  150.38   18.22
  -9   5   6  248.96   22.21
   9  -5  -6  241.24   22.06
  -9   5   5 1265.75   50.17
   9  -5  -5 1242.66   50.47
  -9   5   4  491.52   28.83
   9  -5  -4  445.90   27.99
  -9   5   3  326.01   22.55
   9  -5  -3  298.63   21.87
   9  -5  -2 1417.60   49.83
   9  -5  -1  115.11   12.98
   9  -5   0  295.92   20.46
  -9   5  -1  481.96   23.10
   9  -5   1  478.15   25.81
   9  -5   2   40.29    8.28
  -9   5  -2   35.17    6.85
  -9   5  -3  189.16   15.27
   9  -5   3  206.52   16.67
  -9   5  -4  366.57   22.13
   9  -5   4  326.78   21.34
  -9   5  -5   -1.51    5.41
   9  -5   5    0.27    3.90
  -9   5  -6   -1.44    4.78
  -9   5  -7  206.59   19.04
  -9   5  -8   42.32   10.48
   9  -4 -12   27.15    8.88
  -9   4  12   16.67    8.54
   9  -4 -11   39.67   12.73
  -9   4  11   46.34   11.70
   9  -4 -10  128.17   17.59
  -9   4  10  137.67   18.58
   9  -4  -9    7.02    7.69
  -9   4   9   24.12    9.64
   9  -4  -8   49.40   11.23
  -9   4   8   87.93   13.85
  -9   4   7  687.62   36.17
   9  -4  -7  614.60   35.89
   9  -4  -6   17.48    8.06
  -9   4   6   25.77    8.47
   9  -4  -5   35.47    9.20
   9  -4  -4  718.80   35.04
   9  -4  -3   32.36    7.71
   9  -4  -2  294.14   21.12
   9  -4  -1  510.30   27.76
   9  -4   0  103.83   12.53
  -9   4  -1  322.72   18.87
   9  -4   1  334.78   22.19
  -9   4  -2  380.79   21.33
   9  -4   2  380.37   23.60
  -9   4  -3    2.50    3.58
   9  -4   3   -1.29    4.05
  -9   4  -4  161.92   14.74
   9  -4   4  152.11   14.94
   9  -4   5   42.04    8.72
  -9   4  -5   29.77    6.82
  -9   4  -6   -4.21    6.02
  -9   4  -7   73.27   12.52
  -9   4  -8   33.35    9.55
   9  -3 -12    9.49    6.79
  -9   3  12   12.62    8.14
  -9   3  11  669.17   40.97
   9  -3 -11  604.61   38.77
   9  -3 -10   26.04    8.22
  -9   3  10   49.83   11.29
   9  -3  -9   44.23   10.76
  -9   3   9   76.53   13.44
   9  -3  -8  950.35   46.03
   9  -3  -7   91.85   13.94
   9  -3  -6   98.54   13.94
   9  -3  -5  841.89   39.74
   9  -3  -4    8.06    4.46
   9  -3  -3  235.67   19.69
   9  -3  -2  337.48   23.69
   9  -3  -1   -0.16    5.17
  -9   3   0   91.41    9.81
   9  -3   0  111.33   13.44
  -9   3  -1  318.90   18.93
   9  -3   1  295.72   21.45
  -9   3  -2  141.39   13.03
   9  -3   2  123.47   14.12
   9  -3   3   11.87    6.19
  -9   3  -3   12.75    5.02
   9  -3   4  120.56   14.12
  -9   3  -4  112.11   12.43
   9  -3   5  133.52   15.60
  -9   3  -5  104.77   13.12
  -9   3  -6   -0.41    5.25
  -9   3  -7  130.74   16.72
  -9   2  13  295.48   28.57
  -9   2  12   26.16   10.77
   9  -2 -12   20.53    9.91
   9  -2 -11   38.46   11.57
  -9   2  11   31.93    9.44
   9  -2 -10  905.31   48.57
   9  -2  -9  101.45   15.96
   9  -2  -8   12.37    8.20
   9  -2  -7 1154.99   50.92
   9  -2  -6  128.29   16.57
   9  -2  -5  188.97   18.77
   9  -2  -4 1214.69   49.26
   9  -2  -3  184.84   18.19
   9  -2  -2  106.72   13.72
   9  -2  -1  708.51   35.60
   9  -2   0   11.66    5.90
  -9   2   0    6.04    3.39
   9  -2   1  109.25   13.67
  -9   2  -1  116.95   11.66
  -9   2  -2  291.10   18.99
   9  -2   2  297.45   22.77
  -9   2  -3    6.99    5.07
   9  -2   3   10.19    6.35
   9  -2   4   31.82    9.24
  -9   2  -4   37.13    8.10
   9  -2   5  206.40   20.00
  -9   2  -5  241.52   20.36
  -9   2  -6   27.30    7.02
  -9   2  -7    3.76    6.43
  -9   1  13   12.38    8.58
   9  -1 -12   83.96   14.84
   9  -1 -11  395.65   33.21
   9  -1 -10   -7.33    9.23
   9  -1  -9   69.29   14.29
   9  -1  -8  122.12   17.08
   9  -1  -7    3.95    6.66
   9  -1  -6  323.20   25.90
   9  -1  -5   30.77    8.86
   9  -1  -4   10.01    5.73
   9  -1  -3  217.62   20.10
   9  -1  -2   33.15    8.94
   9  -1  -1  260.69   21.86
   9  -1   0   99.79   14.23
  -9   1   0   82.17    9.81
  -9   1  -1    4.19    3.70
   9  -1   1    5.65    4.82
   9  -1   2  198.75   19.86
  -9   1  -2  214.55   16.72
   9  -1   3   36.12    9.57
  -9   1  -3   37.83    8.00
   9  -1   4   67.36   12.53
  -9   1  -4   55.72   10.03
   9  -1   5  199.64   20.68
  -9   1  -5  164.70   17.19
  -9   1  -6   -0.08    6.66
   9   0 -13  886.42   49.71
   9   0 -12   -1.41    7.71
   9   0 -11    4.69    9.19
   9   0 -10  944.75   52.51
   9   0  -9   83.88   15.23
   9   0  -8   11.62    8.48
   9   0  -7 1219.58   55.12
   9   0  -6   65.18   12.73
   9   0  -5    2.58    5.43
   9   0  -4  555.32   34.26
   9   0  -3    2.72    6.16
   9   0  -2   49.47   11.03
   9   0  -1  335.40   26.50
   9   0   0    7.10    6.62
  -9   0   0    6.58    4.76
   9   0   1    6.69    6.88
  -9   0  -1    4.51    3.76
   9   0   2  221.40   22.31
  -9   0  -2  193.01   16.25
   9   0   3  197.73   21.11
  -9   0  -3  165.35   15.60
  -9   0  -4    1.71    4.36
  -9   0  -5   88.03   13.48
   9   1 -13    8.64   11.15
   9   1 -12  345.76   30.73
   9   1 -11    8.03   10.95
   9   1 -11   -3.26    7.10
   9   1 -10   -0.71    7.91
   9   1  -9  688.62   44.46
   9   1  -8   15.38    7.87
   9   1  -7   21.03    9.44
   9   1  -6  417.13   31.68
   9   1  -5   27.41   10.18
   9   1  -4  114.72   16.80
   9   1  -3  492.03   33.85
   9   1  -2   19.69    8.62
   9   1  -1   69.12   13.47
   9   1   0  131.92   18.24
  -9  -1   0   95.54   10.52
   9   1   1    7.14    7.03
  -9  -1  -1   -2.52    4.83
  -9  -1  -2  100.33   11.96
   9   1   2  106.89   16.97
  -9  -1  -2   78.12   17.00
  -9  -1  -3   30.54    8.35
   9   2 -11   -1.19    6.39
   9   2 -11   21.07   12.51
   9   2 -10  536.84   42.86
   9   2 -10  533.82   38.73
   9   2  -9    2.71   10.88
   9   2  -8   17.65    9.50
   9   2  -7  195.95   23.64
   9   2  -6   27.77   10.42
   9   2  -5   60.59   13.57
   9   2  -4  129.23   18.50
   9   2  -3  118.89   18.23
   9   2  -2    5.83    7.06
   9   2  -1   31.54   10.74
   9   2   0  242.80   25.90
  -9  -2   0  291.50   27.32
  -9  -2  -1   -7.74    9.06
  -9  -2  -2   -4.28    8.28
   9   3 -11    9.17   11.06
   9   3 -10   -1.44   10.40
   9   3  -9  598.21   42.77
   9   3  -9  705.38   50.22
   9   3  -8   43.08   12.88
   9   3  -8   24.63   11.98
   9   3  -7   17.15   12.65
   9   3  -6  566.34   41.80
   9   3  -5   12.95    8.12
   9   3  -4   12.02    7.97
   9   3  -3  100.74   17.79
  -9  -3   2   12.28    5.66
  -9  -3   1   26.29   10.41
 -10  11   3   23.87   11.80
 -10  11   2    3.08    9.15
  10 -11  -1  201.13   21.63
 -10  11   1  191.27   28.19
  10 -11   0   28.04    8.15
 -10  11   0   23.50   12.96
  10 -11   1    5.23    5.30
 -10  11  -1   -1.80   12.27
  10 -11   2  134.85   16.02
 -10  11  -2  127.95   24.87
 -10  11  -3    3.69   12.40
  10 -11   3    1.85    4.90
 -10  10   6   25.01    9.88
 -10  10   5    6.51    8.14
  10 -10  -4  155.06   21.32
 -10  10   4  200.64   25.38
  10 -10  -3   84.65   15.72
 -10  10   3   81.36   16.97
  10 -10  -2    6.59    5.92
 -10  10   2   33.27   13.65
  10 -10  -1  181.63   19.84
 -10  10   1  191.13   27.02
 -10  10   0  142.83   24.41
  10 -10   0  134.06   16.98
 -10  10  -1   19.21   12.14
  10 -10   1   33.75    9.29
 -10  10  -2   77.52   18.95
  10 -10   2  105.89   13.95
  10 -10   3  370.89   25.06
 -10  10  -3  348.61   37.48
 -10  10  -4   55.19   16.39
 -10  10  -5   41.27   15.48
 -10  10  -6  310.78   32.09
 -10  10  -7   67.08   17.01
 -10   9   7   23.83   10.54
  10  -9  -6  215.05   25.40
 -10   9   6  202.59   23.60
  10  -9  -5    0.55    6.78
 -10   9   5   -9.01    7.87
 -10   9   4   59.74   14.87
  10  -9  -4   65.24   13.42
  10  -9  -3  252.26   24.12
 -10   9   3  263.81   28.92
 -10   9   2    3.00    8.95
  10  -9  -2    9.59    6.74
 -10   9   1   54.35   16.56
  10  -9  -1   35.02    8.73
 -10   9   0   43.98   14.84
  10  -9   0   51.03   10.44
 -10   9  -1  104.89   21.22
  10  -9   1   83.68   12.61
 -10   9  -2   85.04   20.26
  10  -9   2   87.25   12.47
  10  -9   3   34.21    8.33
 -10   9  -3   23.82   13.69
  10  -9   4   95.34   12.46
 -10   9  -4   92.94   19.58
 -10   9  -5    2.96    8.33
 -10   9  -6   12.95    5.60
 -10   9  -6   27.32   11.72
 -10   9  -7  196.91   17.79
 -10   9  -7  172.97   22.76
 -10   8   9   45.45   12.68
 -10   8   8   -6.43    7.61
 -10   8   8    0.69    8.15
 -10   8   7   47.07   12.37
 -10   8   7   79.92   15.36
  10  -8  -7   53.61   12.11
 -10   8   6   93.32   16.49
  10  -8  -6   95.04   17.42
 -10   8   5   17.83    9.62
  10  -8  -5   13.55    7.44
 -10   8   4   99.35   17.38
  10  -8  -4  103.73   15.57
  10  -8  -3  405.66   29.13
 -10   8   3  334.20   31.94
  10  -8  -2    2.18    5.18
  10  -8  -1   12.20    6.36
  10  -8   0  694.00   35.15
 -10   8  -1  -17.85   12.51
  10  -8   1    2.78    4.91
  10  -8   2   43.92    9.06
 -10   8  -2   21.60    9.13
 -10   8  -3  491.01   39.62
  10  -8   3  483.13   27.02
  10  -8   4   82.98   11.23
 -10   8  -4  110.25   19.38
 -10   8  -5   58.42    9.87
 -10   8  -5   50.01   12.56
 -10   8  -6  304.08   22.09
 -10   8  -6  411.49   32.77
 -10   8  -7   50.68    9.95
 -10   7  10    8.81    8.15
  10  -7 -10   17.69   11.91
 -10   7   9  401.99   32.46
  10  -7  -9  367.36   32.91
 -10   7   8   -4.90    7.36
 -10   7   8    6.19    6.37
  10  -7  -8   14.28    9.65
 -10   7   7    6.02    7.23
  10  -7  -7   10.01    8.59
 -10   7   6  382.63   30.46
  10  -7  -6  357.40   30.29
  10  -7  -5  111.93   16.90
  10  -7  -4    8.47    7.59
  10  -7  -3  102.02   14.79
  10  -7  -2  221.90   20.16
  10  -7  -1   -1.40    4.43
  10  -7   0  106.97   13.41
  10  -7   1  647.16   32.25
  10  -7   2   30.85    7.67
  10  -7   3   27.50    6.69
 -10   7  -3   19.91    5.87
 -10   7  -4  620.95   30.27
  10  -7   4  600.71   30.44
 -10   7  -5   29.99    8.01
 -10   7  -6   38.08   11.09
 -10   7  -6   44.44    9.18
 -10   7  -7  271.01   21.96
  10  -6 -11   92.97   18.01
 -10   6  10   14.67    7.47
  10  -6 -10    9.81    9.04
 -10   6   9   42.61   11.80
  10  -6  -9   49.56   12.83
 -10   6   8  112.31   17.58
  10  -6  -8  131.02   19.12
 -10   6   7   15.15    9.20
  10  -6  -7   24.03    9.76
 -10   6   6  281.35   25.84
  10  -6  -6  231.75   23.59
 -10   6   5   70.30   13.20
  10  -6  -5   70.38   13.22
  10  -6  -4   -1.01    5.93
  10  -6  -3  369.37   26.25
  10  -6  -2   16.49    6.15
  10  -6  -1   40.93    8.91
  10  -6   0  422.09   26.17
  10  -6   1    2.45    4.42
  10  -6   2   62.57   10.08
 -10   6  -3  296.87   20.12
  10  -6   3  307.20   21.55
 -10   6  -4    1.26    4.07
  10  -6   4    3.63    5.48
 -10   6  -5  146.31   15.32
 -10   6  -6   69.89   11.31
 -10   6  -7    0.51    5.50
  10  -5 -12  287.23   28.43
  10  -5 -11   70.62   14.86
 -10   5  11   51.28   13.66
  10  -5 -10    8.83    8.98
 -10   5  10   21.15    9.35
  10  -5  -9  152.80   20.56
 -10   5   9  185.44   22.25
 -10   5   8  314.40   27.79
  10  -5  -8  280.06   26.63
  10  -5  -7   -1.39    6.81
 -10   5   7    0.98    5.48
  10  -5  -6   41.42   10.70
 -10   5   6   36.46   10.53
 -10   5   5  448.49   29.78
  10  -5  -5  460.03   30.72
  10  -5  -4   10.82    6.81
 -10   5   4   12.14    7.31
  10  -5  -3   19.43    7.84
  10  -5  -2 1127.50   46.04
  10  -5  -1   36.93    8.61
  10  -5   0    3.52    4.61
  10  -5   1  968.53   41.19
 -10   5  -2   56.83    9.14
  10  -5   2   39.43    8.54
 -10   5  -3   23.84    7.73
  10  -5   3   14.34    7.05
 -10   5  -4  718.84   33.90
  10  -5   4  738.23   35.25
 -10   5  -5   63.01   10.57
 -10   5  -6   15.11    6.39
  10  -4 -12  -11.45    7.88
  10  -4 -11  206.67   23.78
 -10   4  11  197.73   23.67
  10  -4 -10   15.77    7.32
 -10   4  10   13.48    9.33
  10  -4  -9   69.04   14.44
 -10   4   9   58.41   12.79
 -10   4   8  280.87   24.94
  10  -4  -8  287.94   26.85
  10  -4  -7    2.66    5.53
 -10   4   7    4.16    6.24
  10  -4  -6   27.64    8.57
  10  -4  -5   96.53   14.11
  10  -4  -4  179.96   19.15
  10  -4  -3  150.92   16.82
  10  -4  -2    2.66    6.12
  10  -4  -1  197.19   18.60
  10  -4   0   39.00    9.21
 -10   4  -1   23.89    6.45
  10  -4   1   24.75    7.25
 -10   4  -2  380.79   22.80
  10  -4   2  438.65   27.45
  10  -4   3    7.70    4.85
 -10   4  -3    2.80    4.87
  10  -4   4    0.96    5.18
 -10   4  -4    5.53    4.73
 -10   4  -5  270.27   21.51
 -10   4  -6    7.30    6.15
  10  -3 -12   15.89    9.98
 -10   3  11  226.88   24.31
  10  -3 -11  221.58   25.69
  10  -3 -10   63.19   14.35
 -10   3  10   77.77   14.80
  10  -3  -9    1.05    7.38
 -10   3   9   23.73    8.42
  10  -3  -8  385.58   31.30
  10  -3  -7   25.41    9.60
  10  -3  -6   13.76    7.83
  10  -3  -5  867.50   43.81
  10  -3  -4   15.11    7.47
  10  -3  -3   39.91    9.59
  10  -3  -2  783.65   39.17
  10  -3  -1    3.53    5.45
  10  -3   0    8.71    6.70
 -10   3  -1  816.29   33.81
  10  -3   1  876.74   40.85
  10  -3   2   14.96    6.60
 -10   3  -2   23.99    6.78
  10  -3   3   -4.77    6.07
 -10   3  -3   -4.92    5.05
  10  -3   4  416.38   28.77
 -10   3  -4  420.47   26.41
 -10   3  -5    4.96    6.27
  10  -2 -12   21.46   13.16
 -10   2  11  229.92   23.87
  10  -2 -11  226.96   26.63
  10  -2 -10  255.13   27.42
  10  -2  -9    3.01    7.40
  10  -2  -8   42.79   11.72
  10  -2  -7  373.56   30.15
  10  -2  -6   17.80    9.05
  10  -2  -5    9.29    6.23
  10  -2  -4  535.26   33.78
  10  -2  -3   -2.28    5.14
  10  -2  -2    8.63    6.60
  10  -2  -1  950.62   44.98
  10  -2   0    8.46    6.43
  10  -2   1   22.44    8.57
 -10   2  -1   17.44    6.14
  10  -2   2  586.78   34.69
 -10   2  -2  537.71   28.07
  10  -2   3    8.27    6.83
 -10   2  -3   17.74    6.16
 -10   2  -4    1.63    4.49
  10  -2   4   11.81    7.42
  10  -1 -12   10.87    8.92
  10  -1 -11   79.52   16.95
  10  -1 -10   73.59   16.39
  10  -1  -9   27.10   10.58
  10  -1  -8  333.61   30.04
  10  -1  -7  163.62   20.55
  10  -1  -6    9.73    8.08
  10  -1  -5  343.73   28.02
  10  -1  -4    6.61    6.15
  10  -1  -3    8.63    5.70
  10  -1  -2  408.39   30.23
  10  -1  -1   -5.75    6.71
 -10   1   0   22.82    6.13
  10  -1   0   34.71    9.66
  10  -1   1  116.74   16.71
 -10   1  -1  121.43   12.98
  10  -1   2    5.61    6.83
 -10   1  -2    0.34    4.32
  10  -1   3  100.22   16.05
 -10   1  -3   80.06   11.67
 -10   1  -4   40.92    9.70
  10  -1   4   43.21   11.75
  10   0 -11  -10.25   10.98
  10   0 -10  320.21   32.88
  10   0  -9   57.28   14.28
  10   0  -8   15.77    7.89
  10   0  -7  737.00   45.01
  10   0  -6    3.27    6.44
  10   0  -5   86.19   15.81
  10   0  -4  992.98   50.07
  10   0  -3   17.28    8.50
  10   0  -2   60.24   13.12
  10   0  -1  738.53   43.30
  10   0   0   22.04    9.82
  10   0   1    8.33    7.73
 -10   0  -1    8.57    5.25
  10   0   2  515.80   36.45
 -10   0  -2  513.03   28.10
 -10   0  -3    0.57    5.95
  10   1 -11   37.22   14.05
  10   1 -10  132.46   21.33
  10   1  -9   66.42   16.34
  10   1  -8   91.59   17.55
  10   1  -7    6.48    9.05
  10   1  -6   96.20   17.38
  10   1  -5  153.75   20.81
  10   1  -4    4.86    8.60
  10   1  -3  191.55   23.32
  10   1  -2   35.81   12.43
  10   1  -1   17.23    8.59
  10   2  -9   77.79   17.89
  10   2  -8  103.46   19.89
  10   2  -7  545.10   41.89
  10   2  -6   46.21   14.11
 -11  10   2  -15.75   10.12
  11 -10  -1  524.16   34.32
 -11  10   1  560.52   48.35
 -11  10   0    9.77   11.21
  11 -10   0    7.38    7.19
 -11  10  -1   -1.90   10.96
  11 -10   1   -0.60    6.26
  11 -10   2  407.25   27.84
  11 -10   3   41.94    9.72
 -11   9   6  135.88   20.78
 -11   9   5   59.86   15.76
 -11   9   4    7.73    9.09
  11  -9  -4    3.64    6.80
  11  -9  -3  421.39   31.70
 -11   9   3  361.28   35.49
 -11   9   2    1.27    8.60
  11  -9  -2   24.37    9.08
 -11   9   1    0.62   10.50
  11  -9  -1   14.54    7.53
 -11   9   0  385.05   40.72
  11  -9   0  426.07   29.19
  11  -9   1   19.00    7.56
 -11   9  -1   15.21   10.77
  11  -9   2   13.88    6.88
 -11   9  -2    1.44   10.24
 -11   9  -3  279.67   33.12
  11  -9   3  260.43   21.33
 -11   9  -4    2.60    8.68
 -11   8   8   32.53   11.84
 -11   8   7  270.51   27.89
 -11   8   6   39.39   12.42
  11  -8  -6   59.20   14.05
  11  -8  -5    6.10    7.85
  11  -8  -4  381.23   30.55
  11  -8  -3   22.69    9.22
  11  -8  -2    5.71    6.13
  11  -8  -1  227.71   21.47
  11  -8   0   76.03   12.37
  11  -8   1    9.88    5.94
  11  -8   2   36.27    8.56
  11  -8   3  104.46   13.59
 -11   8  -3  100.41   19.11
 -11   8  -4   26.46   11.36
 -11   8  -5   18.24   11.07
 -11   8  -6  230.49   26.25
 -11   7   9  340.79   30.85
  11  -7  -7   65.38   14.37
  11  -7  -6  761.17   45.36
  11  -7  -5   51.49   12.65
  11  -7  -4   87.05   15.01
  11  -7  -3  568.27   35.20
  11  -7  -2   45.59   10.52
  11  -7  -1   19.84    8.07
  11  -7   0  434.08   28.47
  11  -7   1   -1.53    4.92
  11  -7   2    5.20    5.21
  11  -7   3  214.41   19.23
 -11   7  -4  105.20   13.04
  11  -6  -9   28.42   12.26
 -11   6   9    5.65    7.93
  11  -6  -8   44.22   12.40
 -11   6   8   49.75   12.34
  11  -6  -7  221.70   24.75
  11  -6  -6    9.45    7.66
  11  -6  -5   69.41   14.17
  11  -6  -4   43.79   10.88
  11  -6  -3   25.92    8.84
  11  -6  -2  245.49   22.13
  11  -6  -1   31.27    9.88
  11  -6   0   33.26    8.91
  11  -6   1  114.72   14.50
  11  -6   2    6.15    5.23
 -11   6  -3  178.15   16.68
  11  -6   3  162.70   17.19
 -11   6  -4   78.20   11.55
  11  -5 -10  112.38   19.11
 -11   5  10  138.83   20.32
 -11   5   9  510.68   38.06
  11  -5  -9  474.54   37.60
 -11   5   8  246.86   25.64
  11  -5  -8  215.33   24.68
  11  -5  -7  109.02   17.39
 -11   5   7  100.31   17.05
  11  -5  -6  453.06   33.46
  11  -5  -5  113.21   16.63
  11  -5  -4   37.44   10.66
  11  -5  -3  378.29   27.99
  11  -5  -2   93.87   14.23
  11  -5  -1   27.81    8.98
  11  -5   0   93.45   13.54
  11  -5   1  187.68   18.83
  11  -5   2   13.05    6.80
  11  -5   3   29.17    9.12
 -11   5  -3   22.69    6.93
 -11   5  -4  158.13   16.45
  11  -4 -10  151.57   22.12
 -11   4  10  150.69   21.25
  11  -4  -9  -12.87   10.25
 -11   4   9   -6.55    7.77
 -11   4   8  302.69   27.00
  11  -4  -8  270.27   27.84
  11  -4  -7  122.89   19.17
 -11   4   7  111.00   16.66
  11  -4  -6   16.29    8.11
  11  -4  -5  495.25   34.48
  11  -4  -4  115.25   15.94
  11  -4  -3    4.74    6.05
  11  -4  -2  262.15   23.45
  11  -4  -1   29.44    9.60
  11  -4   0    0.92    5.41
  11  -4   1  210.21   20.35
  11  -4   2    9.13    7.56
 -11   4  -2    7.09    5.82
  11  -4   3   18.08    7.50
 -11   4  -3   26.88    7.24
 -11   3  10    3.98    7.26
  11  -3 -10   -0.55    9.15
 -11   3   9  147.39   19.65
  11  -3  -9  134.17   20.73
  11  -3  -8   88.74   17.05
  11  -3  -7    7.40    7.43
  11  -3  -6  269.25   26.54
  11  -3  -5  159.68   19.84
  11  -3  -4    8.48    6.75
  11  -3  -3   16.31    7.47
  11  -3  -2   92.71   14.31
  11  -3  -1   99.45   14.95
  11  -3   0    4.27    6.07
  11  -3   1  163.34   19.15
 -11   3  -2   33.18    8.26
  11  -3   2   17.56    7.81
  11  -3   3   15.94    8.27
  11  -2 -10  199.93   26.20
  11  -2  -9  154.83   22.79
  11  -2  -8  323.03   31.17
  11  -2  -7  269.39   27.94
  11  -2  -6   48.72   12.25
  11  -2  -5  262.63   25.62
  11  -2  -4   76.94   14.85
  11  -2  -3    4.80    7.39
  11  -2  -2  164.51   20.02
  11  -2  -1  129.28   17.59
  11  -2   0    9.21    6.12
  11  -2   1   -4.75    6.45
  11  -2   2  123.40   17.48
 -11   2  -2  120.14   14.23
  11  -1  -9  151.12   22.75
  11  -1  -8   17.70   10.47
  11  -1  -7  182.28   23.72
  11  -1  -6   26.17    9.48
  11  -1  -5   -5.95    6.06
  11  -1  -4  245.73   25.69
  11  -1  -3    4.14    6.59
  11  -1  -2   95.36   15.94
  11  -1  -1   85.60   15.48
  12  -8   0  155.33   18.32
  12  -8   1   43.86   10.21
  12  -8   2  149.93   17.70
  12  -7  -3  202.02   22.53
  12  -7  -2  247.61   24.12
  12  -7  -1   55.42   11.27
  12  -7   0  172.94   19.35
  12  -7   1  135.56   17.35
  12  -7   2   67.60   12.72
  12  -6  -4  157.23   20.11
  12  -6  -3  168.45   20.13
  12  -6  -2   -8.70    7.86
  12  -6  -1   93.81   15.40
  12  -6   0   10.55    6.18
  12  -6   1  -10.25    7.45
  12  -6   2  157.25   18.15
  12  -5  -4   57.71   13.57
  12  -5  -3  218.16   23.41
  12  -5  -2  337.43   28.37
  12  -5  -1  204.31   21.72
  12  -5   0  271.18   24.53
  12  -4  -3    8.59    8.06

TITL dan_83 in P-1
REM P-1 (#2 in standard setting)
CELL 0.71073   8.247263   8.772276  11.377921 104.0127  98.9298 116.2235
ZERR    1.00   0.000562   0.000592   0.000646   0.0053   0.0053   0.0070
LATT  1
SFAC C H N O Cl Pt
UNIT 32.00 39.00 5.00 2.00 2.00 2.00
TREF
HKLF 4
END
_computing_structure_solution     'SHELXS-97 (Sheldrick, 1997)'
;
_shelx_hkl_checksum              68824
loop_
_space_group_symop_operation_xyz
'x, y, z'
'-x, -y, -z'
loop_
_atom_site_label
_atom_site_type_symbol
_atom_site_fract_x
_atom_site_fract_y
_atom_site_fract_z
_atom_site_U_iso_or_equiv
_atom_site_adp_type
_atom_site_occupancy
_atom_site_site_symmetry_order
_atom_site_calc_flag
_atom_site_refinement_flags_posn
_atom_site_refinement_flags_adp
_atom_site_refinement_flags_occupancy
Pt1 Pt 0.0000 0.5000 0.5000 0.01457(7) Uani 1 2 d S . P
I2S I -0.02760(4) 0.58981(4) 0.17385(3) 0.01844(8) Uani 1 1 d . . .
I1S I -0.03066(5) 0.99163(4) 0.17539(3) 0.01918(8) Uani 1 1 d . . .
I3S I 0.36284(5) 0.94484(5) 0.13234(4) 0.02815(10) Uani 1 1 d . . .
Cl1 Cl -0.16292(16) 0.27335(16) 0.30236(11) 0.0168(2) Uani 1 1 d . . .
N1 N 0.2385(6) 0.5601(6) 0.4591(4) 0.0193(9) Uani 1 1 d . . .
N2 N 0.5134(6) 0.6112(6) 0.3821(4) 0.0229(10) Uani 1 1 d . . .
C1S C 0.0640(7) 0.8067(7) 0.0996(5) 0.0176(10) Uani 1 1 d . . .
H1S H 0.0024 0.7519 0.0056 0.021 Uiso 1 1 calc R U .
C1 C 0.3706(7) 0.5894(7) 0.4246(5) 0.0196(10) Uani 1 1 d . . .
C4 C 0.4900(7) 0.4598(7) 0.2779(5) 0.0191(10) Uani 1 1 d . . .
H4A H 0.3895 0.3446 0.2792 0.023 Uiso 1 1 calc R U .
H4B H 0.6096 0.4562 0.2913 0.023 Uiso 1 1 calc R U .
C5 C 0.4388(9) 0.4741(9) 0.1497(5) 0.0315(13) Uani 1 1 d . . .
H5A H 0.4177 0.3666 0.0833 0.047 Uiso 1 1 calc R U .
H5B H 0.5425 0.5830 0.1453 0.047 Uiso 1 1 calc R U .
H5C H 0.3229 0.4821 0.1371 0.047 Uiso 1 1 calc R U .
C2 C 0.7022(8) 0.7807(8) 0.4358(6) 0.0313(13) Uani 1 1 d . . .
H2A H 0.7841 0.7686 0.5021 0.038 Uiso 1 1 calc R U .
H2B H 0.7628 0.7961 0.3677 0.038 Uiso 1 1 calc R U .
C3 C 0.6891(10) 0.9434(9) 0.4915(6) 0.0404(16) Uani 1 1 d . . .
H3A H 0.5982 0.9495 0.4289 0.061 Uiso 1 1 calc R U .
H3B H 0.8138 1.0520 0.5158 0.061 Uiso 1 1 calc R U .
H3C H 0.6464 0.9370 0.5668 0.061 Uiso 1 1 calc R U .
loop_
_atom_site_aniso_label
_atom_site_aniso_U_11
_atom_site_aniso_U_22
_atom_site_aniso_U_33
_atom_site_aniso_U_23
_atom_site_aniso_U_13
_atom_site_aniso_U_12
Pt1 0.01340(12) 0.01764(14) 0.01803(13) 0.00942(11) 0.00971(10) 0.00892(10)
I2S 0.01920(16) 0.01926(17) 0.01983(16) 0.00883(13) 0.00986(13) 0.00977(13)
I1S 0.01964(16) 0.02044(17) 0.02029(17) 0.00895(13) 0.00822(13) 0.01071(13)
I3S 0.01842(17) 0.0270(2) 0.0447(2) 0.01874(18) 0.01542(16) 0.01093(15)
Cl1 0.0145(5) 0.0174(6) 0.0171(5) 0.0042(4) 0.0060(4) 0.0073(4)
N1 0.019(2) 0.027(2) 0.020(2) 0.0118(19) 0.0117(18) 0.0136(18)
N2 0.016(2) 0.017(2) 0.024(2) -0.0012(18) 0.0112(18) 0.0007(17)
C1S 0.019(2) 0.019(3) 0.018(2) 0.008(2) 0.009(2) 0.010(2)
C1 0.021(2) 0.019(3) 0.018(2) 0.007(2) 0.007(2) 0.009(2)
C4 0.020(2) 0.020(3) 0.016(2) 0.001(2) 0.010(2) 0.011(2)
C5 0.029(3) 0.039(4) 0.021(3) 0.003(3) 0.003(2) 0.018(3)
C2 0.020(3) 0.032(3) 0.032(3) 0.004(3) 0.014(2) 0.006(2)
C3 0.043(4) 0.029(4) 0.039(4) 0.011(3) 0.005(3) 0.012(3)
loop_
_atom_type_symbol
_atom_type_description
_atom_type_scat_dispersion_real
_atom_type_scat_dispersion_imag
_atom_type_scat_source
C C 0.0033 0.0016 'International Tables Vol C Tables 4.2.6.8 and 6.1.1.4'
H H 0.0000 0.0000 'International Tables Vol C Tables 4.2.6.8 and 6.1.1.4'
Cl Cl 0.1484 0.1585 'International Tables Vol C Tables 4.2.6.8 and 6.1.1.4'
I I -0.4742 1.8119 'International Tables Vol C Tables 4.2.6.8 and 6.1.1.4'
N N 0.0061 0.0033 'International Tables Vol C Tables 4.2.6.8 and 6.1.1.4'
Pt Pt -1.7033 8.3905 'International Tables Vol C Tables 4.2.6.8 and 6.1.1.4'
loop_
_geom_angle_atom_site_label_1
_geom_angle_atom_site_label_2
_geom_angle_atom_site_label_3
_geom_angle
_geom_angle_site_symmetry_1
_geom_angle_site_symmetry_3
N1 Pt1 N1 180.0 . 2_566
N1 Pt1 Cl1 89.39(13) . .
N1 Pt1 Cl1 90.61(13) 2_566 .
N1 Pt1 Cl1 90.61(13) . 2_566
N1 Pt1 Cl1 89.39(13) 2_566 2_566
Cl1 Pt1 Cl1 180.00(6) . 2_566
C1 N1 Pt1 174.4(4) . .
C1 N2 C4 118.3(4) . .
C1 N2 C2 123.5(5) . .
C4 N2 C2 118.1(4) . .
I3S C1S I2S 112.3(2) . .
I3S C1S I1S 111.3(2) . .
I2S C1S I1S 110.5(2) . .
I3S C1S H1S 107.5 . .
I2S C1S H1S 107.5 . .
I1S C1S H1S 107.5 . .
N1 C1 N2 176.4(6) . .
N2 C4 C5 112.7(5) . .
N2 C4 H4A 109.0 . .
C5 C4 H4A 109.0 . .
N2 C4 H4B 109.0 . .
C5 C4 H4B 109.0 . .
H4A C4 H4B 107.8 . .
C4 C5 H5A 109.5 . .
C4 C5 H5B 109.5 . .
H5A C5 H5B 109.5 . .
C4 C5 H5C 109.5 . .
H5A C5 H5C 109.5 . .
H5B C5 H5C 109.5 . .
C3 C2 N2 112.7(5) . .
C3 C2 H2A 109.1 . .
N2 C2 H2A 109.1 . .
C3 C2 H2B 109.1 . .
N2 C2 H2B 109.1 . .
H2A C2 H2B 107.8 . .
C2 C3 H3A 109.5 . .
C2 C3 H3B 109.5 . .
H3A C3 H3B 109.5 . .
C2 C3 H3C 109.5 . .
H3A C3 H3C 109.5 . .
H3B C3 H3C 109.5 . .
loop_
_geom_bond_atom_site_label_1
_geom_bond_atom_site_label_2
_geom_bond_distance
_geom_bond_site_symmetry_2
Pt1 N1 1.962(4) .
Pt1 N1 1.962(4) 2_566
Pt1 Cl1 2.3132(12) .
Pt1 Cl1 2.3132(12) 2_566
I2S C1S 2.147(5) .
I1S C1S 2.153(5) .
I3S C1S 2.130(5) .
N1 C1 1.158(7) .
N2 C1 1.296(7) .
N2 C4 1.466(6) .
N2 C2 1.492(7) .
C1S H1S 1.0000 .
C4 C5 1.505(7) .
C4 H4A 0.9900 .
C4 H4B 0.9900 .
C5 H5A 0.9800 .
C5 H5B 0.9800 .
C5 H5C 0.9800 .
C2 C3 1.473(9) .
C2 H2A 0.9900 .
C2 H2B 0.9900 .
C3 H3A 0.9800 .
C3 H3B 0.9800 .
C3 H3C 0.9800 .
