#------------------------------------------------------------------------------
#$Date: 2016-05-06 03:19:51 +0300 (Fri, 06 May 2016) $
#$Revision: 182609 $
#$URL: svn://www.crystallography.net/cod/cif/7/11/89/7118911.cif $
#------------------------------------------------------------------------------
#
# This file is available in the Crystallography Open Database (COD),
# http://www.crystallography.net/
#
# All data on this site have been placed in the public domain by the
# contributors.
#
data_7118911
loop_
_publ_author_name
'Ivanov, Daniil M.'
'Novikov, Alexander S.'
'Ananyev, Ivan V.'
'Kirina, Yulia V.'
'Kukushkin, Vadim Yu'
_publ_section_title
;
 Halogen bonding between metal centers and halocarbons.
;
_journal_issue                   32
_journal_name_full
'Chemical communications (Cambridge, England)'
_journal_page_first              5565
_journal_page_last               5568
_journal_paper_doi               10.1039/c6cc01107a
_journal_volume                  52
_journal_year                    2016
_chemical_formula_moiety         'C12 H20 Cl2 N4 Pt, 2(C H I3)'
_chemical_formula_sum            'C14 H22 Cl2 I6 N4 Pt'
_chemical_formula_weight         1273.74
_space_group_crystal_system      triclinic
_space_group_IT_number           2
_space_group_name_Hall           '-P 1'
_space_group_name_H-M_alt        'P -1'
_symmetry_space_group_name_Hall  '-P 1'
_symmetry_space_group_name_H-M   'P -1'
_atom_sites_solution_hydrogens   geom
_audit_creation_method           SHELXL-2014/6
_audit_update_record
;
2016-01-11 deposited with the CCDC.
2016-03-16 downloaded from the CCDC.
;
_cell_angle_alpha                113.897(3)
_cell_angle_beta                 100.373(3)
_cell_angle_gamma                107.948(3)
_cell_formula_units_Z            1
_cell_length_a                   9.1680(15)
_cell_length_b                   9.1918(15)
_cell_length_c                   10.1090(16)
_cell_measurement_reflns_used    377
_cell_measurement_temperature    150(2)
_cell_measurement_theta_max      25
_cell_measurement_theta_min      3
_cell_volume                     693.9(2)
_computing_cell_refinement       'Bruker SAINT'
_computing_data_collection       'Bruker APEX II'
_computing_data_reduction        'Bruker SAINT'
_computing_molecular_graphics    'Bruker SHELXTL'
_computing_publication_material  'Bruker SHELXTL'
_computing_structure_refinement  'SHELXL-97 (Sheldrick, 1997)'
_computing_structure_solution    'SHELXS-97 (Sheldrick, 1997)'
_diffrn_ambient_temperature      150(2)
_diffrn_measured_fraction_theta_full 1.000
_diffrn_measured_fraction_theta_max 0.999
_diffrn_measurement_device_type  'Bruker APEX II CCD area detector''
_diffrn_measurement_method       'omega scans'
_diffrn_radiation_type           MoK\a
_diffrn_radiation_wavelength     0.71073
_diffrn_reflns_av_R_equivalents  0.0342
_diffrn_reflns_av_unetI/netI     0.0491
_diffrn_reflns_Laue_measured_fraction_full 1.000
_diffrn_reflns_Laue_measured_fraction_max 0.999
_diffrn_reflns_limit_h_max       12
_diffrn_reflns_limit_h_min       -12
_diffrn_reflns_limit_k_max       12
_diffrn_reflns_limit_k_min       -12
_diffrn_reflns_limit_l_max       13
_diffrn_reflns_limit_l_min       -13
_diffrn_reflns_number            7282
_diffrn_reflns_point_group_measured_fraction_full 1.000
_diffrn_reflns_point_group_measured_fraction_max 0.999
_diffrn_reflns_theta_full        25.242
_diffrn_reflns_theta_max         27.996
_diffrn_reflns_theta_min         2.353
_exptl_absorpt_coefficient_mu    11.930
_exptl_absorpt_correction_T_max  0.261
_exptl_absorpt_correction_T_min  0.176
_exptl_absorpt_correction_type   multi-scan
_exptl_absorpt_process_details   SADABS
_exptl_crystal_colour            yellow
_exptl_crystal_density_diffrn    3.048
_exptl_crystal_description       prism
_exptl_crystal_F_000             564
_exptl_crystal_size_max          0.210
_exptl_crystal_size_mid          0.190
_exptl_crystal_size_min          0.160
_refine_diff_density_max         1.571
_refine_diff_density_min         -1.404
_refine_diff_density_rms         0.214
_refine_ls_extinction_method     none
_refine_ls_goodness_of_fit_ref   0.961
_refine_ls_hydrogen_treatment    constr
_refine_ls_matrix_type           full
_refine_ls_number_parameters     124
_refine_ls_number_reflns         3348
_refine_ls_number_restraints     0
_refine_ls_restrained_S_all      0.961
_refine_ls_R_factor_all          0.0496
_refine_ls_R_factor_gt           0.0333
_refine_ls_shift/su_max          0.000
_refine_ls_shift/su_mean         0.000
_refine_ls_structure_factor_coef Fsqd
_refine_ls_weighting_details
'w=1/[\s^2^(Fo^2^)+(0.0369P)^2^] where P=(Fo^2^+2Fc^2^)/3'
_refine_ls_weighting_scheme      calc
_refine_ls_wR_factor_gt          0.0694
_refine_ls_wR_factor_ref         0.0749
_reflns_Friedel_coverage         0.000
_reflns_number_gt                2623
_reflns_number_total             3348
_reflns_threshold_expression     I>2\s(I)
_cod_data_source_file            c6cc01107a2.cif
_cod_data_source_block           150
_cod_depositor_comments
'Adding full bibliography for 7118900--7118914.cif.'
_cod_database_code               7118911
_shelx_space_group_comment
;
The symmetry employed for this shelxl refinement is uniquely defined
by the following loop, which should always be used as a source of
symmetry information in preference to the above space-group names.
They are only intended as comments.
;
_shelx_estimated_absorpt_t_min   0.188
_shelx_estimated_absorpt_t_max   0.251
_shelxl_version_number           2014/6
_shelx_res_file
;
TITL 150 in P-1
CELL 0.71073   9.1680   9.1918  10.1090 113.897 100.373 107.948
ZERR    1.00   0.0015   0.0015   0.0016   0.003   0.003   0.003
LATT  1
SFAC C H N CL I PT
UNIT 14 22 4 2 6 1
size 0.21 0.19 0.16
L.S. 20
PLAN  20
temp -123.00
BOND $H
fmap 2
conf
htab
omit -4 56
acta

WGHT    0.036900
FVAR       0.10494
PT1   6    0.000000    0.000000    0.000000    10.50000    0.01816    0.01350 =
         0.02636    0.00402    0.01205    0.00527
CL1   4    0.064063   -0.009963    0.227901    11.00000    0.02147    0.02750 =
         0.02584    0.00924    0.01117    0.00741
C3    1    0.709387    0.338642   -0.045667    11.00000    0.03513    0.03885 =
         0.02501    0.00874    0.01850    0.01540
AFIX  23
H3A   2    0.780220    0.293448   -0.097376    11.00000   -1.20000
H3B   2    0.630860    0.347149   -0.120267    11.00000   -1.20000
AFIX   0
C1    1    0.370180    0.197284    0.063845    11.00000    0.03104    0.01271 =
         0.02195    0.00279    0.01330    0.00645
N1    3    0.233365    0.119784    0.037050    11.00000    0.01479    0.01830 =
         0.02597    0.00184    0.00650   -0.00081
C6    1    0.621430    0.461924    0.230792    11.00000    0.02380    0.02585 =
         0.03298   -0.00500    0.01253    0.00043
AFIX  23
H6A   2    0.699163    0.453528    0.306144    11.00000   -1.20000
H6B   2    0.548491    0.505033    0.280544    11.00000   -1.20000
AFIX   0
N2    3    0.523380    0.287184    0.092840    11.00000    0.02302    0.01808 =
         0.03461   -0.00138    0.01684    0.00007
C2    1    0.614574    0.209709    0.002571    11.00000    0.02794    0.01952 =
         0.04380    0.00943    0.02039    0.00530
AFIX  23
H2A   2    0.537914    0.096343   -0.090360    11.00000   -1.20000
H2B   2    0.691957    0.187533    0.065407    11.00000   -1.20000
AFIX   0
C5    1    0.714440    0.588522    0.184559    11.00000    0.02987    0.01589 =
         0.03919    0.01018    0.00891    0.00521
AFIX  23
H5A   2    0.636210    0.609847    0.121695    11.00000   -1.20000
H5B   2    0.788438    0.702087    0.278496    11.00000   -1.20000
AFIX   0
C4    1    0.813563    0.518937    0.093167    11.00000    0.02344    0.03190 =
         0.04977    0.02100    0.01754    0.00285
AFIX  23
H4A   2    0.901555    0.512879    0.160698    11.00000   -1.20000
H4B   2    0.865784    0.601064    0.058088    11.00000   -1.20000
AFIX   0
I1S   5    0.452208    0.161933    0.421827    11.00000    0.02490    0.02082 =
         0.02744    0.01031    0.01200    0.00947
I3S   5    0.818203    0.541499    0.671714    11.00000    0.02938    0.01856 =
         0.03885    0.00860    0.01101    0.00752
I2S   5    0.835436    0.146555    0.416371    11.00000    0.03048    0.02823 =
         0.03298    0.01402    0.01912    0.01517
C1S   1    0.705702    0.257362    0.551313    11.00000    0.02733    0.01561 =
         0.01942    0.00582    0.01078    0.00712
AFIX  13
H1SA  2    0.709287    0.220843    0.632103    11.00000   -1.20000

AFIX   0
HKLF 4

REM  150 in P-1
REM R1 =  0.0333 for    2623 Fo > 4sig(Fo)  and  0.0496 for all    3348 data
REM    124 parameters refined using      0 restraints

END

WGHT      0.0336      0.0000

REM Instructions for potential hydrogen bonds
HTAB C6 I3S
EQIV $1 -x+1, -y+1, -z+1
HTAB C6 I1S_$1
EQIV $2 -x+1, -y, -z
HTAB C2 I1S_$2
EQIV $3 -x+1, -y, -z+1
HTAB C1S I1S_$3

REM Highest difference peak  1.571,  deepest hole -1.404,  1-sigma level  0.214
Q1    1   0.0747 -0.0119  0.0593  11.00000  0.05    1.57
Q2    1   0.8936  0.1001  0.4682  11.00000  0.05    1.32
Q3    1   0.8447  0.5054  0.7436  11.00000  0.05    1.30
Q4    1   0.7746  0.1805  0.3594  11.00000  0.05    1.23
Q5    1   0.0000  0.0903  0.0621  11.00000  0.05    1.22
Q6    1   0.0982  0.0871  0.0584  11.00000  0.05    1.20
Q7    1   0.4256  0.2168  0.3775  11.00000  0.05    1.19
Q8    1   0.8163  0.5991  0.6138  11.00000  0.05    1.13
Q9    1   0.9159  0.6317  0.7073  11.00000  0.05    1.02
Q10   1   0.4988  0.1151  0.4807  11.00000  0.05    0.97
Q11   1   0.1244  0.0492  0.2582  11.00000  0.05    0.94
Q12   1   0.7255  0.4568  0.6221  11.00000  0.05    0.92
Q13   1   0.9182  0.2487  0.4465  11.00000  0.05    0.91
Q14   1   0.0616  0.0053  0.1567  11.00000  0.05    0.87
Q15   1   0.5678  0.1997  0.4731  11.00000  0.05    0.85
Q16   1   0.7305  0.0551  0.3653  11.00000  0.05    0.82
Q17   1   0.6107  0.7095  0.2758  11.00000  0.05    0.78
Q18   1  -0.0182 -0.0271  0.1979  11.00000  0.05    0.77
Q19   1   0.6630  0.3193  0.5579  11.00000  0.05    0.77
Q20   1   0.3411  0.0895  0.3647  11.00000  0.05    0.73
;
_shelx_res_checksum              84826
_shelx_hkl_file
;
   0   1   0  101.17    2.11
   0   1   0  100.32    2.38
   0   1   0   99.20    2.21
   0  -1   0   97.88    2.21
   0   2   0  106.78    2.45
   0   2   0  104.56    2.86
   0  -2   0  102.61    2.49
   0   3   0  210.87    5.38
   0   3   0  206.34    4.65
   0  -3   0  211.70    4.83
   0   4   0    5.05    0.82
   0   4   0    6.59    1.14
   0  -4   0    5.27    0.73
   0   5   0   41.76    1.87
   0  -5   0   40.61    1.69
   0   6   0  202.84    5.33
   0  -6   0  206.59    5.24
   0   7   0  160.69    4.76
   0   8   0    8.04    1.53
   0   9   0    4.83    1.56
   0  10   0    6.71    1.83
  -1  11   0   12.82    2.26
  -1  10   0    0.44    1.39
  -1   9   0   42.35    2.77
  -1   8   0    2.14    1.10
   1  -7   0   77.25    2.85
  -1   7   0   80.45    3.12
   1  -6   0   -0.17    0.75
  -1   6   0    0.12    0.68
   1  -5   0  143.54    3.82
  -1   5   0  138.13    3.77
   1  -4   0   20.18    1.23
  -1   4   0   18.32    1.22
   1  -3   0  287.91    6.40
  -1   3   0  277.18    5.97
   1  -2   0  105.48    2.75
  -1   2   0  114.24    2.57
   1  -1   0    6.75    0.48
  -1   1   0    4.92    0.40
   1   0   0   38.15    1.16
   1   0   0   40.01    1.07
   1   0   0   41.84    1.05
   1   1   0   68.13    1.83
   1   1   0   67.69    1.71
   1   1   0   68.27    2.01
   1   2   0  631.79   13.73
   1   2   0  640.46   12.40
  -1  -2   0  631.62   13.49
   1   3   0   28.13    1.38
   1   3   0   29.37    1.80
  -1  -3   0   27.50    1.19
   1   4   0  191.73    4.66
   1   4   0  178.58    5.45
  -1  -4   0  195.47    4.71
   1   5   0   19.70    1.50
   1   5   0   20.89    2.02
  -1  -5   0   16.95    1.14
   1   6   0   25.09    1.90
  -1  -6   0   30.09    1.62
   1   7   0    1.78    1.06
   1   8   0   77.34    3.47
   1   9   0   34.12    2.84
   1  10   0   15.61    2.41
  -2  11   0   24.45    2.71
  -2  10   0   14.43    2.10
  -2   9   0   -1.15    1.05
  -2   8   0   23.74    2.17
   2  -7   0   30.55    1.86
  -2   7   0   30.71    2.02
   2  -6   0   45.41    2.08
  -2   6   0   44.33    2.09
   2  -5   0  592.91   13.21
  -2   5   0  591.31   12.24
   2  -4   0   46.65    1.87
  -2   4   0   49.39    1.84
   2  -3   0  112.43    3.10
  -2   3   0  115.94    2.91
   2  -2   0  265.71    6.08
  -2   2   0  257.17    5.54
   2  -1   0  110.01    2.97
  -2   1   0  112.63    2.66
   2   0   0   10.84    0.73
   2   0   0   11.32    0.88
   2   0   0   10.23    0.95
   2   1   0  554.14   12.23
   2   1   0  556.15   11.07
   2   1   0  569.20   12.11
   2   2   0  237.73    5.72
   2   2   0  242.92    5.32
   2   2   0  238.73    6.05
   2   3   0   48.64    1.88
   2   3   0   45.66    2.34
  -2  -3   0   51.62    1.82
   2   4   0   10.49    1.18
   2   4   0   10.52    1.49
  -2  -4   0   10.21    0.96
   2   5   0    8.19    1.63
   2   5   0    6.80    1.19
  -2  -5   0   10.14    1.11
   2   6   0   74.78    3.09
  -2  -6   0   76.68    2.73
   2   7   0    9.15    1.55
   2   8   0   80.28    3.70
   2   9   0    2.38    1.54
  -3  11   0    0.17    1.46
  -3  10   0   53.21    3.32
  -3   9   0   19.30    2.10
   3  -8   0   64.96    2.83
  -3   8   0   70.78    3.06
   3  -7   0    7.09    1.23
  -3   7   0    4.36    1.08
   3  -6   0    2.68    0.89
  -3   6   0    1.17    0.75
   3  -5   0    2.72    0.82
  -3   5   0    2.75    0.75
   3  -4   0   89.26    2.90
  -3   4   0   87.32    2.69
   3  -3   0  486.79   11.02
  -3   3   0  484.54    9.98
  -3   2   0  112.95    2.97
   3  -1   0  141.44    3.93
   3  -1   0  142.26    3.21
  -3   1   0  140.95    3.49
   3   0   0  164.00    3.97
   3   0   0  159.60    4.04
   3   0   0  160.55    4.37
   3   1   0   12.50    1.19
   3   1   0   12.76    1.22
   3   1   0    9.85    1.02
   3   2   0    1.58    0.79
   3   2   0    1.51    0.67
   3   2   0    2.57    0.78
   3   3   0  426.30   10.51
   3   3   0  425.96    9.98
   3   3   0  438.43    9.35
   3   4   0  105.37    4.21
   3   4   0  105.87    3.43
  -3  -4   0  106.00    3.33
   3   5   0  115.38    4.84
   3   5   0  121.99    3.94
  -3  -5   0  116.47    3.67
   3   6   0    3.96    1.29
   3   7   0    6.42    1.56
   3   8   0    1.04    1.43
   3   9   0   13.85    2.24
  -4  11   0   12.56    2.23
  -4  10   0   49.77    3.11
  -4   9   0    2.47    1.25
   4  -8   0   30.97    2.25
  -4   8   0   26.89    2.17
   4  -7   0   19.69    1.90
  -4   7   0   16.64    1.71
   4  -6   0   47.76    2.31
  -4   6   0   41.05    2.12
   4  -5   0    1.09    0.83
  -4   5   0    1.77    0.77
  -4   4   0  165.02    4.33
   4  -3   0   31.67    1.87
  -4   3   0   36.54    1.70
   4  -2   0   54.27    2.36
  -4   2   0   53.68    2.04
   4  -1   0    9.42    1.33
   4  -1   0    9.29    0.80
  -4   1   0   11.77    1.13
   4   0   0   18.28    1.25
   4   0   0   16.38    1.59
   4   0   0   15.45    1.62
   4   1   0   79.49    2.76
   4   1   0   84.19    3.13
   4   1   0   79.94    2.84
   4   2   0    3.32    0.98
   4   2   0    2.49    0.89
   4   2   0    3.16    1.01
   4   3   0   90.95    3.34
   4   3   0   86.87    3.67
   4   3   0   88.47    3.15
   4   4   0    1.44    1.32
   4   4   0   -0.36    0.98
  -4  -4   0    0.60    0.81
   4   5   0   51.85    2.81
  -4  -5   0   48.89    2.39
   4   6   0    1.80    1.30
   4   7   0   61.28    3.44
   4   8   0   -0.18    1.57
  -5  11   0   -1.22    1.40
  -5  10   0   -0.38    1.24
   5  -9   0   39.25    2.82
  -5   9   0   48.69    2.90
   5  -8   0  106.79    4.19
  -5   8   0  102.71    3.96
   5  -7   0   41.86    2.71
  -5   7   0   42.29    2.41
   5  -6   0   13.32    1.77
  -5   6   0   14.32    1.56
   5  -5   0  123.89    4.25
  -5   5   0  126.19    3.85
   5  -4   0    2.43    1.04
  -5   4   0    0.81    0.69
   5  -3   0    5.58    1.20
  -5   3   0    5.16    0.95
   5  -2   0  526.10   12.75
  -5   2   0  554.00   11.52
   5  -1   0  107.96    3.88
   5  -1   0  105.22    2.92
  -5   1   0  108.64    3.31
   5   0   0  136.93    3.86
   5   0   0  132.20    4.50
  -5   0   0  136.82    3.88
   5   1   0   41.41    2.24
   5   1   0   45.80    2.56
   5   1   0   40.34    2.18
   5   2   0    7.68    1.62
   5   2   0    8.48    1.47
   5   2   0    6.74    1.36
   5   3   0    4.69    1.35
   5   3   0    5.67    1.48
   5   3   0    6.56    1.52
   5   4   0   48.13    2.83
   5   4   0   52.59    3.38
  -5  -4   0   50.26    2.59
   5   5   0  102.17    4.08
  -5  -5   0   94.53    3.77
   5   6   0   17.84    2.31
   5   7   0    9.09    2.07
  -6  11   0   20.32    2.64
  -6  10   0    0.59    1.34
   6  -9   0   16.11    2.26
  -6   9   0   20.88    2.30
   6  -8   0    6.10    1.68
  -6   8   0    4.05    1.21
   6  -7   0   33.51    2.61
  -6   7   0   36.73    2.41
   6  -6   0   11.99    1.05
   6  -6   0   12.69    1.83
  -6   6   0   10.40    1.50
   6  -5   0   58.76    2.95
  -6   5   0   52.73    2.55
   6  -4   0   22.44    2.18
  -6   4   0   23.05    1.74
   6  -3   0    5.56    1.37
  -6   3   0    7.18    1.13
   6  -2   0    1.88    1.13
  -6   2   0    0.90    0.69
   6  -1   0    2.32    0.68
   6  -1   0    2.14    1.17
  -6   1   0    2.06    0.79
   6   0   0  133.13    3.93
   6   0   0  131.06    4.75
  -6   0   0  123.33    3.90
   6   1   0   11.31    1.91
   6   1   0   11.56    1.58
   6   1   0   15.02    1.90
   6   2   0   97.57    4.06
   6   2   0   96.70    4.25
   6   2   0  106.21    4.02
   6   3   0    5.43    1.67
   6   3   0    7.03    1.62
   6   3   0    4.97    1.61
   6   4   0    2.58    1.43
  -6  -4   0    2.81    1.16
   6   5   0    7.68    1.85
   6   6   0   20.50    2.52
   6   7   0   16.36    2.56
  -7  11   0    1.75    1.71
  -7  10   0   12.26    2.16
   7  -9   0   -0.53    1.39
  -7   9   0   -1.36    1.08
   7  -8   0   -0.13    1.30
  -7   8   0   -0.15    1.04
   7  -7   0  141.88    5.34
  -7   7   0  139.61    4.87
   7  -6   0   24.09    2.60
  -7   6   0   15.65    1.85
   7  -5   0   65.62    3.43
  -7   5   0   59.16    2.90
   7  -4   0   51.41    3.03
  -7   4   0   44.64    2.48
   7  -3   0    2.00    1.22
  -7   3   0    3.16    0.97
   7  -2   0    1.23    1.21
  -7   2   0    3.59    0.96
   7  -1   0   50.66    2.16
   7  -1   0   52.20    3.21
  -7   1   0   49.29    2.44
   7   0   0   47.10    2.40
   7   0   0   45.59    3.17
  -7   0   0   39.83    2.27
   7   1   0   19.61    2.57
   7   1   0   17.72    1.98
   7   2   0    8.16    1.92
   7   2   0    4.67    1.65
   7   2   0    4.71    1.54
   7   3   0    5.16    1.73
   7   3   0    1.39    1.70
   7   4   0   12.01    2.13
  -7  -4   0   14.37    2.11
   7   5   0    2.20    1.81
   7   6   0   22.00    2.96
  -8  11   0   10.44    2.33
   8 -10   0   43.61    3.68
  -8  10   0   40.92    3.50
   8  -9   0   -0.50    1.64
  -8   9   0    1.35    1.42
   8  -8   0    1.82    1.68
  -8   8   0    1.10    1.27
   8  -7   0    7.39    1.97
  -8   7   0    9.14    1.81
   8  -6   0   -1.18    1.33
  -8   6   0    0.19    1.04
   8  -5   0  103.74    4.60
  -8   5   0  106.35    4.08
   8  -4   0   54.71    3.40
  -8   4   0   48.91    2.72
   8  -3   0   73.60    3.90
  -8   3   0   74.67    3.25
   8  -2   0   32.90    2.97
  -8   2   0   36.68    2.26
   8  -1   0    0.53    1.52
   8  -1   0    1.60    0.94
  -8   1   0    2.29    0.92
   8   0   0   20.48    2.01
   8   0   0   20.40    2.73
  -8   0   0   19.93    2.01
   8   1   0   56.55    3.75
  -8  -1   0   59.81    3.03
   8   2   0   33.82    3.42
   8   3   0   42.05    3.63
   8   3   0   43.32    3.48
   8   4   0    0.24    1.75
   8   5   0    2.67    2.17
  -9  11   0    1.41    2.04
   9 -10   0   15.99    2.92
  -9  10   0   16.20    2.70
   9  -9   0    1.83    1.97
  -9   9   0   -1.23    1.50
   9  -8   0   14.58    2.72
  -9   8   0   12.61    2.04
   9  -7   0    1.85    1.66
  -9   7   0   -0.01    1.19
   9  -6   0   33.73    3.13
  -9   6   0   30.64    2.59
   9  -5   0    2.20    1.58
  -9   5   0   -0.21    0.98
   9  -4   0    9.24    2.05
  -9   4   0    9.38    1.54
   9  -3   0    5.94    1.86
  -9   3   0    4.63    1.26
   9  -2   0   10.12    2.23
  -9   2   0    6.76    1.39
   9  -1   0   25.37    3.22
  -9   1   0   26.19    2.21
   9   0   0   -0.68    1.67
  -9   0   0    0.11    0.96
   9   1   0   11.90    2.58
  -9  -1   0   16.77    2.03
   9   2   0    4.00    2.24
  -9  -2   0    4.74    1.50
   9   3   0   10.57    2.65
  -9  -3   0   15.40    2.18
  10 -10   0   28.01    3.73
 -10  10   0   33.17    3.64
  10  -9   0   38.80    4.17
 -10   9   0   35.18    3.56
  10  -8   0   18.62    3.11
 -10   8   0   24.78    2.86
  10  -7   0    8.16    2.41
 -10   7   0   11.06    2.20
  10  -6   0    4.49    2.00
 -10   6   0    0.21    1.22
  10  -5   0    6.11    2.10
 -10   5   0    8.78    1.81
  10  -4   0   62.64    4.12
 -10   4   0   64.26    3.46
  10  -3   0   22.81    3.10
 -10   3   0   23.16    2.39
  10  -2   0   53.62    4.16
 -10   2   0   51.14    3.05
  10  -1   0   -0.18    1.88
 -10   1   0   -0.03    1.02
  10   0   0   -1.50    1.92
 -10   0   0    1.04    1.23
  10   1   0    8.93    2.67
 -10  -1   0    3.47    1.43
  10   2   0    5.02    2.61
 -10  -2   0    5.28    1.74
  11  -9   0    8.28    2.69
 -11   9   0    6.96    2.25
  11  -8   0    6.84    2.60
 -11   8   0   10.05    2.27
  11  -7   0   29.73    3.78
 -11   7   0   20.07    2.68
  11  -6   0   15.70    2.95
 -11   6   0   16.13    2.35
  11  -5   0    0.07    1.76
 -11   5   0    4.02    1.59
  11  -4   0   -0.05    1.90
 -11   4   0    2.35    1.24
  11  -3   0    1.67    1.98
 -11   3   0    4.43    1.43
  11  -2   0   17.71    3.14
 -11   2   0   18.49    2.22
  11  -1   0    4.31    2.67
 -11   1   0    6.54    1.64
  11   0   0   54.83    4.76
 -11   0   0   52.21    3.47
  11   1   0    2.86    2.60
 -11  -1   0    2.14    1.36
  12  -8   0   11.89    3.22
 -12   8   0    8.11    2.22
  12  -7   0   25.70    3.90
 -12   7   0   32.16    3.32
  12  -6   0   -1.68    2.07
 -12   6   0    4.18    1.77
  12  -5   0    1.99    2.31
 -12   5   0    3.32    1.59
  12  -4   0    0.72    2.18
 -12   4   0    1.40    1.46
  12  -3   0    6.83    2.70
 -12   3   0    7.62    1.78
  12  -2   0   11.48    3.22
 -12   2   0   14.58    2.18
 -12   1   1    0.99    1.32
  12  -1  -1    0.71    2.54
 -12   2   1    3.54    1.53
  12  -2  -1   -1.33    2.29
 -12   3   1    3.54    1.51
  12  -3  -1    2.78    2.41
 -12   4   1   15.11    2.25
  12  -4  -1   16.24    3.23
 -12   5   1    6.79    1.84
  12  -5  -1    5.06    2.46
 -12   6   1   16.07    2.41
  12  -6  -1   21.33    3.42
 -12   7   1    1.00    1.66
  12  -7  -1    2.97    2.36
 -12   8   1   -0.16    1.70
  12  -8  -1   -0.50    2.23
 -11  -1   1   16.23    2.43
  11   1  -1   13.15    3.23
 -11   0   1    3.62    1.46
  11   0  -1    0.99    2.46
 -11   1   1    4.79    1.56
  11  -1  -1    3.16    2.32
 -11   2   1    1.55    1.17
  11  -2  -1   -0.53    2.08
 -11   3   1    4.47    1.53
  11  -3  -1    3.57    2.06
 -11   4   1   33.18    2.88
  11  -4  -1   39.09    3.75
 -11   5   1    8.56    1.83
  11  -5  -1   10.53    2.48
 -11   6   1   14.39    2.24
  11  -6  -1   11.93    2.66
 -11   7   1    8.02    2.08
  11  -7  -1    6.08    2.43
 -11   8   1    1.30    1.78
  11  -8  -1    1.81    2.26
 -11   9   1    0.07    1.82
  11  -9  -1   -3.04    2.00
 -10  -3   1    2.18    1.49
  10   3  -1   -0.46    2.37
 -10  -2   1    5.32    1.71
  10   2  -1    3.18    2.37
 -10  -1   1   26.11    2.77
  10   1  -1   25.05    3.47
 -10   0   1   17.24    2.22
  10   0  -1   21.14    3.21
 -10   1   1   64.62    3.45
  10  -1  -1   60.33    4.39
 -10   2   1    1.41    1.22
  10  -2  -1   -1.32    1.55
 -10   3   1    1.08    1.12
  10  -3  -1    2.50    1.78
 -10   4   1   13.13    1.95
  10  -4  -1   10.64    2.32
 -10   5   1    9.49    1.85
  10  -5  -1    6.83    2.08
 -10   6   1   41.41    3.09
  10  -6  -1   40.25    3.57
 -10   7   1   37.68    3.15
  10  -7  -1   39.43    3.99
 -10   8   1   16.82    2.50
  10  -8  -1   19.17    3.17
 -10   9   1    7.60    2.20
  10  -9  -1    6.56    2.43
 -10  10   1    1.77    1.98
  10 -10  -1   -2.13    1.96
   9   4  -1    0.04    2.15
   9   3  -1    1.54    2.08
  -9  -2   1   17.08    2.20
   9   2  -1   12.92    2.53
  -9  -1   1   19.17    2.18
   9   1  -1   17.16    2.83
  -9   0   1    1.86    1.14
   9   0  -1    3.06    1.88
  -9   1   1   18.29    2.06
   9  -1  -1   21.86    2.91
  -9   2   1    0.51    0.88
   9  -2  -1    3.11    1.70
  -9   3   1   33.60    2.42
   9  -3  -1   33.53    3.01
  -9   4   1    0.61    0.97
   9  -4  -1    1.11    1.48
  -9   5   1   17.16    2.03
   9  -5  -1   21.00    2.73
  -9   6   1    2.12    1.21
   9  -6  -1    2.28    1.69
  -9   7   1   19.73    2.41
   9  -7  -1   19.15    2.74
  -9   8   1    2.39    1.53
   9  -8  -1    2.86    1.90
  -9   9   1   18.23    2.62
   9  -9  -1   14.23    2.84
  -9  10   1    8.87    2.19
   9 -10  -1    9.04    2.53
   8   5  -1   17.43    2.81
   8   4  -1   57.78    4.15
   8   4  -1   53.63    3.91
   8   3  -1    2.77    1.81
   8   3  -1    4.77    1.94
   8   2  -1    0.14    1.59
  -8  -1   1   16.38    1.93
   8   1  -1   17.21    2.49
  -8   0   1   54.48    2.81
   8   0  -1   56.12    3.64
  -8   1   1   72.70    3.23
   8  -1  -1   80.92    4.12
  -8   2   1  103.67    3.81
   8  -2  -1  100.69    4.52
  -8   3   1   12.85    1.66
   8  -3  -1   12.65    2.10
  -8   4   1    8.33    1.46
   8  -4  -1    8.27    1.78
  -8   5   1    3.70    1.17
   8  -5  -1    3.12    1.51
  -8   6   1    4.11    1.29
   8  -6  -1    2.30    1.54
  -8   7   1   77.87    3.70
   8  -7  -1   70.11    4.01
  -8   8   1   27.93    2.71
   8  -8  -1   33.22    3.30
  -8   9   1   53.61    3.61
   8  -9  -1   50.00    3.80
  -8  10   1    1.05    1.76
   8 -10  -1    7.55    2.27
  -8  11   1   -1.19    1.64
   7   6  -1    2.59    1.94
   7   5  -1    2.99    1.71
   7   4  -1   18.40    2.45
   7   4  -1   18.06    2.41
   7   3  -1   28.58    2.76
   7   3  -1   31.04    2.77
   7   2  -1  102.62    4.58
   7   2  -1  105.69    4.33
   7   1  -1   -0.23    1.40
  -7   0   1   12.93    1.58
   7   0  -1   14.24    2.08
  -7   1   1   33.15    2.07
   7  -1  -1   33.71    2.62
  -7   2   1   58.83    2.70
   7  -2  -1   71.03    3.40
  -7   3   1   28.26    1.99
   7  -3  -1   35.10    2.55
  -7   4   1  177.40    5.27
   7  -4  -1  169.01    5.67
  -7   5   1   28.80    2.11
   7  -5  -1   25.89    2.54
  -7   6   1    5.01    1.32
   7  -6  -1    3.41    1.55
  -7   7   1   13.39    1.80
   7  -7  -1   11.81    2.08
  -7   8   1    3.42    1.37
   7  -8  -1    1.60    1.53
  -7   9   1   30.60    2.89
   7  -9  -1   29.61    3.05
  -7  10   1   25.78    2.85
  -7  11   1   45.14    3.60
   6   7  -1    1.61    1.84
   6   6  -1    0.29    1.50
   6   5  -1   74.74    3.82
   6   4  -1   30.00    2.58
   6   4  -1   29.15    2.59
   6   3  -1  140.86    4.99
   6   3  -1  132.40    4.72
   6   2  -1    7.91    1.63
   6   2  -1    5.13    1.43
   6   1  -1    0.43    1.14
   6   1  -1    1.72    1.16
  -6   0   1    0.55    0.62
   6   0  -1   -0.64    0.93
  -6   1   1    7.52    1.16
   6  -1  -1    3.67    1.19
  -6   2   1  160.08    4.52
   6  -2  -1  151.91    5.01
  -6   3   1   59.85    2.56
   6  -3  -1   58.08    2.89
  -6   4   1  157.05    4.66
   6  -4  -1  159.18    5.21
  -6   5   1    5.55    1.13
   6  -5  -1    5.71    1.46
  -6   6   1   28.73    2.10
   6  -6  -1   34.10    2.61
  -6   7   1   -0.80    0.85
   6  -7  -1   -0.61    1.25
  -6   8   1   39.78    2.61
   6  -8  -1   39.72    2.93
  -6   9   1    5.96    1.62
  -6  10   1   21.88    2.58
  -6  11   1    3.83    1.76
   5   8  -1   33.86    3.27
   5   7  -1   50.55    3.44
   5   6  -1    7.65    1.75
  -5  -5   1    3.57    1.02
   5   5  -1    5.71    1.52
   5   4  -1   23.58    2.19
   5   4  -1   21.29    2.18
   5   3  -1   64.29    3.06
   5   3  -1   65.42    2.98
   5   2  -1   66.88    3.01
   5   2  -1   67.88    2.87
   5   1  -1  585.91   12.60
   5   1  -1  583.46   13.73
   5   0  -1   38.93    2.23
  -5   1   1   13.61    1.34
   5  -1  -1   14.98    1.65
  -5   2   1   67.70    2.54
   5  -2  -1   73.14    3.00
  -5   3   1    0.26    0.56
   5  -3  -1   -0.59    0.86
  -5   4   1  157.91    4.38
   5  -4  -1  150.48    4.75
  -5   5   1  228.88    5.85
   5  -5  -1  225.31    6.38
  -5   6   1  199.85    5.45
   5  -6  -1  196.17    5.92
  -5   7   1    2.48    1.02
   5  -7  -1    2.77    1.20
  -5   8   1    1.35    1.14
   5  -8  -1    1.41    1.25
  -5   9   1   20.94    2.32
   5  -9  -1   19.63    2.26
  -5  10   1   34.11    2.92
  -5  11   1   16.06    2.31
   4   9  -1    3.86    2.10
   4   8  -1   38.73    3.24
   4   7  -1   -0.09    1.25
   4   6  -1   26.33    2.39
  -4  -5   1    1.63    0.81
   4   5  -1    0.94    1.14
   4   4  -1   54.75    2.47
   4   4  -1   48.87    2.57
   4   3  -1   76.02    2.89
   4   3  -1   77.05    2.89
   4   2  -1   24.28    1.76
   4   2  -1   23.09    1.67
   4   1  -1  115.02    3.66
   4   1  -1  113.34    3.44
   4   0  -1   18.18    1.60
   4   0  -1   17.83    1.53
  -4   1   1  373.25    8.13
  -4   2   1    8.46    1.02
   4  -2  -1    7.58    1.17
  -4   3   1  200.07    4.90
   4  -3  -1  193.29    5.33
  -4   4   1   16.45    1.43
   4  -4  -1   16.18    1.52
  -4   5   1   50.14    2.16
   4  -5  -1   48.72    2.38
  -4   6   1   10.21    1.31
   4  -6  -1   13.32    1.63
  -4   7   1  110.46    3.79
   4  -7  -1  103.23    3.93
  -4   8   1   58.33    2.92
   4  -8  -1   61.86    3.06
  -4   9   1   11.62    1.80
  -4  10   1    1.10    1.29
  -4  11   1    0.13    1.46
   3   9  -1    0.74    1.47
   3   8  -1   20.25    2.33
   3   7  -1   32.21    2.43
   3   6  -1  228.85    6.27
  -3  -5   1   17.69    1.21
   3   5  -1   20.46    1.80
  -3  -4   1    7.31    0.87
   3   4  -1    7.85    1.14
   3   3  -1   95.48    2.96
   3   3  -1   93.74    3.01
   3   2  -1   74.89    2.49
   3   2  -1   67.79    2.50
   3   1  -1  188.24    4.83
   3   1  -1  186.57    4.51
   3   0  -1  666.05   13.44
   3   0  -1  670.12   14.65
  -3   1   1  407.96    8.48
   3  -1  -1  407.08    9.30
  -3   2   1    1.20    0.52
   3  -2  -1    2.11    0.72
  -3   3   1    0.63    0.54
   3  -3  -1    0.56    0.73
  -3   4   1   43.62    1.81
   3  -4  -1   42.90    2.11
  -3   5   1  204.38    5.21
   3  -5  -1  219.16    5.84
  -3   6   1   66.30    2.58
   3  -6  -1   63.17    2.82
  -3   7   1  196.81    5.47
   3  -7  -1  206.71    5.93
  -3   8   1    1.03    0.97
   3  -8  -1    0.62    1.13
  -3   9   1   16.02    1.95
  -3  10   1    2.47    1.44
  -3  11   1    4.50    1.79
   2  10  -1    4.67    1.92
   2   9  -1   17.61    2.31
   2   8  -1    1.62    1.22
   2   7  -1    0.94    1.08
  -2  -6   1   14.70    1.38
   2   6  -1   16.07    1.73
  -2  -5   1   50.07    1.72
   2   5  -1   45.71    2.19
  -2  -4   1  373.64    8.30
   2   4  -1  367.67    8.19
   2   3  -1   37.48    1.44
   2   3  -1   34.38    1.67
   2   2  -1   97.18    2.65
   2   2  -1   93.78    2.62
   2   1  -1  158.51    3.68
   2   1  -1  158.73    3.90
   2   0  -1   85.09    2.41
   2   0  -1   88.22    2.37
  -2   1   1    9.42    0.82
   2  -1  -1   13.50    1.06
  -2   2   1  990.24   19.09
  -2   2   1 1000.00   20.48
  -2   3   1  298.35    6.95
  -2   3   1  288.80    6.40
   2  -3  -1  321.58    7.27
  -2   4   1  137.85    3.99
  -2   4   1  139.64    3.61
   2  -4  -1  139.41    3.97
  -2   5   1    9.60    1.28
  -2   5   1    6.80    0.98
   2  -5  -1   10.05    1.27
  -2   6   1   24.32    1.69
  -2   7   1   35.83    2.18
   2  -7  -1   36.50    2.37
  -2   8   1   30.18    2.27
  -2   9   1  136.73    4.77
  -2  10   1   10.81    1.98
   1  10  -1    1.95    1.57
   1   9  -1    7.83    1.70
   1   8  -1   17.66    1.98
   1   7  -1   41.80    2.42
   1   6  -1   27.01    1.85
  -1  -5   1  218.22    4.97
   1   5  -1  209.39    5.33
  -1  -4   1   60.70    1.72
   1   4  -1   61.04    2.20
  -1  -3   1   31.33    1.00
   1   3  -1   28.88    1.39
   1   2  -1    0.46    0.41
   1   2  -1    1.08    0.31
   1   1  -1    0.45    0.28
   1   1  -1    0.80    0.32
  -1   0   1  194.27    4.11
   1   0  -1  195.34    4.37
   1   0  -1  197.73    4.16
   1   0  -1  191.01    3.98
  -1   1   1  139.67    2.96
  -1   1   1  141.67    3.25
   1  -1  -1  139.39    3.41
  -1   2   1  522.49   11.36
  -1   2   1  527.47   10.30
   1  -2  -1  533.03   11.47
  -1   3   1    0.37    0.50
  -1   3   1    1.25    0.67
   1  -3  -1    0.15    0.60
  -1   4   1  122.59    3.23
  -1   4   1  116.73    3.79
   1  -4  -1  119.86    3.47
  -1   5   1    0.64    0.87
  -1   5   1    0.58    0.61
   1  -5  -1    0.10    0.75
  -1   6   1   82.06    3.63
  -1   6   1   85.39    3.01
   1  -6  -1   85.39    3.10
  -1   7   1    4.76    1.17
   1  -7  -1    4.22    1.20
  -1   8   1   29.38    2.31
  -1   9   1    5.16    1.54
  -1  10   1    2.86    1.61
   0  11  -1    0.04    1.53
   0  10  -1   31.53    2.90
   0   9  -1   87.82    3.82
   0   8  -1   11.11    1.62
   0   7  -1   10.14    1.46
   0   6  -1  108.26    3.42
   0   5  -1   15.68    1.28
   0   4  -1    5.34    0.81
   0   3  -1  884.13   17.13
   0   2  -1  220.29    4.60
   0  -1   1  166.88    3.46
   0  -1   1  154.51    3.55
   0   1  -1  161.03    3.46
   0   0   1   75.04    1.96
   0   0  -1   83.76    1.96
   0   1   1   63.77    1.98
   0   1   1   64.25    1.50
   0  -1  -1   67.41    1.84
   0   2   1   14.79    0.80
   0   2   1   14.64    1.17
   0  -2  -1   14.45    0.91
   0   3   1  235.05    5.17
   0   3   1  234.97    6.14
   0  -3  -1  239.26    5.70
   0   4   1  468.38    9.72
   0   4   1  461.29   11.12
   0  -4  -1  471.33   10.61
   0   5   1   22.21    1.49
   0   5   1   22.03    2.03
   0  -5  -1   22.61    1.48
   0   6   1   29.19    2.57
   0   6   1   25.49    1.87
   0  -6  -1   26.34    1.83
   0   7   1   58.29    2.74
   0  -7  -1   53.34    3.33
   0   8   1   16.84    1.97
   0   9   1    5.67    1.64
   0  10   1   78.44    4.03
  -1  11  -1    1.19    1.58
  -1  10  -1   25.41    2.65
  -1   9  -1   -0.25    0.95
  -1   8  -1   28.01    2.15
  -1   7  -1    4.11    1.10
   1  -6   1   23.72    1.21
  -1   6  -1   21.32    1.54
   1  -5   1   28.45    1.23
  -1   5  -1   30.38    1.58
   1  -4   1    3.47    0.56
  -1   4  -1    4.33    0.73
   1  -3   1   70.61    1.94
  -1   3  -1   73.70    2.05
   1  -2   1   20.49    1.01
  -1   2  -1   21.72    0.95
   1  -1   1  367.72    8.15
   1  -1   1  364.14    7.88
  -1   1  -1  395.93    7.25
   1   0   1    8.48    0.71
   1   0   1    9.06    0.76
   1   0   1    8.33    0.53
   1   1   1  214.00    5.24
   1   1   1  219.21    4.44
  -1  -1  -1  212.95    5.07
   1   2   1   18.50    0.96
   1   2   1   17.14    1.45
  -1  -2  -1   15.33    1.00
   1   3   1    8.44    1.30
   1   3   1    9.58    0.92
  -1  -3  -1    8.85    0.96
   1   4   1    0.77    0.63
   1   4   1    0.61    0.88
  -1  -4  -1    1.50    0.65
   1   5   1   80.61    2.80
   1   5   1   74.51    3.58
  -1  -5  -1   75.21    2.76
   1   6   1   81.17    4.12
   1   6   1   81.68    3.11
  -1  -6  -1   79.20    3.03
   1   7   1   50.88    2.64
   1   8   1   17.29    2.07
   1   9   1    6.45    1.68
  -2  11  -1    7.64    1.91
  -2  10  -1    4.38    1.44
  -2   9  -1    2.49    1.19
  -2   8  -1  204.49    5.70
   2  -7   1   19.64    1.39
  -2   7  -1   18.73    1.65
   2  -6   1   35.37    1.64
  -2   6  -1   38.82    1.92
   2  -5   1  138.71    3.70
  -2   5  -1  135.42    3.71
   2  -4   1    1.19    0.61
  -2   4  -1    0.84    0.55
   2  -3   1    5.11    0.74
  -2   3  -1    5.60    0.67
   2  -2   1  169.09    3.90
   2  -2   1  178.15    4.32
  -2   2  -1  166.68    3.78
   2  -1   1  541.23   11.07
   2  -1   1  520.20   11.58
  -2   1  -1  511.73   10.25
   2   0   1   14.90    0.95
   2   0   1   16.72    1.08
   2   0   1   18.50    1.19
   2   1   1    4.17    0.69
   2   1   1    4.06    0.82
   2   1   1    4.47    0.93
   2   2   1  124.08    3.94
   2   2   1  118.70    3.07
  -2  -2  -1  112.69    3.37
   2   3   1   56.09    2.77
   2   3   1   59.40    2.09
  -2  -3  -1   56.05    2.19
   2   4   1    7.30    1.45
   2   4   1    7.63    1.06
  -2  -4  -1    7.43    1.04
   2   5   1  171.78    4.70
   2   5   1  166.65    5.95
  -2  -5  -1  166.29    4.87
   2   6   1    3.94    1.12
   2   6   1    2.48    1.58
  -2  -6  -1    4.66    1.10
   2   7   1   24.61    2.25
   2   8   1    1.47    1.40
   2   9   1    3.14    1.68
  -3  12  -1    3.14    1.81
  -3  11  -1   29.85    2.99
  -3  10  -1    0.72    1.24
  -3   9  -1    2.33    1.18
   3  -8   1    2.65    1.03
  -3   8  -1    1.77    1.03
   3  -7   1    4.47    1.03
  -3   7  -1    5.87    1.14
   3  -6   1  251.33    6.40
  -3   6  -1  249.58    6.16
   3  -5   1   51.99    2.14
  -3   5  -1   49.52    2.05
   3  -4   1  125.81    3.67
  -3   4  -1  124.11    3.38
   3  -3   1  191.44    4.44
   3  -3   1  188.02    5.02
  -3   3  -1  192.34    4.49
   3  -2   1    7.80    0.69
   3  -2   1    8.03    1.12
  -3   2  -1    7.68    0.83
   3  -1   1   91.00    3.05
   3  -1   1   91.05    2.59
  -3   1  -1   87.71    2.46
   3   0   1  305.04    6.71
   3   0   1  319.13    7.65
   3   0   1  305.73    7.25
   3   1   1  229.64    5.14
   3   1   1  213.39    5.78
   3   1   1  219.10    5.82
   3   2   1  141.42    3.72
   3   2   1  139.83    4.15
   3   2   1  138.66    4.51
   3   3   1    0.76    0.72
   3   3   1    0.85    0.95
  -3  -3  -1    2.00    0.71
   3   4   1   41.38    2.18
   3   4   1   42.12    2.94
  -3  -4  -1   39.73    2.09
   3   5   1    1.21    0.99
   3   5   1   -1.20    1.31
  -3  -5  -1    2.38    0.98
   3   6   1    1.28    1.09
   3   6   1    0.57    1.57
   3   7   1   71.31    3.46
   3   8   1   11.50    2.05
  -4  12  -1   -0.04    1.58
  -4  11  -1   10.74    2.03
  -4  10  -1   12.58    1.94
  -4   9  -1   10.80    1.72
   4  -8   1    0.91    0.96
  -4   8  -1   -0.85    0.88
   4  -7   1   90.34    3.34
  -4   7  -1   88.40    3.34
   4  -6   1   22.74    1.71
  -4   6  -1   21.79    1.61
   4  -5   1   16.86    1.64
  -4   5  -1   16.57    1.49
   4  -4   1    1.43    0.55
   4  -4   1    2.71    0.93
  -4   4  -1    2.13    0.73
   4  -3   1    8.95    1.31
   4  -3   1    9.11    0.76
  -4   3  -1    7.53    0.97
   4  -2   1   79.39    2.31
   4  -2   1   75.24    2.99
  -4   2  -1   79.95    2.53
   4  -1   1    0.58    0.83
   4  -1   1    0.80    0.57
  -4   1  -1   -0.46    0.46
   4   0   1  112.14    3.48
   4   0   1  114.74    3.90
   4   1   1    5.93    1.13
   4   1   1    7.16    1.08
   4   1   1    8.24    1.33
   4   2   1   75.88    3.12
   4   2   1   77.03    3.35
   4   2   1   74.66    2.74
   4   3   1    0.31    1.13
   4   3   1    0.95    0.94
  -4  -3  -1   -0.37    0.71
   4   4   1   27.30    2.16
   4   4   1   30.85    2.97
  -4  -4  -1   30.11    2.10
   4   5   1   -0.46    1.04
   4   5   1    1.24    1.50
  -4  -5  -1    1.55    0.94
   4   6   1    6.95    1.66
   4   7   1    2.85    1.53
   4   8   1    0.22    1.75
  -5  12  -1    4.55    1.91
  -5  11  -1   50.96    3.48
  -5  10  -1   35.18    2.80
   5  -9   1   28.87    2.40
  -5   9  -1   28.01    2.42
   5  -8   1   42.81    2.73
  -5   8  -1   57.95    2.91
   5  -7   1    4.19    1.30
  -5   7  -1    3.09    1.07
   5  -6   1   19.22    1.34
   5  -6   1   22.39    2.13
  -5   6  -1   22.46    1.74
   5  -5   1  274.15    6.38
   5  -5   1  274.74    7.45
  -5   5  -1  276.14    6.73
   5  -4   1  110.28    3.93
   5  -4   1  112.28    2.91
  -5   4  -1  107.85    3.45
   5  -3   1  183.42    4.27
   5  -3   1  176.79    5.41
  -5   3  -1  169.34    4.64
   5  -2   1   28.90    2.12
   5  -2   1   26.71    1.36
  -5   2  -1   20.88    1.46
   5  -1   1   42.71    1.93
   5  -1   1   46.21    2.58
  -5   1  -1   43.74    1.92
   5   0   1    5.34    1.03
   5   0   1    6.43    1.41
  -5   0  -1    6.76    0.96
   5   1   1   20.89    1.90
   5   1   1   17.91    1.75
   5   1   1   18.43    1.98
   5   2   1  167.65    5.45
   5   2   1  166.12    5.48
   5   2   1  164.67    4.82
   5   3   1   13.23    1.70
   5   3   1   13.40    2.11
  -5  -3  -1   16.47    1.93
   5   4   1   33.33    3.21
   5   4   1   41.94    2.66
  -5  -4  -1   37.68    2.47
   5   5   1   22.39    3.04
   5   5   1   25.20    2.45
  -5  -5  -1   23.18    2.16
   5   6   1    0.58    1.52
   5   7   1    1.53    1.77
  -6  12  -1   15.72    2.57
  -6  11  -1    1.02    1.55
  -6  10  -1    8.82    1.89
   6  -9   1    7.82    1.73
  -6   9  -1    5.55    1.55
   6  -8   1   25.38    1.75
   6  -8   1   25.22    2.58
  -6   8  -1   24.73    2.35
   6  -7   1   28.76    1.68
   6  -7   1   25.38    2.43
  -6   7  -1   29.33    2.22
   6  -6   1   -0.95    1.01
   6  -6   1    0.27    0.64
  -6   6  -1    1.60    0.96
   6  -5   1    3.37    0.67
   6  -5   1    3.84    1.28
  -6   5  -1    4.17    1.10
   6  -4   1    3.93    1.40
  -6   4  -1    3.13    1.00
   6  -3   1  120.40    4.47
   6  -3   1  122.28    3.21
  -6   3  -1  117.84    3.79
   6  -2   1   17.43    1.26
   6  -2   1   21.18    2.24
  -6   2  -1   16.85    1.45
   6  -1   1  144.24    5.13
   6  -1   1  141.29    4.16
  -6   1  -1  139.89    4.13
   6   0   1    3.20    1.54
   6   0   1    3.51    1.12
  -6   0  -1    2.87    0.84
   6   1   1    2.91    1.45
   6   1   1   -0.86    0.95
   6   2   1   12.39    1.79
   6   2   1    9.45    1.80
   6   2   1   12.42    2.12
   6   3   1    7.87    1.65
   6   3   1    7.47    1.91
  -6  -3  -1    8.48    1.60
   6   4   1   33.22    2.83
   6   4   1   28.14    3.16
  -6  -4  -1   31.96    2.54
   6   5   1   21.50    2.56
   6   6   1   15.86    2.42
  -7  12  -1   -1.66    1.73
  -7  11  -1   -0.56    1.51
   7 -10   1   71.02    5.55
  -7  10  -1   63.67    3.88
   7  -9   1   28.83    2.91
  -7   9  -1   26.45    2.68
   7  -8   1   54.63    2.50
   7  -8   1   53.21    3.37
  -7   8  -1   55.74    3.21
   7  -7   1    9.26    1.82
   7  -7   1    7.30    1.07
  -7   7  -1    7.55    1.53
   7  -6   1   -0.85    1.17
  -7   6  -1    0.60    1.02
   7  -5   1    0.85    1.39
  -7   5  -1    0.97    0.97
   7  -4   1   35.13    2.75
  -7   4  -1   37.74    2.30
   7  -3   1  109.16    4.53
  -7   3  -1  106.59    3.74
   7  -2   1   32.20    2.82
   7  -2   1   35.68    1.84
  -7   2  -1   35.92    2.04
   7  -1   1   16.78    1.69
   7  -1   1   17.27    2.35
  -7   1  -1   16.11    1.62
   7   0   1   21.00    2.10
   7   0   1   19.97    2.64
  -7   0  -1   17.67    1.74
   7   1   1   14.11    2.36
   7   1   1   15.20    1.99
  -7  -1  -1   14.00    1.67
   7   2   1    1.56    1.41
   7   2   1   -0.44    1.38
   7   2   1   -0.19    1.54
   7   3   1   58.14    3.64
   7   3   1   59.79    4.01
  -7  -3  -1   55.43    3.38
   7   4   1   -1.26    1.56
  -7  -4  -1    1.19    1.29
   7   5   1    9.29    2.23
  -8  11  -1   -1.87    1.62
   8 -10   1    0.17    1.66
  -8  10  -1    1.04    1.62
   8  -9   1   -0.46    1.55
  -8   9  -1    1.31    1.34
   8  -8   1   63.27    3.97
  -8   8  -1   66.25    3.59
   8  -7   1   44.32    3.33
  -8   7  -1   45.08    2.96
   8  -6   1  100.49    4.73
  -8   6  -1  102.32    4.12
   8  -5   1    0.21    1.44
  -8   5  -1   -0.56    0.95
   8  -4   1   -0.90    1.38
  -8   4  -1    1.12    0.98
   8  -3   1   32.55    3.00
  -8   3  -1   35.23    2.32
   8  -2   1   30.86    3.00
   8  -2   1   30.66    1.91
  -8   2  -1   26.72    2.05
   8  -1   1   70.54    3.08
   8  -1   1   68.25    4.06
  -8   1  -1   70.58    3.07
   8   0   1  103.42    5.00
  -8   0  -1   94.97    3.69
   8   1   1   18.25    2.80
   8   1   1   17.22    2.27
  -8  -1  -1   18.70    2.04
   8   2   1    2.53    1.74
   8   2   1    2.78    2.07
  -8  -2  -1    5.09    1.34
  -8  -3  -1    1.56    1.33
   8   4   1   -2.20    1.89
  -9  11  -1    7.72    2.42
   9 -10   1   -0.55    1.70
  -9  10  -1   -0.19    1.66
   9  -9   1   24.63    3.32
  -9   9  -1   17.48    2.58
   9  -8   1   13.99    2.72
  -9   8  -1   16.92    2.43
   9  -7   1   18.32    2.73
  -9   7  -1   14.75    2.12
   9  -6   1   14.49    2.50
  -9   6  -1   14.24    2.04
   9  -5   1    0.96    1.49
  -9   5  -1    0.27    1.04
   9  -4   1   26.31    3.04
  -9   4  -1   33.95    2.48
   9  -3   1    2.27    1.70
  -9   3  -1    3.81    1.27
   9  -2   1   28.44    3.34
  -9   2  -1   33.25    2.37
   9  -1   1    2.01    1.80
  -9   1  -1    0.53    0.95
   9   0   1   23.06    3.21
  -9   0  -1   20.64    2.11
   9   1   1    2.41    2.14
  -9  -1  -1   -1.11    0.87
   9   2   1   23.47    3.39
  -9  -2  -1   17.19    2.14
  -9  -3  -1    5.38    1.69
  -9  -3  -1    4.11    1.75
  10 -10   1    2.68    2.34
 -10  10  -1   -2.25    1.62
  10  -9   1   -1.65    1.97
 -10   9  -1    0.14    1.59
  10  -8   1    7.82    2.34
 -10   8  -1    9.15    2.03
  10  -7   1   33.86    3.89
 -10   7  -1   33.51    3.18
  10  -6   1   39.97    4.08
 -10   6  -1   39.20    3.07
  10  -5   1   90.58    5.00
 -10   5  -1   85.10    4.00
  10  -4   1    3.78    1.87
 -10   4  -1    8.19    1.64
  10  -3   1   -0.03    1.69
 -10   3  -1    1.02    1.07
  10  -2   1    1.02    2.07
 -10   2  -1    0.29    1.02
  10  -1   1    0.26    2.07
 -10   1  -1    1.46    1.13
  10   0   1   32.05    3.94
 -10   0  -1   32.69    2.63
  10   1   1   18.28    3.28
 -10  -1  -1   16.89    2.14
  10   2   1   18.10    3.46
 -10  -2  -1   25.67    3.26
  11  -9   1   23.92    3.71
 -11   9  -1   19.01    3.03
  11  -8   1    0.30    2.20
 -11   8  -1    0.97    1.59
  11  -7   1    0.05    2.04
 -11   7  -1    2.90    1.69
  11  -6   1    0.67    1.80
 -11   6  -1    0.97    1.33
  11  -5   1   17.15    2.92
 -11   5  -1   18.60    2.34
  11  -4   1    6.72    2.48
 -11   4  -1    9.52    1.82
  11  -3   1   55.35    4.67
 -11   3  -1   51.98    3.29
  11  -2   1    8.50    2.77
 -11   2  -1    8.04    1.67
  11  -1   1    3.36    2.60
 -11   1  -1    5.40    1.52
  11   0   1    1.68    2.59
 -11   0  -1    2.06    1.37
  12  -8   1    0.18    2.26
 -12   8  -1    3.54    1.93
  12  -7   1   -1.82    1.91
 -12   7  -1    2.96    1.70
  12  -6   1    4.05    2.29
 -12   6  -1    2.24    1.61
  12  -5   1   10.49    2.80
 -12   5  -1   12.04    2.04
  12  -4   1    9.57    2.89
 -12   4  -1    9.94    2.05
  12  -3   1   13.49    3.44
 -12   3  -1   13.20    2.12
 -12   0   2   -0.45    1.39
  12   0  -2    2.11    2.59
 -12   1   2   12.53    2.21
  12  -1  -2    9.99    2.99
 -12   2   2    9.04    1.90
  12  -2  -2    2.46    2.46
 -12   3   2   20.50    2.63
  12  -3  -2   15.91    3.18
 -12   4   2    3.19    1.58
  12  -4  -2    3.01    2.30
 -12   5   2    0.30    1.45
  12  -5  -2    2.06    2.10
 -12   6   2   -1.05    1.25
  12  -6  -2   -0.46    2.07
 -12   7   2    0.21    1.58
  12  -7  -2   -2.69    1.91
 -11  -2   2    3.62    1.71
  11   2  -2    3.27    2.49
 -11  -1   2    2.58    1.51
  11   1  -2    2.19    2.36
 -11   0   2    4.65    1.50
  11   0  -2    2.76    2.23
 -11   1   2   42.82    3.13
  11  -1  -2   45.47    4.12
 -11   2   2   10.35    1.99
  11  -2  -2    9.33    2.61
 -11   3   2   32.97    2.83
  11  -3  -2   30.31    3.55
 -11   4   2    4.49    1.51
  11  -4  -2    2.77    1.97
 -11   5   2    2.79    1.48
  11  -5  -2    2.64    1.92
 -11   6   2    2.64    1.55
  11  -6  -2   -0.80    1.77
 -11   7   2   17.17    2.64
  11  -7  -2   19.90    3.36
 -11   8   2    8.03    2.23
  11  -8  -2   11.89    2.99
 -11   9   2   14.34    2.73
  11  -9  -2   12.50    3.22
 -10  -3   2   15.33    2.41
  10   3  -2   14.68    2.91
 -10  -2   2   65.25    3.83
  10   2  -2   62.90    4.53
 -10  -1   2   -0.03    1.15
  10   1  -2    2.73    2.07
 -10   0   2    1.26    1.29
  10   0  -2    1.71    2.00
 -10   1   2    5.10    1.40
  10  -1  -2    4.81    2.08
 -10   2   2    1.79    1.19
  10  -2  -2    3.46    1.88
 -10   3   2   58.74    3.30
  10  -3  -2   57.72    3.88
 -10   4   2   64.26    3.47
  10  -4  -2   70.08    4.18
 -10   5   2   48.73    3.14
  10  -5  -2   42.87    3.66
 -10   6   2    5.37    1.58
  10  -6  -2    4.50    2.15
 -10   7   2    0.79    1.48
  10  -7  -2   -1.06    1.84
 -10   8   2    6.42    1.88
  10  -8  -2    6.78    2.41
 -10   9   2   27.76    3.32
  10  -9  -2   21.32    3.51
   9   5  -2    7.87    2.61
   9   4  -2   28.45    3.43
   9   3  -2    5.60    2.17
  -9  -2   2   37.72    2.91
   9   2  -2   36.32    3.63
  -9  -1   2   -0.93    0.89
   9   1  -2   -1.16    1.67
  -9   0   2   45.09    2.79
   9   0  -2   43.61    3.55
  -9   1   2    2.72    1.07
   9  -1  -2   -1.46    1.41
  -9   2   2   61.49    3.10
   9  -2  -2   62.08    3.80
  -9   3   2    1.64    1.01
   9  -3  -2   -0.46    1.34
  -9   4   2   22.21    2.24
   9  -4  -2   25.92    2.81
  -9   5   2   10.13    1.80
   9  -5  -2    9.61    2.11
  -9   6   2   18.42    2.25
   9  -6  -2   30.44    3.35
  -9   7   2   19.99    2.37
   9  -7  -2   25.19    3.15
  -9   8   2    2.31    1.61
   9  -8  -2    2.00    1.97
  -9   9   2    6.92    1.99
   9  -9  -2    7.91    2.43
  -9  10   2   -0.14    1.75
   9 -10  -2    1.07    2.05
   8   6  -2    1.40    2.12
   8   5  -2    4.07    2.08
   8   4  -2    9.98    2.34
   8   4  -2   14.91    2.47
   8   3  -2   19.81    2.65
   8   3  -2   27.96    2.91
   8   2  -2   64.86    3.70
   8   2  -2   54.39    3.64
  -8  -1   2  172.63    5.54
   8   1  -2  172.00    6.20
  -8   0   2   76.59    3.35
   8   0  -2   76.76    4.01
  -8   1   2    3.99    1.09
   8  -1  -2    4.28    1.66
  -8   2   2    0.77    0.81
   8  -2  -2    0.99    1.33
  -8   3   2   14.09    1.72
   8  -3  -2   10.60    1.93
  -8   4   2  125.44    4.45
   8  -4  -2  127.81    5.04
  -8   5   2   66.00    3.21
   8  -5  -2   64.35    3.72
  -8   6   2  154.50    5.24
  -8   7   2   -0.39    1.08
   8  -7  -2   -1.72    1.45
  -8   8   2    1.25    1.42
   8  -8  -2    0.53    1.69
  -8   9   2    1.95    1.58
   8  -9  -2    0.45    1.86
  -8  10   2    5.99    1.94
   8 -10  -2    8.20    2.31
   7   7  -2    9.33    2.45
   7   6  -2    1.64    1.78
   7   5  -2   66.93    3.93
   7   4  -2    7.57    1.96
   7   4  -2    9.68    1.90
   7   3  -2   42.46    3.10
   7   3  -2   43.33    3.02
   7   2  -2    7.06    1.66
   7   2  -2    5.93    1.71
   7   1  -2   39.84    2.88
  -7   0   2   15.59    1.65
   7   0  -2   10.82    1.84
  -7   1   2  207.09    5.78
   7  -1  -2  208.90    6.46
  -7   2   2   73.17    3.01
   7  -2  -2   74.36    3.44
  -7   3   2   20.10    1.77
   7  -3  -2   22.82    2.29
  -7   4   2    0.57    0.76
  -7   5   2    4.65    1.22
   7  -5  -2    8.29    1.76
  -7   6   2   66.46    3.13
   7  -6  -2   63.58    3.53
  -7   7   2   42.29    2.72
   7  -7  -2   40.73    3.15
  -7   8   2  135.42    4.94
   7  -8  -2  131.27    5.44
  -7   9   2    0.04    1.37
   7  -9  -2    0.85    1.68
  -7  10   2    3.45    1.73
   6   7  -2   25.54    2.97
   6   6  -2   71.67    4.01
   6   5  -2   21.13    2.48
   6   4  -2   -0.79    1.11
   6   4  -2    2.48    1.34
   6   3  -2   -1.22    1.21
   6   3  -2    3.01    1.40
   6   2  -2    1.56    1.19
   6   2  -2    1.05    1.23
   6   1  -2  155.64    5.02
   6   1  -2  143.65    4.72
  -6   0   2   76.27    2.88
   6   0  -2   72.46    3.21
  -6   1   2  270.77    6.82
   6  -1  -2  282.10    7.57
  -6   2   2   -0.42    0.61
   6  -2  -2    2.56    1.20
  -6   3   2   66.08    2.69
   6  -3  -2   60.31    2.93
  -6   4   2    2.95    0.91
   6  -4  -2    1.59    1.12
  -6   5   2   79.83    3.13
   6  -5  -2   78.07    3.55
  -6   6   2   20.90    1.98
   6  -6  -2   20.69    2.25
  -6   7   2   51.91    2.83
   6  -7  -2   51.38    3.16
  -6   8   2   18.27    2.16
   6  -8  -2   21.30    2.53
  -6   9   2    4.37    1.59
   6  -9  -2    3.31    1.73
  -6  10   2   15.69    2.31
  -6  11   2   -0.04    1.52
   5   8  -2    7.69    2.11
   5   7  -2   16.68    2.32
   5   6  -2   33.20    2.76
   5   5  -2   15.83    1.96
   5   4  -2  232.24    6.48
   5   4  -2  238.86    6.51
   5   3  -2   40.32    2.40
   5   3  -2   42.84    2.47
   5   2  -2   23.40    1.83
   5   2  -2   22.78    1.84
   5   1  -2   37.61    2.13
   5   1  -2   36.85    2.17
  -5   0   2    8.01    1.08
   5   0  -2    9.90    1.38
  -5   1   2  130.94    3.80
   5  -1  -2  127.15    4.19
  -5   2   2  331.70    7.59
   5  -2  -2  323.24    8.27
  -5   3   2  432.55    9.32
   5  -3  -2  398.31   10.14
  -5   4   2    6.00    1.03
   5  -4  -2    7.28    1.33
  -5   5   2    7.79    1.19
   5  -5  -2   11.65    1.67
  -5   6   2   73.95    3.03
   5  -6  -2   81.61    3.54
  -5   7   2   28.52    2.11
   5  -7  -2   29.25    2.47
  -5   8   2   33.03    2.46
   5  -8  -2   30.71    2.66
  -5   9   2  143.40    5.04
   5  -9  -2  139.92    5.40
  -5  10   2   23.24    2.55
   4   9  -2    6.84    2.11
   4   8  -2    0.86    1.52
   4   6  -2   35.81    2.50
  -4  -5   2   -0.02    0.56
   4   5  -2   -0.90    0.96
   4   4  -2   96.73    3.46
   4   4  -2   95.34    3.19
   4   3  -2    0.90    0.80
   4   3  -2   -0.97    0.66
   4   2  -2  180.85    4.74
   4   2  -2  172.97    4.87
   4   1  -2    0.78    0.75
   4   1  -2    0.62    0.76
   4   0  -2  210.92    5.60
  -4   1   2   11.87    1.16
   4  -1  -2   13.02    1.36
  -4   2   2   94.67    2.87
   4  -2  -2   92.62    3.20
  -4   3   2   18.77    1.34
  -4   3   2   18.99    1.01
   4  -3  -2   20.51    1.67
  -4   4   2   84.70    2.74
  -4   4   2   87.47    2.60
   4  -4  -2   71.12    3.09
  -4   5   2   77.43    2.73
  -4   5   2   76.18    2.73
   4  -5  -2   76.89    3.25
  -4   6   2   39.23    2.09
   4  -6  -2   36.03    2.48
  -4   7   2   42.23    2.40
   4  -7  -2   35.20    2.67
  -4   8   2    3.42    1.20
   4  -8  -2    8.40    1.76
  -4   9   2   12.60    1.88
  -4  10   2    1.47    1.39
   3  10  -2    1.81    1.80
   3   9  -2   88.85    4.28
   3   8  -2    2.97    1.46
   3   7  -2    6.19    1.48
   3   6  -2   55.73    2.80
  -3  -5   2    1.89    0.52
   3   5  -2    1.27    0.92
   3   4  -2   37.12    1.61
   3   4  -2   38.29    1.98
   3   3  -2  255.01    6.08
   3   3  -2  243.35    5.95
   3   2  -2  413.79    8.79
   3   2  -2  404.92    9.30
   3   1  -2    2.52    0.74
   3   1  -2    3.96    0.80
  -3   0   2    1.05    0.36
   3   0  -2    1.57    0.71
   3   0  -2    0.51    0.58
  -3   1   2  187.91    4.41
   3  -1  -2  187.05    4.93
  -3   2   2   48.49    1.75
  -3   2   2   47.43    1.53
  -3   3   2   52.48    1.87
  -3   3   2   50.94    1.88
   3  -3  -2   49.38    2.43
  -3   4   2  518.87   11.18
  -3   4   2  529.61   10.38
   3  -4  -2  431.57   11.56
  -3   5   2   30.12    1.86
  -3   5   2   28.95    1.66
  -3   6   2   18.61    1.66
  -3   6   2   16.73    1.77
   3  -6  -2   19.01    2.08
  -3   7   2   12.76    1.58
   3  -7  -2   13.44    1.96
  -3   8   2    7.59    1.43
   3  -8  -2    1.13    1.39
  -3   9   2   25.08    2.42
  -3  10   2   20.30    2.41
   2  10  -2   -0.31    1.45
   2   9  -2    5.09    1.58
   2   8  -2    1.49    1.15
   2   7  -2  134.28    4.46
   2   6  -2    1.24    0.93
   2   5  -2   90.61    3.08
   2   4  -2   89.69    2.89
   2   3  -2   22.16    1.40
   2   3  -2   21.43    1.08
   2   2  -2   15.28    1.14
   2   2  -2   17.76    1.05
   2   1  -2  416.62    8.47
   2   1  -2  414.33    9.14
  -2   0   2  241.16    5.22
   2   0  -2  238.56    5.19
  -2   1   2  113.29    2.79
  -2   1   2  117.73    2.92
   2  -1  -2  118.15    3.27
  -2   2   2    1.58    0.46
  -2   2   2    0.78    0.58
   2  -2  -2    3.00    0.80
  -2   3   2  108.77    3.28
  -2   3   2  109.10    2.86
   2  -3  -2  108.80    3.39
  -2   4   2   19.69    1.25
  -2   4   2   18.44    1.51
   2  -4  -2   18.14    1.53
  -2   5   2   18.52    1.38
  -2   5   2   20.40    1.77
   2  -5  -2   20.28    1.67
  -2   6   2  282.68    7.97
  -2   6   2  290.70    6.90
   2  -6  -2  288.77    7.70
  -2   7   2   22.49    1.93
  -2   7   2   22.56    2.41
   2  -7  -2   20.63    2.13
  -2   8   2   27.97    2.30
  -2   9   2   19.80    2.20
  -2  10   2    2.68    1.50
   1  11  -2   12.22    2.32
   1  10  -2    6.51    1.85
   1   9  -2    5.22    1.51
   1   8  -2   78.85    3.39
   1   7  -2   32.03    2.18
   1   6  -2    8.85    1.23
   1   5  -2    0.99    0.69
   1   4  -2   57.77    2.13
   1   3  -2  101.05    2.78
   1   2  -2    3.80    0.58
   1   2  -2    4.15    0.46
  -1  -1   2  497.94   10.55
   1   1  -2  500.97    9.73
   1   1  -2  501.10   10.67
  -1   0   2   22.90    0.84
  -1   0   2   23.31    1.07
   1   0  -2   22.16    1.12
  -1   1   2  140.78    3.59
  -1   1   2  135.57    2.95
   1  -1  -2  139.02    3.62
  -1   2   2    9.25    1.02
  -1   2   2    7.95    0.71
   1  -2  -2    8.78    0.98
  -1   3   2   66.18    1.98
  -1   3   2   62.54    2.57
   1  -3  -2   64.07    2.38
  -1   4   2    2.39    0.95
  -1   4   2    3.41    0.69
   1  -4  -2    3.37    0.90
  -1   5   2   30.58    1.66
  -1   5   2   28.93    2.17
   1  -5  -2   25.96    1.82
  -1   6   2   16.44    2.08
  -1   6   2   16.96    1.60
   1  -6  -2   14.53    1.74
  -1   7   2    2.51    1.46
  -1   7   2    2.29    1.08
   1  -7  -2    3.63    1.32
  -1   8   2   25.94    2.31
  -1   9   2    1.41    1.44
  -1  10   2   17.60    2.31
   0  11  -2    8.22    1.94
   0  10  -2   15.10    2.21
   0   9  -2   38.36    2.72
   0   8  -2    3.61    1.21
   0   7  -2    3.47    1.08
   0   6  -2  269.01    6.49
   0   5  -2  114.83    3.32
   0   4  -2  104.79    2.92
   0   3  -2  152.62    3.59
   0  -2   2  267.63    6.41
   0   2  -2  292.36    5.82
   0   2  -2  294.95    6.15
   0  -1   2   11.89    0.78
   0   1  -2    8.60    0.56
   0   1  -2   11.04    0.70
   0   0   2  175.87    4.26
   0   0  -2  173.08    4.20
   0   1   2  840.24   18.39
   0   1   2  882.33   16.34
   0  -1  -2  878.85   18.59
   0   2   2    5.56    0.98
   0   2   2    6.51    0.62
   0  -2  -2    6.67    0.91
   0   3   2   66.53    2.04
   0   3   2   66.11    2.83
   0  -3  -2   62.45    2.37
   0   4   2  181.83    5.65
   0   4   2  186.37    4.46
   0  -4  -2  181.76    5.07
   0   5   2    0.20    0.69
   0   5   2    1.39    1.11
   0  -5  -2    2.05    0.94
   0   6   2   -0.39    0.83
   0   6   2    1.53    1.28
   0  -6  -2    1.96    1.04
   0   7   2  116.77    3.99
   0   7   2  110.67    5.17
   0  -7  -2  117.28    4.34
   0   8   2   29.80    2.43
   0   9   2   10.54    1.84
  -1  11  -2    5.85    1.86
  -1  10  -2    4.12    1.44
  -1   9  -2    3.46    1.25
  -1   8  -2   30.58    2.13
  -1   7  -2    0.57    0.82
  -1   6  -2   38.40    1.90
  -1   5  -2   18.59    1.33
   1  -4   2  185.96    4.25
  -1   4  -2  184.31    4.38
   1  -3   2    7.22    0.66
   1  -3   2    3.99    0.65
  -1   3  -2    6.56    0.70
   1  -2   2  429.16    9.25
   1  -2   2  419.29    9.14
  -1   2  -2  418.75    8.33
   1  -1   2  136.96    3.44
   1  -1   2  126.59    3.34
  -1   1  -2  136.45    2.73
   1   0   2    3.27    0.71
  -1   0  -2    5.48    0.73
   1   1   2   13.48    1.28
   1   1   2   12.40    0.69
  -1  -1  -2   11.65    1.03
   1   2   2   40.82    2.22
   1   2   2   39.93    1.41
  -1  -2  -2   42.35    1.82
   1   3   2   81.67    2.35
   1   3   2   73.20    3.26
  -1  -3  -2   82.49    2.82
   1   4   2   44.59    2.75
   1   4   2   42.06    1.83
  -1  -4  -2   41.95    2.05
   1   5   2   43.93    2.12
   1   5   2   43.92    3.02
  -1  -5  -2   45.23    2.32
   1   6   2   21.34    2.69
   1   6   2   21.22    1.88
  -1  -6  -2   22.40    1.94
   1   7   2    4.70    1.91
   1   7   2    4.34    1.33
   1   8   2    1.74    1.34
   1   9   2   31.94    2.99
  -2  12  -2   -1.83    1.49
  -2  11  -2   82.26    4.11
  -2  10  -2   22.65    2.35
  -2   9  -2   30.14    2.36
  -2   8  -2   29.75    2.07
   2  -7   2    9.61    0.94
  -2   7  -2   14.68    1.50
   2  -6   2    0.49    0.51
  -2   6  -2    0.33    0.66
   2  -5   2  120.84    3.35
  -2   5  -2  127.75    3.48
   2  -4   2  417.04    9.56
  -2   4  -2  438.16    8.94
   2  -3   2   32.52    1.53
   2  -3   2   32.07    1.43
  -2   3  -2   30.46    1.31
   2  -2   2   18.52    1.06
   2  -2   2   19.26    1.24
  -2   2  -2   16.37    0.86
   2  -1   2  225.64    5.68
   2  -1   2  237.23    5.55
  -2   1  -2  228.21    4.77
   2   0   2   12.74    1.21
   2   0   2    9.90    1.16
   2   0   2   11.35    0.87
   2   1   2    7.19    1.21
   2   1   2   10.98    0.88
  -2  -1  -2   10.67    1.14
   2   2   2  357.66    7.49
   2   2   2  361.54    9.05
  -2  -2  -2  353.14    8.65
   2   3   2   20.06    1.33
   2   3   2   23.22    2.10
  -2  -3  -2   22.17    1.53
   2   4   2   30.39    1.78
   2   4   2   30.34    2.63
  -2  -4  -2   34.55    1.97
   2   5   2    2.68    1.52
   2   5   2    5.53    1.19
  -2  -5  -2    3.71    1.15
   2   6   2   -1.72    1.34
   2   6   2    0.46    0.96
  -2  -6  -2    0.21    0.89
   2   7   2    6.80    1.56
   2   7   2    5.03    2.23
   2   8   2    1.78    1.41
  -3  12  -2    1.18    1.64
  -3  11  -2    2.22    1.46
  -3  10  -2   -0.73    1.05
  -3   9  -2   98.26    3.81
   3  -8   2   19.60    1.53
  -3   8  -2   21.56    2.01
   3  -7   2  134.74    3.92
  -3   7  -2  131.89    4.10
   3  -6   2   23.34    1.51
  -3   6  -2   25.32    1.66
   3  -5   2    0.70    0.69
   3  -5   2   -0.07    0.51
  -3   5  -2    1.15    0.66
   3  -4   2   57.17    2.07
   3  -4   2   61.42    2.35
  -3   4  -2   55.91    2.07
   3  -3   2  166.15    4.61
   3  -3   2  160.22    4.03
  -3   3  -2  158.78    3.88
   3  -2   2  186.12    5.16
   3  -2   2  192.27    4.67
  -3   2  -2  186.42    4.33
   3  -1   2  236.94    5.80
   3  -1   2  233.22    6.13
  -3   1  -2  225.92    5.07
   3   0   2   26.87    1.80
   3   0   2   26.91    1.84
   3   1   2   72.26    2.40
   3   1   2   72.22    3.12
   3   1   2   78.05    2.93
   3   2   2    4.03    0.86
   3   2   2    3.77    1.21
  -3  -2  -2    4.96    1.04
   3   3   2    3.78    1.40
   3   3   2    4.58    1.05
  -3  -3  -2    4.74    1.10
   3   4   2  188.09    5.10
   3   4   2  186.85    6.59
  -3  -4  -2  186.32    5.62
   3   5   2   25.65    2.04
   3   5   2   21.87    2.65
  -3  -5  -2   28.28    2.07
   3   6   2   52.28    2.86
   3   6   2   58.50    4.31
   3   7   2   13.39    2.05
  -4  12  -2    5.08    1.86
  -4  11  -2    1.60    1.43
  -4  10  -2   34.87    2.70
  -4   9  -2   43.51    2.68
   4  -8   2   24.49    1.89
  -4   8  -2   22.60    2.00
   4  -7   2   23.38    1.83
  -4   7  -2   23.04    1.88
   4  -6   2   14.02    1.27
   4  -6   2   14.64    1.62
  -4   6  -2   14.43    1.47
   4  -5   2   45.32    1.88
   4  -5   2   41.50    2.25
  -4   5  -2   48.71    2.08
   4  -4   2    0.60    0.59
   4  -4   2    1.06    0.79
  -4   4  -2    1.12    0.67
   4  -3   2  200.40    4.86
   4  -3   2  198.85    5.72
  -4   3  -2  196.61    4.82
   4  -2   2    2.09    1.01
   4  -2   2    2.32    0.70
  -4   2  -2    1.54    0.62
   4  -1   2   96.30    3.20
   4  -1   2   96.79    3.65
  -4   1  -2   99.61    2.81
   4   0   2    2.37    1.00
   4   0   2    0.31    0.78
  -4   0  -2    0.64    0.52
   4   1   2   54.06    2.77
   4   1   2   58.28    2.32
   4   1   2   56.55    2.75
   4   2   2    9.41    1.76
   4   2   2    9.41    1.31
  -4  -2  -2   10.06    1.47
   4   3   2   15.80    1.68
   4   3   2   13.30    2.20
  -4  -3  -2   18.66    1.94
   4   4   2    4.61    1.71
   4   4   2    3.80    1.20
  -4  -4  -2    5.39    1.33
   4   5   2   -1.66    1.47
   4   5   2   -0.36    1.15
  -4  -5  -2    0.70    1.02
   4   6   2   18.13    2.12
   4   6   2   15.32    2.91
  -5  12  -2   25.92    3.06
  -5  11  -2    6.38    1.76
  -5  10  -2    1.15    1.23
   5  -9   2    8.71    1.59
  -5   9  -2    9.05    1.63
   5  -8   2  105.59    3.99
   5  -8   2   99.99    3.58
  -5   8  -2   96.51    3.86
   5  -7   2  101.34    3.90
   5  -7   2  101.02    3.35
  -5   7  -2  100.87    3.68
   5  -6   2  180.06    4.80
   5  -6   2  184.13    5.63
  -5   6  -2  178.60    5.09
   5  -5   2    5.19    0.86
   5  -5   2    5.68    1.31
  -5   5  -2    6.09    1.11
   5  -4   2   37.45    1.67
   5  -4   2   41.64    2.49
  -5   4  -2   37.93    1.94
   5  -3   2    2.07    1.09
   5  -3   2    3.38    0.74
  -5   3  -2    4.64    0.92
   5  -2   2    3.52    0.87
   5  -2   2    3.81    1.26
  -5   2  -2    6.58    0.94
   5  -1   2  325.49    8.01
   5  -1   2  325.22    8.80
  -5   1  -2  324.71    7.33
   5   0   2   81.09    3.33
   5   0   2   83.37    3.64
  -5   0  -2   82.99    2.71
   5   1   2  123.92    4.63
   5   1   2  122.41    3.96
   5   1   2  119.03    4.52
   5   2   2   35.23    2.97
   5   2   2   36.47    2.40
  -5  -2  -2   41.32    2.61
   5   3   2    2.33    1.14
   5   3   2    0.16    1.34
  -5  -3  -2    0.88    1.06
   5   4   2    1.58    1.72
   5   4   2    4.25    1.43
  -5  -4  -2    5.96    1.47
   5   5   2   51.66    4.37
   5   5   2   58.68    3.25
  -5  -5  -2   59.27    3.63
   5   6   2   21.25    3.49
   6 -12   2    8.07    1.77
  -6  12  -2    4.28    1.86
   6 -11   2    7.69    1.60
  -6  11  -2    6.30    1.81
   6 -10   2   27.06    2.32
  -6  10  -2   28.38    2.83
   6  -9   2    0.39    1.28
   6  -9   2    1.13    0.93
  -6   9  -2    0.18    1.09
   6  -8   2   27.37    1.92
   6  -8   2   27.28    2.57
  -6   8  -2   28.01    2.33
   6  -7   2    3.05    0.93
   6  -7   2    4.01    1.47
  -6   7  -2    4.41    1.26
   6  -6   2   90.57    2.94
   6  -6   2   91.40    3.92
  -6   6  -2   86.66    3.41
   6  -5   2   19.76    2.21
   6  -5   2   15.40    1.28
  -6   5  -2   16.15    1.70
   6  -4   2  184.27    4.80
   6  -4   2  192.55    6.17
  -6   4  -2  191.51    5.22
   6  -3   2    8.63    1.64
   6  -3   2    6.58    1.01
  -6   3  -2    7.70    1.16
   6  -2   2   10.91    1.81
   6  -2   2   12.22    1.35
  -6   2  -2   14.96    1.44
   6  -1   2    1.91    1.41
   6  -1   2   -0.38    0.91
  -6   1  -2    1.28    0.68
   6   0   2    2.36    1.47
   6   0   2    6.18    1.34
  -6   0  -2    3.90    0.86
   6   1   2   45.91    3.29
   6   1   2   51.00    3.18
  -6  -1  -2   43.32    2.25
   6   2   2   60.89    3.60
   6   2   2   47.77    2.89
  -6  -2  -2   57.29    3.20
   6   3   2   65.76    4.13
   6   3   2   63.23    3.39
  -6  -3  -2   70.19    3.61
   6   4   2   -1.06    1.41
   6   4   2    0.98    1.86
  -6  -4  -2    0.77    1.26
   6   5   2   -2.12    2.19
  -7  12  -2   16.14    2.73
  -7  11  -2   42.73    3.61
   7 -10   2    0.35    1.65
  -7  10  -2    1.54    1.52
   7  -9   2    1.32    1.50
   7  -9   2    0.61    0.96
  -7   9  -2    0.36    1.20
   7  -8   2    0.25    1.34
   7  -8   2    0.27    0.91
  -7   8  -2    0.42    1.07
   7  -7   2   16.14    1.43
   7  -7   2   19.43    2.42
  -7   7  -2   16.56    2.03
   7  -6   2  142.64    5.44
   7  -6   2  148.03    4.03
  -7   6  -2  139.26    4.76
   7  -5   2   49.36    2.02
   7  -5   2   46.23    3.19
  -7   5  -2   46.26    2.61
   7  -4   2   83.60    4.18
   7  -4   2   84.28    2.84
  -7   4  -2   85.14    3.34
   7  -3   2   16.28    2.32
   7  -3   2   11.76    1.28
  -7   3  -2   10.69    1.43
   7  -2   2   12.05    2.06
   7  -2   2   11.88    1.47
  -7   2  -2   15.87    1.55
   7  -1   2    1.60    1.23
   7  -1   2    0.74    1.61
  -7   1  -2    2.37    0.88
   7   0   2  103.40    4.21
   7   0   2  106.17    4.82
  -7   0  -2   96.15    3.48
   7   1   2   22.86    2.54
   7   1   2   16.79    2.56
  -7  -1  -2   19.76    1.74
   7   2   2   36.95    3.20
  -7  -2  -2   28.59    2.14
  -7  -2  -2   30.43    2.67
   7   3   2    0.71    1.83
  -7  -3  -2    4.60    1.60
   7   4   2    1.72    2.13
  -7  -4  -2    5.55    1.68
  -8  12  -2   -0.83    1.70
  -8  11  -2   20.69    2.93
   8 -10   2   16.57    2.59
  -8  10  -2   16.55    2.55
   8  -9   2   90.85    4.71
  -8   9  -2   92.27    4.44
   8  -8   2    0.38    1.63
  -8   8  -2   -0.25    1.16
   8  -7   2    2.63    1.61
  -8   7  -2    2.24    1.27
   8  -6   2   19.27    2.73
  -8   6  -2   19.69    2.14
   8  -5   2   17.64    2.58
  -8   5  -2   22.75    2.22
   8  -4   2   60.21    3.90
  -8   4  -2   65.63    3.14
   8  -3   2   92.67    4.71
   8  -3   2  103.68    3.46
  -8   3  -2  103.23    3.82
   8  -2   2   58.97    3.91
   8  -2   2   60.03    2.92
  -8   2  -2   60.77    2.84
   8  -1   2   -2.19    1.15
   8  -1   2    0.01    1.72
  -8   1  -2   -0.25    0.74
   8   0   2    1.57    1.79
   8   0   2    1.34    1.40
  -8   0  -2    1.06    0.83
   8   1   2    3.53    2.03
   8   1   2    2.86    1.68
  -8  -1  -2    2.99    1.03
   8   2   2   44.48    3.77
  -8  -2  -2   43.89    3.30
  -8  -2  -2   42.75    2.66
   8   3   2   13.70    2.91
  -8  -3  -2   14.87    2.33
  -9  11  -2   16.60    2.89
   9 -10   2    9.10    2.51
  -9  10  -2   10.55    2.37
   9  -9   2   12.28    2.68
  -9   9  -2   10.98    2.27
   9  -8   2    2.22    1.84
  -9   8  -2    1.71    1.52
   9  -7   2   23.60    3.17
  -9   7  -2   26.55    2.70
   9  -6   2    0.23    1.45
  -9   6  -2    0.53    1.17
   9  -5   2   39.33    3.50
  -9   5  -2   37.43    2.67
   9  -4   2    1.49    1.53
  -9   4  -2    1.96    1.17
   9  -3   2   30.51    3.39
  -9   3  -2   34.72    2.43
   9  -2   2    0.94    1.75
  -9   2  -2    3.37    1.08
   9  -1   2   33.71    3.76
  -9   1  -2   30.45    2.23
   9   0   2    6.88    2.42
  -9   0  -2   11.15    1.57
   9   1   2    8.23    2.36
   9   1   2   13.34    3.00
  -9  -1  -2   10.47    1.65
   9   2   2    8.09    2.48
  -9  -2  -2    7.09    1.94
  10 -10   2    8.74    2.78
 -10  10  -2    6.79    2.31
  10  -9   2   22.83    3.57
 -10   9  -2   22.82    3.06
  10  -8   2   56.58    4.34
 -10   8  -2   65.36    4.05
  10  -7   2   13.94    2.74
 -10   7  -2   10.62    2.08
  10  -6   2    2.51    1.86
 -10   6  -2   -0.62    1.19
  10  -5   2    0.99    1.70
 -10   5  -2   -0.29    1.08
  10  -4   2   -0.27    1.74
 -10   4  -2    0.49    1.10
  10  -3   2   41.78    4.00
 -10   3  -2   44.12    2.85
  10  -2   2   18.97    3.30
 -10   2  -2   18.56    2.10
  10  -1   2   51.01    4.41
 -10   1  -2   57.11    3.11
  10   0   2    1.13    2.36
 -10   0  -2    1.57    1.17
  10   1   2    2.56    2.57
  11  -9   2    1.91    2.09
 -11   9  -2    1.57    1.93
  11  -8   2    3.03    2.08
 -11   8  -2    6.17    1.94
 -11   7  -2    2.76    1.63
  11  -6   2   34.81    4.01
 -11   6  -2   36.17    3.12
  11  -5   2    4.65    2.30
 -11   5  -2    7.44    1.83
  11  -4   2    2.67    2.42
 -11   4  -2    8.87    1.78
  11  -3   2    1.52    2.31
 -11   3  -2    4.77    1.42
  11  -2   2    0.04    2.40
 -11   2  -2    2.06    1.19
  11  -1   2    3.04    2.83
 -11   1  -2    8.30    1.68
  12  -7   2    6.77    2.61
 -12   7  -2    4.77    1.91
  12  -6   2   16.92    3.15
 -12   6  -2   11.70    2.05
  12  -5   2    0.00    2.26
 -12   5  -2    1.63    1.36
  12  -4   2    3.93    2.62
 -12   4  -2    3.89    1.60
 -12   0   3   23.50    2.94
  12   0  -3   22.02    3.73
 -12   1   3    9.71    2.02
  12  -1  -3   13.31    3.02
 -12   2   3    1.33    1.30
  12  -2  -3    2.64    2.26
 -12   3   3    2.78    1.52
  12  -3  -3    0.60    2.01
 -12   4   3    3.70    1.57
  12  -4  -3    2.81    2.15
 -12   5   3   34.66    3.34
  12  -5  -3   21.53    3.27
 -12   6   3   16.49    2.47
  12  -6  -3   12.81    2.92
 -12   7   3   53.87    4.10
  12  -7  -3   38.30    4.40
 -11  -2   3   51.24    3.74
  11   2  -3   38.05    4.13
 -11  -1   3   22.83    2.76
  11   1  -3   20.17    3.43
 -11   0   3   49.33    3.41
  11   0  -3   46.39    4.52
 -11   1   3    1.33    1.27
  11  -1  -3    2.38    2.07
 -11   2   3    2.70    1.33
  11  -2  -3    4.97    2.25
 -11   3   3   -0.34    1.05
  11  -3  -3   -0.30    1.69
 -11   4   3   24.64    2.65
  11  -4  -3   27.64    3.40
 -11   5   3   38.60    3.19
  11  -5  -3   37.23    3.94
 -11   6   3   16.97    2.48
  11  -6  -3   19.17    3.12
 -11   7   3    9.34    2.23
  11  -7  -3    8.27    2.60
 -11   8   3    4.43    1.87
  11  -8  -3   -0.02    2.12
 -10  -3   3    6.73    1.88
  10   3  -3    3.33    2.30
 -10  -2   3    1.67    1.37
  10   2  -3   -0.43    1.90
 -10  -1   3   -0.64    1.13
  10   1  -3    3.56    2.15
 -10   0   3   49.32    3.20
  10   0  -3   52.61    4.00
 -10   1   3   69.43    3.54
  10  -1  -3   62.50    4.12
 -10   2   3   99.08    4.23
  10  -2  -3  108.69    5.06
 -10   3   3    2.81    1.27
  10  -3  -3    3.05    1.67
 -10   4   3    0.95    1.15
  10  -4  -3   -1.14    1.42
 -10   5   3   12.80    2.04
  10  -5  -3   18.66    2.79
 -10   6   3   33.84    2.92
  10  -6  -3   30.80    3.57
 -10   7   3   38.71    3.26
  10  -7  -3   37.66    4.06
 -10   8   3   65.04    4.12
  10  -8  -3   60.53    4.61
 -10   9   3   12.99    2.52
  10  -9  -3   13.39    3.09
   9   5  -3   23.42    3.32
   9   4  -3    0.29    1.99
   9   3  -3   14.11    2.61
   9   3  -3   15.95    2.65
  -9  -2   3    2.88    1.32
   9   2  -3    4.51    1.94
  -9  -1   3   44.31    2.86
   9   1  -3   41.57    3.48
  -9   0   3   13.40    1.87
   9   0  -3   10.91    2.31
  -9   1   3   30.68    2.36
   9  -1  -3   28.19    2.96
  -9   2   3   20.59    2.10
   9  -2  -3   24.70    2.76
  -9   3   3   13.06    1.75
   9  -3  -3   12.23    2.14
  -9   4   3   28.07    2.38
   9  -4  -3   30.98    2.90
  -9   5   3    2.92    1.22
   9  -5  -3    3.29    1.71
  -9   6   3   29.30    2.72
   9  -6  -3   27.47    3.31
  -9   7   3   -0.67    1.17
   9  -7  -3   -0.79    1.73
  -9   8   3   34.36    3.20
   9  -8  -3   29.45    3.71
  -9   9   3    0.77    1.60
   9  -9  -3    3.80    2.28
   8   6  -3    0.39    1.90
   8   5  -3   23.83    3.02
   8   4  -3   70.72    4.10
   8   4  -3   65.03    3.80
   8   3  -3   77.54    4.18
   8   3  -3   83.29    4.22
   8   2  -3    2.42    1.57
   8   2  -3   -0.15    1.45
  -8  -1   3    0.05    0.81
   8   1  -3    0.40    1.42
  -8   0   3   18.62    2.00
   8   0  -3   21.99    2.52
  -8   1   3   59.53    2.89
   8  -1  -3   57.42    3.38
  -8   2   3   50.48    2.69
   8  -2  -3   53.08    3.21
  -8   3   3  233.11    6.66
   8  -3  -3  241.31    7.49
  -8   4   3   13.81    1.78
   8  -4  -3   12.94    2.28
  -8   5   3    2.84    1.12
   8  -5  -3    1.49    1.49
  -8   6   3    7.89    1.59
   8  -6  -3   10.58    2.24
  -8   7   3    3.22    1.36
   8  -7  -3    3.58    1.71
  -8   8   3   55.10    3.51
   8  -8  -3   47.79    3.71
  -8   9   3   39.85    3.35
   8  -9  -3   36.88    3.90
  -8  10   3   35.32    3.46
   7   7  -3    1.53    1.90
   7   6  -3   18.37    2.61
   7   5  -3    4.00    1.78
   7   4  -3    9.55    1.87
   7   4  -3    9.95    1.99
   7   3  -3   16.80    2.26
   7   3  -3   16.81    2.30
   7   2  -3   76.29    3.68
   7   2  -3   79.50    3.82
   7   1  -3   59.23    3.28
  -7   0   3    4.18    1.04
   7   0  -3    4.34    1.41
  -7   1   3    6.48    1.21
   7  -1  -3    5.86    1.50
  -7   2   3   16.81    1.68
   7  -2  -3   17.70    2.14
  -7   3   3   42.05    2.38
   7  -3  -3   47.76    2.84
  -7   4   3   23.90    1.97
   7  -4  -3   31.80    2.54
  -7   5   3  219.27    6.23
   7  -5  -3  222.90    7.00
  -7   6   3   17.87    2.01
   7  -6  -3   18.75    2.46
  -7   7   3   10.45    1.71
   7  -7  -3   10.79    2.12
  -7   8   3   12.69    2.01
   7  -8  -3   20.30    2.74
  -7   9   3    0.37    1.43
   7  -9  -3   -0.42    1.70
  -7  10   3    8.09    2.05
   6   8  -3   13.49    2.60
   6   7  -3   -0.55    1.51
   6   6  -3    1.93    1.56
   6   5  -3    5.27    1.67
   6   4  -3   64.86    3.41
   6   4  -3   72.60    3.33
   6   3  -3   15.17    1.90
   6   3  -3   13.56    1.90
   6   2  -3  180.87    5.49
   6   2  -3  190.44    5.74
   6   1  -3   -1.64    0.81
   6   1  -3   -0.12    0.98
  -6   0   3   15.17    1.50
   6   0  -3   11.85    1.63
  -6   1   3   18.03    1.51
   6  -1  -3   21.88    2.09
  -6   2   3   24.60    1.69
   6  -2  -3   20.60    1.88
  -6   3   3   67.67    2.75
   6  -3  -3   62.85    3.06
  -6   4   3   57.62    2.61
   6  -4  -3   61.28    3.10
  -6   5   3   54.24    2.65
   6  -5  -3   56.60    3.21
  -6   6   3    1.82    0.99
   6  -6  -3    2.06    1.32
  -6   7   3   25.62    2.23
   6  -7  -3   26.50    2.73
  -6   8   3    1.98    1.36
   6  -8  -3    0.75    1.54
  -6   9   3   30.08    2.81
   6  -9  -3   34.23    3.29
  -6  10   3   -0.14    1.49
   5   9  -3    3.37    1.93
   5   8  -3    2.23    1.64
   5   7  -3   77.38    3.99
   5   6  -3   31.62    2.72
   5   5  -3    8.73    1.69
   5   5  -3   11.22    1.51
   5   4  -3   14.69    1.75
   5   4  -3   19.76    1.86
   5   3  -3   54.46    2.54
   5   3  -3   52.56    2.64
   5   2  -3   27.69    1.91
   5   2  -3   26.90    1.95
   5   1  -3   85.46    3.19
  -5   0   3  526.03   11.44
   5   0  -3  539.24   12.49
  -5   1   3   12.91    1.31
   5  -1  -3   14.42    1.57
  -5   2   3   11.12    1.25
   5  -2  -3   10.38    1.46
  -5   3   3  190.79    5.04
   5  -3  -3  190.08    5.70
  -5   4   3    5.36    0.98
  -5   4   3    4.02    0.73
   5  -4  -3    4.58    1.31
  -5   5   3   23.53    1.56
  -5   5   3   24.85    1.75
   5  -5  -3   24.67    2.35
  -5   6   3  165.88    4.90
   5  -6  -3  168.92    5.78
  -5   7   3   63.39    3.03
   5  -7  -3   71.57    3.70
  -5   8   3    6.02    1.46
   5  -8  -3    2.80    1.70
  -5   9   3    0.28    1.26
   5  -9  -3    1.35    1.87
  -5  10   3    6.75    1.86
   4   9  -3   16.38    2.54
   4   8  -3    3.23    1.52
   4   7  -3   38.98    2.79
   4   6  -3    4.87    1.42
   4   5  -3   30.03    1.69
   4   5  -3   28.10    2.18
   4   4  -3    2.49    0.85
   4   4  -3    1.43    0.91
   4   3  -3   89.01    3.16
   4   3  -3   93.06    3.05
   4   2  -3    1.75    0.83
   4   2  -3    0.94    0.74
  -4  -1   3   17.58    1.08
   4   1  -3   16.76    1.57
   4   1  -3   17.36    1.42
  -4   0   3   20.56    1.33
  -4   0   3   20.21    1.01
   4   0  -3   20.06    1.54
  -4   1   3    9.45    1.06
  -4   1   3    8.58    0.70
  -4   2   3  151.77    3.77
  -4   2   3  157.59    4.11
   4  -2  -3  158.22    4.70
  -4   3   3    2.34    0.61
  -4   3   3    2.02    0.67
   4  -3  -3    1.55    1.00
  -4   4   3   53.58    2.15
  -4   4   3   53.79    2.15
   4  -4  -3   51.53    2.81
  -4   5   3   35.18    2.00
  -4   5   3   35.81    1.91
   4  -5  -3   34.43    2.57
  -4   6   3   37.28    2.34
  -4   6   3   35.51    2.09
   4  -6  -3   31.49    2.66
  -4   7   3   -0.18    0.88
   4  -7  -3    1.50    1.42
  -4   8   3   69.02    3.24
   4  -8  -3   68.60    3.82
  -4   9   3   12.21    1.92
  -4  10   3   16.48    2.30
   3  10  -3    7.71    2.03
   3   9  -3    8.03    1.91
   3   8  -3   10.69    1.83
   3   7  -3    5.76    1.43
   3   6  -3   90.12    3.50
   3   5  -3  244.00    6.27
   3   4  -3    4.06    0.74
   3   4  -3    1.97    0.80
   3   3  -3    0.50    0.68
   3   3  -3    0.94    0.65
   3   2  -3  191.72    4.77
   3   2  -3  194.47    4.89
  -3  -1   3   17.46    1.05
   3   1  -3   16.61    1.27
   3   1  -3   16.37    1.29
  -3   0   3    8.48    0.81
  -3   0   3    8.25    0.89
   3   0  -3    6.26    1.02
  -3   1   3  626.94   12.54
  -3   1   3  633.96   13.26
   3  -1  -3  609.18   14.01
  -3   2   3   38.85    1.61
  -3   2   3   35.62    1.54
   3  -2  -3   42.59    2.12
  -3   3   3    7.72    0.98
  -3   3   3    8.40    0.91
   3  -3  -3    9.13    1.32
  -3   4   3   17.40    1.48
  -3   4   3   15.73    1.24
   3  -4  -3   19.73    1.87
  -3   5   3    5.93    1.15
  -3   5   3    9.96    1.20
   3  -5  -3    6.86    1.47
  -3   6   3   25.11    1.83
  -3   6   3   25.14    2.25
   3  -6  -3   26.76    2.43
  -3   7   3   14.67    1.64
  -3   7   3   16.37    2.18
   3  -7  -3   13.67    2.20
  -3   8   3   63.70    3.05
   3  -8  -3   67.67    3.87
  -3   9   3   -1.79    1.15
  -3  10   3    7.74    1.90
   2  10  -3   32.58    3.14
   2   9  -3    4.66    1.56
   2   8  -3   49.61    2.85
   2   7  -3    8.20    1.47
   2   6  -3    1.18    0.85
   2   5  -3    0.43    0.71
   2   4  -3  119.98    3.49
   2   3  -3  191.47    4.74
   2   3  -3  199.88    4.63
  -2  -2   3   37.96    1.59
   2   2  -3   38.48    1.50
   2   2  -3   42.87    1.63
  -2  -1   3   25.01    1.17
   2   1  -3   24.60    1.20
   2   1  -3   22.01    1.23
  -2   0   3  358.19    8.02
  -2   0   3  366.76    7.48
   2   0  -3  366.89    8.41
  -2   1   3    3.11    0.74
  -2   1   3    3.64    0.56
   2  -1  -3    4.59    0.93
  -2   2   3    0.73    0.43
  -2   2   3    0.34    0.62
   2  -2  -3   -0.74    0.64
  -2   3   3  542.05   10.96
  -2   3   3  538.83   12.38
   2  -3  -3  549.37   12.61
  -2   4   3   35.19    1.64
  -2   4   3   40.22    2.28
   2  -4  -3   41.00    2.22
  -2   5   3   64.92    2.40
  -2   5   3   63.07    3.11
   2  -5  -3   67.47    3.06
  -2   6   3   36.34    2.74
  -2   6   3   35.47    2.06
   2  -6  -3   33.98    2.46
  -2   7   3    3.91    1.57
  -2   7   3    1.00    1.06
   2  -7  -3    2.43    1.45
  -2   8   3   -0.40    1.04
  -2   9   3   14.50    2.02
   1  11  -3   32.49    3.31
   1  10  -3   40.47    3.07
   1   9  -3    3.18    1.29
   1   8  -3    3.12    1.15
   1   7  -3   20.85    1.96
   1   6  -3   46.22    2.21
   1   5  -3    3.92    0.90
   1   4  -3  284.79    6.43
   1   3  -3   15.75    0.80
   1   3  -3   16.08    1.09
  -1  -2   3   38.95    1.57
   1   2  -3   38.33    1.34
   1   2  -3   40.76    1.39
  -1  -1   3   50.31    1.77
   1   1  -3   55.90    1.80
   1   1  -3   52.46    1.52
  -1   0   3   36.83    1.57
  -1   0   3   38.32    1.12
   1   0  -3   38.09    1.57
  -1   1   3   28.95    1.57
  -1   1   3   27.92    0.93
   1  -1  -3   26.40    1.48
  -1   2   3   42.93    1.41
  -1   2   3   45.12    2.18
   1  -2  -3   43.11    1.97
  -1   3   3   69.51    2.04
  -1   3   3   62.62    2.79
   1  -3  -3   66.91    2.67
  -1   4   3    0.68    0.93
  -1   4   3    0.83    0.60
   1  -4  -3    1.14    0.84
  -1   5   3   37.61    1.93
  -1   5   3   37.97    2.71
   1  -5  -3   38.28    2.33
  -1   6   3    2.71    1.02
  -1   6   3    3.78    1.52
   1  -6  -3    2.90    1.35
  -1   7   3   51.13    3.65
  -1   7   3   46.87    2.50
   1  -7  -3   44.91    2.94
  -1   8   3   -0.57    1.67
  -1   8   3   -0.14    1.07
  -1   9   3   16.20    2.18
   0  11  -3    4.04    1.70
   0  10  -3   -1.18    1.11
   0   9  -3   83.62    3.66
   0   8  -3   93.13    3.57
   0   7  -3   60.86    2.67
   0   6  -3    0.78    0.66
   0   5  -3  102.61    3.08
   0   4  -3    0.23    0.51
   0  -3   3    5.76    0.85
   0   3  -3    7.40    0.78
   0   3  -3    5.91    0.56
   0  -2   3  947.90   20.11
   0   2  -3  969.70   18.27
   0   2  -3  962.77   20.25
   0  -1   3  201.04    4.93
   0   1  -3  205.30    4.95
   0   0   3  197.79    5.05
   0   0  -3  197.01    4.98
   0   1   3  214.91    5.72
   0  -1  -3  217.56    5.57
   0   2   3   22.00    1.00
   0   2   3   18.85    1.76
   0  -2  -3   17.13    1.38
   0   3   3    3.54    0.64
   0   3   3    4.59    1.17
   0  -3  -3    3.79    0.92
   0   4   3  150.65    5.32
   0   4   3  153.99    3.93
   0  -4  -3  158.57    4.79
   0   5   3  119.05    4.88
   0   5   3  120.24    3.50
   0  -5  -3  114.47    4.16
   0   6   3   31.64    2.06
   0   6   3   27.28    2.93
   0  -6  -3   32.61    2.35
   0   7   3    0.33    1.62
   0   7   3    1.23    1.09
   0  -7  -3    3.63    1.45
   0   8   3   13.59    1.90
   0   8   3   18.21    3.02
  -1  12  -3    4.18    1.83
  -1  11  -3   24.16    2.76
  -1  10  -3   -0.32    1.11
  -1   9  -3   48.37    2.74
  -1   8  -3    0.17    0.82
  -1   7  -3   80.71    3.04
  -1   6  -3    1.48    0.71
  -1   5  -3  131.35    3.56
   1  -4   3    9.11    0.85
   1  -4   3    8.90    1.08
  -1   4  -3   10.81    1.01
   1  -3   3   33.72    1.65
  -1   3  -3   34.12    1.32
   1  -2   3   29.56    1.44
  -1   2  -3   32.56    1.05
  -1   2  -3   31.68    1.36
   1  -1   3    7.54    0.95
  -1   1  -3    8.03    0.92
   1   0   3  163.14    4.62
  -1   0  -3  168.22    4.50
   1   1   3   51.23    2.40
  -1  -1  -3   48.19    2.10
   1   2   3  159.84    3.61
   1   2   3  156.79    5.05
  -1  -2  -3  160.68    4.66
   1   3   3   23.04    1.24
   1   3   3   22.65    2.07
  -1  -3  -3   19.80    1.62
   1   4   3   11.28    1.17
   1   4   3   10.18    1.80
  -1  -4  -3   14.13    1.64
   1   5   3   10.62    1.33
   1   5   3    9.17    1.98
  -1  -5  -3   12.87    1.71
   1   6   3   68.25    4.19
   1   6   3   68.26    2.86
  -1  -6  -3   64.28    3.27
   1   7   3   19.08    1.97
   1   7   3   17.31    2.88
  -2  12  -3   24.87    2.90
  -2  11  -3   -0.73    1.25
  -2  10  -3    4.75    1.44
  -2   9  -3    1.02    0.99
  -2   8  -3   28.01    2.03
  -2   7  -3  276.09    6.78
   2  -6   3   62.13    2.08
  -2   6  -3   64.69    2.46
   2  -5   3  135.36    4.02
   2  -5   3  139.01    3.72
  -2   5  -3  141.93    3.76
   2  -4   3   79.78    2.56
   2  -4   3   78.29    2.67
  -2   4  -3   79.08    2.41
   2  -3   3    3.93    0.78
   2  -3   3    1.91    0.76
  -2   3  -3    2.69    0.60
   2  -2   3    1.81    0.73
   2  -2   3    1.05    0.62
  -2   2  -3    1.48    0.43
   2  -1   3  440.84   10.32
   2  -1   3  453.10   10.21
  -2   1  -3  444.28    8.68
   2   0   3  177.21    5.02
  -2   0  -3  172.16    4.85
   2   1   3   61.57    1.81
   2   1   3   57.72    2.79
  -2  -1  -3   57.52    2.49
   2   2   3    1.61    1.04
   2   2   3    1.97    0.63
  -2  -2  -3    1.92    0.87
   2   3   3    2.23    0.80
   2   3   3    2.98    1.28
  -2  -3  -3    2.65    1.00
   2   4   3   16.95    1.56
   2   4   3   19.93    2.55
  -2  -4  -3   17.21    1.90
   2   5   3    9.74    2.08
   2   5   3   11.55    1.44
  -2  -5  -3   13.33    1.77
   2   6   3   62.55    2.92
   2   6   3   67.80    4.46
  -2  -6  -3   68.18    3.34
   2   7   3    0.15    1.98
  -3  12  -3   29.10    3.05
  -3  11  -3   11.68    2.11
  -3  10  -3   71.67    3.47
  -3   9  -3    0.54    1.01
   3  -8   3    3.94    0.92
  -3   8  -3    3.01    1.05
   3  -7   3    5.22    0.98
  -3   7  -3    1.37    0.87
   3  -6   3   67.06    2.51
   3  -6   3   64.43    2.58
  -3   6  -3   65.87    2.56
   3  -5   3  206.54    5.44
   3  -5   3  210.87    5.59
  -3   5  -3  214.21    5.18
   3  -4   3  168.33    4.53
   3  -4   3  170.61    4.82
  -3   4  -3  172.19    4.24
   3  -3   3  213.55    5.77
   3  -3   3  222.81    5.39
  -3   3  -3  205.73    4.81
   3  -2   3   73.82    2.61
   3  -2   3   71.54    2.83
  -3   2  -3   74.77    2.13
   3  -1   3   -0.47    0.76
   3  -1   3    0.97    0.80
  -3   1  -3    0.49    0.41
   3   0   3   11.03    1.49
  -3   0  -3   11.12    0.80
  -3   0  -3   10.86    1.37
   3   1   3  323.07    7.02
   3   1   3  334.68    8.68
  -3  -1  -3  320.63    8.43
   3   2   3   80.57    2.64
   3   2   3   88.07    3.90
  -3  -2  -3   79.58    3.32
   3   3   3  156.59    5.98
   3   3   3  167.42    4.40
  -3  -3  -3  157.96    5.22
   3   4   3   -1.52    1.20
   3   4   3   -0.95    0.87
  -3  -4  -3    1.76    1.04
   3   5   3    0.99    1.55
   3   5   3   -0.38    1.03
  -3  -5  -3    2.32    1.24
   3   6   3    1.69    2.08
   3   7   3    7.08    2.83
  -4  12  -3   35.12    3.41
  -4  11  -3   11.61    2.04
  -4  10  -3   15.95    2.02
  -4   9  -3    1.70    1.14
   4  -8   3   32.10    2.09
   4  -8   3   36.17    2.21
  -4   8  -3   34.55    2.34
   4  -7   3    0.68    0.77
   4  -7   3    1.39    0.94
  -4   7  -3    0.12    0.82
   4  -6   3  163.20    4.63
   4  -6   3  162.37    4.95
  -4   6  -3  166.46    4.61
   4  -5   3   18.73    1.85
   4  -5   3   19.26    1.47
  -4   5  -3   17.87    1.43
   4  -4   3   90.46    2.96
   4  -4   3   98.76    3.59
  -4   4  -3   95.32    2.92
   4  -3   3    3.05    1.12
   4  -3   3    3.93    0.84
  -4   3  -3    3.16    0.76
   4  -2   3   51.30    2.69
   4  -2   3   53.31    2.28
  -4   2  -3   53.14    1.93
   4  -1   3   44.58    2.28
   4  -1   3   41.04    2.46
  -4   1  -3   43.97    1.68
   4   0   3   18.78    1.93
   4   0   3   18.35    1.92
  -4   0  -3   18.93    1.14
   4   1   3   72.40    3.58
   4   1   3   71.77    2.65
  -4  -1  -3   69.53    3.20
   4   2   3    3.89    1.12
   4   2   3    2.89    1.49
  -4  -2  -3    1.19    1.02
   4   3   3   48.90    3.55
   4   3   3   50.89    2.45
  -4  -3  -3   44.99    2.79
   4   4   3   -0.60    1.06
   4   4   3    1.52    1.69
  -4  -4  -3    0.36    1.00
   4   5   3   47.87    4.18
  -4  -5  -3   42.04    2.91
   4   6   3   -0.30    2.11
   5 -12   3    7.98    1.86
  -5  12  -3    5.81    1.91
   5 -11   3   31.81    2.78
  -5  11  -3   24.85    2.74
   5 -10   3   67.12    3.44
  -5  10  -3   59.35    3.37
   5  -9   3   92.88    3.69
   5  -9   3   86.29    3.65
  -5   9  -3   98.33    3.95
   5  -8   3   21.58    2.18
   5  -8   3   19.63    1.85
  -5   8  -3   19.91    2.08
   5  -7   3   19.28    2.12
   5  -7   3   18.25    1.68
  -5   7  -3   24.34    1.95
   5  -6   3    2.53    0.86
   5  -6   3    2.38    1.17
  -5   6  -3    2.38    0.97
   5  -5   3    3.45    1.20
   5  -5   3    0.38    0.70
  -5   5  -3    1.17    0.80
   5  -4   3  324.31    8.82
   5  -4   3  325.77    7.76
  -5   4  -3  324.02    7.47
   5  -3   3  107.56    3.44
   5  -3   3  107.79    4.23
  -5   3  -3  106.67    3.27
   5  -2   3  248.31    7.28
   5  -2   3  246.84    6.51
  -5   2  -3  244.97    5.84
   5  -1   3    4.85    1.21
   5  -1   3    5.53    1.46
  -5   1  -3    6.91    0.91
   5   0   3    2.51    1.33
   5   0   3    0.76    1.29
  -5   0  -3    2.34    0.66
   5   1   3    7.80    1.81
  -5  -1  -3    9.05    1.72
   5   2   3   44.15    3.34
   5   2   3   40.59    2.45
  -5  -2  -3   36.38    2.72
   5   3   3   79.86    3.32
   5   3   3   83.19    4.67
  -5  -3  -3   69.98    3.69
   5   4   3   46.21    3.96
  -5  -4  -3   43.27    2.99
   5   5   3   15.82    3.12
   5   6   3    2.97    2.75
   6 -12   3    1.59    1.51
  -6  12  -3    0.79    1.65
   6 -11   3   18.40    2.26
  -6  11  -3   18.64    2.59
   6 -10   3    3.08    1.29
  -6  10  -3    0.71    1.39
   6  -9   3   24.85    2.13
   6  -9   3   25.22    2.58
  -6   9  -3   25.91    2.53
   6  -8   3    8.32    1.31
   6  -8   3    6.69    1.68
  -6   8  -3    5.06    1.37
   6  -7   3   87.28    4.01
   6  -7   3   85.98    3.15
  -6   7  -3   80.24    3.47
   6  -6   3   11.04    1.90
   6  -6   3   13.46    1.36
  -6   6  -3   12.83    1.62
   6  -5   3   10.98    1.23
   6  -5   3   10.25    1.83
  -6   5  -3    9.18    1.34
   6  -4   3   -0.25    1.16
   6  -4   3    1.08    0.80
  -6   4  -3    0.96    0.86
   6  -3   3    2.58    1.38
   6  -3   3    2.31    0.92
  -6   3  -3    5.24    1.02
   6  -2   3   63.96    2.92
   6  -2   3   66.49    3.67
  -6   2  -3   71.46    2.65
   6  -1   3   38.05    2.99
   6  -1   3   40.34    2.62
  -6   1  -3   35.85    1.91
   6   0   3  110.42    4.89
   6   0   3  119.72    4.75
  -6   0  -3  124.31    3.66
   6   1   3    1.91    1.40
  -6  -1  -3    0.86    0.71
  -6  -1  -3    1.14    1.17
   6   2   3   11.41    2.32
  -6  -2  -3   12.59    2.01
   6   3   3    6.10    2.12
  -6  -3  -3    7.26    1.73
   6   4   3   17.38    2.97
  -6  -4  -3   22.09    2.65
   6   5   3   10.29    3.06
  -7  12  -3    2.22    1.89
  -7  11  -3    1.91    1.66
   7 -10   3    0.35    1.16
   7 -10   3    1.94    1.67
  -7  10  -3    0.50    1.41
   7  -9   3   65.10    3.02
   7  -9   3   60.41    3.75
  -7   9  -3   60.28    3.49
   7  -8   3   27.75    2.08
   7  -8   3   26.08    2.90
  -7   8  -3   29.92    2.54
   7  -7   3   67.53    3.87
   7  -7   3   71.13    2.82
  -7   7  -3   66.08    3.29
   7  -6   3    5.21    1.73
   7  -6   3    4.95    1.08
  -7   6  -3    5.83    1.38
   7  -5   3    2.79    0.98
   7  -5   3    4.08    1.67
  -7   5  -3    3.50    1.15
   7  -4   3    4.76    1.61
   7  -4   3    4.03    1.09
  -7   4  -3    5.53    1.17
   7  -3   3   64.77    2.84
   7  -3   3   62.81    3.84
  -7   3  -3   63.50    2.77
   7  -2   3   34.78    2.47
   7  -2   3   37.62    3.25
  -7   2  -3   37.51    2.12
   7  -1   3   35.88    3.26
   7  -1   3   39.77    2.83
  -7   1  -3   44.19    2.18
   7   0   3    7.26    1.83
   7   0   3    9.26    2.16
  -7   0  -3    8.59    1.24
   7   1   3    2.44    1.56
  -7  -1  -3    0.78    0.76
  -7  -1  -3   -1.31    1.02
   7   2   3    9.45    2.23
  -7  -2  -3    8.46    1.97
   7   3   3    3.54    2.11
  -7  -3  -3    0.39    1.43
   7   4   3   31.59    3.94
  -7  -4  -3   27.41    3.73
  -8  12  -3   34.15    3.66
  -8  11  -3    1.66    1.78
   8 -10   3    2.47    1.69
  -8  10  -3    0.30    1.64
   8  -9   3    6.32    1.94
  -8   9  -3    4.70    1.74
   8  -8   3    1.44    1.57
  -8   8  -3    0.12    1.33
   8  -7   3   23.09    2.89
  -8   7  -3   33.04    2.69
   8  -6   3   54.41    3.70
  -8   6  -3   57.29    3.13
   8  -5   3   77.68    4.39
  -8   5  -3   81.51    3.57
   8  -4   3    2.07    1.72
   8  -4   3    2.09    0.96
  -8   4  -3    1.04    1.04
   8  -3   3    1.83    1.06
   8  -3   3    0.03    1.49
  -8   3  -3    1.63    0.92
   8  -2   3   17.49    2.74
   8  -2   3   18.52    2.05
  -8   2  -3   18.41    1.79
   8  -1   3   35.03    3.66
   8  -1   3   38.02    2.89
  -8   1  -3   35.22    2.17
   8   0   3   23.15    2.66
   8   0   3   14.28    2.71
  -8   0  -3   23.69    1.88
   8   1   3   80.73    4.52
  -8  -1  -3   69.00    4.20
   8   2   3    1.71    2.05
  -8  -2  -3    2.46    1.61
   8   3   3   -2.15    2.09
  -8  -3  -3    2.52    1.62
  -9  11  -3   -1.80    1.79
   9 -10   3    5.58    2.19
  -9  10  -3    8.01    2.18
   9  -9   3   -0.88    1.55
  -9   9  -3    1.02    1.56
   9  -8   3   23.16    3.07
  -9   8  -3   22.19    2.68
   9  -7   3    0.98    1.75
  -9   7  -3    2.44    1.41
   9  -6   3    7.24    2.16
  -9   6  -3   10.11    1.81
   9  -5   3   -1.04    1.31
  -9   5  -3    0.12    1.00
   9  -4   3    8.73    2.32
  -9   4  -3    7.42    1.51
   9  -3   3   14.03    2.63
  -9   3  -3   13.08    1.69
   9  -2   3    1.65    2.09
  -9   2  -3    4.74    1.21
   9  -1   3   12.22    2.85
  -9   1  -3   10.16    1.42
   9   0   3   -1.15    1.59
   9   0   3    0.41    2.14
   9   1   3    8.07    2.31
  -9  -1  -3    3.73    1.81
  10 -10   3   12.11    2.67
 -10  10  -3   15.73    2.75
  10  -9   3   -0.19    1.79
 -10   9  -3    0.90    1.72
  10  -8   3    1.49    1.88
 -10   8  -3    3.89    1.79
  10  -7   3   12.56    2.60
 -10   7  -3   13.13    2.19
  10  -6   3   18.66    2.88
 -10   6  -3   19.50    2.34
  10  -5   3   13.71    2.90
 -10   5  -3   16.19    2.14
  10  -4   3   48.56    4.24
 -10   4  -3   51.68    3.08
  10  -3   3    2.97    2.16
 -10   3  -3    0.59    1.08
  10  -2   3   -0.97    2.09
 -10   2  -3    2.79    1.12
  10  -1   3    7.16    2.87
  10   0   3    2.98    2.66
  11  -9   3    8.84    2.54
 -11   9  -3   13.27    2.72
 -11   8  -3    5.44    1.98
  11  -7   3   -0.46    1.77
 -11   7  -3    2.69    1.57
  11  -6   3   -2.73    1.68
 -11   6  -3    0.37    1.34
  11  -5   3    2.32    2.21
 -11   5  -3    1.31    1.32
  11  -4   3    2.42    2.48
  11  -3   3    0.58    2.45
 -11   3  -3    2.45    1.34
  11  -2   3   26.29    3.95
 -12   0   4    6.58    1.78
  12   0  -4    1.59    2.46
 -12   1   4    2.43    1.45
  12  -1  -4    2.04    2.18
 -12   2   4   21.05    2.64
  12  -2  -4   23.25    3.41
 -12   3   4   14.04    2.27
  12  -3  -4   11.86    2.70
 -12   4   4   44.38    3.42
  12  -4  -4   37.41    4.06
 -12   5   4    5.08    1.74
  12  -5  -4    3.92    2.29
 -12   6   4    7.09    2.08
  12  -6  -4    3.17    2.44
 -11  -2   4    0.05    1.31
  11   2  -4    0.27    2.21
 -11  -1   4    0.40    1.41
  11   1  -4    5.33    2.43
 -11   0   4    1.43    1.25
  11   0  -4    1.78    2.21
 -11   1   4    9.48    1.91
  11  -1  -4    7.29    2.26
 -11   2   4   44.42    3.17
  11  -2  -4   39.15    3.61
 -11   3   4   30.66    2.91
  11  -3  -4   30.48    3.57
 -11   4   4   30.07    2.94
  11  -4  -4   25.14    3.19
 -11   5   4    1.33    1.42
  11  -5  -4    2.02    1.91
 -11   6   4    1.93    1.61
  11  -6  -4    1.49    2.09
 -11   7   4   -0.62    1.48
  11  -7  -4   -0.11    2.05
 -11   8   4   22.36    2.98
  11  -8  -4   24.60    3.79
 -10  -3   4   14.80    2.42
  10   3  -4   15.67    2.84
 -10  -2   4   16.11    2.32
  10   2  -4   12.47    2.62
 -10  -1   4   74.36    3.86
  10   1  -4   79.61    4.61
 -10   0   4    1.08    1.15
  10   0  -4    2.11    1.77
 -10   1   4    1.21    1.09
  10  -1  -4    5.17    1.91
 -10   2   4   20.90    2.23
  10  -2  -4   27.00    3.12
 -10   3   4   11.04    1.81
  10  -3  -4   12.14    2.38
 -10   4   4   35.12    2.75
  10  -4  -4   25.56    3.13
 -10   5   4   72.82    3.83
  10  -5  -4   77.96    4.59
 -10   6   4   34.71    2.99
  10  -6  -4   32.08    3.66
 -10   7   4    0.89    1.49
  10  -7  -4    0.30    1.93
 -10   8   4    3.17    1.79
  10  -8  -4    0.01    2.32
   9   5  -4    8.71    2.58
   9   4  -4   13.98    2.78
   9   3  -4    4.66    2.01
   9   3  -4    6.05    2.16
  -9  -2   4   13.78    2.05
   9   2  -4   14.72    2.47
  -9  -1   4   11.99    1.78
   9   1  -4   12.83    2.37
  -9   0   4    1.45    1.02
   9   0  -4   -1.11    1.40
  -9   1   4   28.76    2.31
   9  -1  -4   28.59    2.92
  -9   2   4   -0.32    0.84
   9  -2  -4    1.75    1.58
  -9   3   4   22.71    2.34
   9  -3  -4   24.45    2.82
  -9   4   4    0.90    0.97
   9  -4  -4    1.86    1.69
  -9   5   4   31.64    2.52
   9  -5  -4   29.30    3.29
  -9   6   4    1.55    1.24
   9  -6  -4    1.35    1.72
  -9   7   4   31.12    2.95
   9  -7  -4   35.33    3.78
  -9   8   4   11.85    2.22
   9  -8  -4   11.89    2.82
  -9   9   4    7.15    2.18
   9  -9  -4    6.40    2.56
   8   6  -4   57.21    4.21
   8   5  -4   -0.51    1.66
   8   4  -4    1.26    1.59
   8   4  -4   -1.68    1.44
   8   3  -4   42.88    3.20
   8   3  -4   44.19    3.47
   8   2  -4   22.30    2.64
   8   2  -4   23.94    2.66
  -8  -1   4   34.24    2.40
   8   1  -4   32.92    3.04
  -8   0   4  182.86    5.61
   8   0  -4  189.19    6.26
  -8   1   4   14.53    1.73
   8  -1  -4   10.10    1.88
  -8   2   4    2.26    0.96
   8  -2  -4   -0.09    1.35
  -8   3   4   17.96    1.93
   8  -3  -4   19.23    2.34
  -8   4   4    7.72    1.56
   8  -4  -4   10.64    1.98
  -8   5   4   49.91    2.85
   8  -5  -4   51.20    3.49
  -8   6   4   45.94    2.88
   8  -6  -4   36.92    3.29
  -8   7   4   73.16    3.77
   8  -7  -4   74.14    4.38
  -8   8   4    0.95    1.43
   8  -8  -4   -3.15    1.50
  -8   9   4    3.23    1.77
   8  -9  -4    1.30    2.07
   7   7  -4    4.48    2.08
   7   6  -4    3.55    1.73
   7   5  -4   16.89    2.49
   7   4  -4   28.43    2.86
   7   4  -4   35.64    2.73
   7   3  -4    9.19    1.76
   7   3  -4    8.81    1.78
   7   2  -4    5.27    1.56
   7   2  -4    6.64    1.67
  -7  -1   4   40.31    1.87
   7   1  -4   50.45    2.94
  -7   0   4   11.27    1.45
   7   0  -4   12.07    1.79
  -7   1   4    6.42    1.22
   7  -1  -4    5.22    1.42
  -7   2   4  192.09    5.49
   7  -2  -4  188.84    6.04
  -7   3   4   19.79    1.90
   7  -3  -4   24.50    2.41
  -7   4   4   16.92    1.83
   7  -4  -4   19.47    2.33
  -7   5   4   25.46    2.07
   7  -5  -4   25.73    2.78
  -7   6   4    0.82    1.03
   7  -6  -4    3.59    1.63
  -7   7   4   13.35    1.97
   7  -7  -4    9.67    2.12
  -7   8   4   28.78    2.70
   7  -8  -4   25.24    3.17
  -7   9   4   44.22    3.33
   7  -9  -4   43.34    3.78
   6   8  -4    8.22    2.31
   6   7  -4   29.36    3.08
   6   6  -4   11.23    2.13
   6   5  -4  128.75    4.91
   6   4  -4    3.79    1.42
   6   4  -4    2.58    1.32
   6   3  -4    1.49    1.16
   6   3  -4    2.09    1.26
   6   2  -4   30.74    2.24
   6   2  -4   31.48    2.32
  -6  -1   4    1.59    0.64
   6   1  -4    0.10    1.02
   6   1  -4    1.43    1.18
  -6   0   4   37.06    2.02
   6   0  -4   33.39    2.20
  -6   1   4   44.04    2.21
   6  -1  -4   47.39    2.57
  -6   2   4   95.24    3.35
   6  -2  -4   98.40    3.82
  -6   3   4    1.06    0.73
   6  -3  -4    0.30    1.07
  -6   4   4   24.90    1.38
  -6   4   4   22.15    1.76
   6  -4  -4   24.17    2.35
  -6   5   4   17.13    1.75
  -6   5   4   16.18    1.43
   6  -5  -4   17.56    2.30
  -6   6   4   33.15    2.27
   6  -6  -4   32.60    3.13
  -6   7   4    2.03    1.18
   6  -7  -4   -0.85    1.43
  -6   8   4   35.75    2.79
   6  -8  -4   32.51    3.34
  -6   9   4    1.50    1.48
   6  -9  -4   -0.53    1.81
   5   9  -4   21.08    2.94
   5   8  -4    7.37    1.93
   5   7  -4    0.12    1.25
   5   6  -4   21.99    2.39
   5   5  -4    4.26    1.16
   5   5  -4    4.32    1.35
   5   4  -4   12.08    1.62
   5   4  -4   13.73    1.57
   5   3  -4  316.96    8.10
   5   3  -4  323.60    7.93
  -5  -2   4   29.56    1.61
   5   2  -4   29.93    2.01
   5   2  -4   22.83    1.91
  -5  -1   4   20.37    1.27
   5   1  -4   19.61    1.61
   5   1  -4   20.96    1.84
  -5   0   4  145.28    4.14
  -5   0   4  144.71    3.64
   5   0  -4  146.51    4.52
  -5   1   4    0.76    0.61
   5  -1  -4    1.55    0.99
  -5   2   4    5.37    0.68
  -5   2   4    5.79    0.98
   5  -2  -4    4.58    1.28
  -5   3   4  196.00    5.17
  -5   3   4  198.91    4.97
   5  -3  -4  203.37    6.10
  -5   4   4  149.32    4.28
  -5   4   4  146.86    4.29
   5  -4  -4  160.50    5.33
  -5   5   4   14.99    1.54
  -5   5   4   14.52    1.54
   5  -5  -4   15.12    2.18
  -5   6   4    4.87    1.16
  -5   6   4    3.91    1.19
   5  -6  -4    2.91    1.57
  -5   7   4   45.26    2.84
  -5   7   4   41.64    2.62
   5  -7  -4   37.54    3.18
  -5   8   4   13.87    1.86
   5  -8  -4   13.25    2.40
  -5   9   4    9.00    1.79
   4  10  -4   26.87    3.14
   4   9  -4    2.21    1.58
   4   8  -4   23.48    2.57
   4   7  -4   -0.23    1.10
   4   6  -4   22.07    2.21
   4   5  -4   12.36    1.70
   4   5  -4   13.86    1.28
   4   4  -4   19.68    1.48
   4   4  -4   17.91    1.81
   4   3  -4   43.46    2.07
   4   3  -4   41.14    2.14
  -4  -2   4    5.72    0.86
   4   2  -4    6.47    1.07
   4   2  -4    4.01    0.93
  -4  -1   4  114.78    3.25
   4   1  -4  121.43    3.65
   4   1  -4  121.23    3.75
  -4   0   4    1.94    0.64
  -4   0   4    1.39    0.55
   4   0  -4    2.24    0.94
  -4   1   4   79.72    2.61
  -4   1   4   79.56    2.45
  -4   2   4   13.29    1.09
  -4   2   4   14.00    1.14
   4  -2  -4   17.57    1.81
  -4   3   4   35.12    1.69
  -4   3   4   36.09    1.79
   4  -3  -4   39.21    2.41
  -4   4   4   10.72    1.33
  -4   4   4   12.34    1.24
   4  -4  -4    8.30    1.60
  -4   5   4   73.03    2.78
  -4   5   4   74.02    3.20
   4  -5  -4   82.00    3.76
  -4   6   4   32.82    2.10
  -4   6   4   37.22    2.53
   4  -6  -4   31.19    3.08
  -4   7   4   39.75    2.96
  -4   7   4   38.75    2.37
   4  -7  -4   33.79    3.22
  -4   8   4    2.15    1.23
   4  -8  -4   -1.76    1.56
  -4   9   4    1.60    1.40
   3  10  -4    4.46    1.83
   3   9  -4   17.29    2.37
   3   8  -4  131.37    4.78
   3   7  -4   10.35    1.68
   3   6  -4   29.17    2.14
   3   5  -4   93.59    3.35
   3   4  -4    8.86    1.18
   3   4  -4   10.11    0.97
   3   3  -4    4.96    0.96
   3   3  -4    7.31    0.92
  -3  -2   4  481.23   10.93
   3   2  -4  509.49   11.16
   3   2  -4  486.02   10.37
  -3  -1   4  210.79    5.20
   3   1  -4  217.52    5.57
   3   1  -4  210.95    5.12
  -3   0   4   62.22    2.11
  -3   0   4   67.93    2.22
   3   0  -4   68.73    2.60
  -3   1   4   27.30    1.52
  -3   1   4   25.32    1.29
   3  -1  -4   27.59    1.87
  -3   2   4   83.97    2.88
  -3   2   4   85.28    2.48
   3  -2  -4   86.33    3.23
  -3   3   4   26.16    1.34
  -3   3   4   22.50    1.64
   3  -3  -4   22.58    1.91
  -3   4   4   66.65    2.95
  -3   4   4   68.61    2.37
   3  -4  -4   64.67    3.08
  -3   5   4  187.00    5.95
  -3   5   4  194.53    5.01
   3  -5  -4  196.93    6.17
  -3   6   4    2.21    1.31
  -3   6   4    2.69    0.98
   3  -6  -4    1.68    1.40
  -3   7   4   15.56    1.75
  -3   7   4   14.29    2.25
   3  -7  -4   12.43    2.17
  -3   8   4    9.44    1.64
  -3   8   4    8.34    2.21
  -3   9   4    5.50    1.62
   2  11  -4   26.67    3.11
   2  10  -4   -0.72    1.32
   2   9  -4    3.77    1.42
   2   8  -4    1.89    1.12
   2   7  -4   36.85    2.36
   2   6  -4  126.79    4.05
   2   5  -4   54.86    2.36
   2   4  -4  132.92    3.83
   2   4  -4  143.53    3.47
  -2  -3   4   84.78    2.83
   2   3  -4   82.63    2.59
   2   3  -4   77.52    2.46
  -2  -2   4   12.78    1.18
   2   2  -4   12.16    1.10
   2   2  -4   12.23    1.06
  -2  -1   4    7.38    0.90
   2   1  -4   10.50    1.00
   2   1  -4    7.46    0.99
  -2   0   4  473.51    9.49
  -2   0   4  467.53   10.56
   2   0  -4  473.86   10.88
  -2   1   4  180.30    4.01
  -2   1   4  184.80    4.95
   2  -1  -4  176.07    5.01
  -2   2   4  221.85    4.93
  -2   2   4  227.43    6.07
   2  -2  -4  234.98    6.22
  -2   3   4   10.01    0.92
  -2   3   4   10.99    1.45
   2  -3  -4    8.99    1.38
  -2   4   4   21.09    2.08
  -2   4   4   19.66    1.32
   2  -4  -4   18.50    1.96
  -2   5   4    0.40    0.68
  -2   5   4   -0.68    1.02
   2  -5  -4    0.81    1.15
  -2   6   4   21.38    1.78
  -2   6   4   22.69    2.54
   2  -6  -4   24.71    2.52
  -2   7   4  107.16    5.02
  -2   7   4   95.78    3.56
   2  -7  -4   97.23    4.44
  -2   8   4   16.81    2.86
  -2   8   4   17.91    1.98
   1  11  -4    5.25    1.86
   1  10  -4   10.87    1.99
   1   9  -4   28.41    2.43
   1   8  -4    3.09    1.16
   1   7  -4  201.86    5.58
   1   6  -4   36.77    2.04
   1   5  -4   77.19    2.69
  -1  -4   4   11.30    1.22
   1   4  -4    9.69    0.76
   1   4  -4   13.91    1.22
  -1  -3   4   14.36    1.32
   1   3  -4   14.36    1.07
   1   3  -4   11.29    0.87
  -1  -2   4   51.83    2.05
   1   2  -4   51.75    1.64
   1   2  -4   50.46    1.83
  -1  -1   4   64.79    2.32
   1   1  -4   65.20    1.81
   1   1  -4   66.42    2.27
  -1   0   4  330.89    7.84
  -1   0   4  326.40    6.46
   1   0  -4  323.24    7.87
  -1   1   4   13.05    0.70
  -1   1   4   18.12    1.68
   1  -1  -4   13.36    1.29
  -1   2   4  122.51    2.84
  -1   2   4  115.89    4.00
   1  -2  -4  118.71    3.90
  -1   3   4    4.08    0.64
  -1   3   4    2.57    1.14
   1  -3  -4    4.24    1.09
  -1   4   4   70.31    2.31
  -1   4   4   74.41    3.56
   1  -4  -4   66.46    3.07
  -1   5   4    1.89    0.90
  -1   5   4    0.32    1.21
   1  -5  -4    0.59    1.17
  -1   6   4   41.48    3.31
  -1   6   4   43.40    2.26
   1  -6  -4   45.60    2.96
  -1   7   4   -0.09    0.99
  -1   7   4    1.57    1.74
   1  -7  -4    3.24    1.66
  -1   8   4   14.01    2.86
   0  12  -4   17.99    2.64
   0  11  -4   43.00    3.26
   0  10  -4   38.80    2.84
   0   9  -4   18.41    2.11
   0   8  -4   18.68    1.89
   0   7  -4   -0.11    0.76
   0   6  -4    1.82    0.78
   0  -5   4  531.51   12.37
   0   5  -4  549.89   11.31
   0  -4   4  155.68    4.49
   0   4  -4  157.19    3.82
   0   4  -4  162.69    3.96
   0  -3   4  281.64    6.85
   0   3  -4  285.29    6.53
   0   3  -4  280.01    6.00
   0  -2   4   57.38    2.16
   0   2  -4   54.77    1.55
   0   2  -4   53.42    1.95
   0  -1   4    1.07    0.69
   0   1  -4   -0.27    0.55
   0   0   4    0.41    0.75
   0   0  -4    0.04    0.63
   0   1   4  175.61    5.22
   0  -1  -4  172.93    4.98
   0   2   4  336.60    8.83
   0   2   4  344.23    6.84
   0  -2  -4  334.83    8.59
   0   3   4   94.27    4.04
   0   3   4  102.94    2.67
   0  -3  -4   98.96    3.66
   0   4   4   28.73    2.74
   0   4   4   31.29    1.61
   0  -4  -4   30.85    2.25
   0   5   4   32.87    1.85
   0   5   4   25.29    2.77
   0  -5  -4   29.28    2.41
   0   6   4    5.55    1.14
   0   6   4    4.30    1.72
   0  -6  -4    5.51    1.56
   0   7   4    1.92    1.92
   0  -7  -4    3.24    2.07
   0   8   4   57.64    4.96
  -1  12  -4   25.42    2.98
  -1  11  -4   -2.39    1.12
  -1  10  -4   27.09    2.56
  -1   9  -4    0.47    0.92
  -1   8  -4   53.81    2.65
  -1   7  -4   19.43    1.67
   1  -6   4   16.08    1.50
  -1   6  -4   16.31    1.42
   1  -5   4   18.71    1.49
  -1   5  -4   18.32    1.31
  -1   5  -4   19.13    0.94
   1  -4   4   22.24    1.61
  -1   4  -4   24.55    1.29
  -1   4  -4   22.40    1.14
   1  -3   4  304.48    7.40
  -1   3  -4  317.30    7.29
  -1   3  -4  303.66    6.37
   1  -2   4   42.73    1.97
  -1   2  -4   46.75    1.90
  -1   2  -4   46.97    1.30
   1  -1   4  267.06    6.82
  -1   1  -4  274.48    6.82
   1   0   4    7.04    1.22
  -1   0  -4    5.97    1.01
   1   1   4   63.14    3.00
  -1  -1  -4   67.53    2.72
   1   2   4   14.23    1.81
  -1  -2  -4   11.18    1.45
   1   3   4   91.34    4.09
   1   3   4   85.69    2.49
  -1  -3  -4   83.27    3.48
   1   4   4   50.27    2.09
   1   4   4   50.36    3.50
  -1  -4  -4   52.47    2.85
   1   5   4   72.60    4.36
   1   5   4   76.86    2.80
  -1  -5  -4   77.83    3.58
   1   6   4   15.81    2.63
  -1  -6  -4   14.12    2.04
   1   7   4   -1.24    1.90
   1   8   4    0.70    2.51
  -2  12  -4    2.45    1.60
  -2  11  -4    2.56    1.52
  -2  10  -4  109.91    4.26
  -2   9  -4   36.50    2.44
  -2   8  -4   63.75    2.85
   2  -7   4   38.96    2.25
  -2   7  -4   35.79    2.07
   2  -6   4    3.84    1.00
   2  -6   4    4.22    0.79
  -2   6  -4    2.65    0.82
   2  -5   4   -0.07    0.68
   2  -5   4    0.38    0.61
  -2   5  -4    1.45    0.67
   2  -4   4  285.33    7.08
   2  -4   4  291.10    7.17
  -2   4  -4  293.15    6.35
   2  -3   4  196.21    5.28
   2  -3   4  206.75    5.40
  -2   3  -4  202.01    4.47
   2  -2   4  190.83    5.22
  -2   2  -4  196.31    4.08
  -2   2  -4  190.21    5.28
   2  -1   4   17.45    1.58
  -2   1  -4   16.55    1.39
   2   0   4   13.90    1.63
  -2   0  -4   17.73    1.56
   2   1   4   15.55    1.78
  -2  -1  -4   11.48    1.48
   2   2   4   15.86    1.17
   2   2   4   15.71    2.09
  -2  -2  -4   16.27    1.75
   2   3   4  183.05    4.41
   2   3   4  182.76    6.38
  -2  -3  -4  163.18    5.53
   2   4   4   14.19    2.30
   2   4   4   17.39    1.50
  -2  -4  -4   12.93    1.87
   2   5   4   46.71    3.83
  -2  -5  -4   55.28    3.14
   2   6   4   -0.38    1.68
  -2  -6  -4    3.61    1.33
   2   7   4    4.39    2.53
  -3  12  -4    0.51    1.50
  -3  11  -4    1.93    1.38
  -3  10  -4    1.65    1.15
   3  -9   4    3.24    1.25
  -3   9  -4    2.44    1.08
   3  -8   4   86.02    3.58
   3  -8   4   90.64    2.94
  -3   8  -4   87.61    3.39
   3  -7   4   76.21    3.12
   3  -7   4   73.39    2.73
  -3   7  -4   77.08    2.97
   3  -6   4  166.59    4.73
   3  -6   4  169.70    4.91
  -3   6  -4  164.51    4.52
   3  -5   4   18.99    1.55
   3  -5   4   21.91    1.61
  -3   5  -4   19.26    1.43
   3  -4   4    0.07    0.69
   3  -4   4    0.26    0.76
  -3   4  -4    0.92    0.58
   3  -3   4   39.11    2.14
   3  -3   4   43.75    2.04
  -3   3  -4   39.05    1.51
   3  -2   4  194.71    5.60
   3  -2   4  202.12    5.47
  -3   2  -4  194.56    4.31
   3  -1   4  109.97    3.96
  -3   1  -4  118.44    4.05
   3   0   4  311.99    8.29
  -3   0  -4  306.26    8.25
   3   1   4    4.92    1.51
  -3  -1  -4    5.90    1.30
   3   2   4    0.58    0.78
   3   2   4    1.11    1.35
  -3  -2  -4    0.03    0.91
   3   3   4    2.56    0.98
   3   3   4    0.81    1.43
  -3  -3  -4    3.13    1.29
   3   4   4   -0.12    1.48
  -3  -4  -4    3.45    1.38
   3   5   4   58.87    4.48
  -3  -5  -4   63.30    3.54
   3   6   4   16.56    3.21
   4 -12   4    6.58    1.88
  -4  12  -4    6.26    2.02
   4 -11   4    8.20    1.86
  -4  11  -4    6.75    1.73
   4 -10   4    3.10    1.34
  -4  10  -4    1.87    1.23
  -4   9  -4   71.52    3.32
   4  -8   4   21.59    2.00
   4  -8   4   25.18    1.92
  -4   8  -4   22.31    2.12
   4  -7   4   46.43    2.43
   4  -7   4   46.95    2.45
  -4   7  -4   44.07    2.38
   4  -6   4    0.09    0.92
   4  -6   4    1.07    0.87
  -4   6  -4    1.26    0.78
   4  -5   4    4.59    1.22
   4  -5   4    3.80    0.96
  -4   5  -4    2.63    0.78
   4  -4   4   15.61    1.46
   4  -4   4   15.89    1.79
  -4   4  -4   14.47    1.25
   4  -3   4   14.43    1.46
   4  -3   4   15.13    1.84
  -4   3  -4   15.64    1.14
   4  -2   4   89.19    3.63
   4  -2   4   88.09    3.32
  -4   2  -4   91.89    2.59
   4  -1   4    4.57    1.33
   4  -1   4    4.89    1.15
  -4   1  -4    5.04    0.72
   4   0   4   55.08    3.11
  -4   0  -4   52.58    2.90
  -4   0  -4   58.36    1.89
   4   1   4    0.11    1.25
  -4  -1  -4    0.78    1.03
  -4  -1  -4    1.02    0.56
   4   2   4   65.19    2.62
   4   2   4   60.49    3.80
  -4  -2  -4   67.40    3.48
   4   3   4   -0.88    1.41
  -4  -3  -4    1.80    1.19
   4   4   4   20.79    3.04
  -4  -4  -4   26.59    2.57
   4   5   4    1.30    2.01
  -4  -5  -4    2.85    1.38
   4   6   4   11.30    3.11
   5 -12   4   30.74    3.17
  -5  12  -4   20.80    2.72
   5 -11   4   31.29    2.86
  -5  11  -4   23.26    2.57
   5 -10   4    9.52    1.75
  -5  10  -4    7.16    1.63
   5  -9   4    3.66    1.29
   5  -9   4    2.28    1.22
  -5   9  -4    3.54    1.31
   5  -8   4   29.10    2.19
   5  -8   4   28.87    2.33
  -5   8  -4   29.64    2.35
   5  -7   4  107.78    3.77
   5  -7   4  104.02    4.16
  -5   7  -4  108.87    3.83
   5  -6   4   61.12    2.66
   5  -6   4   59.62    3.17
  -5   6  -4   61.17    2.68
   5  -5   4  188.06    6.05
   5  -5   4  194.31    5.29
  -5   5  -4  184.57    5.03
   5  -4   4    2.63    1.32
   5  -4   4    0.23    0.80
  -5   4  -4    0.13    0.65
   5  -3   4    3.49    1.01
   5  -3   4    4.68    1.45
  -5   3  -4    5.24    0.92
   5  -2   4   22.06    2.00
   5  -2   4   24.99    2.32
  -5   2  -4   25.68    1.47
   5  -1   4   16.53    2.15
   5  -1   4   15.12    1.91
  -5   1  -4   17.80    1.24
   5   0   4  119.79    4.81
  -5   0  -4  109.19    3.16
  -5   0  -4  107.33    4.55
   5   1   4   63.46    3.80
  -5  -1  -4   58.09    2.21
  -5  -1  -4   61.54    3.50
   5   2   4   23.16    2.93
  -5  -2  -4   30.50    2.69
   5   3   4    9.27    2.37
  -5  -3  -4    6.36    1.76
   5   4   4    3.60    2.11
  -5  -4  -4    4.94    1.59
   5   5   4   -1.39    2.18
   6 -12   4    8.28    2.06
  -6  12  -4    8.36    2.19
   6 -11   4    2.61    1.48
  -6  11  -4   -0.44    1.33
   6 -10   4   20.12    2.22
  -6  10  -4   17.31    2.33
   6  -9   4    8.52    1.78
   6  -9   4    8.47    1.59
  -6   9  -4    7.90    1.73
   6  -8   4    2.21    1.36
   6  -8   4    4.87    1.32
  -6   8  -4    2.97    1.23
   6  -7   4    1.94    1.36
   6  -7   4    0.29    0.95
  -6   7  -4    0.95    1.07
   6  -6   4    2.11    0.97
   6  -6   4    1.99    1.43
  -6   6  -4    3.98    1.17
   6  -5   4   35.15    2.18
   6  -5   4   34.35    2.85
  -6   5  -4   37.28    2.20
   6  -4   4    8.25    1.33
   6  -4   4    5.35    1.76
  -6   4  -4    6.88    1.18
   6  -3   4  112.88    4.09
   6  -3   4  115.37    4.89
  -6   3  -4  116.43    3.61
   6  -2   4    2.16    1.52
   6  -2   4   -0.62    1.05
  -6   2  -4    1.00    0.73
   6  -1   4    7.85    1.73
   6  -1   4    9.20    2.02
  -6   1  -4   10.23    1.22
   6   0   4   19.55    2.43
  -6   0  -4   21.68    1.46
  -6   0  -4   20.23    2.46
   6   1   4    6.11    1.97
  -6  -1  -4    5.78    1.56
   6   2   4   10.40    2.44
  -6  -2  -4    8.31    1.88
   6   3   4   45.77    4.23
  -6  -3  -4   39.89    3.30
   6   4   4   12.30    2.99
  -6  -4  -4   13.26    2.27
  -7  12  -4   22.24    3.04
   7 -11   4   10.88    2.51
  -7  11  -4    9.80    2.20
   7 -10   4   39.46    2.80
   7 -10   4   39.89    3.26
  -7  10  -4   41.24    3.30
   7  -9   4    7.92    1.95
   7  -9   4    5.97    1.43
  -7   9  -4    5.01    1.64
   7  -8   4   -2.13    1.19
   7  -8   4    1.33    1.02
  -7   8  -4   -0.16    1.10
   7  -7   4   13.07    2.18
   7  -7   4   17.47    1.73
  -7   7  -4   17.07    2.04
   7  -6   4   17.44    1.79
   7  -6   4   17.86    2.58
  -7   6  -4   17.27    1.90
   7  -5   4   35.42    3.20
   7  -5   4   33.23    2.23
  -7   5  -4   36.20    2.35
   7  -4   4   37.43    3.32
   7  -4   4   41.53    2.49
  -7   4  -4   42.29    2.38
   7  -3   4    8.08    1.47
   7  -3   4    9.83    2.11
  -7   3  -4   11.40    1.46
   7  -2   4    7.02    1.54
   7  -2   4    9.31    2.14
  -7   2  -4    6.26    1.08
   7  -1   4    2.53    1.41
   7  -1   4    0.73    1.63
  -7   1  -4    0.68    0.72
   7   0   4    0.66    1.49
  -7   0  -4    1.42    1.39
   7   1   4   36.73    3.49
  -7  -1  -4   23.32    2.83
   7   2   4    5.67    2.21
  -7  -2  -4    2.53    1.56
   7   3   4    9.95    2.81
  -7  -3  -4   14.57    2.48
  -8  12  -4    2.77    2.11
  -8  11  -4    1.10    1.85
   8 -10   4    8.14    2.15
  -8  10  -4    7.87    2.07
   8  -9   4   16.68    2.69
  -8   9  -4   14.10    2.28
   8  -8   4   56.00    3.93
  -8   8  -4   61.05    3.58
   8  -7   4   -0.55    1.42
  -8   7  -4   -1.91    1.15
   8  -6   4   -2.13    1.09
   8  -6   4    1.58    1.66
  -8   6  -4    1.64    1.23
   8  -5   4   36.94    3.48
   8  -5   4   40.82    2.39
  -8   5  -4   35.28    2.48
   8  -4   4    7.39    1.41
   8  -4   4    6.77    2.06
  -8   4  -4    8.83    1.49
   8  -3   4   10.23    2.34
   8  -3   4    5.28    1.42
  -8   3  -4    9.12    1.44
   8  -2   4   72.57    3.74
   8  -2   4   73.97    4.63
  -8   2  -4   69.39    2.98
   8  -1   4   11.19    2.04
   8  -1   4   11.52    2.60
   8   0   4    0.84    1.71
  -8   0  -4    1.62    1.55
   8   1   4    4.31    2.06
  -8  -1  -4    2.25    1.56
   8   2   4    0.38    2.03
  -8  -2  -4    1.65    1.57
  -9  11  -4    8.51    2.40
   9 -10   4    3.03    2.05
  -9  10  -4    1.67    1.77
   9  -9   4   11.34    2.58
  -9   9  -4    9.36    2.14
   9  -8   4   -0.73    1.66
  -9   8  -4    1.26    1.42
   9  -7   4    1.33    1.80
  -9   7  -4    0.96    1.35
   9  -6   4    2.48    1.92
  -9   6  -4    2.23    1.31
   9  -5   4   -1.25    1.60
  -9   5  -4    1.85    1.18
   9  -4   4   10.65    2.50
  -9   4  -4   13.54    1.80
   9  -3   4   -0.40    1.79
  -9   3  -4    1.78    1.10
   9  -2   4   10.01    2.69
   9  -1   4   -2.75    2.00
   9  -1   4    0.04    2.02
   9   0   4   14.58    2.58
  -9   0  -4   12.07    2.45
   9   1   4    2.63    2.08
  -9  -1  -4    0.09    1.54
  10 -10   4    8.65    2.63
 -10  10  -4    9.41    2.43
  10  -9   4    4.87    2.31
 -10   9  -4   10.20    2.29
  10  -8   4    4.41    2.27
 -10   8  -4    5.19    1.80
  10  -7   4   32.98    3.94
 -10   7  -4   47.59    3.39
  10  -6   4    1.60    2.03
 -10   6  -4    3.49    1.49
  10  -5   4    0.63    1.80
 -10   5  -4    1.32    1.28
  10  -4   4    6.53    2.52
 -10   4  -4   10.14    1.66
  10  -3   4    1.74    2.22
  10  -2   4    5.17    2.63
  11  -9   4    0.53    2.01
 -11   9  -4    0.42    1.81
  11  -8   4   -0.11    2.12
 -11   8  -4   -0.38    1.63
  11  -7   4    3.20    2.22
 -11   7  -4   -0.22    1.43
  11  -6   4    0.86    2.22
 -11   6  -4    2.88    1.58
  11  -5   4   14.59    3.29
 -11   5  -4   18.37    2.25
  11  -4   4    1.98    2.49
  11  -3   4    3.15    2.62
 -12   0   5    1.91    1.47
  12   0  -5    0.75    2.22
 -12   1   5   17.59    2.49
  12  -1  -5   22.56    3.34
 -12   2   5    3.58    1.57
  12  -2  -5    0.62    2.09
 -12   3   5    3.60    1.58
  12  -3  -5    3.05    2.26
 -12   4   5    4.16    1.68
  12  -4  -5    0.84    2.10
 -12   5   5    2.09    1.54
  12  -5  -5   -0.25    1.99
 -12   6   5   13.26    2.41
  12  -6  -5   12.97    2.95
 -11  -3   5    3.43    1.74
 -11  -2   5    1.56    1.43
  11   2  -5   -1.00    2.09
 -11  -1   5   24.77    2.93
  11   1  -5   23.01    3.28
 -11   0   5   18.97    2.49
  11   0  -5   13.79    2.72
 -11   1   5   23.50    2.58
  11  -1  -5   28.33    3.39
 -11   2   5    2.41    1.30
  11  -2  -5    2.78    1.88
 -11   3   5    2.87    1.43
  11  -3  -5   -0.20    1.68
 -11   4   5    5.37    1.60
  11  -4  -5    2.27    2.01
 -11   5   5   19.35    2.52
  11  -5  -5   16.97    3.06
 -11   6   5    7.78    2.05
  11  -6  -5   12.02    2.98
 -11   7   5   20.36    2.70
  11  -7  -5   14.03    3.10
 -10  -3   5    1.44    1.42
  10   3  -5    3.63    2.15
 -10  -2   5    3.54    1.45
  10   2  -5   -0.33    1.76
 -10  -1   5   23.11    2.52
  10   1  -5   27.95    3.32
 -10   0   5    1.53    1.11
  10   0  -5   -2.53    1.44
 -10   1   5   19.17    2.26
  10  -1  -5   15.75    2.52
 -10   2   5   64.01    3.44
  10  -2  -5   67.74    4.12
 -10   3   5   50.47    3.16
  10  -3  -5   46.76    3.64
 -10   4   5    0.45    1.11
  10  -4  -5    0.50    1.82
 -10   5   5    0.87    1.26
  10  -5  -5    0.59    1.89
 -10   6   5   19.22    2.45
  10  -6  -5   17.95    3.18
 -10   7   5   14.67    2.37
  10  -7  -5   13.86    3.02
 -10   8   5   11.15    2.30
  10  -8  -5   13.07    3.12
   9   5  -5    3.69    2.23
   9   4  -5   13.58    2.68
   9   3  -5    3.97    1.94
   9   3  -5   -0.02    1.68
  -9  -2   5   15.97    2.18
   9   2  -5   16.95    2.55
  -9  -1   5    1.32    1.01
   9   1  -5    1.52    1.56
  -9   0   5   26.00    2.26
   9   0  -5   24.89    2.84
  -9   1   5    0.62    0.92
   9  -1  -5    0.00    1.39
  -9   2   5   19.21    2.08
   9  -2  -5   19.80    2.69
  -9   3   5   -1.69    0.79
   9  -3  -5    1.64    1.45
  -9   4   5   17.86    2.12
   9  -4  -5   16.91    2.49
  -9   5   5    7.21    1.59
   9  -5  -5    6.77    2.09
  -9   6   5    5.74    1.66
   9  -6  -5    6.37    2.19
  -9   7   5    4.16    1.63
   9  -7  -5    7.20    2.24
  -9   8   5    1.54    1.59
   9  -8  -5    1.56    2.15
   8   7  -5    3.56    2.20
   8   6  -5   23.71    3.23
   8   5  -5    1.33    1.81
   8   4  -5   17.45    2.45
   8   4  -5   20.91    2.73
  -8  -3   5   97.16    3.60
   8   3  -5   90.61    4.37
   8   3  -5   96.08    4.51
   8   2  -5   57.00    3.48
   8   2  -5   60.13    3.57
  -8  -1   5    0.89    0.92
   8   1  -5    1.29    1.41
  -8   0   5    6.86    1.32
   8   0  -5    5.97    1.74
  -8   1   5   51.55    2.74
   8  -1  -5   48.18    3.08
  -8   2   5   26.21    2.11
   8  -2  -5   32.63    2.69
  -8   3   5   31.93    2.34
   8  -3  -5   37.15    2.91
  -8   4   5  148.54    5.00
   8  -4  -5  149.56    5.75
  -8   5   5    2.74    1.19
   8  -5  -5   -0.15    1.49
  -8   6   5    2.60    1.33
   8  -6  -5    4.24    1.87
  -8   7   5   21.18    2.42
   8  -7  -5   18.97    3.02
  -8   8   5    2.99    1.58
   8  -8  -5    6.24    2.38
  -8   9   5   11.31    2.29
   8  -9  -5    3.50    2.30
   7   8  -5    8.83    2.44
   7   7  -5   28.68    3.31
   7   6  -5    2.55    1.72
   7   5  -5   23.12    2.69
   7   4  -5    6.26    1.74
   7   4  -5    7.29    1.57
  -7  -3   5   26.80    1.98
   7   3  -5   26.10    2.48
   7   3  -5   24.12    2.51
  -7  -2   5    2.09    0.85
   7   2  -5   -0.76    1.15
   7   2  -5    1.93    1.34
  -7  -1   5   87.77    3.50
  -7  -1   5   89.58    2.88
  -7   0   5   34.24    2.15
   7   0  -5   37.54    2.60
  -7   1   5   42.80    2.36
   7  -1  -5   44.00    2.76
  -7   2   5    6.81    1.26
   7  -2  -5    5.40    1.51
  -7   3   5    9.03    1.39
   7  -3  -5   10.93    1.94
  -7   4   5   10.05    1.47
   7  -4  -5    8.42    1.87
  -7   5   5   26.17    2.13
   7  -5  -5   31.61    3.06
  -7   6   5  102.86    4.08
   7  -6  -5  110.77    5.13
  -7   7   5    9.80    1.80
   7  -7  -5    7.65    2.29
  -7   8   5    3.69    1.55
   7  -8  -5    8.44    2.51
  -7   9   5   15.15    2.36
   7  -9  -5   15.74    3.01
   6   8  -5   54.38    4.03
   6   7  -5   15.06    2.33
   6   6  -5    8.16    1.90
   6   5  -5    1.32    1.32
   6   4  -5    3.06    1.35
   6   4  -5    4.02    1.37
  -6  -3   5   41.67    2.31
   6   3  -5   40.94    2.52
   6   3  -5   42.51    2.75
  -6  -2   5   36.29    1.96
   6   2  -5   41.28    2.61
   6   2  -5   38.76    2.51
  -6  -1   5  231.36    5.79
   6   1  -5  234.81    6.49
   6   1  -5  236.35    6.64
  -6   0   5    0.11    0.50
  -6   0   5    1.37    0.75
   6   0  -5    0.35    0.99
  -6   1   5   32.58    1.43
  -6   1   5   34.61    1.96
   6  -1  -5   30.78    2.34
  -6   2   5   17.09    1.11
  -6   2   5   14.12    1.52
   6  -2  -5   21.76    2.27
  -6   3   5   42.22    2.26
  -6   3   5   42.63    1.82
   6  -3  -5   43.92    2.96
  -6   4   5    7.66    1.26
  -6   4   5    9.31    1.15
   6  -4  -5    7.90    1.88
  -6   5   5   60.72    2.67
  -6   5   5   63.22    2.84
   6  -5  -5   58.41    3.62
  -6   6   5    9.82    1.57
  -6   6   5    8.12    1.49
   6  -6  -5    7.94    2.05
  -6   7   5    4.04    1.42
  -6   8   5    3.71    1.45
   6  -8  -5    5.79    2.19
  -6   9   5    1.11    1.48
   6  -9  -5   -1.46    1.94
   5   9  -5    3.06    1.93
   5   8  -5    5.96    1.88
   5   7  -5    4.12    1.55
   5   6  -5  180.31    5.83
   5   5  -5   39.35    2.18
   5   5  -5   38.44    2.62
   5   4  -5   60.96    3.05
   5   4  -5   59.30    2.69
  -5  -3   5   36.51    2.06
   5   3  -5   32.90    2.21
   5   3  -5   38.41    2.35
  -5  -2   5    8.17    1.10
   5   2  -5    8.79    1.34
   5   2  -5    7.73    1.39
  -5  -1   5   11.70    1.13
   5   1  -5   11.54    1.48
   5   1  -5   13.18    1.67
  -5   0   5  205.26    5.37
  -5   0   5  204.36    5.13
   5   0  -5  210.01    6.03
  -5   1   5  384.84    8.79
  -5   1   5  377.33    8.71
   5  -1  -5  396.17    9.96
  -5   2   5   45.07    1.94
  -5   2   5   48.65    2.14
   5  -2  -5   46.73    2.79
  -5   3   5    9.79    1.20
  -5   3   5    9.51    1.22
   5  -3  -5   12.36    1.93
  -5   4   5   78.78    2.91
  -5   4   5   84.30    3.18
   5  -4  -5   81.22    4.02
  -5   5   5    7.82    1.27
  -5   5   5    5.97    1.31
   5  -5  -5    5.40    1.82
  -5   6   5    7.67    1.55
  -5   6   5    5.37    1.25
   5  -6  -5    4.53    1.87
  -5   7   5  135.79    4.62
  -5   7   5  142.96    5.38
   5  -7  -5  141.44    5.93
  -5   8   5   25.49    2.42
   5  -8  -5   22.87    3.09
  -5   9   5    5.17    1.86
   4  10  -5    2.92    1.92
   4   9  -5   10.10    2.09
   4   8  -5   24.67    2.60
   4   7  -5   12.73    1.94
   4   6  -5   41.20    2.63
   4   5  -5    3.20    0.90
   4   5  -5    1.64    1.06
  -4  -4   5  105.94    3.76
   4   4  -5  107.11    3.75
   4   4  -5  115.15    3.56
  -4  -3   5    4.27    0.94
   4   3  -5    5.06    1.12
   4   3  -5    5.97    1.02
  -4  -2   5  170.11    4.62
   4   2  -5  167.96    4.67
  -4  -1   5    1.67    0.67
   4   1  -5    1.51    0.90
   4   1  -5    1.47    0.89
  -4   0   5   95.27    2.95
  -4   0   5   94.55    2.96
   4   0  -5   90.79    3.42
  -4   1   5    1.22    0.63
  -4   1   5    2.47    0.65
   4  -1  -5    1.52    1.01
  -4   2   5   92.37    2.86
  -4   2   5   94.33    3.16
   4  -2  -5   91.79    3.63
  -4   3   5   70.22    2.43
  -4   3   5   67.84    2.82
   4  -3  -5   65.70    3.23
  -4   4   5   35.84    1.88
  -4   4   5   36.55    2.30
   4  -4  -5   35.28    2.64
  -4   5   5   32.14    1.90
  -4   5   5   28.11    2.36
   4  -5  -5   32.00    2.77
  -4   6   5   -0.33    1.07
  -4   6   5    3.00    1.02
   4  -6  -5   -0.14    1.44
  -4   7   5   16.06    2.39
  -4   7   5    9.96    1.50
   4  -7  -5    9.34    2.40
  -4   8   5   -1.05    1.59
  -4   8   5    0.40    1.21
   4  -8  -5   -1.62    1.81
   3  10  -5   16.23    2.46
   3   9  -5   17.09    2.26
   3   8  -5   29.13    2.64
   3   7  -5    0.32    0.93
   3   6  -5    9.78    1.48
   3   5  -5  223.03    5.40
   3   5  -5  226.93    5.97
  -3  -4   5  238.76    6.47
   3   4  -5  237.29    6.06
   3   4  -5  244.55    5.91
  -3  -3   5   94.66    3.23
   3   3  -5   98.94    3.06
   3   3  -5   92.91    3.06
  -3  -2   5    9.38    1.10
   3   2  -5    8.97    1.16
   3   2  -5    8.53    1.09
  -3  -1   5   81.14    2.77
   3   1  -5   82.01    2.98
   3   1  -5   87.37    2.77
  -3   0   5   44.67    1.72
  -3   0   5   47.93    2.03
   3   0  -5   42.73    2.20
  -3   1   5   24.88    1.66
  -3   1   5   26.19    1.28
   3  -1  -5   27.78    1.89
  -3   2   5  436.50   10.36
  -3   2   5  433.15    8.98
   3  -2  -5  425.96   10.73
  -3   3   5   34.29    2.22
  -3   3   5   34.84    1.58
   3  -3  -5   36.79    2.42
  -3   4   5   98.05    3.96
  -3   4   5   96.16    3.00
   3  -4  -5   99.06    4.15
  -3   5   5   11.14    1.25
  -3   5   5   11.69    1.85
   3  -5  -5   11.88    2.02
  -3   6   5    4.69    1.14
  -3   6   5    5.07    1.64
   3  -6  -5    2.24    1.56
  -3   7   5    5.91    1.30
  -3   7   5    8.51    2.02
   3  -7  -5    6.90    1.99
  -3   8   5   25.20    3.30
   3  -8  -5   27.56    3.21
   2  11  -5   -1.00    1.51
   2  10  -5    2.03    1.50
   2   9  -5   58.06    3.25
   2   8  -5   22.19    2.23
   2   7  -5   80.98    3.34
   2   6  -5   12.24    1.51
  -2  -5   5   17.96    1.66
   2   5  -5   17.03    1.02
   2   5  -5   17.25    1.64
  -2  -4   5    0.69    0.77
   2   4  -5   -0.96    0.52
   2   4  -5   -0.09    0.60
  -2  -3   5  241.28    6.27
   2   3  -5  246.46    5.72
   2   3  -5  246.47    6.00
  -2  -2   5  184.65    4.91
   2   2  -5  173.09    4.33
   2   2  -5  184.73    4.85
  -2  -1   5  264.65    6.55
   2   1  -5  264.03    5.84
   2   1  -5  261.15    6.71
  -2   0   5    1.19    0.72
  -2   0   5    1.20    0.42
   2   0  -5    1.95    0.85
  -2   1   5   15.38    0.86
  -2   1   5   16.08    1.65
   2  -1  -5   15.71    1.52
  -2   2   5   11.43    0.86
  -2   2   5   11.90    1.54
   2  -2  -5   13.81    1.63
  -2   3   5   15.54    1.12
  -2   3   5   20.92    2.11
   2  -3  -5   17.18    1.93
  -2   4   5  226.24    5.39
  -2   4   5  230.51    7.11
   2  -4  -5  236.19    7.05
  -2   5   5   48.59    2.17
  -2   5   5   49.36    3.34
   2  -5  -5   50.57    3.14
  -2   6   5   68.30    4.05
  -2   6   5   68.86    2.80
   2  -6  -5   62.81    3.71
  -2   7   5   12.40    2.53
   2  -7  -5   10.38    2.20
  -2   8   5    2.38    2.25
   1  11  -5    0.05    1.41
   1  10  -5   60.91    3.46
   1   9  -5   30.19    2.49
   1   8  -5   25.89    2.15
   1   7  -5    2.92    1.01
  -1  -6   5    2.78    0.97
   1   6  -5    2.78    0.90
  -1  -5   5   31.02    1.98
   1   5  -5   33.12    1.27
   1   5  -5   33.62    1.81
  -1  -4   5   26.66    1.74
   1   4  -5   22.41    1.21
   1   4  -5   25.16    1.46
  -1  -3   5  329.12    8.00
   1   3  -5  333.87    7.04
   1   3  -5  319.94    7.65
  -1  -2   5    8.42    1.13
   1   2  -5    7.62    0.80
   1   2  -5    7.57    0.99
  -1  -1   5  167.12    4.75
   1   1  -5  166.57    4.71
   1   1  -5  170.90    3.76
  -1   0   5    1.39    0.81
   1   0  -5    0.94    0.69
  -1   1   5  104.48    3.83
   1  -1  -5  109.13    3.73
  -1   2   5    2.11    0.49
  -1   2   5    2.21    1.08
   1  -2  -5    2.58    1.00
  -1   3   5  104.63    4.31
  -1   3   5  104.09    2.72
   1  -3  -5  100.59    3.96
  -1   4   5   14.63    2.12
  -1   4   5   15.38    1.34
   1  -4  -5   15.73    2.04
  -1   5   5   12.50    2.19
  -1   5   5   14.19    1.40
   1  -5  -5   15.43    2.14
  -1   6   5   15.83    2.62
   1  -6  -5   16.41    2.36
  -1   7   5    8.20    2.35
   1  -7  -5    7.64    2.02
  -1   8   5   28.80    3.86
   0  12  -5   14.50    2.47
   0  11  -5    4.87    1.68
   0  10  -5    1.22    1.28
   0   9  -5    2.60    1.12
   0   8  -5  143.40    4.62
   0  -7   5   81.98    3.47
   0   7  -5   81.05    3.09
   0  -6   5  159.49    4.98
   0   6  -5  162.58    4.44
   0  -5   5    5.44    1.08
   0   5  -5    5.29    0.91
   0   5  -5    6.45    0.69
   0  -4   5   46.06    2.21
   0   4  -5   46.44    1.73
   0   4  -5   44.33    1.78
   0  -3   5   11.19    1.30
   0   3  -5    9.69    0.88
   0   3  -5    8.61    1.01
   0  -2   5   93.11    3.23
   0   2  -5  100.45    2.33
   0   2  -5   96.11    3.11
   0  -1   5  497.42   11.58
   0   1  -5  498.95   11.65
   0   0   5  172.84    5.14
   0   0  -5  167.77    5.01
   0   1   5   97.94    3.93
   0  -1  -5  111.75    3.86
   0   2   5   57.13    3.16
   0  -2  -5   62.29    2.90
   0   3   5    2.61    1.39
   0  -3  -5    0.33    1.07
   0   4   5    0.49    0.71
   0   4   5    0.87    1.32
   0  -4  -5    1.61    1.21
   0   5   5  130.41    5.78
   0  -5  -5  129.27    5.04
   0   6   5   32.00    3.53
   0  -6  -5   36.97    2.92
   0   7   5   30.85    3.79
  -1  12  -5    0.76    1.59
  -1  11  -5    4.69    1.63
  -1  10  -5   11.62    1.79
  -1   9  -5    1.43    1.08
   1  -8   5   24.19    2.15
  -1   8  -5   25.60    2.00
   1  -7   5    0.67    0.87
  -1   7  -5    1.90    0.86
   1  -6   5   77.06    3.14
  -1   6  -5   80.65    2.78
  -1   6  -5   77.53    2.28
   1  -5   5   -0.02    0.76
  -1   5  -5    0.84    0.62
  -1   5  -5    1.27    0.49
   1  -4   5  220.31    6.00
  -1   4  -5  224.66    5.08
  -1   4  -5  223.76    5.64
   1  -3   5    0.68    0.74
  -1   3  -5    0.18    0.44
  -1   3  -5    0.07    0.54
   1  -2   5   44.60    2.21
  -1   2  -5   43.12    2.06
   1  -1   5   12.18    1.42
  -1   1  -5   10.07    1.26
   1   0   5   33.97    2.24
  -1   0  -5   33.95    2.01
   1   1   5   60.87    3.12
  -1  -1  -5   59.57    2.80
   1   2   5   82.00    3.95
  -1  -2  -5   82.71    3.53
   1   3   5   50.23    2.04
   1   3   5   52.81    3.49
  -1  -3  -5   52.04    2.99
   1   4   5   -0.36    1.45
  -1  -4  -5    1.32    1.09
   1   5   5    0.26    1.59
  -1  -5  -5    3.04    1.46
   1   6   5    0.43    1.86
  -1  -6  -5   -0.22    1.31
   1   7   5   36.11    4.33
   2 -12   5   17.45    2.72
  -2  12  -5   11.13    2.20
   2 -11   5   41.72    3.36
  -2  11  -5   34.04    3.07
   2 -10   5   16.61    2.26
  -2  10  -5   13.72    1.98
   2  -9   5    2.14    1.21
  -2   9  -5    3.41    1.16
  -2   8  -5   14.36    1.68
   2  -7   5   44.16    2.53
  -2   7  -5   46.20    1.75
  -2   7  -5   48.94    2.33
   2  -6   5  166.07    5.02
  -2   6  -5  163.69    4.38
  -2   6  -5  160.91    4.38
   2  -5   5  106.84    3.72
  -2   5  -5  108.86    3.14
  -2   5  -5  110.30    3.38
   2  -4   5   39.31    2.11
  -2   4  -5   35.78    1.54
  -2   4  -5   38.43    1.87
   2  -3   5   84.98    3.15
  -2   3  -5   90.22    3.20
  -2   3  -5   93.69    2.36
   2  -2   5    1.04    0.77
  -2   2  -5    0.88    0.71
   2  -1   5   -0.27    0.75
  -2   1  -5    1.44    0.86
   2   0   5  197.05    6.02
  -2   0  -5  192.74    5.87
   2   1   5   18.97    2.17
  -2  -1  -5   20.06    1.95
   2   2   5   72.81    3.97
  -2  -2  -5   70.51    3.42
   2   3   5    2.30    1.46
  -2  -3  -5    1.30    1.25
   2   4   5    2.11    1.66
  -2  -4  -5    6.12    1.61
   2   5   5    0.78    1.77
  -2  -5  -5    1.56    1.28
   2   6   5   11.57    2.87
  -2  -6  -5   11.81    2.29
   3 -12   5    1.54    1.63
  -3  12  -5   -0.23    1.39
   3 -11   5   25.16    2.87
  -3  11  -5   17.67    2.33
   3 -10   5    9.12    1.86
  -3  10  -5   11.36    1.79
   3  -9   5   68.60    3.41
  -3   9  -5   68.61    3.17
   3  -8   5    5.77    1.34
  -3   8  -5    5.84    1.30
   3  -7   5    2.97    0.98
   3  -7   5    2.27    1.09
  -3   7  -5    2.40    0.94
   3  -6   5   61.15    2.81
   3  -6   5   61.46    2.64
  -3   6  -5   61.71    2.48
   3  -5   5   38.01    2.14
   3  -5   5   36.63    2.11
  -3   5  -5   36.28    1.76
   3  -4   5   63.65    2.78
   3  -4   5   66.14    2.75
  -3   4  -5   62.95    2.15
   3  -3   5  186.73    5.55
  -3   3  -5  198.87    4.43
  -3   3  -5  203.03    5.85
   3  -2   5   19.84    1.81
  -3   2  -5   22.40    1.82
   3  -1   5   21.45    2.02
  -3   1  -5   18.80    1.80
   3   0   5    3.66    1.33
  -3   0  -5    2.00    1.03
   3   1   5    7.18    1.75
  -3  -1  -5    6.87    1.49
   3   2   5   90.42    4.56
  -3  -2  -5   76.83    3.77
   3   3   5   24.81    2.95
  -3  -3  -5   32.67    2.68
   3   4   5   70.40    4.80
  -3  -4  -5   76.56    4.06
   3   5   5    1.61    2.13
  -3  -5  -5    6.27    1.79
   3   6   5    3.76    2.59
   4 -12   5   17.23    2.61
  -4  12  -5   16.63    2.50
   4 -11   5   14.89    2.29
  -4  11  -5    9.53    1.94
   4 -10   5   21.98    2.42
  -4  10  -5   16.77    2.11
   4  -9   5    2.20    1.23
  -4   9  -5    3.39    1.22
   4  -8   5   -0.01    0.93
   4  -8   5    3.25    1.25
  -4   8  -5    1.24    1.01
   4  -7   5    3.09    1.14
   4  -7   5    2.27    1.12
  -4   7  -5    3.70    1.09
   4  -6   5   -0.06    0.95
   4  -6   5    1.36    1.03
  -4   6  -5    0.59    0.84
   4  -5   5   80.23    3.39
   4  -5   5   79.70    3.17
  -4   5  -5   77.30    2.74
   4  -4   5    1.53    1.09
   4  -4   5    3.07    0.99
  -4   4  -5    1.12    0.69
   4  -3   5   56.57    2.72
   4  -3   5   54.02    2.85
  -4   3  -5   54.33    1.92
   4  -2   5    4.35    1.22
  -4   2  -5    4.21    0.65
  -4   2  -5    2.04    1.09
   4  -1   5   30.32    2.49
  -4   1  -5   35.32    2.47
   4   0   5    1.01    1.29
  -4   0  -5    0.63    1.07
   4   1   5   24.18    2.80
  -4  -1  -5   28.11    2.56
   4   2   5    3.46    1.70
  -4  -2  -5    4.03    1.44
   4   3   5   -0.14    1.77
  -4  -3  -5    0.08    1.26
   4   4   5   -0.54    1.88
  -4  -4  -5    2.98    1.59
   4   5   5    4.44    2.47
  -4  -5  -5    4.93    1.74
   5 -12   5    1.08    1.67
  -5  12  -5   -0.25    1.51
   5 -11   5   19.47    2.52
  -5  11  -5   12.00    2.13
   5 -10   5   29.76    2.79
  -5  10  -5   26.72    2.61
   5  -9   5   25.62    2.39
   5  -9   5   27.63    2.30
  -5   9  -5   21.41    2.27
   5  -8   5   99.78    3.93
   5  -8   5   95.85    3.97
  -5   8  -5   94.01    3.79
   5  -7   5   -0.63    1.10
   5  -7   5    1.07    1.01
  -5   7  -5    2.39    1.13
   5  -6   5    8.43    1.42
   5  -6   5    9.34    1.75
  -5   6  -5    7.76    1.30
   5  -5   5   27.25    2.10
   5  -5   5   32.18    2.62
  -5   5  -5   29.92    1.93
   5  -4   5    1.16    1.02
   5  -4   5    0.40    1.20
  -5   4  -5    1.91    0.78
   5  -3   5   74.10    3.32
   5  -3   5   76.26    3.74
  -5   3  -5   78.32    2.54
   5  -2   5   47.57    3.08
   5  -2   5   43.90    2.78
  -5   2  -5   43.63    2.91
  -5   2  -5   42.06    1.79
   5  -1   5   88.82    4.20
  -5   1  -5   96.38    4.32
   5   0   5   15.68    2.31
  -5   0  -5   14.99    2.18
   5   1   5   -0.24    1.60
  -5  -1  -5    0.14    1.24
   5   2   5   15.63    2.71
  -5  -2  -5   14.35    2.29
   5   3   5   19.49    3.05
  -5  -3  -5   21.21    2.76
   5   4   5   11.95    3.05
  -5  -4  -5   15.05    2.45
   6 -12   5    5.31    1.98
  -6  12  -5    4.02    1.88
   6 -11   5    2.97    1.68
  -6  11  -5    1.56    1.57
   6 -10   5    2.98    1.50
  -6  10  -5    4.48    1.62
   6  -9   5    3.14    1.41
   6  -9   5    0.28    1.29
  -6   9  -5    2.13    1.32
   6  -8   5   17.79    2.34
   6  -8   5   14.49    1.84
  -6   8  -5   15.06    1.98
   6  -7   5    0.92    1.08
   6  -7   5    2.80    1.57
  -6   7  -5    2.27    1.12
   6  -6   5   63.92    3.07
   6  -6   5   70.37    3.76
  -6   6  -5   68.49    3.08
   6  -5   5    0.72    1.39
   6  -5   5    0.86    1.04
  -6   5  -5    0.32    0.94
   6  -4   5   12.97    2.23
   6  -4   5   11.28    1.65
  -6   4  -5   12.32    1.39
   6  -3   5   10.14    1.67
   6  -3   5   14.68    2.25
  -6   3  -5   11.53    1.32
   6  -2   5    0.35    1.46
   6  -2   5    0.51    1.24
  -6   2  -5    1.05    0.74
   6  -1   5    1.31    1.44
  -6   1  -5    1.03    1.31
   6   0   5   18.96    2.60
  -6   0  -5   18.76    2.50
   6   1   5   29.69    3.30
  -6  -1  -5   25.49    2.97
   6   2   5   -0.15    1.84
  -6  -2  -5    0.34    1.49
   6   3   5    0.29    2.03
  -6  -3  -5    2.37    1.70
  -7  12  -5   -1.65    1.66
   7 -11   5   -2.33    1.37
  -7  11  -5    2.53    1.90
   7 -10   5    3.28    1.56
   7 -10   5    6.95    1.99
  -7  10  -5    4.36    1.62
   7  -9   5    1.96    1.32
   7  -9   5    4.22    1.76
  -7   9  -5    0.99    1.33
   7  -8   5   27.25    3.04
   7  -8   5   29.61    2.41
  -7   8  -5   27.36    2.59
   7  -7   5   35.99    3.25
   7  -7   5   28.99    2.38
  -7   7  -5   35.34    2.66
   7  -6   5   29.91    3.24
   7  -6   5   29.63    2.38
  -7   6  -5   30.02    2.34
   7  -5   5    4.52    1.29
   7  -5   5    2.93    1.74
  -7   5  -5    3.64    1.16
   7  -4   5   -1.15    1.00
   7  -4   5    0.70    1.53
  -7   4  -5    0.04    0.85
   7  -3   5    8.28    1.64
   7  -3   5    7.91    2.04
  -7   3  -5    6.89    1.19
   7  -2   5   23.54    2.95
   7  -2   5   28.99    2.62
   7  -1   5    1.40    1.56
  -7   1  -5    1.33    1.50
   7   0   5   25.25    2.91
  -7   0  -5   18.23    2.60
   7   1   5   -1.36    1.64
  -7  -1  -5   -0.41    1.47
   7   2   5    3.70    2.40
  -7  -2  -5    0.70    1.50
  -8  12  -5    3.37    2.10
  -8  11  -5   35.98    3.57
   8 -10   5    1.47    1.72
  -8  10  -5    0.69    1.65
   8  -9   5    2.86    1.81
  -8   9  -5    4.72    1.75
   8  -8   5   13.50    2.58
  -8   8  -5   14.08    2.14
   8  -7   5    0.69    1.68
   8  -7   5    0.88    1.42
  -8   7  -5    0.50    1.31
   8  -6   5    8.74    1.55
   8  -6   5    8.59    2.30
  -8   6  -5    7.53    1.55
   8  -5   5   56.12    3.04
   8  -5   5   58.42    4.09
  -8   5  -5   56.44    2.93
   8  -4   5   19.50    2.89
   8  -4   5   20.82    2.25
  -8   4  -5   23.41    2.01
   8  -3   5    0.87    1.30
   8  -3   5    0.83    1.72
   8  -2   5   -1.84    1.76
   8  -2   5    1.05    1.47
   8  -1   5    1.17    1.74
  -8   1  -5    6.45    1.94
   8   0   5    4.84    2.10
  -8   0  -5    6.23    2.01
   8   1   5    6.28    2.38
  -8  -1  -5    6.81    2.07
  -9  11  -5    2.22    2.00
   9 -10   5   -3.42    1.51
  -9  10  -5   -1.94    1.61
   9  -9   5    4.70    2.10
  -9   9  -5    4.88    1.80
   9  -8   5   -3.07    1.61
  -9   8  -5    0.04    1.45
   9  -7   5   14.34    2.79
  -9   7  -5   15.24    2.17
   9  -6   5    1.88    1.86
  -9   6  -5    1.47    1.25
   9  -5   5    9.25    2.38
  -9   5  -5   12.94    1.77
   9  -4   5    2.32    2.03
   9  -3   5   11.04    2.76
   9  -2   5   -0.61    2.27
  -9   2  -5    0.87    1.62
   9  -1   5    5.72    2.12
  -9   1  -5    7.47    2.16
  -9   0  -5    0.73    1.65
  10 -10   5   29.68    3.78
 -10  10  -5   33.21    3.48
  10  -9   5    8.96    2.69
 -10   9  -5    7.81    2.07
  10  -8   5    1.15    1.99
 -10   8  -5    0.67    1.58
  10  -7   5   -0.13    1.99
 -10   7  -5    1.38    1.46
  10  -6   5   -0.39    1.83
 -10   6  -5    1.84    1.45
  10  -5   5    8.36    2.54
  10  -4   5   10.47    2.98
  10  -3   5   40.72    4.64
 -10   2  -5   -0.37    1.51
  11  -7   5    3.68    2.46
 -11   7  -5    7.47    1.98
  11  -6   5    5.17    2.62
 -12   0   6    4.76    1.74
  12   0  -6    0.70    2.10
 -12   1   6    3.05    1.57
  12  -1  -6   -3.52    1.83
 -12   2   6    1.20    1.36
  12  -2  -6   -2.46    1.77
 -12   3   6    7.32    1.86
  12  -3  -6    6.03    2.41
 -12   4   6    8.00    1.97
  12  -4  -6    5.17    2.49
 -12   5   6   32.72    3.27
  12  -5  -6   25.89    3.81
 -11  -3   6   17.21    2.52
 -11  -2   6   46.61    3.44
  11   2  -6   31.52    3.64
 -11  -1   6    0.80    1.26
  11   1  -6    0.28    1.89
 -11   0   6   -0.37    1.20
  11   0  -6   -0.61    1.85
 -11   1   6    6.26    1.67
  11  -1  -6    4.07    2.08
 -11   2   6    7.49    1.69
  11  -2  -6    9.14    2.41
 -11   3   6   15.69    2.24
  11  -3  -6   14.37    2.71
 -11   4   6   26.20    2.83
  11  -4  -6   29.33    3.69
 -11   5   6    6.61    1.81
  11  -5  -6    7.04    2.56
 -11   6   6    1.95    1.54
  11  -6  -6   -0.28    2.17
 -10  -3   6   -0.77    1.18
  10   3  -6   -0.91    1.79
  10   2  -6   11.25    2.49
 -10  -1   6   44.14    3.09
  10   1  -6   39.74    3.52
 -10   0   6   74.42    3.78
  10   0  -6   69.36    4.18
 -10   1   6    2.50    1.23
  10  -1  -6    2.63    1.83
 -10   2   6    1.61    1.10
  10  -2  -6    2.60    1.84
 -10   3   6   22.52    2.42
  10  -3  -6   22.48    3.03
 -10   4   6    3.66    1.46
  10  -4  -6    5.23    2.05
 -10   5   6   15.35    2.19
  10  -5  -6   10.74    2.55
 -10   6   6   76.48    4.17
  10  -6  -6   77.21    5.02
 -10   7   6   18.24    2.60
  10  -7  -6   16.35    3.25
   9   6  -6    2.70    2.37
   9   5  -6    3.57    2.28
   9   4  -6    0.32    1.87
   9   3  -6   34.40    3.50
   9   3  -6   29.71    3.17
  -9  -2   6    4.82    1.41
   9   2  -6    6.58    2.01
  -9  -1   6   33.04    2.57
   9   1  -6   34.80    3.03
  -9   0   6    5.34    1.38
   9   0  -6    6.85    1.90
  -9   1   6   18.77    2.17
   9  -1  -6   17.96    2.45
  -9   2   6   11.42    1.72
   9  -2  -6    8.07    2.03
  -9   3   6    4.10    1.29
   9  -3  -6    5.41    1.88
  -9   4   6   17.33    2.10
   9  -4  -6   17.29    2.61
  -9   5   6    0.40    1.18
   9  -5  -6    1.19    1.62
  -9   6   6   17.66    2.24
   9  -6  -6   12.87    2.73
  -9   7   6    3.95    1.64
   9  -7  -6    4.03    2.26
   9  -8  -6   29.98    3.91
   8   7  -6    4.92    2.35
  -8  -6   6   59.39    3.50
   8   6  -6   56.72    4.28
  -8  -5   6   61.24    3.35
   8   5  -6   57.53    4.07
  -8  -4   6    7.41    1.40
   8   4  -6   11.19    2.09
   8   4  -6    5.22    1.86
  -8  -3   6    0.20    1.46
   8   3  -6   -1.13    1.35
   8   3  -6   -0.12    1.45
   8   2  -6   22.98    2.56
  -8  -1   6   31.04    2.25
   8   1  -6   21.40    2.62
  -8   0   6   28.33    2.18
   8   0  -6   29.27    2.61
  -8   1   6  191.00    5.78
   8  -1  -6  187.74    6.38
  -8   2   6   20.55    2.06
   8  -2  -6   19.88    2.44
  -8   3   6   11.43    1.70
   8  -3  -6   12.89    2.18
  -8   4   6   14.65    1.89
   8  -4  -6   18.11    2.56
  -8   5   6    1.43    1.16
   8  -5  -6    0.27    1.57
  -8   6   6   28.45    2.63
   8  -6  -6   25.40    3.26
  -8   7   6   34.58    2.97
   8  -7  -6   36.63    4.05
  -8   8   6   43.18    3.46
   8  -8  -6   46.72    4.49
   7   8  -6   20.44    3.21
   7   7  -6   -1.55    1.60
   7   6  -6   11.38    2.22
  -7  -5   6    2.86    1.19
   7   5  -6    3.42    1.66
  -7  -4   6   78.64    3.49
   7   4  -6   77.83    3.64
   7   4  -6   81.50    4.01
  -7  -3   6   47.95    2.58
   7   3  -6   50.45    2.99
   7   3  -6   46.28    3.10
  -7  -2   6   47.39    2.34
   7   2  -6   48.95    3.11
   7   2  -6   46.33    2.99
  -7  -1   6    0.53    0.69
  -7  -1   6    0.66    0.79
   7   1  -6   -0.72    1.03
  -7   0   6    2.12    0.89
  -7   0   6    2.17    0.70
   7   0  -6    3.03    1.38
  -7   1   6   20.22    1.78
   7  -1  -6   17.88    2.22
  -7   2   6   25.81    2.00
   7  -2  -6   29.41    2.81
  -7   3   6  177.95    5.36
   7  -3  -6  180.15    6.37
  -7   4   6   31.68    2.23
   7  -4  -6   33.53    3.06
  -7   5   6   26.55    2.30
   7  -5  -6   26.72    3.13
  -7   6   6    7.80    1.61
   7  -6  -6    8.85    2.25
  -7   7   6    3.00    1.45
   7  -7  -6    0.04    1.88
  -7   8   6    0.45    1.52
   7  -8  -6   -0.98    2.10
   6   9  -6    0.00    1.94
   6   8  -6    0.70    1.74
   6   7  -6    1.07    1.53
   6   6  -6   26.41    2.81
  -6  -5   6   34.33    2.53
   6   5  -6   31.24    2.76
  -6  -4   6  156.60    5.11
   6   4  -6  159.62    5.36
   6   4  -6  158.23    5.07
  -6  -3   6    5.33    1.20
   6   3  -6    8.76    1.62
   6   3  -6    5.76    1.49
  -6  -2   6   30.46    1.95
   6   2  -6   33.64    2.50
   6   2  -6   32.84    2.29
  -6  -1   6    4.24    0.89
  -6  -1   6    3.58    0.98
   6   1  -6    3.96    1.26
  -6   0   6   27.40    1.84
  -6   0   6   28.15    1.60
   6   0  -6   26.88    2.26
  -6   1   6   20.92    1.69
  -6   1   6   25.54    1.51
   6  -1  -6   23.88    2.33
  -6   2   6  110.45    3.39
  -6   2   6  105.47    3.64
   6  -2  -6  110.06    4.50
  -6   3   6   60.07    2.68
  -6   3   6   64.68    2.59
   6  -3  -6   62.89    3.61
  -6   4   6   16.40    1.63
  -6   4   6   13.59    1.58
   6  -4  -6   13.38    2.24
  -6   5   6   20.53    1.91
  -6   5   6   20.42    2.03
   6  -5  -6   19.88    2.75
  -6   6   6   -0.50    0.95
  -6   6   6    1.12    1.15
   6  -6  -6    0.60    1.76
  -6   7   6   29.97    2.60
  -6   7   6   25.60    4.05
   6  -7  -6   31.31    3.55
  -6   8   6    4.49    1.60
   5   9  -6   53.19    3.87
   5   8  -6   21.82    2.69
   5   7  -6   43.33    3.11
   5   6  -6    4.30    1.44
  -5  -5   6   11.64    1.74
   5   5  -6    8.60    1.59
   5   5  -6   12.70    1.50
  -5  -4   6    2.24    1.10
   5   4  -6    2.46    1.14
   5   4  -6    1.92    1.18
  -5  -3   6   92.08    3.40
   5   3  -6   89.92    3.53
   5   3  -6   90.85    3.40
  -5  -2   6  298.52    7.40
   5   2  -6  288.67    7.39
   5   2  -6  295.03    7.75
  -5  -1   6   89.27    3.06
   5   1  -6   93.46    3.60
  -5   0   6   59.34    2.43
  -5   0   6   58.87    2.36
   5   0  -6   54.51    2.99
  -5   1   6   62.81    2.43
  -5   1   6   63.15    2.46
   5  -1  -6   44.33    2.93
  -5   2   6    3.21    0.84
  -5   2   6    3.52    0.92
   5  -2  -6    2.48    1.33
  -5   3   6    4.94    1.00
  -5   3   6    3.84    1.10
   5  -3  -6    3.40    1.58
  -5   4   6  217.79    6.33
  -5   4   6  208.65    5.57
   5  -4  -6  225.08    7.25
  -5   5   6   81.37    3.70
  -5   5   6   77.60    3.09
   5  -5  -6   82.24    4.47
  -5   6   6   33.95    2.90
  -5   6   6   36.96    2.43
   5  -6  -6   40.61    3.99
  -5   7   6   -0.32    1.07
  -5   7   6    0.09    1.50
   5  -7  -6    0.52    2.04
  -5   8   6    2.06    1.86
   5  -8  -6   -1.01    2.03
   4  10  -6    5.60    2.01
   4   9  -6   30.13    3.04
   4   8  -6    1.22    1.27
   4   7  -6   22.92    2.37
  -4  -6   6    0.59    1.05
   4   6  -6    0.29    1.05
  -4  -5   6   74.89    3.38
   4   5  -6   77.72    2.84
   4   5  -6   70.08    3.21
  -4  -4   6    3.45    1.02
   4   4  -6    1.34    0.92
   4   4  -6    3.14    0.97
  -4  -3   6   62.54    2.66
   4   3  -6   58.57    2.63
   4   3  -6   58.69    2.55
  -4  -2   6   18.09    1.54
   4   2  -6   20.26    1.78
   4   2  -6   19.30    1.74
  -4  -1   6   46.69    2.16
   4   1  -6   47.99    2.49
  -4   0   6   64.62    2.55
  -4   0   6   64.72    2.34
   4   0  -6   60.81    2.89
  -4   1   6   48.16    2.30
  -4   1   6   47.29    1.95
   4  -1  -6   46.54    2.67
  -4   2   6   66.71    2.31
  -4   2   6   63.38    2.80
   4  -2  -6   56.33    3.10
  -4   3   6    0.45    0.95
  -4   3   6    1.57    0.69
   4  -3  -6    1.23    1.29
  -4   4   6   20.38    2.13
  -4   4   6   16.99    1.49
   4  -4  -6   16.06    2.28
  -4   5   6    1.98    0.89
  -4   5   6   -0.96    1.10
   4  -5  -6    2.58    1.63
  -4   6   6   83.21    4.27
  -4   6   6   81.86    3.14
   4  -6  -6   74.27    4.36
  -4   7   6   12.44    2.30
   4  -7  -6   14.41    2.83
  -4   8   6   36.31    3.76
   4  -8  -6   22.34    3.35
   3  11  -6    8.08    2.20
   3  10  -6   -0.16    1.37
   3   9  -6    0.25    1.19
   3   8  -6   40.10    2.72
  -3  -7   6  115.30    4.64
   3   7  -6  117.56    4.25
  -3  -6   6   41.11    2.62
   3   6  -6   38.73    2.41
  -3  -5   6   19.54    1.97
   3   5  -6   21.78    1.94
   3   5  -6   15.15    1.32
  -3  -4   6   78.62    3.17
   3   4  -6   75.48    2.71
   3   4  -6   77.60    2.93
  -3  -3   6    4.12    1.02
   3   3  -6    2.15    0.92
   3   3  -6    3.06    0.87
  -3  -2   6    5.01    1.00
   3   2  -6    3.17    0.86
   3   2  -6    4.69    1.04
  -3  -1   6  426.92   10.07
   3   1  -6  430.79   10.47
  -3   0   6   96.02    3.38
  -3   0   6   95.24    2.73
   3   0  -6   94.42    3.56
  -3   1   6   77.35    2.33
  -3   1   6   74.40    3.15
   3  -1  -6   83.59    3.36
  -3   2   6   21.60    1.95
  -3   2   6   19.37    1.16
   3  -2  -6   20.80    2.14
  -3   3   6    1.05    0.62
  -3   3   6    0.01    1.02
   3  -3  -6    2.24    1.28
  -3   4   6   15.28    2.05
  -3   4   6   15.84    1.37
   3  -4  -6   12.25    2.04
  -3   5   6   39.59    3.15
  -3   5   6   36.83    1.99
   3  -5  -6   37.85    3.05
  -3   6   6   65.28    4.08
   3  -6  -6   65.25    4.11
  -3   7   6   12.03    2.55
   3  -7  -6    9.39    2.40
  -3   8   6    5.75    2.51
   2  11  -6   -0.90    1.37
   2  10  -6   25.00    2.76
   2   9  -6    1.09    1.17
   2   8  -6    7.34    1.48
  -2  -7   6    6.59    1.45
   2   7  -6    7.56    1.39
  -2  -6   6   53.23    2.85
   2   6  -6   52.38    2.57
  -2  -5   6   65.91    2.96
   2   5  -6   64.05    2.61
   2   5  -6   57.18    2.19
  -2  -4   6  138.12    4.34
   2   4  -6  133.56    3.82
   2   4  -6  130.47    3.78
  -2  -3   6   23.23    1.78
   2   3  -6   25.55    1.48
   2   3  -6   25.34    1.59
  -2  -2   6   39.84    2.10
   2   2  -6   39.44    2.02
   2   2  -6   37.47    1.64
  -2  -1   6    2.25    0.51
  -2  -1   6    1.58    0.83
   2   1  -6    1.83    0.86
  -2   0   6    1.31    0.84
  -2   0   6    1.01    0.41
   2   0  -6    1.72    0.90
  -2   1   6  265.59    7.23
  -2   1   6  255.84    5.45
   2  -1  -6  259.76    7.26
  -2   2   6  108.51    4.20
  -2   2   6  107.41    2.73
   2  -2  -6  103.08    4.09
  -2   3   6   98.73    2.76
  -2   3   6  103.01    4.39
   2  -3  -6  102.03    4.26
  -2   4   6   10.92    1.12
  -2   4   6    7.74    1.87
   2  -4  -6    9.05    1.94
  -2   5   6    1.31    1.50
   2  -5  -6    0.72    1.47
  -2   6   6    2.33    1.87
   2  -6  -6    2.27    1.71
  -2   7   6   23.87    3.31
   2  -7  -6   17.76    2.84
   1  11  -6    9.56    2.06
   1  10  -6    0.25    1.20
  -1  -9   6   13.01    2.02
   1   9  -6   11.56    1.80
  -1  -8   6    5.08    1.40
   1   8  -6    2.12    1.15
  -1  -7   6    2.79    1.18
   1   7  -6    2.71    1.03
  -1  -6   6  168.98    5.41
   1   6  -6  172.78    4.80
  -1  -5   6    2.48    0.99
   1   5  -6    3.49    0.68
   1   5  -6    1.98    0.77
  -1  -4   6   64.04    2.82
   1   4  -6   62.77    2.29
   1   4  -6   64.56    2.27
  -1  -3   6   27.85    1.87
   1   3  -6   28.00    1.37
   1   3  -6   25.98    1.54
  -1  -2   6   17.94    1.69
   1   2  -6   12.90    0.96
   1   2  -6   16.02    1.35
  -1  -1   6    1.61    0.87
   1   1  -6    2.76    0.91
  -1   0   6   73.99    3.16
   1   0  -6   73.36    3.04
  -1   1   6   41.92    2.63
   1  -1  -6   43.90    2.49
  -1   2   6    6.30    1.51
   1  -2  -6    5.02    1.36
  -1   3   6   27.22    2.78
   1  -3  -6   26.11    2.36
  -1   4   6   -0.88    1.29
   1  -4  -6    0.22    1.24
  -1   5   6   28.09    3.13
   1  -5  -6   34.21    2.96
  -1   6   6    1.07    1.87
   1  -6  -6    1.02    1.70
  -1   7   6   13.86    2.95
   1  -7  -6   19.20    2.84
   0 -12   6    5.20    1.96
   0  12  -6    6.15    1.93
   0 -11   6   28.76    3.20
   0  11  -6   21.72    2.53
   0 -10   6   21.41    2.58
   0  10  -6   26.82    2.64
   0  -9   6   78.16    3.85
   0   9  -6   70.88    3.36
   0  -8   6   -0.70    0.91
   0   8  -6    0.66    0.93
   0  -7   6   25.66    2.20
   0   7  -6   26.95    1.98
   0  -6   6   29.62    2.18
   0   6  -6   28.47    1.82
   0   6  -6   29.54    1.31
   0  -5   6    4.16    1.08
   0   5  -6    2.62    0.64
   0   5  -6    3.02    0.79
   0  -4   6  201.65    5.80
   0   4  -6  200.54    5.34
   0   4  -6  209.82    4.83
   0  -3   6  103.47    3.65
   0   3  -6  102.79    3.39
   0   3  -6  106.49    2.70
   0  -2   6  175.15    5.13
   0   2  -6  167.42    4.97
   0  -1   6   62.45    2.86
   0   1  -6   64.75    2.80
   0   0   6   10.33    1.54
   0   0  -6   10.75    1.51
   0   1   6   29.06    2.51
   0  -1  -6   27.37    2.15
   0   2   6   84.92    4.09
   0  -2  -6   83.73    3.77
   0   3   6   66.87    3.98
   0  -3  -6   72.00    3.64
   0   4   6   48.33    3.77
   0  -4  -6   55.31    3.30
   0   5   6    0.14    1.64
   0  -5  -6    3.67    1.65
   0   6   6    1.10    2.14
   0  -6  -6    4.45    1.75
   0   7   6    4.05    2.40
   1 -12   6    3.10    1.87
  -1  12  -6    0.38    1.58
   1 -11   6   12.54    2.27
  -1  11  -6   17.03    2.35
   1 -10   6    2.83    1.45
  -1  10  -6    1.75    1.26
   1  -9   6   15.48    2.06
  -1   9  -6   19.07    2.07
   1  -8   6   -0.05    1.05
  -1   8  -6    1.38    0.95
   1  -7   6   54.28    2.88
  -1   7  -6   49.29    2.41
  -1   7  -6   54.00    1.83
   1  -6   6    2.31    1.00
  -1   6  -6    2.57    0.86
  -1   6  -6    4.61    0.76
   1  -5   6   16.73    1.80
  -1   5  -6   16.75    1.22
  -1   5  -6   15.82    1.26
   1  -4   6    0.51    0.79
  -1   4  -6    0.28    0.60
  -1   4  -6    0.50    0.49
   1  -3   6   12.08    1.46
  -1   3  -6   10.98    0.82
  -1   3  -6   10.02    1.29
   1  -2   6   21.59    1.83
  -1   2  -6   20.94    1.65
   1  -1   6   22.02    2.00
  -1   1  -6   22.31    1.75
   1   0   6   64.60    3.23
  -1   0  -6   62.48    2.98
   1   1   6    4.72    1.47
  -1  -1  -6    4.29    1.28
   1   2   6    3.50    1.61
  -1  -2  -6    5.36    1.43
   1   3   6   13.03    2.34
  -1  -3  -6   15.69    2.10
   1   4   6   25.83    3.28
  -1  -4  -6   29.53    2.71
   1   5   6    3.80    2.08
  -1  -5  -6    4.43    1.67
   1   6   6   38.51    4.36
  -1  -6  -6   35.40    3.25
   2 -12   6    3.31    1.89
  -2  12  -6    1.60    1.59
   2 -11   6    4.74    1.80
  -2  11  -6    5.37    1.61
   2 -10   6    9.80    1.86
  -2  10  -6    4.74    1.37
   2  -9   6   59.73    3.36
  -2   9  -6   60.34    3.01
   2  -8   6   36.24    2.61
  -2   8  -6   37.34    2.34
   2  -7   6   37.70    2.52
  -2   7  -6   37.81    2.16
  -2   7  -6   38.06    1.75
   2  -6   6   26.30    2.15
  -2   6  -6   24.03    1.56
  -2   6  -6   29.50    1.73
   2  -5   6    2.03    0.99
  -2   5  -6    1.23    0.62
  -2   5  -6    2.52    0.77
   2  -4   6   29.74    2.07
  -2   4  -6   32.57    1.43
  -2   4  -6   31.50    1.94
   2  -3   6  127.18    4.33
  -2   3  -6  129.20    4.30
   2  -2   6   31.94    2.19
  -2   2  -6   33.96    2.18
   2  -1   6   90.38    3.78
  -2   1  -6   90.19    3.69
   2   0   6    2.99    1.31
  -2   0  -6    3.97    1.16
   2   1   6    1.16    1.34
  -2  -1  -6    0.43    1.01
   2   2   6    1.31    1.44
  -2  -2  -6    1.17    1.20
   2   3   6    2.47    1.63
  -2  -3  -6    7.27    1.74
   2   4   6   31.85    3.66
  -2  -4  -6   31.93    2.89
   2   5   6    5.42    2.34
  -2  -5  -6    5.60    1.77
   2   6   6    7.68    2.74
   3 -12   6   30.67    3.50
  -3  12  -6   31.54    3.11
   3 -11   6    0.07    1.42
  -3  11  -6    1.33    1.33
   3 -10   6    2.89    1.53
  -3  10  -6    2.35    1.32
   3  -9   6   16.66    2.16
  -3   9  -6   14.14    1.86
   3  -8   6    9.66    1.68
  -3   8  -6   12.77    1.59
  -3   8  -6   10.08    1.23
   3  -7   6   29.21    2.36
  -3   7  -6   28.66    1.96
  -3   7  -6   29.61    1.79
   3  -6   6   93.90    3.72
  -3   6  -6   91.95    3.09
  -3   6  -6   92.54    3.42
   3  -5   6   45.21    2.58
  -3   5  -6   45.17    1.96
  -3   5  -6   45.56    2.38
   3  -4   6    9.61    1.44
  -3   4  -6    7.10    0.88
  -3   4  -6    8.91    1.37
   3  -3   6    7.77    1.32
  -3   3  -6   11.47    1.61
   3  -2   6   33.54    2.39
  -3   2  -6   36.67    2.41
   3  -1   6   57.02    3.18
  -3   1  -6   49.87    2.93
   3   0   6   32.89    2.86
  -3   0  -6   31.72    2.52
   3   1   6  109.10    4.98
  -3  -1  -6  100.10    4.53
   3   2   6    1.05    1.55
  -3  -2  -6    0.72    1.20
   3   3   6   -2.94    1.43
  -3  -3  -6    0.28    1.32
   3   4   6   12.53    2.84
  -3  -4  -6    9.70    2.09
   3   5   6    2.14    2.32
  -3  -5  -6    0.76    1.49
   4 -12   6    8.27    2.24
  -4  12  -6    3.25    1.74
   4 -11   6    5.25    1.87
  -4  11  -6    2.83    1.49
   4 -10   6    4.67    1.63
  -4  10  -6    2.13    1.28
   4  -9   6   -0.47    1.17
  -4   9  -6    1.00    1.10
  -4   9  -6    0.03    0.92
   4  -8   6   59.30    2.91
   4  -8   6   64.94    3.31
  -4   8  -6   59.81    2.93
   4  -7   6    4.48    1.34
   4  -7   6    3.99    1.34
  -4   7  -6    1.75    0.99
   4  -6   6   41.05    2.52
   4  -6   6   37.92    2.53
  -4   6  -6   39.71    2.14
   4  -5   6    0.11    0.99
  -4   5  -6    1.21    0.81
  -4   5  -6    1.15    0.98
   4  -4   6   11.32    1.57
  -4   4  -6   12.57    1.15
  -4   4  -6   12.26    1.78
   4  -3   6    0.72    1.07
  -4   3  -6    1.04    0.57
  -4   3  -6    1.13    1.03
   4  -2   6   20.45    2.23
  -4   2  -6   19.42    2.30
   4  -1   6    7.33    1.75
  -4   1  -6    9.19    1.76
   4   0   6    2.63    1.48
  -4   0  -6    0.63    1.19
   4   1   6    8.08    1.98
  -4  -1  -6    6.72    1.76
   4   2   6    1.41    1.71
  -4  -2  -6    0.90    1.41
   4   3   6   13.92    2.92
  -4  -3  -6   13.98    2.43
   4   4   6    1.02    2.17
  -4  -4  -6    5.00    1.76
   5 -12   6   14.94    2.56
  -5  12  -6    7.70    2.03
   5 -11   6   63.48    3.95
  -5  11  -6   70.17    3.79
   5 -10   6   15.81    2.30
  -5  10  -6   12.44    2.00
   5  -9   6    0.33    1.40
   5  -9   6    3.97    1.41
  -5   9  -6    2.37    1.28
   5  -8   6   12.36    1.85
   5  -8   6   10.77    1.82
  -5   8  -6    9.63    1.66
   5  -7   6    3.55    1.46
   5  -7   6    5.13    1.40
  -5   7  -6    3.75    1.19
   5  -6   6   53.32    2.98
   5  -6   6   54.81    3.18
  -5   6  -6   55.55    2.61
   5  -5   6   49.67    3.10
   5  -5   6   56.25    3.04
  -5   5  -6   49.74    2.33
   5  -4   6  124.26    4.99
   5  -4   6  127.56    4.62
  -5   4  -6  127.01    3.61
  -5   4  -6  130.21    5.05
   5  -3   6    1.04    1.21
  -5   3  -6    1.40    1.21
  -5   3  -6    0.33    0.67
   5  -2   6   -0.76    1.19
  -5   2  -6    0.65    1.22
   5  -1   6   17.58    2.34
  -5   1  -6   14.92    2.26
   5   0   6   12.48    2.33
  -5   0  -6   11.75    2.16
   5   1   6   12.63    2.44
  -5  -1  -6   14.51    2.37
   5   2   6   29.16    3.43
  -5  -2  -6   32.45    3.15
   5   3   6    4.52    2.33
  -5  -3  -6    6.14    1.83
   6 -12   6   -1.71    1.78
  -6  12  -6   -1.17    1.50
   6 -11   6    9.00    2.09
  -6  11  -6    8.77    2.06
   6 -10   6    1.24    1.56
  -6  10  -6    0.96    1.36
   6  -9   6   42.35    3.09
   6  -9   6   45.23    2.96
  -6   9  -6   37.93    2.95
   6  -8   6    3.60    1.40
   6  -8   6    3.46    1.62
  -6   8  -6    3.70    1.40
   6  -7   6   15.29    2.27
   6  -7   6   16.08    1.93
  -6   7  -6   14.68    1.82
   6  -6   6   -0.96    1.26
   6  -6   6   -1.61    0.99
  -6   6  -6    0.82    0.99
   6  -5   6   -1.93    1.17
   6  -5   6    0.20    1.09
  -6   5  -6   -0.82    0.86
   6  -4   6   10.27    2.05
   6  -4   6    9.76    1.68
  -6   4  -6    9.17    1.24
   6  -3   6   19.54    2.29
  -6   3  -6   18.27    2.44
   6  -2   6   59.84    3.56
  -6   2  -6   56.65    3.72
   6  -1   6    4.00    1.71
  -6   1  -6    1.97    1.46
   6   0   6    3.09    1.78
  -6   0  -6    5.42    1.86
   6   1   6    3.38    2.08
  -6  -1  -6    5.87    1.93
   6   2   6    6.84    2.48
  -6  -2  -6    7.79    2.24
   7 -12   6   -0.70    2.40
  -7  12  -6   -1.17    1.65
   7 -11   6   18.45    2.53
  -7  11  -6   14.30    2.43
   7 -10   6   23.26    2.52
   7 -10   6   22.68    2.79
  -7  10  -6   18.40    2.52
   7  -9   6   37.60    2.96
   7  -9   6   36.89    3.21
  -7   9  -6   38.99    3.07
   7  -8   6    1.97    1.67
   7  -8   6   -0.24    1.19
  -7   8  -6   -0.35    1.18
   7  -7   6    1.10    1.26
   7  -7   6    1.50    1.62
  -7   7  -6    2.61    1.22
   7  -6   6    2.93    1.67
   7  -6   6    4.82    1.46
  -7   6  -6    6.69    1.39
   7  -5   6   27.09    3.07
   7  -5   6   29.10    2.57
  -7   5  -6   33.04    2.21
   7  -4   6   13.92    2.01
   7  -4   6    8.57    2.09
   7  -3   6   35.22    2.98
  -7   3  -6   32.89    3.12
   7  -2   6    2.09    1.62
  -7   2  -6    2.21    1.57
   7  -1   6    2.06    1.71
  -7   1  -6    0.08    1.46
   7   0   6    4.93    2.08
  -7   0  -6    1.03    1.59
   7   1   6    5.78    2.44
  -7  -1  -6    3.06    1.88
  -8  11  -6    2.31    1.90
   8 -10   6    1.86    1.86
  -8  10  -6   -0.05    1.48
   8  -9   6    4.40    2.00
  -8   9  -6    3.05    1.59
   8  -8   6   38.00    3.29
   8  -8   6   37.85    3.55
  -8   8  -6   34.02    2.90
   8  -7   6   42.00    3.74
   8  -7   6   45.72    3.07
  -8   7  -6   44.17    2.96
   8  -6   6    2.30    1.43
   8  -6   6    3.62    1.95
  -8   6  -6    2.39    1.28
   8  -5   6   -1.06    1.55
   8  -5   6    0.53    1.29
   8  -4   6   10.69    1.97
   8  -4   6    5.71    2.03
   8  -3   6   10.74    2.02
  -8   3  -6    9.17    2.20
   8  -2   6   10.38    2.18
  -8   2  -6    6.51    1.90
   8  -1   6   59.02    4.23
  -8   1  -6   50.92    4.17
   8   0   6    6.48    2.33
  -8   0  -6    6.60    2.26
  -9  11  -6   -0.51    1.77
   9 -10   6   15.59    2.90
  -9  10  -6    9.27    2.25
   9  -9   6    3.15    2.14
  -9   9  -6    2.20    1.74
   9  -8   6   10.00    2.44
  -9   8  -6   12.20    2.06
   9  -7   6   -1.39    1.78
  -9   7  -6   -0.80    1.20
   9  -6   6    6.30    2.36
   9  -5   6    0.12    1.93
   9  -4   6    9.44    2.59
  -9   3  -6    8.18    2.17
   9  -2   6    2.12    2.54
  -9   2  -6    2.36    1.83
  10  -9   6    2.23    2.20
 -10   9  -6    0.67    1.62
  10  -8   6    1.65    2.13
 -10   8  -6    3.12    1.64
  10  -7   6    5.05    2.44
  10  -6   6   30.65    3.87
  10  -5   6    3.30    2.35
  10  -4   6    0.71    2.58
 -12   0   7    7.69    1.96
  12   0  -7    6.51    2.41
 -12   1   7    4.52    1.74
  12  -1  -7    1.56    2.14
 -12   2   7   41.85    3.40
  12  -2  -7   46.57    4.10
 -12   3   7    2.22    1.59
  12  -3  -7    0.18    2.16
 -11  -2   7    3.69    1.55
  11   2  -7    2.02    2.14
 -11  -1   7    6.20    1.71
  11   1  -7    4.15    2.24
 -11   0   7   18.87    2.41
  11   0  -7   23.54    3.14
 -11   1   7   40.39    3.10
  11  -1  -7   35.87    3.77
 -11   2   7   18.66    2.38
  11  -2  -7   18.71    3.04
 -11   3   7    3.61    1.45
 -11   4   7   11.43    2.19
  11  -4  -7    2.28    2.29
 -11   5   7    1.70    1.49
  11  -5  -7    2.11    2.22
 -10  -3   7   68.34    4.02
  10   3  -7   65.14    4.26
 -10  -2   7   10.18    1.88
  10   2  -7    6.80    2.16
 -10  -1   7    6.13    1.65
  10   1  -7    8.70    2.17
 -10   0   7   14.16    2.03
  10   0  -7   13.22    2.45
 -10   1   7    8.29    1.73
  10  -1  -7    8.53    2.39
 -10   2   7   13.78    2.00
  10  -2  -7   17.08    2.77
 -10   3   7   92.96    4.28
  10  -3  -7   84.75    4.76
 -10   4   7   34.36    2.96
  10  -4  -7   37.74    3.77
 -10   5   7    8.22    1.84
  10  -5  -7   10.14    2.62
 -10   6   7    1.89    1.49
  10  -6  -7   -0.23    2.04
   9   6  -7   22.56    3.31
   9   5  -7    7.03    2.38
   9   4  -7   22.92    3.12
   9   3  -7   11.42    2.26
  -9  -2   7   14.31    2.10
   9   2  -7    9.89    2.07
  -9  -1   7   14.05    1.89
   9   1  -7   21.76    2.74
  -9   0   7    6.57    1.44
   9   0  -7    6.55    1.93
  -9   1   7   26.62    2.32
   9  -1  -7   26.26    2.93
  -9   2   7    5.05    1.39
   9  -2  -7    3.65    1.77
  -9   3   7   30.51    2.50
   9  -3  -7   30.28    3.31
  -9   4   7    1.17    1.15
   9  -4  -7    0.27    1.68
  -9   5   7   45.63    3.11
   9  -5  -7   42.22    3.83
  -9   6   7    6.66    1.74
   9  -6  -7    8.52    2.59
  -9   7   7   19.78    2.59
   9  -7  -7   22.87    3.69
  -8  -7   7    6.05    1.73
   8   7  -7    3.19    2.15
  -8  -6   7    3.80    1.57
   8   6  -7    4.71    2.12
  -8  -5   7   16.57    2.13
   8   5  -7   15.55    2.59
  -8  -4   7    9.34    2.03
   8   4  -7   11.09    2.06
   8   4  -7    9.57    2.17
   8   3  -7   15.05    2.32
   8   3  -7   16.49    2.28
  -8  -2   7  166.67    5.54
  -8  -1   7   50.31    2.85
   8   1  -7   51.86    3.27
  -8   0   7   18.03    1.99
   8   0  -7   15.76    2.25
  -8   1   7   12.66    1.72
   8  -1  -7   16.51    2.41
  -8   2   7    3.01    1.17
   8  -2  -7    2.42    1.57
  -8   3   7   23.87    2.27
   8  -3  -7   20.23    2.70
  -8   4   7   57.25    3.03
   8  -4  -7   43.21    3.61
  -8   5   7   98.43    4.06
   8  -5  -7   94.16    5.20
  -8   6   7    8.11    1.77
   8  -6  -7    6.86    2.31
  -8   7   7    7.87    1.89
   8  -7  -7    9.74    2.78
  -7  -8   7    2.48    1.64
   7   8  -7   -0.39    1.80
  -7  -7   7   18.60    2.47
   7   7  -7   18.96    2.74
  -7  -6   7   19.84    2.45
   7   6  -7   19.05    2.77
  -7  -5   7   18.93    2.22
   7   5  -7   28.09    2.99
  -7  -4   7   15.14    1.89
   7   4  -7   19.15    2.53
   7   4  -7   21.70    2.29
  -7  -3   7    4.15    1.19
   7   3  -7    3.10    1.50
   7   3  -7    6.11    1.54
  -7  -2   7    7.14    1.19
   7   2  -7    7.47    1.66
  -7  -1   7    0.64    0.79
  -7  -1   7    0.78    0.78
   7   1  -7    1.81    1.24
  -7   0   7  168.73    5.25
  -7   0   7  174.84    5.10
   7   0  -7  170.75    5.94
  -7   1   7   44.23    2.48
   7  -1  -7   43.95    3.12
  -7   2   7   51.24    2.66
   7  -2  -7   49.06    3.53
  -7   3   7    5.91    1.27
   7  -3  -7    7.57    2.03
  -7   4   7    1.60    0.98
   7  -4  -7    2.74    1.84
  -7   5   7    1.02    1.09
   7  -5  -7    0.06    1.77
  -7   6   7   44.92    2.95
   7  -6  -7   49.17    4.57
  -7   7   7   56.56    3.44
   7  -7  -7   51.78    4.56
  -6  -9   7    3.98    1.83
   6   9  -7    7.68    2.18
  -6  -8   7    5.17    1.72
   6   8  -7    2.90    1.76
  -6  -7   7   83.91    4.43
   6   7  -7   90.78    4.58
  -6  -6   7   10.47    1.82
   6   6  -7    9.66    2.01
  -6  -5   7   18.00    2.13
   6   5  -7   18.57    2.33
   6   5  -7   17.85    2.58
  -6  -4   7   19.17    2.07
   6   4  -7   20.06    2.32
   6   4  -7   26.57    2.42
  -6  -3   7   -1.90    0.78
   6   3  -7    0.96    1.17
   6   3  -7    0.49    1.04
  -6  -2   7   20.43    1.82
   6   2  -7   23.14    2.27
   6   2  -7   22.12    2.25
  -6  -1   7   67.53    2.89
  -6  -1   7   73.46    2.82
   6   1  -7   62.29    3.32
  -6   0   7   84.42    3.24
  -6   0   7   82.96    3.07
   6   0  -7   86.21    3.93
  -6   1   7    8.62    1.24
  -6   1   7   12.30    1.44
   6  -1  -7   10.38    1.89
  -6   2   7   23.72    1.81
  -6   2   7   24.49    1.82
   6  -2  -7   24.72    2.69
  -6   3   7    4.24    1.10
  -6   3   7    2.57    1.00
   6  -3  -7    2.50    1.70
  -6   4   7   27.71    2.02
  -6   4   7   32.28    2.36
   6  -4  -7   29.49    3.26
  -6   5   7    5.83    1.54
  -6   5   7    6.33    1.34
   6  -5  -7    5.54    2.11
  -6   6   7   35.59    2.54
  -6   6   7   35.00    3.74
   6  -6  -7   28.00    3.57
   6  -7  -7    0.88    2.22
  -5  -9   7    4.34    1.76
   5   9  -7    2.04    1.64
  -5  -8   7    4.43    1.65
   5   8  -7    6.33    1.85
  -5  -7   7    0.92    1.35
   5   7  -7    0.33    1.27
  -5  -6   7    2.25    1.40
   5   6  -7    5.62    1.43
  -5  -5   7  145.66    5.00
   5   5  -7  136.57    4.85
   5   5  -7  122.45    4.36
  -5  -4   7   38.87    2.54
   5   4  -7   37.25    2.54
   5   4  -7   34.82    2.25
  -5  -3   7   65.25    2.99
   5   3  -7   68.60    3.05
   5   3  -7   68.12    3.14
  -5  -2   7   80.22    3.16
   5   2  -7   89.00    3.56
   5   2  -7   84.65    3.44
  -5  -1   7    0.47    0.64
  -5  -1   7    0.21    0.72
   5   1  -7    0.24    1.16
  -5   0   7    0.71    0.76
  -5   0   7    1.37    0.70
   5   0  -7    0.05    1.16
  -5   1   7  152.89    4.80
  -5   1   7  158.76    4.42
   5  -1  -7  157.68    5.50
  -5   2   7  127.12    4.25
  -5   2   7  123.03    3.69
   5  -2  -7  111.93    4.73
  -5   3   7   63.45    2.53
  -5   3   7   58.58    3.04
   5  -3  -7   61.81    3.62
  -5   4   7    0.48    1.11
  -5   4   7    1.19    0.82
   5  -4  -7    2.95    1.67
  -5   5   7   20.14    1.84
  -5   5   7   19.04    2.34
   5  -5  -7   21.65    2.99
  -5   6   7    3.01    1.58
   5  -6  -7    1.51    2.05
  -5   7   7    5.10    1.97
   5  -7  -7    3.39    2.43
  -4 -10   7    8.13    2.17
   4  10  -7    5.26    1.95
  -4  -9   7    2.26    1.60
   4   9  -7    1.29    1.48
  -4  -8   7   10.72    2.13
   4   8  -7   12.24    2.05
  -4  -7   7    0.18    1.17
   4   7  -7    1.02    1.09
  -4  -6   7   17.32    2.15
   4   6  -7   17.07    2.01
  -4  -5   7    7.28    1.51
   4   5  -7    6.33    1.19
   4   5  -7    5.93    1.35
  -4  -4   7    7.53    1.40
   4   4  -7    8.37    1.41
   4   4  -7    7.08    1.28
  -4  -3   7   26.52    2.10
   4   3  -7   33.15    2.22
   4   3  -7   36.01    2.13
  -4  -2   7    7.21    1.24
   4   2  -7    8.56    1.49
   4   2  -7    8.15    1.32
  -4  -1   7   46.27    2.42
  -4  -1   7   53.33    2.16
   4   1  -7   50.68    2.72
  -4   0   7    5.07    1.10
  -4   0   7    5.42    0.88
   4   0  -7    4.31    1.32
  -4   1   7   27.41    1.50
  -4   1   7   24.53    1.99
   4  -1  -7   26.81    2.34
  -4   2   7    7.45    0.97
  -4   2   7    5.41    1.38
   4  -2  -7    5.35    1.61
  -4   3   7   45.88    2.89
  -4   3   7   51.76    2.12
   4  -3  -7   53.68    3.38
  -4   4   7   12.88    2.00
  -4   4   7   12.86    1.33
   4  -4  -7   16.18    2.48
  -4   5   7   42.46    3.40
   4  -5  -7   44.24    3.59
  -4   6   7    2.74    1.71
   4  -6  -7    4.87    2.15
  -4   7   7   -0.93    1.71
   4  -7  -7    0.84    2.18
  -3 -11   7    7.06    2.11
   3  11  -7    8.01    2.12
  -3 -10   7   50.03    3.87
   3  10  -7   47.50    3.47
  -3  -9   7   10.91    2.15
   3   9  -7    8.10    1.85
  -3  -8   7    9.92    2.00
   3   8  -7   11.11    1.82
  -3  -7   7   42.07    2.88
   3   7  -7   36.81    2.55
  -3  -6   7   -1.27    0.94
   3   6  -7    1.07    1.00
  -3  -5   7    6.53    1.36
   3   5  -7    6.41    1.24
   3   5  -7    6.62    1.13
  -3  -4   7  196.50    5.81
   3   4  -7  190.92    5.38
   3   4  -7  194.04    5.26
  -3  -3   7   66.84    2.95
   3   3  -7   74.78    2.95
   3   3  -7   67.83    2.65
  -3  -2   7   85.47    3.29
   3   2  -7   84.59    2.90
   3   2  -7   85.06    3.34
  -3  -1   7   14.97    1.09
  -3  -1   7   16.57    1.71
   3   1  -7   15.09    1.71
  -3   0   7   27.64    2.08
  -3   0   7   28.51    1.36
   3   0  -7   26.86    2.14
  -3   1   7    1.14    1.03
  -3   1   7    0.64    0.44
   3  -1  -7    0.70    1.10
  -3   2   7   11.89    1.03
  -3   2   7   11.05    1.80
   3  -2  -7   10.67    1.90
  -3   3   7  133.34    3.54
  -3   3   7  135.96    5.21
   3  -3  -7  131.42    5.22
  -3   4   7   14.80    2.29
   3  -4  -7   19.48    2.55
  -3   5   7   18.47    2.66
   3  -5  -7   25.05    3.04
  -3   6   7   13.18    2.62
   3  -6  -7   11.09    2.53
  -3   7   7    3.73    2.16
   3  -7  -7    5.17    2.44
  -2 -11   7    4.05    1.69
   2  11  -7    0.54    1.46
  -2 -10   7    1.84    1.52
   2  10  -7    2.09    1.45
  -2  -9   7    6.39    1.79
   2   9  -7    8.66    1.73
  -2  -8   7   23.28    2.58
   2   8  -7   25.34    2.41
  -2  -7   7   32.38    2.65
   2   7  -7   29.95    2.20
  -2  -6   7   28.31    2.39
   2   6  -7   30.41    1.62
   2   6  -7   30.26    2.12
  -2  -5   7   15.14    1.79
   2   5  -7   16.94    1.60
   2   5  -7   15.29    1.39
  -2  -4   7    3.65    1.09
   2   4  -7    1.52    0.79
   2   4  -7    0.06    0.71
  -2  -3   7   23.15    1.88
   2   3  -7   21.33    1.44
   2   3  -7   20.32    1.62
  -2  -2   7  121.03    4.12
   2   2  -7  117.95    3.32
   2   2  -7  127.20    4.13
  -2  -1   7   38.84    1.44
  -2  -1   7   35.27    2.27
   2   1  -7   38.20    2.28
  -2   0   7  126.49    4.49
   2   0  -7  127.92    4.53
  -2   1   7    4.00    1.30
   2  -1  -7    5.70    1.33
  -2   2   7   -0.17    1.16
   2  -2  -7    0.81    1.14
  -2   3   7   23.44    2.68
   2  -3  -7   18.24    2.35
  -2   4   7    5.23    1.85
   2  -4  -7   10.06    2.05
  -2   5   7   57.78    4.22
   2  -5  -7   46.16    3.56
  -2   6   7   24.71    3.42
   2  -6  -7   24.56    3.10
  -2   7   7    8.84    2.73
   2  -7  -7    8.95    2.62
  -1 -12   7    8.57    2.29
   1  12  -7    4.30    1.89
  -1 -11   7    2.28    1.64
   1  11  -7    2.92    1.62
  -1 -10   7    0.51    1.26
   1  10  -7   -0.16    1.11
  -1  -9   7   70.84    3.80
   1   9  -7   60.46    3.28
  -1  -8   7   10.26    1.82
   1   8  -7   12.67    1.73
  -1  -7   7   34.22    2.59
   1   7  -7   38.19    2.33
  -1  -6   7    7.89    1.47
   1   6  -7    9.47    1.30
   1   6  -7   10.35    1.07
  -1  -5   7    0.29    0.93
   1   5  -7   -0.03    0.61
   1   5  -7    0.95    0.73
  -1  -4   7   -1.46    0.80
   1   4  -7    0.43    0.59
   1   4  -7    0.97    0.69
  -1  -3   7   16.31    1.76
   1   3  -7   15.02    1.54
   1   3  -7   16.05    1.14
  -1  -2   7   54.78    2.74
   1   2  -7   54.83    1.80
   1   2  -7   55.88    2.57
  -1  -1   7    8.58    1.42
   1   1  -7   11.62    1.48
  -1   0   7   39.80    2.59
   1   0  -7   40.67    2.48
  -1   1   7    9.40    1.80
   1  -1  -7   11.37    1.67
  -1   2   7   22.02    2.48
   1  -2  -7   20.78    2.31
  -1   3   7   -0.50    1.29
   1  -3  -7   -0.07    1.15
  -1   4   7   22.48    2.97
   1  -4  -7   26.04    2.86
  -1   5   7   -0.01    1.82
   1  -5  -7    2.92    1.69
  -1   6   7   13.09    2.94
   1  -6  -7    8.30    2.22
   0 -12   7   32.09    3.73
   0  12  -7   28.71    3.05
   0 -11   7    8.80    2.16
   0  11  -7    4.13    1.62
   0 -10   7    4.44    1.58
   0  10  -7    5.98    1.61
   0  -9   7    3.20    1.45
   0   9  -7    2.49    1.21
   0  -8   7    6.98    1.59
   0   8  -7    5.46    1.27
   0  -7   7  109.16    4.38
   0   7  -7  106.19    3.71
   0   7  -7  111.20    3.10
   0  -6   7   57.47    3.05
   0   6  -7   52.43    2.38
   0   6  -7   56.30    2.16
   0  -5   7  146.25    4.92
   0   5  -7  143.37    4.23
   0   5  -7  145.44    3.96
   0  -4   7   31.01    2.19
   0   4  -7   30.57    1.48
   0   4  -7   30.01    1.80
   0  -3   7    7.63    1.39
   0   3  -7    5.62    0.71
   0   3  -7    8.36    1.27
   0  -2   7   44.68    2.55
   0   2  -7   44.71    2.40
   0  -1   7   44.70    2.70
   0   1  -7   44.68    2.56
   0   0   7   77.55    3.73
   0   0  -7   79.72    3.56
   0   1   7   92.61    4.34
   0  -1  -7   98.37    4.12
   0   2   7    7.23    1.87
   0  -2  -7    4.66    1.50
   0   3   7   18.14    2.67
   0  -3  -7   15.93    2.22
   0   4   7    0.47    1.74
   0  -4  -7    1.52    1.47
   0   5   7    2.88    2.10
   0  -5  -7    0.35    1.47
   0   6   7   30.02    3.95
   0  -6  -7   28.77    3.36
   1 -12   7   11.73    2.53
  -1  12  -7    9.25    2.09
   1 -11   7    1.81    1.60
  -1  11  -7    0.57    1.31
   1 -10   7   19.21    2.50
  -1  10  -7   18.76    2.30
   1  -9   7    2.20    1.26
  -1   9  -7    2.15    1.20
   1  -8   7   11.90    1.88
  -1   8  -7   12.37    1.63
   1  -7   7    4.17    1.37
  -1   7  -7    3.33    1.00
  -1   7  -7    5.63    0.85
   1  -6   7    1.04    1.10
  -1   6  -7    1.06    0.64
  -1   6  -7   -0.08    0.69
   1  -5   7   31.86    2.39
  -1   5  -7   37.73    1.99
  -1   5  -7   36.82    1.77
   1  -4   7   18.10    1.91
  -1   4  -7   16.75    1.55
  -1   4  -7   18.41    1.15
   1  -3   7   94.65    3.77
  -1   3  -7   95.60    3.60
   1  -2   7    2.92    1.03
  -1   2  -7    0.99    0.90
   1  -1   7   14.98    1.94
  -1   1  -7   11.85    1.67
   1   0   7   20.59    2.36
  -1   0  -7   24.68    2.25
   1   1   7   23.65    2.68
  -1  -1  -7   21.48    2.40
   1   2   7    9.06    2.07
  -1  -2  -7    9.77    1.87
   1   3   7   44.35    3.86
  -1  -3  -7   47.71    3.38
   1   4   7    5.06    2.08
  -1  -4  -7    4.81    1.68
   1   5   7   -1.12    1.97
  -1  -5  -7    4.58    1.79
   2 -12   7   40.06    3.76
  -2  12  -7   32.96    3.20
   2 -11   7   17.34    2.62
  -2  11  -7   22.04    2.47
   2 -10   7   43.77    3.41
  -2  10  -7   44.39    2.95
   2  -9   7    7.99    1.75
  -2   9  -7   10.28    1.63
   2  -8   7   -0.76    1.15
  -2   8  -7    0.65    0.60
  -2   8  -7   -0.16    0.91
   2  -7   7   21.47    2.25
  -2   7  -7   19.57    1.81
  -2   7  -7   22.71    1.58
   2  -6   7  101.80    4.11
  -2   6  -7  103.11    3.31
  -2   6  -7  105.79    3.67
   2  -5   7   66.81    3.24
  -2   5  -7   64.08    2.33
  -2   5  -7   67.41    2.91
   2  -4   7  107.72    4.11
  -2   4  -7  106.71    2.84
  -2   4  -7  112.91    4.05
   2  -3   7    2.98    1.12
  -2   3  -7    1.14    0.93
   2  -2   7    5.98    1.45
  -2   2  -7    2.43    1.13
   2  -1   7   -1.07    1.01
  -2   1  -7    2.71    1.16
   2   0   7    3.93    1.54
  -2   0  -7    1.62    1.16
   2   1   7   61.96    3.84
  -2  -1  -7   51.88    3.29
   2   2   7    9.03    2.14
  -2  -2  -7   11.62    2.14
   2   3   7   27.94    3.36
  -2  -3  -7   27.05    3.01
   2   4   7    4.59    2.31
  -2  -4  -7    1.66    1.59
   2   5   7    2.53    2.47
  -2  -5  -7    4.04    1.94
   3 -12   7    5.00    2.16
  -3  12  -7   -0.31    1.37
   3 -11   7    3.91    1.86
  -3  11  -7    1.16    1.32
   3 -10   7   11.97    2.13
  -3  10  -7   13.48    2.04
   3  -9   7   41.43    3.09
  -3   9  -7   41.25    2.71
   3  -8   7   79.04    3.88
  -3   8  -7   80.07    3.32
  -3   8  -7   83.90    3.17
   3  -7   7   -1.95    1.11
  -3   7  -7    0.16    0.84
  -3   7  -7    1.36    0.84
   3  -6   7    0.14    1.08
  -3   6  -7    1.07    0.86
  -3   6  -7    0.16    0.79
   3  -5   7   32.67    2.49
  -3   5  -7   34.93    2.30
  -3   5  -7   35.22    1.72
   3  -4   7   50.86    2.95
  -3   4  -7   53.07    2.90
   3  -3   7   28.48    2.42
  -3   3  -7   30.81    2.40
   3  -2   7  150.21    5.38
  -3   2  -7  151.19    5.49
   3  -1   7    4.93    1.54
  -3   1  -7    5.89    1.55
   3   0   7    3.46    1.59
  -3   0  -7    1.69    1.26
   3   1   7    5.53    1.87
  -3  -1  -7    4.34    1.51
   3   2   7   -2.52    1.55
  -3  -2  -7   -0.53    1.27
   3   3   7   15.74    2.99
  -3  -3  -7   17.65    2.61
   3   4   7   15.52    3.15
  -3  -4  -7   18.16    2.78
   4 -12   7    1.50    1.87
  -4  12  -7    1.49    1.56
   4 -11   7   32.71    3.28
  -4  11  -7   26.50    2.82
   4 -10   7   10.89    2.13
  -4  10  -7    9.69    1.82
   4  -9   7   44.37    3.27
  -4   9  -7   44.07    2.73
  -4   9  -7   39.38    2.64
   4  -8   7   -1.46    1.11
  -4   8  -7    0.24    0.93
  -4   8  -7   -0.31    0.84
   4  -7   7    6.80    1.59
  -4   7  -7    7.08    1.41
  -4   7  -7    7.14    1.26
   4  -6   7    2.59    1.35
  -4   6  -7    1.50    0.91
  -4   6  -7    2.28    1.12
   4  -5   7   11.16    1.77
  -4   5  -7   10.70    1.72
  -4   5  -7    9.13    1.15
   4  -4   7   33.57    2.62
  -4   4  -7   33.29    1.69
  -4   4  -7   33.83    2.62
   4  -3   7    5.44    1.51
  -4   3  -7    5.52    1.58
   4  -2   7   38.61    2.94
  -4   2  -7   34.74    2.84
   4  -1   7    1.82    1.42
  -4   1  -7    0.14    1.18
   4   0   7   27.16    3.05
  -4   0  -7   31.39    2.92
   4   1   7    2.11    1.81
  -4  -1  -7    1.62    1.61
   4   2   7   21.15    3.12
  -4  -2  -7   14.59    2.46
   4   3   7   -0.68    1.96
  -4  -3  -7    2.63    1.80
   5 -12   7   -0.40    1.92
  -5  12  -7    0.75    1.45
   5 -11   7    0.00    1.68
  -5  11  -7   -1.39    1.21
   5 -10   7    8.23    2.02
  -5  10  -7    8.19    1.84
   5  -9   7   25.62    2.61
  -5   9  -7   23.34    2.15
  -5   9  -7   29.50    2.48
   5  -8   7   25.37    2.60
  -5   8  -7   21.08    2.10
  -5   8  -7   27.41    2.25
   5  -7   7  125.68    4.73
  -5   7  -7  113.65    4.68
  -5   7  -7  125.31    4.08
   5  -6   7    2.69    1.41
  -5   6  -7    2.85    1.32
  -5   6  -7    1.19    0.95
   5  -5   7    3.12    1.34
  -5   5  -7    1.49    1.26
  -5   5  -7    3.25    0.95
   5  -4   7   22.64    2.42
  -5   4  -7   15.88    2.22
   5  -3   7    6.57    1.72
  -5   3  -7    6.53    1.70
   5  -2   7   28.73    2.95
  -5   2  -7   26.48    2.93
   5  -1   7   65.70    4.09
  -5   1  -7   64.11    3.99
   5   0   7   24.46    3.15
  -5   0  -7   24.13    2.96
   5   1   7    1.20    2.08
  -5  -1  -7    3.23    1.78
   5   2   7   -0.37    1.95
  -5  -2  -7    0.52    1.58
   6 -12   7    6.68    2.49
  -6  12  -7    9.64    2.20
   6 -11   7    5.71    2.06
  -6  11  -7    3.99    1.70
   6 -10   7    3.61    1.75
  -6  10  -7    5.44    1.74
   6  -9   7    2.67    1.59
   6  -9   7   -0.14    1.42
  -6   9  -7    1.12    1.31
   6  -8   7   -0.75    1.27
   6  -8   7   -0.07    1.36
  -6   8  -7    0.70    1.16
   6  -7   7    6.62    1.77
   6  -7   7    5.72    1.76
  -6   7  -7    7.15    1.37
   6  -6   7    7.62    1.73
  -6   6  -7    6.08    1.28
  -6   6  -7    6.79    1.66
   6  -5   7   61.18    3.49
  -6   5  -7   56.76    3.66
   6  -4   7    3.41    1.58
  -6   4  -7    7.51    1.87
   6  -3   7   18.81    2.39
  -6   3  -7   19.26    2.63
   6  -2   7    7.08    1.94
  -6   2  -7    5.34    1.79
   6  -1   7    4.52    1.94
  -6   1  -7    3.67    1.81
   6   0   7    2.49    2.02
  -6   0  -7    0.88    1.52
   6   1   7   28.36    3.68
   7 -12   7   21.46    3.02
  -7  12  -7   24.89    3.02
  -7  11  -7    2.49    1.64
   7 -10   7   -1.87    1.46
   7 -10   7    0.14    1.57
  -7  10  -7    2.00    1.65
   7  -9   7    8.05    1.85
   7  -9   7    6.83    2.00
  -7   9  -7    6.56    1.75
   7  -8   7    8.22    1.88
   7  -8   7   11.54    2.28
  -7   8  -7    8.05    1.68
   7  -7   7   13.64    2.43
   7  -7   7   10.53    1.97
  -7   7  -7   11.68    1.74
   7  -6   7   38.68    3.05
   7  -6   7   44.68    3.66
   7  -5   7    9.67    2.00
  -7   5  -7    9.19    2.03
   7  -4   7    2.13    1.54
  -7   4  -7    0.83    1.42
   7  -3   7    1.08    1.51
  -7   3  -7    1.47    1.49
   7  -2   7    1.46    1.64
  -7   2  -7    0.15    1.47
   7  -1   7   15.98    2.69
  -7   1  -7   10.89    2.33
   7   0   7    4.34    2.18
  -7   0  -7    3.27    1.82
  -8  11  -7    6.31    2.04
   8 -10   7   25.12    3.21
  -8  10  -7   24.27    2.75
   8  -9   7    0.71    1.80
  -8   9  -7    1.24    1.55
   8  -8   7    1.22    1.80
   8  -8   7    0.72    1.49
  -8   8  -7    0.46    1.39
   8  -7   7    8.40    1.86
   8  -7   7   17.10    2.84
   8  -6   7    1.07    1.43
   8  -6   7    2.13    1.86
   8  -5   7   -0.95    1.44
  -8   5  -7    3.72    1.76
   8  -4   7   45.02    3.52
  -8   4  -7   40.30    3.64
   8  -3   7    9.30    2.23
  -8   3  -7    9.54    2.19
   8  -2   7    3.62    2.01
  -8   2  -7    4.73    1.91
   8  -1   7    0.32    1.95
  -8   1  -7    2.56    1.90
   9 -10   7   -1.19    1.72
  -9  10  -7   -1.61    1.54
   9  -9   7    1.56    2.02
  -9   9  -7   -0.01    1.64
   9  -8   7    3.67    2.08
   9  -7   7   -3.60    1.51
   9  -6   7    7.06    2.62
  -9   5  -7    0.67    1.62
  -9   4  -7    3.98    1.94
  -9   3  -7    1.83    1.69
 -11  -2   8   23.65    2.86
  11   2  -8   28.16    3.52
 -11  -1   8   26.58    2.86
  11   1  -8   33.87    3.73
 -11   0   8    1.99    1.43
  11   0  -8    0.73    1.98
 -11   1   8    2.29    1.37
  11  -1  -8    1.02    2.10
 -11   2   8    0.62    1.29
  11  -2  -8   -1.54    2.04
 -11   3   8   15.36    2.28
  11  -3  -8   21.87    3.29
 -11   4   8   12.43    2.20
  11  -4  -8    6.83    2.70
 -10  -4   8    8.62    2.15
 -10  -3   8   11.46    2.08
  10   3  -8    8.75    2.30
 -10  -2   8    2.41    1.31
  10   2  -8   -1.27    1.60
 -10  -1   8    5.31    1.65
  10   1  -8    7.37    2.06
 -10   0   8   50.08    3.29
  10   0  -8   50.72    4.07
 -10   1   8   66.40    3.66
  10  -1  -8   64.26    4.27
 -10   2   8   10.25    1.88
  10  -2  -8    9.85    2.41
 -10   3   8    0.56    1.21
  10  -3  -8    1.80    2.00
 -10   4   8   15.57    2.27
  10  -4  -8   11.02    2.60
 -10   5   8   10.50    1.99
  10  -5  -8    7.46    2.58
   9   5  -8   -1.66    1.83
   9   4  -8    7.05    2.24
  -9  -3   8    1.62    1.25
   9   3  -8   -1.65    1.42
  -9  -2   8   16.64    2.20
   9   2  -8   15.73    2.43
  -9  -1   8    3.07    1.24
   9   1  -8    2.76    1.77
  -9   0   8   24.64    2.44
   9   0  -8   33.95    3.24
  -9   1   8    1.23    1.12
   9  -1  -8    2.17    1.70
  -9   2   8   24.98    2.45
   9  -2  -8   20.18    2.88
  -9   3   8    8.30    1.72
   9  -3  -8    5.46    2.11
  -9   4   8   16.07    2.08
   9  -4  -8   12.39    2.68
  -9   5   8    4.39    1.50
   9  -5  -8    0.87    2.14
  -9   6   8    2.89    1.60
   9  -6  -8    3.36    2.38
  -8  -7   8    2.27    1.66
   8   7  -8    0.30    1.99
  -8  -6   8    3.12    1.70
   8   6  -8    3.42    2.11
  -8  -5   8   63.38    4.63
   8   5  -8   60.62    4.16
   8   4  -8   33.38    3.29
   8   4  -8   29.02    2.77
   8   3  -8   15.01    2.40
   8   3  -8   12.14    2.19
  -8  -2   8    7.36    1.49
   8   2  -8    2.22    1.51
  -8  -1   8   19.84    2.11
   8   1  -8   21.89    2.57
  -8   0   8    2.86    1.09
   8   0  -8    3.37    1.65
  -8   1   8   27.02    2.24
   8  -1  -8   28.45    3.06
  -8   2   8  113.89    4.31
   8  -2  -8  117.24    5.35
  -8   3   8   12.74    1.75
   8  -3  -8   15.14    2.65
  -8   4   8    7.36    1.50
   8  -4  -8    8.68    2.47
  -8   5   8    8.61    1.67
   8  -5  -8    9.20    2.55
  -8   6   8    1.40    1.46
   8  -6  -8    2.82    2.30
  -7  -8   8    9.16    2.21
   7   8  -8    7.44    2.33
  -7  -7   8    6.91    1.95
   7   7  -8   10.42    2.35
  -7  -6   8    2.90    1.62
   7   6  -8    2.37    1.73
  -7  -5   8    3.59    1.43
   7   5  -8    2.54    1.66
  -7  -4   8    0.30    1.17
   7   4  -8   -0.75    1.31
  -7  -3   8   50.37    2.80
   7   3  -8   51.53    3.41
   7   3  -8   50.92    3.06
  -7  -2   8   12.65    1.57
  -7  -2   8   13.03    1.71
   7   2  -8   12.37    1.99
  -7  -1   8   33.29    2.26
  -7  -1   8   33.85    2.16
   7   1  -8   33.30    2.78
  -7   0   8    4.95    1.16
   7   0  -8    6.44    1.86
  -7   1   8    1.32    0.90
   7  -1  -8    1.70    1.56
  -7   2   8    0.22    0.77
   7  -2  -8    1.79    1.60
  -7   3   8   20.64    1.99
   7  -3  -8   16.04    2.64
  -7   4   8   56.33    2.91
   7  -4  -8   62.82    4.26
  -7   5   8   17.64    1.99
   7  -5  -8   12.74    2.74
   7  -6  -8    9.54    2.70
  -6  -9   8    8.84    2.24
   6   9  -8    9.72    2.43
  -6  -8   8    5.76    1.97
   6   8  -8    5.17    2.08
  -6  -7   8    5.02    1.80
   6   7  -8    1.58    1.62
  -6  -6   8    3.07    1.52
   6   6  -8    0.82    1.33
  -6  -5   8    0.69    1.24
   6   5  -8    4.39    1.47
   6   5  -8    2.45    1.44
  -6  -4   8   15.68    1.96
   6   4  -8   19.04    2.32
   6   4  -8   20.02    2.09
  -6  -3   8   53.66    2.84
   6   3  -8   47.10    2.84
   6   3  -8   47.74    3.07
  -6  -2   8    8.70    1.39
  -6  -1   8   13.01    1.59
  -6  -1   8   18.45    1.80
   6   1  -8   15.61    2.18
  -6   0   8   18.27    1.75
  -6   0   8   19.12    1.77
   6   0  -8   16.05    2.38
  -6   1   8    9.28    1.40
  -6   1   8    8.04    1.26
   6  -1  -8    8.58    2.09
  -6   2   8    0.88    1.00
  -6   2   8    1.55    0.86
  -6   3   8   45.75    2.36
  -6   3   8   48.32    2.81
   6  -3  -8   41.23    4.07
  -6   4   8    7.38    1.55
  -6   4   8    9.23    1.36
  -6   5   8    9.33    2.31
   6  -5  -8   10.48    2.68
   6  -6  -8    0.04    2.26
  -5  -9   8    0.49    1.58
   5   9  -8   -0.05    1.49
  -5  -8   8   48.18    3.82
   5   8  -8   54.75    3.70
  -5  -7   8   18.67    2.52
   5   7  -8   20.52    2.55
  -5  -6   8   33.15    3.07
   5   6  -8   32.33    3.03
  -5  -5   8   27.23    2.58
   5   5  -8   26.53    2.59
   5   5  -8   27.58    2.12
  -5  -4   8    6.92    1.49
   5   4  -8    5.53    1.50
   5   4  -8    6.18    1.42
  -5  -3   8    6.50    1.38
   5   3  -8    6.25    1.43
   5   3  -8    6.91    1.46
  -5  -2   8   37.83    2.41
   5   2  -8   38.67    2.84
  -5  -1   8  118.11    4.22
  -5  -1   8  120.21    3.84
   5   1  -8  123.66    4.74
  -5   0   8   76.66    2.80
  -5   0   8   66.41    3.08
   5   0  -8   70.76    3.64
  -5   1   8    3.60    0.89
  -5   1   8    6.29    1.34
   5  -1  -8    2.27    1.49
  -5   2   8   56.13    3.00
  -5   2   8   47.03    2.18
   5  -2  -8   45.91    3.26
  -5   3   8    2.85    1.24
  -5   3   8    2.32    0.83
   5  -3  -8   -1.28    1.37
  -5   4   8   -0.69    1.21
   5  -4  -8    2.88    1.84
  -5   5   8   74.58    4.22
   5  -5  -8   73.63    4.71
  -5   6   8   20.34    2.82
   5  -6  -8   15.25    2.97
  -4 -10   8    3.93    1.90
   4  10  -8    1.49    1.70
  -4  -9   8   10.90    2.33
   4   9  -8   10.54    2.14
  -4  -8   8    8.04    1.98
   4   8  -8    7.11    1.79
  -4  -7   8    0.66    1.33
   4   7  -8    0.11    1.23
  -4  -6   8   16.43    2.20
   4   6  -8   19.03    2.20
  -4  -5   8    2.11    1.26
   4   5  -8   -0.01    0.93
   4   5  -8    0.87    0.99
  -4  -4   8   23.85    2.30
   4   4  -8   26.74    2.18
   4   4  -8   29.94    2.24
  -4  -3   8   -0.19    0.90
   4   3  -8   -0.39    1.01
   4   3  -8   -1.54    0.75
  -4  -2   8   24.59    2.08
   4   2  -8   27.78    2.33
   4   2  -8   25.38    2.03
  -4  -1   8    3.15    0.80
  -4  -1   8    3.08    1.13
   4   1  -8    4.18    1.39
  -4   0   8   25.10    2.10
  -4   0   8   25.64    1.50
   4   0  -8   23.74    2.49
  -4   1   8    9.47    1.58
  -4   1   8   11.25    1.10
   4  -1  -8   10.63    1.97
  -4   2   8   29.78    1.56
  -4   2   8   26.28    2.44
   4  -2  -8   25.04    2.79
  -4   3   8    7.51    1.73
   4  -3  -8    4.13    1.75
  -4   4   8    0.30    1.30
   4  -4  -8    0.86    1.67
  -4   5   8    1.64    1.65
   4  -5  -8    0.85    1.99
  -4   6   8   -2.53    1.58
   4  -6  -8   -0.89    2.12
  -3 -11   8   17.57    2.96
   3  11  -8   12.23    2.34
  -3 -10   8   10.63    2.40
   3  10  -8   10.62    2.17
  -3  -9   8    1.35    1.60
   3   9  -8    0.45    1.29
  -3  -8   8    3.50    1.57
   3   8  -8    5.11    1.44
  -3  -7   8   67.40    3.78
   3   7  -8   69.54    3.33
  -3  -6   8   74.21    3.70
   3   6  -8   69.92    3.27
   3   6  -8   72.82    2.79
  -3  -5   8   74.54    3.64
   3   5  -8   72.79    3.14
   3   5  -8   74.30    2.97
  -3  -4   8    1.08    1.09
   3   4  -8    1.25    0.90
   3   4  -8    2.44    1.07
  -3  -3   8   48.38    2.74
   3   3  -8   47.98    2.31
   3   3  -8   49.40    2.63
  -3  -2   8   -0.17    0.93
   3   2  -8    1.78    1.13
  -3  -1   8    2.50    0.63
  -3  -1   8    2.92    1.13
   3   1  -8    3.82    1.28
  -3   0   8  138.70    3.47
  -3   0   8  135.15    4.85
   3   0  -8  135.02    5.03
  -3   1   8   21.81    1.16
  -3   1   8   17.47    2.18
   3  -1  -8   16.48    2.21
  -3   2   8   38.02    3.01
   3  -2  -8   40.07    3.01
  -3   3   8    8.90    1.93
   3  -3  -8   11.30    2.12
  -3   4   8    1.35    1.60
   3  -4  -8    2.29    1.83
  -3   5   8    2.51    1.84
   3  -5  -8   -2.99    1.66
  -3   6   8   20.65    3.29
   3  -6  -8   12.64    2.84
  -2 -11   8    9.39    2.52
   2  11  -8    3.08    1.68
  -2 -10   8   15.66    2.60
   2  10  -8   11.09    2.10
  -2  -9   8   36.18    3.18
   2   9  -8   30.20    2.66
  -2  -8   8    0.11    1.31
   2   8  -8   -0.07    1.01
  -2  -7   8    3.00    1.40
   2   7  -8    3.19    1.17
  -2  -6   8   11.77    1.91
   2   6  -8   13.68    1.45
   2   6  -8   13.16    1.60
  -2  -5   8   66.68    3.39
   2   5  -8   59.33    2.66
   2   5  -8   58.88    2.60
  -2  -4   8   47.84    2.80
   2   4  -8   45.77    2.39
   2   4  -8   46.87    2.21
  -2  -3   8  147.14    4.98
   2   3  -8  147.48    4.03
   2   3  -8  148.61    4.81
  -2  -2   8    0.78    1.02
   2   2  -8    0.55    0.95
  -2  -1   8    5.97    1.32
   2   1  -8    8.29    1.53
  -2   0   8    8.67    1.65
   2   0  -8    7.80    1.59
  -2   1   8    3.74    1.51
   2  -1  -8    4.97    1.52
  -2   2   8   72.65    3.96
   2  -2  -8   68.83    3.81
  -2   3   8   38.24    3.38
   2  -3  -8   40.11    3.29
  -2   4   8   34.88    3.57
   2  -4  -8   35.38    3.32
  -2   5   8    3.76    2.11
   2  -5  -8    1.54    1.94
  -2   6   8   -1.25    2.10
   2  -6  -8   -0.22    1.99
  -1 -11   8   12.31    2.61
   1  11  -8   19.45    2.66
  -1 -10   8   28.04    3.19
   1  10  -8   25.99    2.66
  -1  -9   8    0.49    1.28
   1   9  -8    0.13    1.14
  -1  -8   8    0.47    1.27
   1   8  -8    0.99    1.06
  -1  -7   8    2.73    1.31
   1   7  -8    3.72    1.16
  -1  -6   8   15.46    2.09
   1   6  -8   15.89    1.42
   1   6  -8   14.53    1.61
  -1  -5   8   89.36    3.87
   1   5  -8   85.99    3.17
   1   5  -8   82.24    2.96
  -1  -4   8    9.34    1.59
   1   4  -8    9.64    1.38
   1   4  -8    9.69    1.15
  -1  -3   8   57.24    2.99
   1   3  -8   49.75    2.57
   1   3  -8   51.25    1.93
  -1  -2   8    3.69    1.31
   1   2  -8    4.65    1.24
  -1  -1   8   32.40    2.56
   1   1  -8   30.90    2.31
  -1   0   8    1.05    1.27
   1   0  -8    0.34    1.02
  -1   1   8   37.09    3.02
   1  -1  -8   39.65    2.87
  -1   2   8    3.91    1.63
   1  -2  -8    2.35    1.47
  -1   3   8    6.91    2.05
   1  -3  -8   10.60    2.14
  -1   4   8    1.14    1.91
   1  -4  -8    1.58    1.69
  -1   5   8    2.41    2.20
   1  -5  -8   -1.15    1.72
   0 -12   8    1.90    1.96
   0  12  -8    3.27    1.71
   0 -11   8    4.89    2.01
   0  11  -8    4.11    1.64
   0 -10   8   41.28    3.38
   0  10  -8   35.71    2.89
   0  -9   8   36.56    3.04
   0   9  -8   34.99    2.60
   0  -8   8  106.60    4.57
   0   8  -8  107.57    3.95
   0  -7   8   -0.16    1.12
   0   7  -8    1.69    0.75
   0   7  -8    0.99    0.94
   0  -6   8   -0.23    1.02
   0   6  -8    1.17    0.73
   0   6  -8    1.27    0.82
   0  -5   8   28.56    2.41
   0   5  -8   27.28    1.80
   0   5  -8   25.83    1.62
   0  -4   8   18.42    2.05
   0   4  -8   17.42    1.27
   0   4  -8   16.20    1.74
   0  -3   8  115.85    4.47
   0   3  -8  113.07    4.20
   0  -2   8  147.73    5.24
   0   2  -8  151.37    5.14
   0  -1   8   57.88    3.28
   0   1  -8   57.71    3.13
   0   0   8    7.00    1.69
   0   0  -8   12.20    1.87
   0   1   8   -1.16    1.22
   0  -1  -8    0.50    1.16
   0   2   8    2.47    1.71
   0  -2  -8    6.47    1.79
   0   3   8   44.22    3.93
   0  -3  -8   47.04    3.44
   0   4   8   17.44    2.96
   0  -4  -8   16.29    2.63
   0   5   8   27.78    3.85
   0  -5  -8   42.62    3.90
   1 -12   8    0.83    1.84
  -1  12  -8    1.88    1.57
   1 -11   8    7.82    2.25
  -1  11  -8    6.96    1.79
   1 -10   8    6.75    1.91
  -1  10  -8    7.88    1.70
   1  -9   8    2.03    1.36
  -1   9  -8    3.73    1.29
   1  -8   8   19.15    2.41
  -1   8  -8   22.86    2.14
   1  -7   8    4.63    1.49
  -1   7  -8    5.43    1.18
  -1   7  -8    6.06    1.03
   1  -6   8   63.59    3.39
  -1   6  -8   57.06    2.61
  -1   6  -8   56.69    2.43
   1  -5   8    2.73    1.24
  -1   5  -8    2.67    1.01
  -1   5  -8    2.71    0.78
   1  -4   8   53.34    2.98
  -1   4  -8   46.10    1.73
  -1   4  -8   49.35    2.65
   1  -3   8    4.75    1.40
  -1   3  -8    2.02    1.07
   1  -2   8   18.33    2.13
  -1   2  -8   15.76    1.95
   1  -1   8   10.57    1.86
  -1   1  -8   14.12    2.04
   1   0   8   55.59    3.54
  -1   0  -8   52.73    3.31
   1   1   8   23.55    2.75
  -1  -1  -8   19.13    2.48
   1   2   8    0.95    1.59
  -1  -2  -8    5.71    1.75
   1   3   8    2.44    1.96
  -1  -3  -8    1.91    1.55
   1   4   8    0.41    1.95
  -1  -4  -8    3.92    1.79
   2 -12   8    1.22    1.95
  -2  12  -8    2.94    1.74
   2 -11   8    1.15    1.75
  -2  11  -8   -0.06    1.25
   2 -10   8    5.72    1.82
  -2  10  -8    6.92    1.65
   2  -9   8   21.75    2.64
  -2   9  -8   17.65    1.99
   2  -8   8   39.70    3.09
  -2   8  -8   43.48    2.15
  -2   8  -8   44.56    2.52
   2  -7   8  107.68    4.50
  -2   7  -8  102.33    3.70
  -2   7  -8  100.10    3.50
   2  -6   8   38.33    2.80
  -2   6  -8   33.79    1.89
  -2   6  -8   31.56    2.15
   2  -5   8    3.16    1.27
  -2   5  -8    1.70    1.05
  -2   5  -8    2.23    0.76
   2  -4   8    1.19    1.09
  -2   4  -8    0.66    0.94
   2  -3   8   -0.89    0.97
  -2   3  -8    0.03    0.97
   2  -2   8   80.66    3.90
  -2   2  -8   75.95    3.76
   2  -1   8   21.74    2.49
  -2   1  -8   22.30    2.47
   2   0   8   71.55    4.15
  -2   0  -8   73.70    3.97
   2   1   8    1.07    1.58
  -2  -1  -8    0.21    1.35
   2   2   8    3.75    2.01
  -2  -2  -8    3.21    1.63
   2   3   8   -2.24    1.67
  -2  -3  -8    1.50    1.55
   2   4   8   10.95    2.85
  -2  -4  -8   14.58    2.68
   3 -12   8    6.50    2.30
  -3  12  -8    6.84    1.85
   3 -11   8   29.80    3.37
  -3  11  -8   30.30    2.93
   3 -10   8    0.25    1.54
  -3  10  -8    2.20    1.33
   3  -9   8    2.47    1.53
  -3   9  -8    3.51    1.34
   3  -8   8    8.61    1.88
  -3   8  -8   12.20    1.59
  -3   8  -8   14.39    1.72
   3  -7   8   16.49    2.16
  -3   7  -8   13.87    1.72
  -3   7  -8   12.29    1.49
   3  -6   8   18.03    2.21
  -3   6  -8   16.82    1.53
  -3   6  -8   16.38    1.94
   3  -5   8  122.12    4.82
  -3   5  -8  119.57    4.67
  -3   5  -8  121.01    3.35
   3  -4   8   26.02    2.48
  -3   4  -8   24.76    2.34
   3  -3   8    3.91    1.52
  -3   3  -8    4.41    1.40
   3  -2   8    5.19    1.67
  -3   2  -8    4.01    1.43
   3  -1   8   -0.87    1.20
  -3   1  -8   -0.91    1.05
   3   0   8   18.81    2.64
  -3   0  -8   16.81    2.40
   3   1   8   24.67    3.15
  -3  -1  -8   37.45    3.27
   3   2   8   53.07    4.48
  -3  -2  -8   56.44    4.02
   3   3   8    0.71    2.00
  -3  -3  -8   -0.66    1.42
   4 -12   8   17.37    3.04
  -4  12  -8   11.95    2.28
   4 -11   8    0.98    1.90
  -4  11  -8    0.49    1.37
   4 -10   8   -1.27    1.53
  -4  10  -8    1.00    1.25
   4  -9   8    0.32    1.42
  -4   9  -8    1.75    1.00
  -4   9  -8    0.23    1.19
   4  -8   8    2.08    1.45
  -4   8  -8    0.83    1.08
  -4   8  -8    0.81    1.01
   4  -7   8   28.66    2.78
  -4   7  -8   29.41    2.08
  -4   7  -8   28.47    2.39
   4  -6   8    3.41    1.46
  -4   6  -8    4.26    0.99
  -4   6  -8    1.97    1.22
   4  -5   8   27.30    2.59
  -4   5  -8   30.22    2.59
   4  -4   8    0.03    1.17
  -4   4  -8    0.73    1.21
   4  -3   8   18.70    2.40
  -4   3  -8   20.60    2.54
   4  -2   8    2.02    1.40
  -4   2  -8   -1.01    1.18
   4  -1   8   22.31    2.76
  -4   1  -8   34.15    3.16
   4   0   8    2.63    1.71
  -4   0  -8    2.08    1.60
   4   1   8    3.42    2.03
  -4  -1  -8    3.46    1.84
   4   2   8    5.13    2.28
  -4  -2  -8    0.49    1.67
   5 -12   8    5.24    2.32
  -5  12  -8    8.02    2.06
   5 -11   8   13.19    2.66
  -5  11  -8    7.42    1.86
   5 -10   8   55.53    3.79
  -5  10  -8   50.57    3.22
   5  -9   8    7.24    1.91
  -5   9  -8    3.57    1.28
  -5   9  -8    4.22    1.33
   5  -8   8    0.59    1.45
  -5   8  -8   -0.09    1.04
  -5   8  -8    1.09    1.12
   5  -7   8   19.61    2.42
  -5   7  -8   16.98    2.24
  -5   7  -8   12.79    1.57
   5  -6   8   -0.39    1.24
  -5   6  -8    1.92    1.24
   5  -5   8   15.84    2.31
  -5   5  -8   16.00    2.32
   5  -4   8   48.24    3.40
  -5   4  -8   47.67    3.44
   5  -3   8   45.21    3.54
  -5   3  -8   55.39    3.72
   5  -2   8   -0.09    1.56
  -5   2  -8    1.44    1.57
   5  -1   8   -1.35    1.49
  -5   1  -8    0.56    1.50
   5   0   8    7.42    2.45
  -5   0  -8    3.53    1.84
   5   1   8    8.99    2.63
  -5  -1  -8    8.11    2.25
   6 -12   8    1.11    2.07
  -6  12  -8   -1.03    1.63
   6 -11   8    0.08    1.74
  -6  11  -8   -0.15    1.40
   6 -10   8    6.02    2.04
  -6  10  -8    4.38    1.55
   6  -9   8   -1.66    1.46
  -6   9  -8    0.42    1.16
  -6   9  -8   -0.47    1.11
   6  -8   8   28.57    2.88
  -6   8  -8   23.70    2.20
  -6   8  -8   25.28    2.79
   6  -7   8    1.34    1.58
  -6   7  -8    4.47    1.64
   6  -6   8   14.52    2.25
  -6   6  -8   10.60    2.10
   6  -5   8    4.06    1.61
  -6   5  -8    3.63    1.67
   6  -4   8    3.80    1.71
  -6   4  -8    1.84    1.46
   6  -3   8    1.39    1.65
  -6   3  -8    1.39    1.59
   6  -2   8    8.89    2.24
  -6   2  -8    8.92    2.23
   6  -1   8   13.11    2.69
  -6   1  -8   10.32    2.36
   6   0   8    2.91    2.35
  -6   0  -8    1.68    1.73
   7 -11   8   -1.65    1.73
  -7  11  -8    0.67    1.51
   7 -10   8    3.37    1.89
  -7  10  -8    3.08    1.44
  -7  10  -8    2.56    1.60
   7  -9   8   20.08    2.72
  -7   9  -8   17.70    2.17
  -7   9  -8   15.46    2.38
   7  -8   8    7.90    2.00
  -7   8  -8    9.56    2.08
   7  -7   8    0.77    1.64
  -7   7  -8   -0.21    1.26
   7  -6   8   -1.44    1.36
  -7   6  -8   -0.53    1.36
   7  -5   8    2.08    1.72
  -7   5  -8    1.78    1.56
   7  -4   8    7.86    2.11
  -7   4  -8    4.91    1.96
   7  -3   8    1.78    1.89
  -7   3  -8    9.98    2.27
   7  -2   8   17.79    2.84
  -7   2  -8   18.96    3.02
   7  -1   8    3.22    2.22
  -7   1  -8    2.02    1.73
  -8  10  -8    5.26    1.90
  -8  10  -8    8.52    2.16
   8  -9   8   -2.30    1.85
  -8   9  -8    0.01    1.37
   8  -8   8   -1.67    1.59
  -8   8  -8   -1.52    1.28
   8  -7   8   21.27    2.65
  -8   7  -8   14.28    2.56
   8  -6   8    8.45    2.11
  -8   6  -8    7.07    2.04
   8  -5   8    0.09    1.74
  -8   5  -8    2.63    1.80
   8  -4   8   -0.52    1.76
  -8   4  -8    1.22    1.56
   8  -3   8    9.10    2.35
  -8   3  -8    2.56    1.83
  -9   9  -8    4.32    1.89
  -9   8  -8    0.06    1.62
  -9   7  -8    1.70    1.73
  -9   6  -8    0.85    1.70
  -9   5  -8    2.38    1.83
 -11  -1   9    5.23    1.66
  11   1  -9    7.62    2.57
 -11   0   9    5.31    1.67
  11   0  -9    2.75    2.26
 -11   1   9    5.68    1.67
  11  -1  -9    0.12    2.18
 -11   2   9   27.33    2.91
  11  -2  -9   35.47    4.06
 -10  -4   9    0.12    1.29
 -10  -3   9   12.47    2.11
  10   3  -9   15.19    2.68
 -10  -2   9   36.94    3.09
  10   2  -9   36.51    3.64
 -10  -1   9    8.76    1.82
  10   1  -9    7.28    2.33
 -10   0   9   -0.15    1.14
  10   0  -9   -0.56    1.78
 -10   1   9   14.96    2.14
  10  -1  -9   15.14    2.83
 -10   2   9    1.46    1.23
  10  -2  -9    1.25    1.91
 -10   3   9    4.20    1.51
  10  -3  -9    0.79    2.08
 -10   4   9   57.05    3.62
  10  -4  -9   51.36    4.47
   9   5  -9    6.12    2.24
  -9  -3   9   20.64    2.50
   9   3  -9   19.67    2.78
  -9  -2   9    0.50    1.17
   9   2  -9    0.59    1.71
  -9  -1   9   12.05    1.92
   9   1  -9   13.90    2.50
  -9   0   9    1.24    1.11
   9   0  -9   -1.10    1.59
  -9   1   9    3.84    1.33
   9  -1  -9    2.01    1.84
  -9   2   9    4.26    1.37
   9  -2  -9    2.28    1.94
  -9   3   9    1.31    1.22
   9  -3  -9    2.75    2.00
  -9   4   9    4.51    1.50
   9  -4  -9    0.41    2.20
  -9   5   9    0.17    1.37
   9  -5  -9    0.74    2.24
   8   6  -9    5.78    2.23
   8   5  -9   -1.98    1.62
   8   4  -9   18.18    2.48
   8   4  -9   22.11    3.02
  -8  -3   9    2.36    1.20
   8   3  -9   -0.74    1.31
  -8  -2   9   10.18    1.69
   8   2  -9    8.32    2.09
  -8  -1   9   82.34    3.74
   8   1  -9   83.15    4.38
  -8   0   9   18.52    2.10
   8   0  -9   14.99    2.58
  -8   1   9    7.84    1.53
   8  -1  -9    7.02    2.25
  -8   2   9   19.45    2.07
   8  -2  -9   20.27    3.01
  -8   3   9    2.88    1.14
   8  -3  -9   -1.35    1.80
  -8   4   9   -0.06    1.06
   8  -4  -9   -0.88    1.99
  -7  -8   9    5.87    2.16
   7   8  -9    6.76    2.20
  -7  -7   9    0.99    1.73
   7   7  -9    2.88    1.82
  -7  -6   9   18.63    2.67
   7   6  -9   22.41    2.94
  -7  -5   9    6.46    1.77
   7   5  -9   13.33    2.40
  -7  -4   9   35.96    2.81
   7   4  -9   44.90    3.70
   7   4  -9   31.34    2.71
  -7  -3   9    0.94    1.11
   7   3  -9   -0.94    1.24
  -7  -2   9    4.34    1.24
  -7  -2   9    3.45    1.19
   7   2  -9    4.60    1.70
  -7  -1   9   -0.47    0.93
  -7  -1   9    0.64    0.87
  -7   0   9    8.31    1.40
   7   0  -9    6.25    1.97
  -7   1   9   63.65    3.02
   7  -1  -9   68.98    4.23
  -7   2   9   22.75    2.00
   7  -2  -9   18.30    2.82
  -7   3   9   20.74    1.96
   7  -3  -9   13.54    2.70
   7  -4  -9    5.64    2.45
   7  -5  -9    1.29    2.23
  -6  -8   9    1.45    1.88
   6   8  -9    0.65    1.78
  -6  -7   9   12.47    2.42
   6   7  -9   14.25    2.45
  -6  -6   9   72.03    4.16
   6   6  -9   70.85    4.00
  -6  -5   9    4.90    1.64
   6   5  -9    4.71    1.44
   6   5  -9    7.50    1.86
  -6  -4   9    9.90    1.84
   6   4  -9   12.21    1.94
   6   4  -9   13.76    2.01
  -6  -3   9   16.50    1.97
   6   3  -9   13.75    2.16
   6   3  -9   13.28    2.01
  -6  -2   9    5.52    1.23
  -6  -2   9    4.74    1.32
   6   2  -9    7.77    1.89
  -6  -1   9    0.41    0.77
  -6  -1   9    0.05    0.93
   6   1  -9    1.67    1.57
  -6   0   9   45.85    2.67
  -6   0   9   47.94    2.43
  -6   1   9   21.67    1.74
  -6   1   9   21.86    2.19
   6  -1  -9   21.15    2.83
  -6   2   9   12.94    1.81
  -6   2   9   17.36    1.66
   6  -2  -9   14.20    2.58
  -6   3   9    1.87    1.32
   6  -3  -9   -0.26    1.89
  -6   4   9    1.41    1.45
   6  -4  -9    1.70    2.12
   6  -5  -9    9.03    2.90
  -5  -9   9   43.94    4.25
   5   9  -9   39.44    3.68
  -5  -8   9    1.45    1.81
   5   8  -9    0.18    1.47
  -5  -7   9    2.88    1.79
   5   7  -9   -1.03    1.32
  -5  -6   9    3.62    1.69
   5   6  -9    3.15    1.49
  -5  -5   9   21.44    2.49
   5   5  -9   22.51    2.43
   5   5  -9   24.18    2.30
  -5  -4   9  102.88    4.27
   5   4  -9  102.63    4.13
   5   4  -9  100.73    4.08
  -5  -3   9   57.43    3.18
   5   3  -9   62.18    3.22
   5   3  -9   71.57    3.62
  -5  -2   9   31.86    2.01
  -5  -2   9   36.58    2.57
   5   2  -9   34.35    2.77
  -5  -1   9   32.95    1.93
  -5  -1   9   24.27    2.25
   5   1  -9   28.31    2.65
  -5   0   9    0.48    0.97
  -5   0   9    0.62    0.67
   5   0  -9    0.83    1.43
  -5   1   9    5.28    0.97
  -5   1   9    5.72    1.46
   5  -1  -9    1.92    1.55
  -5   2   9   90.05    4.09
   5  -2  -9   87.74    4.62
  -5   3   9   37.00    3.02
   5  -3  -9   43.93    3.72
  -5   4   9   28.94    3.00
   5  -4  -9   32.47    3.76
  -5   5   9    3.48    1.86
   5  -5  -9    1.01    2.08
  -4 -10   9    1.15    1.87
   4  10  -9    0.65    1.54
  -4  -9   9    6.51    2.32
   4   9  -9    8.00    2.10
  -4  -8   9   -0.81    1.53
   4   8  -9    0.34    1.37
  -4  -7   9   26.23    2.96
   4   7  -9   28.77    2.86
  -4  -6   9    0.73    1.28
   4   6  -9   -0.03    1.15
  -4  -5   9   43.96    3.14
   4   5  -9   44.84    2.83
   4   5  -9   41.99    2.63
  -4  -4   9    0.45    1.09
   4   4  -9   -0.48    1.07
   4   4  -9   -0.23    0.95
  -4  -3   9   35.40    2.61
   4   3  -9   32.62    2.36
   4   3  -9   35.73    2.60
  -4  -2   9   11.65    1.35
  -4  -2   9   13.07    1.88
   4   2  -9   12.65    1.98
  -4  -1   9   34.40    1.77
  -4  -1   9   34.10    2.58
   4   1  -9   36.54    2.79
  -4   0   9   17.84    1.31
  -4   0   9   15.72    2.01
   4   0  -9   18.62    2.42
  -4   1   9    1.14    1.23
   4  -1  -9    2.83    1.59
  -4   2   9    2.78    1.40
   4  -2  -9    1.51    1.63
  -4   3   9   -0.05    1.38
   4  -3  -9   -2.23    1.50
  -4   4   9   24.02    2.92
   4  -4  -9   28.74    3.48
  -4   5   9    8.12    2.30
   4  -5  -9    3.78    2.29
  -3 -10   9   20.06    3.24
   3  10  -9   16.79    2.46
  -3  -9   9   40.59    3.70
   3   9  -9   40.19    3.50
  -3  -8   9   46.42    3.52
   3   8  -9   45.53    3.14
  -3  -7   9   17.57    2.47
   3   7  -9   17.72    2.13
  -3  -6   9   15.44    2.27
   3   6  -9   11.61    1.80
  -3  -5   9   -2.06    1.09
   3   5  -9    1.15    1.06
   3   5  -9   -0.61    0.89
  -3  -4   9    1.11    1.14
   3   4  -9    0.16    0.90
   3   4  -9    1.17    1.11
  -3  -3   9  147.68    5.18
   3   3  -9  143.64    5.08
   3   3  -9  151.54    4.42
  -3  -2   9   52.21    3.12
  -3  -2   9   55.51    2.13
   3   2  -9   50.25    2.98
  -3  -1   9   84.52    3.98
  -3  -1   9   95.04    2.70
   3   1  -9   87.07    4.03
  -3   0   9    6.33    1.53
   3   0  -9    4.50    1.58
  -3   1   9   -0.60    1.17
   3  -1  -9    0.10    1.35
  -3   2   9   -0.69    1.32
   3  -2  -9    2.09    1.62
  -3   3   9   24.38    2.98
   3  -3  -9   21.84    2.98
  -3   4   9   43.63    3.94
   3  -4  -9   34.87    3.76
  -3   5   9   11.11    2.67
   3  -5  -9   10.03    2.76
  -2 -11   9   -0.69    1.82
   2  11  -9   -2.25    1.35
  -2 -10   9    9.64    2.39
   2  10  -9    7.03    1.80
  -2  -9   9    3.22    1.77
   2   9  -9    2.52    1.42
  -2  -8   9   21.84    2.67
   2   8  -9   21.47    2.30
  -2  -7   9   15.87    2.34
   2   7  -9   18.13    2.00
  -2  -6   9  106.66    4.62
   2   6  -9  105.40    3.68
   2   6  -9   97.34    3.75
  -2  -5   9   18.74    2.23
   2   5  -9   16.18    1.81
   2   5  -9   17.43    1.77
  -2  -4   9    2.25    1.25
   2   4  -9    2.21    0.90
   2   4  -9    4.00    1.18
  -2  -3   9    2.71    1.26
   2   3  -9    1.13    0.82
   2   3  -9    1.91    1.13
  -2  -2   9   -0.47    0.98
   2   2  -9    0.56    1.06
  -2  -1   9   64.31    3.53
   2   1  -9   60.94    3.38
  -2   0   9   64.81    3.72
   2   0  -9   61.44    3.52
  -2   1   9  105.95    4.92
   2  -1  -9  102.53    4.74
  -2   2   9    1.22    1.44
   2  -2  -9   -0.31    1.39
  -2   3   9   -0.53    1.56
   2  -3  -9   -0.29    1.62
  -2   4   9    7.40    2.33
   2  -4  -9    5.78    2.19
  -2   5   9   12.70    2.97
   2  -5  -9   14.38    2.98
  -1 -11   9    2.57    1.98
   1  11  -9    0.20    1.45
  -1 -10   9    0.24    1.49
   1  10  -9    1.49    1.42
  -1  -9   9    1.82    1.49
   1   9  -9    1.39    1.19
  -1  -8   9   63.14    3.84
   1   8  -9   61.84    3.15
  -1  -7   9   12.15    2.09
   1   7  -9   18.41    1.69
   1   7  -9   14.14    1.75
  -1  -6   9   52.26    3.31
   1   6  -9   54.32    2.56
   1   6  -9   51.54    2.55
  -1  -5   9    0.34    1.20
   1   5  -9    0.84    0.89
   1   5  -9    1.31    0.95
  -1  -4   9   11.10    1.87
   1   4  -9   10.81    1.63
   1   4  -9   10.94    1.22
  -1  -3   9    0.68    1.18
   1   3  -9   -1.11    0.91
  -1  -2   9   54.14    3.25
   1   2  -9   54.76    3.08
  -1  -1   9   27.46    2.61
   1   1  -9   25.34    2.40
  -1   0   9   20.44    2.58
   1   0  -9   27.29    2.54
  -1   1   9    5.18    1.77
   1  -1  -9    8.31    1.88
  -1   2   9    2.09    1.70
   1  -2  -9    1.00    1.56
  -1   3   9   13.76    2.71
   1  -3  -9   17.26    2.70
  -1   4   9    1.74    2.03
   1  -4  -9   -0.92    1.72
   0 -12   9    7.94    2.61
   0  12  -9    5.91    1.91
   0 -11   9   43.80    3.99
   0  11  -9   43.87    3.36
   0 -10   9    0.64    1.61
   0  10  -9    3.01    1.46
   0  -9   9    0.37    1.37
   0   9  -9    2.20    1.29
   0  -8   9   11.79    2.10
   0   8  -9    8.43    1.51
   0  -7   9    0.49    1.21
   0   7  -9    1.83    0.85
   0   7  -9    1.14    0.93
   0  -6   9   55.70    3.38
   0   6  -9   58.26    2.54
   0   6  -9   54.46    2.63
   0  -5   9   84.24    4.02
   0   5  -9   80.38    3.42
   0   5  -9   86.53    2.88
   0  -4   9  108.70    4.53
   0   4  -9  107.05    3.15
   0   4  -9  106.68    4.17
   0  -3   9    1.54    1.15
   0   3  -9    0.74    1.04
   0  -2   9    0.64    1.13
   0   2  -9    0.30    1.10
   0  -1   9   15.58    2.19
   0   1  -9   15.62    2.14
   0   0   9   43.30    3.31
   0   0  -9   41.68    3.08
   0   1   9   28.14    3.12
   0  -1  -9   35.20    3.01
   0   2   9   72.48    4.64
   0  -2  -9   65.13    4.16
   0   3   9    0.97    1.88
   0  -3  -9    2.68    1.68
   0   4   9    0.99    2.18
   0  -4  -9    1.36    2.01
   1 -12   9   -2.48    1.78
  -1  12  -9   -0.09    1.61
   1 -11   9    7.95    2.37
  -1  11  -9    7.81    1.86
   1 -10   9    1.87    1.75
  -1  10  -9    1.76    1.25
   1  -9   9   23.57    2.75
  -1   9  -9   23.48    2.31
   1  -8   9   -0.33    1.22
  -1   8  -9   -0.94    0.86
   1  -7   9   25.68    2.66
  -1   7  -9   25.01    1.87
  -1   7  -9   24.47    1.94
   1  -6   9    0.15    1.29
  -1   6  -9    0.39    0.77
  -1   6  -9    0.73    0.87
   1  -5   9    8.58    1.73
  -1   5  -9   11.25    1.16
  -1   5  -9    9.42    1.58
   1  -4   9   10.48    1.84
  -1   4  -9    8.34    1.59
   1  -3   9   35.23    2.84
  -1   3  -9   32.99    2.63
   1  -2   9   30.18    2.80
  -1   2  -9   30.57    2.64
   1  -1   9    5.08    1.65
  -1   1  -9    4.14    1.54
   1   0   9    7.64    1.95
  -1   0  -9    3.15    1.52
   1   1   9    2.23    1.66
  -1  -1  -9    1.22    1.37
   1   2   9    8.46    2.34
  -1  -2  -9   12.90    2.45
   1   3   9    5.17    2.46
  -1  -3  -9    4.00    1.90
   2 -12   9    2.11    2.14
  -2  12  -9   -0.99    1.38
   2 -11   9   13.52    2.73
  -2  11  -9   10.54    2.04
   2 -10   9   35.26    3.55
  -2  10  -9   32.15    2.78
   2  -9   9   26.22    2.94
  -2   9  -9   23.77    2.38
   2  -8   9    5.13    1.75
  -2   8  -9    4.49    1.09
  -2   8  -9    3.73    1.20
   2  -7   9   -0.02    1.34
  -2   7  -9    0.13    0.83
  -2   7  -9   -0.36    0.81
   2  -6   9    8.78    1.83
  -2   6  -9    9.69    1.59
  -2   6  -9    7.20    1.10
   2  -5   9   47.86    3.21
  -2   5  -9   44.28    2.86
   2  -4   9   12.80    1.97
  -2   4  -9   14.39    2.00
   2  -3   9   74.63    3.98
  -2   3  -9   73.04    3.81
   2  -2   9   -0.07    1.23
  -2   2  -9    0.54    1.20
   2  -1   9    1.75    1.44
  -2   1  -9    0.01    1.32
   2   0   9    0.54    1.57
  -2   0  -9    1.22    1.50
   2   1   9    6.32    2.14
  -2  -1  -9    6.06    1.96
   2   2   9   10.75    2.68
  -2  -2  -9   13.83    2.54
   2   3   9   11.78    2.98
  -2  -3  -9    8.59    2.34
   3 -12   9    2.74    2.33
  -3  12  -9    2.69    1.76
   3 -11   9   12.15    2.62
  -3  11  -9    7.27    1.81
   3 -10   9    0.90    1.73
  -3  10  -9    1.84    1.33
   3  -9   9    1.19    1.68
  -3   9  -9    2.03    1.18
   3  -8   9   62.54    3.76
  -3   8  -9   57.05    3.01
  -3   8  -9   56.14    2.82
   3  -7   9   16.07    2.29
  -3   7  -9   17.67    2.09
  -3   7  -9   17.36    1.65
   3  -6   9    4.18    1.56
  -3   6  -9    0.36    1.10
   3  -5   9    3.04    1.41
  -3   5  -9    4.16    1.46
   3  -4   9   10.61    2.02
  -3   4  -9    7.70    1.77
   3  -3   9    8.86    1.87
  -3   3  -9    7.24    1.76
   3  -2   9   11.58    2.12
  -3   2  -9   11.12    2.02
   3  -1   9   65.18    4.27
  -3   1  -9   60.07    3.93
   3   0   9    4.82    2.00
  -3   0  -9    3.12    1.72
   3   1   9   -0.89    1.89
  -3  -1  -9    7.47    2.12
   3   2   9    5.68    2.48
  -3  -2  -9    3.99    2.11
   4 -12   9   -0.58    2.21
  -4  12  -9   -1.10    1.39
   4 -11   9   -2.16    1.83
  -4  11  -9   -0.48    1.26
   4 -10   9   12.32    2.43
  -4  10  -9   14.22    2.05
   4  -9   9    3.21    1.76
  -4   9  -9   -0.07    1.09
  -4   9  -9    1.21    1.07
   4  -8   9   17.26    2.51
  -4   8  -9   16.34    1.79
  -4   8  -9   19.75    2.31
   4  -7   9    0.91    1.45
  -4   7  -9    1.39    1.17
   4  -6   9    5.46    1.69
  -4   6  -9    4.25    1.47
   4  -5   9    1.81    1.42
  -4   5  -9    2.59    1.38
   4  -4   9    8.54    1.86
  -4   4  -9    8.56    1.97
   4  -3   9    2.17    1.64
  -4   3  -9    3.93    1.70
   4  -2   9    2.07    1.61
  -4   2  -9    3.89    1.71
   4  -1   9    4.23    2.04
  -4   1  -9    1.79    1.63
   4   0   9   -0.77    1.91
  -4   0  -9    2.21    1.74
   4   1   9    9.36    2.64
  -4  -1  -9    5.34    2.21
   5 -12   9    4.03    2.37
  -5  12  -9    4.76    1.81
   5 -11   9   -1.18    1.92
  -5  11  -9    1.04    1.63
   5 -10   9    8.02    2.34
  -5  10  -9    8.77    1.83
   5  -9   9    4.75    1.89
  -5   9  -9    3.57    1.38
  -5   9  -9    4.76    1.45
   5  -8   9    2.33    1.65
  -5   8  -9    1.41    1.37
   5  -7   9   17.48    2.55
  -5   7  -9   12.97    2.12
   5  -6   9   51.01    3.61
  -5   6  -9   43.29    3.33
   5  -5   9    1.28    1.53
  -5   5  -9    0.76    1.49
   5  -4   9   -0.50    1.45
  -5   4  -9   -0.63    1.36
   5  -3   9   14.29    2.48
  -5   3  -9   13.75    2.44
   5  -2   9   -0.33    1.74
  -5   2  -9    1.44    1.55
   5  -1   9    2.64    1.98
  -5   1  -9    1.69    1.67
   5   0   9   20.53    3.34
  -5   0  -9   19.31    3.17
   6 -11   9    5.46    2.35
  -6  11  -9    9.00    2.07
   6 -10   9   -0.28    1.68
  -6  10  -9   -0.12    1.26
   6  -9   9    8.50    2.17
  -6   9  -9    8.92    1.92
   6  -8   9    0.34    1.65
  -6   8  -9    1.79    1.45
   6  -7   9    0.83    1.53
  -6   7  -9   -1.79    1.13
   6  -6   9   -0.66    1.44
  -6   6  -9    1.20    1.40
   6  -5   9    6.15    2.01
  -6   5  -9    5.06    1.95
   6  -4   9   11.19    2.36
  -6   4  -9    7.33    2.11
   6  -3   9    1.44    1.91
  -6   3  -9    4.43    1.99
   6  -2   9    2.82    2.05
  -6   2  -9   -0.69    1.63
   6  -1   9    5.42    2.49
  -6   1  -9    4.55    2.03
   7 -10   9   -2.08    1.70
  -7  10  -9    1.00    1.40
   7  -9   9   -3.04    1.63
  -7   9  -9    2.91    1.71
   7  -8   9    5.88    2.05
  -7   8  -9    5.15    1.90
   7  -7   9    2.81    1.90
  -7   7  -9    2.91    1.78
   7  -6   9    0.05    1.78
  -7   6  -9    0.45    1.48
   7  -5   9   17.26    2.67
  -7   5  -9   13.38    2.57
   7  -4   9   -1.50    1.66
  -7   4  -9    0.13    1.71
   7  -3   9    1.40    1.96
  -7   3  -9    3.27    1.84
   8  -9   9   11.61    2.60
  -8   9  -9    8.96    2.20
   8  -8   9    2.43    1.93
  -8   8  -9    2.89    1.86
   8  -7   9   -1.28    1.70
  -8   7  -9   -0.91    1.41
   8  -6   9    5.89    2.04
  -8   6  -9    1.49    1.81
   8  -5   9    1.62    1.95
  -8   5  -9    2.22    1.80
 -10  -3  10    4.23    1.59
  10   3 -10    1.99    2.01
 -10  -2  10    7.89    1.83
  10   2 -10    9.30    2.67
 -10  -1  10    0.53    1.18
  10   1 -10   -0.82    1.96
 -10   0  10    2.01    1.36
  10   0 -10    2.14    2.14
 -10   1  10   45.12    3.34
  10  -1 -10   58.67    4.51
 -10   2  10   35.72    2.98
  10  -2 -10   23.99    3.58
   9   5 -10    1.24    1.89
  -9  -4  10    7.91    1.89
  -9  -3  10    0.64    1.27
   9   3 -10    1.37    1.87
  -9  -2  10    0.83    1.26
   9   2 -10    2.51    1.92
  -9  -1  10   12.38    1.97
   9   1 -10   21.35    3.07
  -9   0  10    2.14    1.22
   9   0 -10    0.25    1.85
  -9   1  10    7.11    1.54
   9  -1 -10    3.68    2.20
  -9   2  10    3.32    1.34
   9  -2 -10    3.96    2.25
  -9   3  10   21.91    2.33
   9  -3 -10   18.30    3.23
   8   6 -10    0.77    1.84
   8   5 -10    1.79    1.95
   8   4 -10   66.62    3.92
  -8  -3  10   33.35    2.73
   8   3 -10   36.24    3.18
  -8  -2  10   21.77    2.30
   8   2 -10   23.91    3.00
  -8  -1  10    8.68    1.57
   8   1 -10    8.18    2.30
  -8   0  10    2.58    1.16
   8   0 -10    4.35    2.15
  -8   1  10    0.83    0.98
   8  -1 -10    2.23    2.12
  -8   2  10   15.59    1.87
   8  -2 -10   20.22    3.27
   8  -3 -10   47.83    4.39
   8  -4 -10   11.21    2.92
  -7  -7  10   14.21    2.79
   7   7 -10   20.21    3.05
  -7  -6  10    5.16    1.97
   7   6 -10    9.18    2.30
  -7  -5  10    1.45    1.56
   7   5 -10    0.08    1.54
  -7  -4  10    3.52    1.45
   7   4 -10   -0.25    1.39
   7   4 -10    0.74    1.58
  -7  -3  10    2.46    1.12
  -7  -3  10    1.96    1.30
   7   3 -10   -1.62    1.35
  -7  -2  10   56.37    2.97
  -7  -2  10   56.13    3.21
   7   2 -10   42.73    3.59
  -7  -1  10   18.00    1.96
   7   1 -10   28.57    3.21
  -7   0  10   41.59    2.52
   7   0 -10   42.53    3.67
  -7   1  10    3.15    1.05
   7  -1 -10   -0.42    1.99
   7  -2 -10    0.28    2.05
   7  -3 -10    2.35    2.28
   7  -4 -10   15.28    3.24
  -6  -8  10   10.47    2.69
   6   8 -10   13.35    2.59
  -6  -7  10   17.17    2.81
   6   7 -10   22.58    2.87
  -6  -6  10   -0.33    1.59
   6   6 -10   -0.04    1.46
  -6  -5  10    0.43    1.40
   6   5 -10   -0.63    1.19
   6   5 -10    2.41    1.51
  -6  -4  10    0.83    1.26
   6   4 -10    0.56    1.40
   6   4 -10    0.79    1.33
  -6  -3  10   40.44    2.92
   6   3 -10   40.94    3.14
  -6  -2  10   40.55    2.90
  -6  -2  10   44.99    2.52
   6   2 -10   41.17    3.38
  -6  -1  10   31.02    2.13
  -6  -1  10   27.25    2.50
  -6   0  10    6.27    1.54
  -6   0  10    9.08    1.31
   6   0 -10    6.08    2.12
  -6   1  10    0.62    1.13
   6  -1 -10    0.77    1.81
  -6   2  10    8.01    1.77
   6  -2 -10    7.96    2.50
  -6   3  10    5.62    1.89
   6  -3 -10    1.00    2.17
   6  -4 -10   23.87    3.72
  -5  -9  10   -2.02    1.95
   5   9 -10    0.69    1.78
  -5  -8  10    3.07    2.08
   5   8 -10    2.25    1.66
  -5  -7  10   52.01    4.08
   5   7 -10   53.13    3.65
  -5  -6  10   37.74    3.53
   5   6 -10   35.27    2.94
  -5  -5  10   51.67    3.44
   5   5 -10   52.83    3.30
   5   5 -10   47.73    3.00
  -5  -4  10    5.49    1.64
   5   4 -10    3.47    1.59
   5   4 -10    3.99    1.49
  -5  -3  10    0.39    1.15
   5   3 -10    0.44    1.44
  -5  -2  10    4.40    1.02
  -5  -2  10    5.23    1.57
   5   2 -10    6.89    1.92
  -5  -1  10   68.13    3.56
  -5  -1  10   66.30    2.72
   5   1 -10   65.99    4.00
  -5   0  10   72.49    3.77
   5   0 -10   78.32    4.40
  -5   1  10   72.95    3.85
   5  -1 -10   70.28    4.35
  -5   2  10    2.99    1.56
   5  -2 -10    0.75    1.78
  -5   3  10    5.25    1.81
   5  -3 -10    3.61    2.17
  -5   4  10    0.08    1.51
   5  -4 -10    0.46    2.16
  -4 -10  10    7.99    2.68
   4  10 -10    9.28    2.23
  -4  -9  10   -1.10    1.77
   4   9 -10    0.66    1.47
  -4  -8  10   20.48    3.13
  -4  -7  10    4.11    1.95
   4   7 -10    3.59    1.55
  -4  -6  10   18.52    2.61
   4   6 -10   17.14    2.22
  -4  -5  10   11.74    2.04
   4   5 -10   12.58    1.82
   4   5 -10   10.93    1.90
  -4  -4  10   10.40    1.90
   4   4 -10   10.95    1.70
   4   4 -10   12.50    1.98
  -4  -3  10   34.27    2.84
   4   3 -10   30.57    2.68
  -4  -2  10    5.02    1.52
  -4  -2  10    5.29    0.97
   4   2 -10    7.88    1.82
  -4  -1  10   13.36    2.05
   4   1 -10   11.58    2.14
  -4   0  10    0.55    1.20
   4   0 -10    0.34    1.44
  -4   1  10   33.11    2.99
   4  -1 -10   29.16    3.24
  -4   2  10    7.09    1.94
   4  -2 -10    7.40    2.25
  -4   3  10   33.06    3.52
   4  -3 -10   36.72    3.89
  -4   4  10    2.51    1.99
   4  -4 -10    4.04    2.45
  -3 -10  10    8.66    2.60
   3  10 -10   13.49    2.49
  -3  -9  10    9.39    2.50
   3   9 -10    6.39    1.87
  -3  -8  10   -1.63    1.59
   3   8 -10    2.20    1.43
  -3  -7  10    2.19    1.80
   3   7 -10    1.80    1.26
  -3  -6  10   56.71    3.76
   3   6 -10   70.20    3.34
   3   6 -10   65.17    3.13
  -3  -5  10   54.75    3.45
   3   5 -10   56.19    3.07
   3   5 -10   57.47    2.90
  -3  -4  10   75.16    3.92
   3   4 -10   74.25    3.63
   3   4 -10   82.64    3.26
  -3  -3  10    0.16    1.17
   3   3 -10   -0.22    1.15
  -3  -2  10    0.62    1.25
   3   2 -10    2.23    1.38
  -3  -1  10    2.14    1.37
   3   1 -10    0.80    1.34
  -3   0  10    7.75    1.85
   3   0 -10    3.77    1.71
  -3   1  10   53.33    3.76
   3  -1 -10   53.44    3.89
  -3   2  10   40.82    3.60
   3  -2 -10   29.81    3.39
  -3   3  10   17.50    2.82
   3  -3 -10   20.34    3.11
  -3   4  10    1.81    1.97
   3  -4 -10   -0.55    2.09
  -2 -11  10    3.53    2.28
   2  11 -10    3.01    1.60
  -2 -10  10    2.54    2.03
   2  10 -10    4.80    1.67
  -2  -9  10   28.85    3.35
   2   9 -10   31.19    3.00
  -2  -8  10   20.09    2.72
   2   8 -10   16.74    2.13
  -2  -7  10    0.99    1.47
   2   7 -10    0.13    1.09
  -2  -6  10   -1.26    1.22
   2   6 -10    0.88    1.06
   2   6 -10    0.92    1.03
  -2  -5  10    3.50    1.58
   2   5 -10    7.94    1.57
   2   5 -10    5.37    1.21
  -2  -4  10   39.25    3.00
   2   4 -10   44.18    2.23
   2   4 -10   39.04    2.71
  -2  -3  10   24.87    2.64
   2   3 -10   25.23    2.39
  -2  -2  10   80.62    4.08
   2   2 -10   81.01    4.03
  -2  -1  10   -0.29    1.31
   2   1 -10    0.18    1.29
  -2   0  10    4.02    1.70
   2   0 -10    1.79    1.51
  -2   1  10    8.85    2.10
   2  -1 -10    6.05    1.97
  -2   2  10    6.57    2.18
   2  -2 -10    7.33    2.13
  -2   3  10   20.46    3.20
   2  -3 -10   14.33    2.85
  -2   4  10   25.00    3.69
   2  -4 -10   28.54    3.64
  -1 -11  10   20.99    3.30
   1  11 -10   23.03    2.91
  -1 -10  10    4.58    2.06
   1  10 -10    7.21    1.87
  -1  -9  10   19.34    2.83
   1   9 -10   19.62    2.31
  -1  -8  10    3.63    1.66
   1   8 -10    0.81    1.11
  -1  -7  10   -0.44    1.38
   1   7 -10    1.90    0.97
   1   7 -10    0.11    0.97
  -1  -6  10    2.30    1.41
   1   6 -10    0.21    0.94
   1   6 -10    1.78    1.01
  -1  -5  10   12.95    2.10
   1   5 -10   14.97    1.56
   1   5 -10   12.06    1.79
  -1  -4  10   18.38    2.46
   1   4 -10   17.71    2.13
   1   3 -10   15.55    2.04
  -1  -2  10   16.31    2.33
   1   2 -10   15.00    2.23
  -1  -1  10   -0.86    1.18
   1   1 -10    1.09    1.30
  -1   0  10   13.41    2.32
   1   0 -10    9.61    1.97
  -1   1  10    1.37    1.65
   1  -1 -10    2.17    1.54
  -1   2  10   12.94    2.56
   1  -2 -10   12.07    2.39
  -1   3  10    1.72    2.05
   1  -3 -10    4.10    2.16
   0 -11  10    3.94    2.11
   0  11 -10    4.05    1.70
   0 -10  10    0.49    1.77
   0  10 -10    1.30    1.33
   0  -9  10   15.76    2.66
   0   9 -10   17.13    2.08
   0  -8  10   27.05    2.97
   0   8 -10   25.49    2.32
   0  -7  10   60.47    3.78
   0   7 -10   65.56    2.93
   0   7 -10   61.27    2.86
   0  -6  10    0.90    1.38
   0   6 -10    2.82    0.99
   0   6 -10    0.26    0.90
   0  -5  10   -1.52    1.13
   0   5 -10    0.01    0.95
   0  -4  10   38.13    3.10
   0   4 -10   32.63    2.62
   0  -3  10   10.05    1.93
   0   3 -10   12.19    1.98
   0  -2  10   25.97    2.86
   0   2 -10   19.77    2.44
   0  -1  10   62.19    3.98
   0   1 -10   63.50    3.85
   0   0  10    4.03    1.89
   0   0 -10    7.09    1.95
   0   1  10    1.35    1.73
   0  -1 -10    3.73    1.74
   0   2  10    0.11    1.90
   0  -2 -10    1.34    1.79
   0   3  10    0.55    2.08
   0  -3 -10    3.31    1.98
   1 -12  10    2.32    2.29
  -1  12 -10    7.13    2.00
   1 -11  10    1.70    2.11
  -1  11 -10   -0.41    1.32
   1 -10  10    4.14    2.06
  -1  10 -10    4.20    1.44
   1  -9  10    0.57    1.64
  -1   9 -10    0.58    1.09
   1  -8  10    2.04    1.62
  -1   8 -10    1.03    1.02
   1  -7  10    0.64    1.47
  -1   7 -10    2.25    1.08
  -1   7 -10    0.38    0.90
   1  -6  10    6.40    1.84
  -1   6 -10    5.40    1.31
   1  -5  10   21.75    2.59
  -1   5 -10   20.71    2.29
   1  -4  10    1.47    1.32
  -1   4 -10    1.54    1.28
   1  -3  10    4.76    1.67
  -1   3 -10    4.78    1.55
   1  -2  10    3.75    1.61
  -1   2 -10    6.33    1.68
   1  -1  10    4.80    1.78
  -1   1 -10    7.69    1.94
   1   0  10    2.03    1.69
  -1   0 -10    2.39    1.57
   1   1  10   16.61    2.83
  -1  -1 -10   18.09    2.79
   1   2  10    3.79    2.29
  -1  -2 -10    4.03    1.95
   2 -12  10   13.80    3.00
  -2  12 -10   12.46    2.37
   2 -11  10    0.49    2.08
  -2  11 -10    0.95    1.34
   2 -10  10   -0.50    1.86
  -2  10 -10    0.63    1.20
   2  -9  10   15.50    2.61
  -2   9 -10   16.08    2.04
   2  -8  10    6.84    2.05
  -2   8 -10    9.63    1.56
  -2   8 -10   10.98    1.67
   2  -7  10   11.33    2.16
  -2   7 -10   12.11    1.80
   2  -6  10   54.37    3.69
  -2   6 -10   51.34    3.17
   2  -5  10    1.13    1.32
  -2   5 -10   -0.22    1.12
   2  -4  10   -0.53    1.10
  -2   4 -10    0.44    1.24
   2  -3  10    5.58    1.81
  -2   3 -10    3.33    1.54
   2  -2  10    0.16    1.54
  -2   2 -10    0.29    1.31
   2  -1  10    8.50    2.21
  -2   1 -10    9.32    2.03
   2   0  10    7.23    2.34
  -2   0 -10    6.32    1.96
   2   1  10   15.22    2.86
  -2  -1 -10    8.87    2.29
   3 -12  10   -4.98    2.03
  -3  12 -10    0.87    1.47
   3 -11  10   11.96    2.85
  -3  11 -10   10.10    1.99
   3 -10  10   16.18    2.88
  -3  10 -10   13.04    2.00
   3  -9  10    1.68    1.76
  -3   9 -10    1.69    1.22
   3  -8  10   -1.09    1.42
  -3   8 -10    1.07    1.17
   3  -7  10   17.11    2.52
  -3   7 -10   12.05    1.96
   3  -6  10    0.34    1.46
  -3   6 -10   -0.75    1.10
   3  -5  10    2.06    1.52
  -3   5 -10    3.49    1.45
   3  -4  10   45.62    3.59
  -3   4 -10   46.23    3.49
   3  -3  10    1.23    1.53
  -3   3 -10    5.08    1.73
   3  -2  10    1.34    1.75
  -3   2 -10    4.23    1.83
   3  -1  10    5.56    2.19
  -3   1 -10   11.13    2.30
   3   0  10   -0.39    1.82
  -3   0 -10    0.29    1.74
   3   1  10    0.97    2.14
  -3  -1 -10    5.54    2.10
   4 -11  10   10.57    2.81
  -4  11 -10    9.68    2.08
   4 -10  10   -2.44    1.64
  -4  10 -10    0.07    1.20
   4  -9  10    0.95    1.77
  -4   9 -10    3.17    1.31
   4  -8  10   -0.07    1.67
  -4   8 -10    1.90    1.30
   4  -7  10    1.41    1.70
  -4   7 -10    3.40    1.52
   4  -6  10    7.05    2.02
  -4   6 -10    4.17    1.60
   4  -5  10    3.21    1.77
  -4   5 -10    3.58    1.66
   4  -4  10    2.19    1.66
  -4   4 -10    2.58    1.74
   4  -3  10    0.84    1.68
  -4   3 -10   -0.79    1.38
   4  -2  10    2.85    2.05
  -4   2 -10    4.00    1.87
   4  -1  10    2.66    2.04
  -4   1 -10   -0.41    1.70
   4   0  10    6.95    2.62
  -4   0 -10    5.20    2.19
   5 -11  10    1.41    2.25
  -5  11 -10   -0.86    1.36
   5 -10  10    2.13    2.09
   5  -9  10   41.19    3.77
  -5   9 -10   41.04    3.18
   5  -8  10   -0.26    1.82
  -5   8 -10    2.26    1.47
   5  -7  10    1.64    1.76
  -5   7 -10    1.05    1.35
   5  -6  10   14.44    2.55
  -5   6 -10   10.30    2.17
   5  -5  10   -1.17    1.61
  -5   5 -10    0.80    1.51
   5  -4  10    4.85    2.05
  -5   4 -10    5.30    1.98
   5  -3  10   22.03    3.21
  -5   3 -10   20.81    3.04
   5  -2  10    8.04    2.56
  -5   2 -10    6.65    2.18
   6 -10  10   -0.91    1.90
   6  -9  10   -0.63    1.89
  -6   9 -10    1.25    1.40
   6  -8  10   -1.72    1.67
  -6   8 -10    1.77    1.58
   6  -7  10   11.72    2.53
  -6   7 -10   10.09    2.31
   6  -6  10    4.17    2.02
  -6   6 -10    1.75    1.70
   6  -5  10    6.51    2.28
  -6   5 -10    4.65    1.98
   6  -4  10    1.99    1.97
  -6   4 -10   -0.34    1.49
   6  -3  10    2.55    2.08
  -6   3 -10    2.06    1.78
   7  -9  10   -2.40    1.72
  -7   9 -10    0.85    1.50
   7  -8  10   15.71    2.82
  -7   8 -10   15.91    2.69
   7  -7  10    3.15    2.15
  -7   7 -10    2.44    1.81
   7  -6  10   -0.41    2.00
  -7   6 -10    2.65    1.83
   7  -5  10    0.69    1.85
  -7   5 -10   -0.90    1.57
  -9  -4  11    9.38    1.98
  -9  -3  11    5.72    1.61
   9   3 -11    2.84    2.03
  -9  -2  11   19.86    2.41
   9   2 -11   23.21    3.28
  -9  -1  11    1.61    1.29
   9   1 -11    1.84    2.20
  -9   0  11   15.00    2.08
   9   0 -11   19.87    3.32
  -9   1  11    3.64    1.39
   9  -1 -11    3.21    2.43
   9  -2 -11   13.90    3.14
   8   5 -11   26.25    3.34
  -8  -4  11    1.24    1.27
   8   4 -11   -0.17    1.73
  -8  -3  11    4.46    1.42
   8   3 -11    1.52    1.81
  -8  -2  11    2.65    1.31
   8   2 -11   -0.99    1.77
  -8  -1  11   12.90    1.87
   8   1 -11   13.43    2.84
  -8   0  11   62.99    3.25
   8   0 -11   53.78    4.64
   8  -1 -11   31.89    3.87
   8  -2 -11   10.73    2.94
  -7  -7  11   -0.02    2.02
   7   7 -11   -1.17    1.77
  -7  -6  11    6.94    2.34
   7   6 -11   -1.88    1.66
  -7  -5  11   33.61    3.23
   7   5 -11   28.79    3.33
  -7  -4  11   14.15    2.24
   7   4 -11   15.42    2.48
  -7  -3  11   30.53    2.96
  -7  -3  11   35.75    2.61
   7   3 -11   35.94    3.56
  -7  -2  11    1.31    1.07
   7   2 -11    1.25    1.93
  -7  -1  11    0.77    0.93
   7   1 -11    1.93    1.95
   7   0 -11    1.30    2.17
   7  -1 -11   12.44    2.94
   7  -2 -11   22.47    3.52
   7  -3 -11   15.02    3.40
  -6  -8  11    0.10    2.28
   6   8 -11    2.28    1.75
  -6  -7  11   -0.72    1.92
   6   7 -11   -1.19    1.71
  -6  -6  11   13.07    2.49
   6   6 -11   13.34    2.45
  -6  -5  11   20.57    2.66
   6   5 -11   26.85    2.82
   6   5 -11   28.25    3.05
  -6  -4  11   15.75    2.35
   6   4 -11   15.27    2.45
  -6  -3  11   11.28    1.59
  -6  -3  11    9.97    1.96
   6   3 -11   10.04    2.41
  -6  -2  11    1.63    0.94
  -6  -2  11   -0.62    1.16
   6   2 -11    0.14    1.79
  -6  -1  11    3.19    1.41
   6   1 -11    5.79    2.25
  -6   0  11    1.98    1.36
   6   0 -11    1.61    2.03
  -6   1  11   30.12    2.88
   6  -1 -11   32.96    3.83
  -6   2  11    4.37    2.21
   6  -2 -11    8.37    2.65
   6  -3 -11    7.81    2.80
  -5  -9  11   17.20    3.42
   5   9 -11   14.43    2.75
  -5  -8  11   21.70    3.40
   5   8 -11   30.75    3.47
  -5  -7  11    4.20    2.25
   5   7 -11    5.52    1.83
  -5  -6  11   -1.44    1.45
   5   6 -11    0.64    1.43
  -5  -5  11    7.40    1.92
   5   5 -11    8.00    2.02
   5   5 -11    9.44    1.89
  -5  -4  11   26.31    2.93
   5   4 -11   23.73    2.54
   5   4 -11   20.34    2.81
  -5  -3  11   46.93    2.53
  -5  -3  11   44.17    3.36
   5   3 -11   46.04    3.57
  -5  -2  11   61.53    3.72
   5   2 -11   65.45    4.15
  -5  -1  11   10.25    1.97
   5   1 -11   10.23    2.36
  -5   0  11    3.33    1.59
   5   0 -11    6.67    2.19
  -5   1  11   -0.20    1.30
   5  -1 -11   -0.27    1.95
  -5   2  11    0.31    1.49
   5  -2 -11   -2.19    1.94
  -5   3  11   28.29    3.20
   5  -3 -11   25.62    3.83
  -4  -9  11    0.74    2.29
   4   9 -11    1.98    1.77
  -4  -8  11    0.80    1.94
   4   8 -11    2.94    1.66
  -4  -7  11   -0.57    1.71
   4   7 -11    3.51    1.58
  -4  -6  11   10.32    2.29
   4   6 -11    9.39    1.86
   4   6 -11   13.42    2.89
  -4  -5  11    0.91    1.41
   4   5 -11   -0.96    1.04
   4   5 -11    2.36    1.50
  -4  -4  11   14.85    2.36
   4   4 -11   13.18    1.94
   4   4 -11   13.74    2.28
  -4  -3  11    0.53    1.38
   4   3 -11    2.97    1.60
  -4  -2  11   15.82    2.38
   4   2 -11   21.20    2.82
  -4  -1  11    2.34    1.51
   4   1 -11    1.74    1.69
  -4   0  11   21.07    2.71
   4   0 -11   28.23    3.35
  -4   1  11    4.97    1.89
   4  -1 -11    4.65    2.03
  -4   2  11    3.50    1.95
   4  -2 -11    4.39    2.22
  -4   3  11    4.12    1.95
   4  -3 -11    1.09    2.36
  -3 -10  11    5.10    2.63
   3  10 -11    7.95    2.18
  -3  -9  11   16.58    3.04
   3   9 -11   10.58    2.20
  -3  -8  11   14.71    2.80
   3   8 -11   20.47    2.50
  -3  -7  11   41.43    3.75
   3   7 -11   44.53    3.09
  -3  -6  11   -0.85    1.35
   3   6 -11   -0.74    1.04
   3   6 -11   -1.27    1.21
  -3  -5  11    4.84    1.72
   3   5 -11    5.69    1.39
   3   5 -11    5.25    1.57
  -3  -4  11    9.21    2.02
   3   4 -11    6.38    1.72
  -3  -3  11    0.08    1.33
   3   3 -11   -0.83    1.27
  -3  -2  11   30.03    3.05
   3   2 -11   34.74    3.20
  -3  -1  11   20.45    2.72
   3   1 -11   22.66    2.84
  -3   0  11   25.38    3.01
   3   0 -11   25.38    3.11
  -3   1  11    2.51    1.77
   3  -1 -11    2.87    1.83
  -3   2  11    1.85    1.82
   3  -2 -11   -1.59    1.82
  -3   3  11    1.47    2.07
   3  -3 -11   -0.57    2.11
  -2 -10  11    0.92    2.19
   2  10 -11    1.99    1.58
  -2  -9  11   -3.21    1.69
   2   9 -11    0.08    1.38
  -2  -8  11    7.24    2.35
   2   8 -11    9.37    1.88
  -2  -7  11    6.76    2.07
   2   7 -11    9.25    1.73
  -2  -6  11    6.29    1.90
   2   6 -11    9.88    1.74
   2   6 -11    4.46    1.33
  -2  -5  11   51.57    3.59
   2   5 -11   49.31    3.10
  -2  -4  11    0.27    1.39
   2   4 -11    0.71    1.32
  -2  -3  11    0.44    1.30
   2   3 -11    2.74    1.45
  -2  -2  11   17.49    2.57
   2   2 -11   21.45    2.68
  -2  -1  11    1.10    1.62
   2   1 -11   -0.81    1.35
  -2   0  11    9.09    2.17
   2   0 -11    9.68    2.35
  -2   1  11   25.46    3.20
   2  -1 -11   23.15    3.07
  -2   2  11   26.44    3.61
   2  -2 -11   17.16    2.91
  -1 -11  11    2.27    2.29
   1  11 -11   -1.20    1.32
  -1 -10  11   -1.57    1.90
   1  10 -11    1.08    1.36
  -1  -9  11    0.28    1.70
   1   9 -11    2.67    1.39
  -1  -8  11    3.98    1.90
   1   8 -11    1.32    1.24
  -1  -7  11   12.09    2.42
   1   7 -11   15.23    1.89
   1   7 -11   13.45    1.81
  -1  -6  11   11.00    2.20
   1   6 -11   11.47    1.81
  -1  -5  11    9.00    2.03
   1   5 -11   11.65    1.89
  -1  -4  11    4.68    1.69
   1   4 -11    6.47    1.64
  -1  -3  11    3.21    1.46
   1   3 -11    0.27    1.31
  -1  -2  11    1.71    1.60
   1   2 -11    1.10    1.38
  -1  -1  11    9.58    2.11
   1   1 -11   10.46    2.15
  -1   0  11   -1.69    1.57
   1   0 -11    2.20    1.74
  -1   1  11    3.84    2.19
   1  -1 -11    6.25    2.21
  -1   2  11    1.72    2.19
   1  -2 -11    4.61    2.14
   0 -11  11    4.53    2.41
   0  11 -11    7.44    1.88
   0 -10  11   40.32    4.16
   0  10 -11   34.71    2.97
   0  -9  11    1.00    1.82
   0   9 -11    1.24    1.25
   0  -8  11   -0.45    1.51
   0   8 -11   -0.26    1.02
   0  -7  11   23.92    3.02
   0   7 -11   24.78    2.19
   0  -6  11    0.26    1.43
   0   6 -11    0.60    1.05
   0  -5  11   12.56    2.26
   0   5 -11    9.81    1.80
   0  -4  11   53.83    3.69
   0   4 -11   45.48    3.26
   0  -3  11   20.28    2.71
   0   3 -11   19.00    2.49
   0  -2  11    0.12    1.36
   0   2 -11    0.94    1.38
   0  -1  11    4.97    2.00
   0   1 -11    7.22    2.03
   0   0  11    4.26    2.05
   0   0 -11    4.09    1.83
   0   1  11    7.39    2.42
   0  -1 -11    8.57    2.38
   1 -11  11   -1.27    2.17
  -1  11 -11   -0.44    1.39
   1 -10  11    2.29    2.10
  -1  10 -11    0.68    1.32
   1  -9  11    0.18    1.66
  -1   9 -11    0.67    1.28
   1  -8  11    5.21    2.11
  -1   8 -11    8.58    1.85
   1  -7  11   -0.75    1.49
  -1   7 -11    5.66    1.44
   1  -6  11    7.17    1.98
  -1   6 -11    6.52    1.55
   1  -5  11    6.01    1.85
  -1   5 -11    4.19    1.59
   1  -4  11    3.46    1.63
  -1   4 -11    2.19    1.45
   1  -3  11   -0.68    1.46
  -1   3 -11    1.13    1.47
   1  -2  11   12.70    2.39
  -1   2 -11   13.93    2.43
   1  -1  11    3.72    1.96
  -1   1 -11    2.93    1.69
   1   0  11    3.01    2.12
  -1   0 -11    4.47    1.94
   1   1  11   -2.20    1.93
  -1  -1 -11    5.98    2.14
   2 -11  11    0.76    2.20
  -2  11 -11    1.56    1.44
   2 -10  11    5.66    2.28
  -2  10 -11    2.50    1.42
   2  -9  11   32.94    3.70
   2  -8  11    4.87    2.07
  -2   8 -11    5.79    1.48
   2  -7  11    0.68    1.51
  -2   7 -11    1.01    1.24
   2  -6  11    0.97    1.56
  -2   6 -11    3.14    1.52
   2  -5  11    2.19    1.64
  -2   5 -11    2.16    1.44
   2  -4  11    6.18    1.98
  -2   4 -11    6.06    1.91
   2  -3  11    8.11    2.19
  -2   3 -11    8.00    2.04
   2  -2  11   16.63    2.78
  -2   2 -11   20.71    2.88
   2  -1  11    0.88    1.83
  -2   1 -11    3.06    1.80
   2   0  11   -0.84    1.91
  -2   0 -11    3.82    2.06
   3 -11  11    0.55    2.13
  -3  11 -11    0.18    1.36
   3 -10  11    8.08    2.58
   3  -9  11    2.53    2.00
   3  -8  11    1.47    1.94
  -3   8 -11    2.25    1.34
   3  -7  11   31.13    3.55
  -3   7 -11   38.06    3.10
   3  -6  11    3.57    1.95
  -3   6 -11    6.93    1.86
   3  -5  11    6.23    2.08
  -3   5 -11    7.91    1.93
   3  -4  11    2.94    1.84
  -3   4 -11    3.38    1.68
   3  -3  11    2.19    1.98
  -3   3 -11    5.67    2.02
   3  -2  11    1.11    1.98
  -3   2 -11    4.29    2.06
   3  -1  11    9.46    2.64
  -3   1 -11   10.33    2.59
   4 -11  11    0.72    2.30
   4 -10  11   -1.54    1.98
   4  -9  11    5.82    2.35
  -4   9 -11    3.69    1.53
   4  -8  11    4.96    2.23
  -4   8 -11    4.23    1.65
   4  -7  11   10.20    2.51
  -4   7 -11    8.84    2.07
   4  -6  11    1.35    1.84
  -4   6 -11    0.98    1.51
   4  -5  11    2.86    1.96
  -4   5 -11    3.03    1.85
   4  -4  11    0.36    1.86
  -4   4 -11   -0.56    1.56
   4  -3  11    6.71    2.34
  -4   3 -11    5.85    2.16
   4  -2  11    0.37    2.02
  -4   2 -11    1.28    1.75
   5 -10  11    2.54    2.19
   5  -9  11    1.05    2.11
  -5   9 -11    5.20    1.71
   5  -8  11   -1.16    1.90
  -5   8 -11    1.85    1.48
   5  -7  11   -0.73    1.84
  -5   7 -11    1.04    1.56
   5  -6  11   22.63    3.19
  -5   6 -11   18.30    2.79
   5  -5  11   11.52    2.66
  -5   5 -11   14.75    2.74
   5  -4  11    0.01    2.10
  -5   4 -11    2.10    1.74
   5  -3  11   -0.86    2.17
  -5   3 -11    1.55    1.82
  -6   9 -11    6.77    1.95
   6  -8  11   10.18    2.75
  -6   8 -11    6.75    2.02
   6  -7  11    0.74    1.96
  -6   7 -11    5.19    1.99
   6  -6  11   -0.13    2.01
  -6   6 -11    2.34    1.87
  -8  -4  12    6.02    1.58
   8   4 -12    3.83    2.19
  -8  -3  12   41.04    3.05
   8   3 -12   42.11    3.92
  -8  -2  12   17.64    2.16
   8   2 -12   19.59    3.24
   8   1 -12   11.93    3.02
   8   0 -12    2.71    2.43
  -7  -6  12   13.14    2.66
   7   6 -12   12.30    2.67
  -7  -5  12    0.46    1.67
  -7  -4  12    1.71    1.95
  -7  -4  12    0.02    1.06
   7   4 -12   -1.58    1.76
  -7  -3  12    1.35    1.10
   7   3 -12    1.24    2.15
   7   2 -12    0.68    2.02
   7   1 -12   18.14    3.30
   7   0 -12   12.35    3.17
   7  -1 -12   18.17    3.55
  -6  -7  12    8.90    2.68
   6   7 -12    8.17    2.42
  -6  -6  12    4.25    2.20
   6   6 -12    5.37    2.05
  -6  -5  12    5.35    2.09
   6   5 -12    3.94    2.04
   6   5 -12    7.95    2.17
  -6  -4  12   -0.29    1.57
  -6  -4  12    1.86    1.10
   6   4 -12   -0.50    1.79
  -6  -3  12    0.02    1.42
   6   3 -12   -0.15    1.96
  -6  -2  12   21.40    2.68
   6   2 -12   21.63    3.39
  -6  -1  12    9.28    2.03
   6   1 -12    5.48    2.44
  -6   0  12   12.19    2.19
   6   0 -12   10.11    2.89
   6  -1 -12    0.92    2.35
  -5  -8  12    5.10    2.50
  -5  -7  12    1.59    2.05
   5   7 -12   -0.66    1.50
  -5  -6  12   18.01    2.85
   5   6 -12   21.84    2.76
  -5  -5  12   30.72    3.29
   5   5 -12   30.76    3.05
   5   5 -12   29.06    3.16
  -5  -4  12   18.71    2.81
   5   4 -12   18.00    2.80
  -5  -3  12    5.75    2.01
   5   3 -12    4.97    2.18
  -5  -2  12    4.65    1.85
   5   2 -12    7.72    2.33
  -5  -1  12    4.92    1.81
   5   1 -12    4.38    2.31
  -5   0  12   20.05    2.77
   5   0 -12   21.29    3.31
  -5   1  12   13.34    2.61
   5  -1 -12   15.15    3.05
  -5   2  12   24.09    3.14
   5  -2 -12   15.19    3.26
  -4  -9  12    0.82    2.39
   4   9 -12    0.93    1.70
  -4  -8  12   -1.19    1.89
   4   8 -12   -0.70    1.45
  -4  -7  12    5.71    2.25
   4   7 -12   12.22    2.09
  -4  -6  12   -1.59    1.68
   4   6 -12   -1.09    1.18
   4   6 -12    1.59    2.07
  -4  -5  12    4.82    1.99
   4   5 -12    5.35    1.96
  -4  -4  12    1.81    1.73
   4   4 -12   -0.25    1.67
  -4  -3  12    9.83    2.12
   4   3 -12    9.87    2.21
  -4  -2  12   -0.16    1.47
   4   2 -12    0.36    1.76
  -4  -1  12    0.64    1.66
   4   1 -12    2.83    2.00
  -4   0  12   -2.29    1.55
   4   0 -12    2.21    1.97
  -4   1  12    0.02    1.76
   4  -1 -12   -1.62    1.99
  -3  -9  12    3.39    2.35
   3   9 -12    4.36    1.86
  -3  -8  12    5.29    2.39
   3   8 -12    1.86    1.53
  -3  -7  12    6.53    2.35
   3   7 -12    6.34    1.70
  -3  -6  12    0.68    1.78
   3   6 -12    2.77    1.61
  -3  -5  12   19.23    2.87
   3   5 -12   24.19    2.82
  -3  -4  12   16.05    2.75
   3   4 -12   16.77    2.56
   3   3 -12   21.23    2.85
  -3  -2  12    1.56    1.63
   3   2 -12   -0.17    1.66
  -3  -1  12    0.55    1.65
   3   1 -12   -0.31    1.77
  -3   0  12    8.27    2.32
   3   0 -12    4.86    2.14
  -3   1  12    1.15    1.96
   3  -1 -12    5.78    2.37
  -2 -10  12    3.80    2.48
   2  10 -12    4.65    1.97
  -2  -9  12    0.54    2.04
   2   9 -12    1.40    1.49
  -2  -8  12   28.18    3.59
   2   8 -12   32.61    2.98
  -2  -7  12    4.05    2.07
  -2  -6  12   -1.71    1.54
   2   6 -12    1.43    1.37
  -2  -5  12    3.82    1.93
   2   5 -12    7.06    1.82
  -2  -4  12    3.01    1.84
   2   4 -12    1.38    1.55
  -2  -3  12    6.26    2.04
   2   3 -12    5.73    1.88
  -2  -2  12    8.95    2.28
   2   2 -12    9.21    2.18
  -2  -1  12   27.86    3.37
   2   1 -12   28.21    3.26
  -2   0  12    0.58    1.83
   2   0 -12    4.69    2.17
  -2   1  12    0.30    2.01
   2  -1 -12    0.78    2.15
  -1 -10  12    6.83    2.56
   1  10 -12    7.50    1.90
  -1  -9  12    8.69    2.49
   1   9 -12    4.11    1.73
  -1  -8  12   14.19    2.82
  -1  -7  12    1.85    1.73
   1   7 -12    0.81    1.24
  -1  -6  12    1.58    1.75
   1   6 -12    2.74    1.44
  -1  -5  12    1.86    1.77
   1   5 -12    3.50    1.60
  -1  -4  12    8.36    2.12
   1   4 -12   14.41    2.27
  -1  -3  12    0.65    1.68
   1   3 -12    3.30    1.62
  -1  -2  12    9.53    2.51
   1   2 -12   12.01    2.37
  -1  -1  12    3.30    2.01
   1   1 -12    2.06    1.85
  -1   0  12    0.92    2.03
   1   0 -12    0.47    1.79
   0 -10  12   -0.59    2.10
   0  10 -12    6.41    1.85
   0  -9  12    1.47    1.98
   0  -8  12    4.43    2.14
   0  -7  12   33.58    3.61
   0   7 -12   32.23    2.73
   0  -6  12   28.33    3.38
   0   6 -12   33.45    2.85
   0  -5  12    0.20    1.54
   0   5 -12    0.13    1.31
   0  -4  12    1.34    1.70
   0   4 -12    1.70    1.45
   0  -3  12   11.66    2.53
   0   3 -12   11.92    2.40
   0  -2  12    6.12    2.14
   0   2 -12    6.45    2.07
   0  -1  12    4.64    2.30
   0   1 -12    4.91    1.99
   0   0  12   18.32    3.10
   0   0 -12   23.42    3.31
   1 -10  12   -2.69    1.79
   1  -9  12    6.36    2.45
   1  -8  12   -0.63    1.78
  -1   8 -12    2.80    1.91
   1  -7  12    3.58    1.95
  -1   7 -12    4.21    1.53
   1  -6  12   -1.42    1.66
  -1   6 -12    2.45    1.49
   1  -5  12   11.24    2.40
  -1   5 -12   11.84    2.16
   1  -4  12    7.69    2.25
  -1   4 -12    3.05    1.77
   1  -3  12    4.11    1.99
  -1   3 -12    1.63    1.68
   1  -2  12    2.08    1.88
  -1   2 -12    3.87    1.91
   1  -1  12    0.93    1.96
  -1   1 -12    1.80    1.82
   2 -10  12    3.14    2.37
   2  -9  12   -0.75    2.03
   2  -8  12    2.34    2.14
  -2   8 -12    3.41    1.50
   2  -7  12    5.12    2.22
  -2   7 -12    9.48    2.00
   2  -6  12    5.71    2.17
  -2   6 -12   11.32    2.17
   2  -5  12   23.48    3.17
  -2   5 -12   27.28    3.15
   2  -4  12    1.33    1.82
  -2   4 -12    5.53    2.02
   2  -3  12    1.76    2.00
  -2   3 -12    8.67    2.22
   2  -2  12    3.38    2.22
  -2   2 -12    3.13    1.93
   3 -10  12   21.78    3.56
   3  -9  12    8.72    2.68
   3  -8  12   11.14    2.71
  -3   8 -12   11.60    2.10
   3  -7  12   -2.89    1.65
  -3   7 -12    1.51    1.47
   3  -6  12   -0.65    1.83
  -3   6 -12    3.09    1.66
   3  -5  12   -0.97    1.71
  -3   5 -12    1.93    1.83
   3  -4  12    3.16    2.26
  -3   4 -12    7.40    2.23
   3  -3  12   22.74    3.49
  -3   3 -12   22.88    3.29
   4  -9  12   -3.18    1.85
  -4   9 -12    0.50    1.53
   4  -8  12   -1.06    2.12
  -4   8 -12    5.30    1.94
   4  -7  12   -0.73    2.01
  -4   7 -12    3.35    1.85
   4  -6  12    3.37    2.29
  -4   6 -12    4.53    2.00
   4  -5  12    1.34    2.08
  -4   5 -12    2.54    1.99
   4  -4  12    3.22    2.27
  -4   4 -12    6.33    2.17
   7   4 -13    7.00    2.53
   7   3 -13    3.79    2.46
   7   2 -13   17.58    3.46
  -6  -6  13   -1.88    2.02
   6   6 -13    0.31    1.95
  -6  -5  13   10.02    2.51
   6   5 -13    5.48    2.29
  -6  -4  13    8.44    2.29
   6   4 -13    5.95    2.52
  -6  -3  13   11.26    2.42
   6   3 -13   13.94    3.22
  -6  -2  13   -0.63    1.55
   6   2 -13   -0.74    2.14
  -6  -1  13    0.20    1.61
   6   1 -13   -0.44    2.30
  -5  -7  13    6.28    2.62
   5   7 -13   12.67    2.58
  -5  -6  13   -2.22    1.88
  -5  -5  13    3.91    2.04
  -5  -4  13    8.68    2.30
   5   4 -13    4.20    2.35
  -5  -3  13    7.82    2.25
   5   3 -13   11.78    2.73
  -5  -2  13   13.82    2.66
   5   2 -13   10.54    2.66
  -5  -1  13   31.54    3.61
   5   1 -13   23.07    3.50
  -5   0  13    1.36    1.75
   5   0 -13   -0.02    2.25
  -4  -8  13    4.75    2.63
   4   8 -13    3.52    1.90
  -4  -7  13    0.22    2.04
  -4  -6  13    2.71    2.18
  -4  -5  13    4.49    2.21
   4   5 -13    4.12    2.13
  -4  -4  13    3.76    2.14
   4   4 -13    2.40    2.08
  -4  -3  13    2.94    1.95
   4   3 -13    1.38    2.04
  -4  -2  13    0.01    1.75
   4   2 -13   -0.81    2.02
  -4  -1  13    4.95    2.16
   4   1 -13    6.26    2.50
  -4   0  13    1.90    1.94
   4   0 -13    3.91    2.47
  -3  -8  13   14.37    3.24
  -3  -7  13   15.16    2.96
  -3  -6  13   30.42    3.65
   3   6 -13   33.07    3.28
  -3  -5  13   -1.66    1.70
   3   5 -13    0.07    1.72
  -3  -4  13    1.69    1.97
   3   4 -13   -0.17    1.76
  -3  -3  13    5.32    2.14
   3   3 -13    3.57    2.09
  -3  -2  13    1.88    1.79
   3   2 -13    1.34    1.92
  -3  -1  13   11.45    2.72
   3   1 -13   10.86    2.68
  -2  -9  13    4.22    2.48
  -2  -8  13    1.17    2.09
  -2  -7  13    0.02    2.06
  -2  -6  13    1.74    2.04
   2   6 -13    6.43    1.89
  -2  -5  13    5.09    2.27
   2   5 -13    9.26    2.19
  -2  -4  13   25.98    3.40
   2   4 -13   40.54    3.65
  -2  -3  13    3.07    2.03
   2   3 -13    5.86    2.26
  -2  -2  13    0.25    1.91
   2   2 -13    3.62    2.19
  -2  -1  13    3.35    2.09
   2   1 -13    5.49    2.37
  -1  -9  13   -2.45    2.10
  -1  -8  13    2.64    2.24
  -1  -7  13   12.61    2.82
   1   7 -13    9.14    2.05
  -1  -6  13    6.71    2.42
   1   6 -13    7.10    2.04
  -1  -5  13   10.34    2.65
   1   5 -13   12.70    2.37
  -1  -4  13    3.01    2.12
   1   4 -13    3.64    1.79
  -1  -3  13    0.55    1.86
   1   3 -13    4.34    2.02
  -1  -2  13    2.78    2.10
   1   2 -13    1.38    1.90
  -1  -1  13    3.22    2.16
   1   1 -13   -1.75    1.80
   0  -9  13   21.50    3.56
   0  -8  13    3.02    2.22
   0  -7  13   -1.59    1.79
   0   7 -13    3.69    1.64
   0  -6  13    4.98    2.38
   0   6 -13   11.30    2.25
   0  -5  13   -0.35    1.77
   0   5 -13    2.26    1.59
   0  -4  13   10.41    2.58
   0  -3  13   21.13    3.27
   0   3 -13   25.84    3.28
   0  -2  13    3.51    2.20
   0   2 -13    4.57    2.00
   1  -9  13   -0.94    2.18
   1  -8  13    0.38    2.09
   1  -7  13    7.21    2.58
  -1   7 -13    7.47    2.04
   1  -6  13    1.92    2.07
  -1   6 -13    6.04    1.92
   1  -5  13    2.29    2.15
  -1   5 -13    4.56    1.91
   1  -4  13    2.09    2.06
  -1   4 -13    1.02    1.70
   1  -3  13    0.24    1.92
  -1   3 -13    1.24    1.82
   2  -9  13    1.38    2.50
   2  -8  13   26.07    3.80
  -2   8 -13   35.27    3.25
   2  -7  13    7.06    2.56
  -2   7 -13    9.40    2.14
   2  -6  13    2.55    2.24
  -2   6 -13    3.07    1.72
   2  -5  13    1.76    2.09
  -2   5 -13    1.76    1.89
   2  -4  13    3.35    2.37
  -2   4 -13    1.08    1.77
   3  -7  13   -2.63    1.95
  -3   7 -13    4.12    1.70
   3  -6  13   15.86    3.27
  -3   6 -13   13.16    2.47
  -4  -6  14    4.34    2.46
  -4  -5  14    1.65    2.23
   4   5 -14   -3.47    1.86
  -4  -4  14    3.07    2.27
   4   4 -14    8.82    2.67
  -4  -3  14    3.61    2.18
   4   3 -14    4.92    2.43
  -3  -6  14    1.79    2.30
   3   6 -14    1.13    2.00
  -3  -5  14   -1.17    1.96
   3   5 -14   -0.68    1.99
  -3  -4  14    6.99    2.48
   3   4 -14    9.14    2.60
  -3  -3  14   15.69    3.15
   3   3 -14   16.82    3.10
  -2  -7  14   14.76    3.19
  -2  -6  14    4.35    2.32
   2   6 -14    3.05    1.96
  -2  -5  14    2.47    2.10
   2   5 -14    5.38    2.28
  -2  -4  14   -1.42    1.98
   2   4 -14    5.03    2.18
  -1  -7  14    2.80    2.55
   1   7 -14    3.93    2.02
  -1  -6  14   -1.41    1.92
   1   6 -14    0.13    1.69
  -1  -5  14   -0.95    2.03
   1   5 -14    1.30    1.94
  -1  -4  14   -0.92    2.13
   1   4 -14    2.06    2.02
   0  -6  14   19.08    3.38
   0   0   0    0.00    0.00
;
_shelx_hkl_checksum              1647
loop_
_space_group_symop_operation_xyz
'x, y, z'
'-x, -y, -z'
loop_
_atom_site_label
_atom_site_type_symbol
_atom_site_fract_x
_atom_site_fract_y
_atom_site_fract_z
_atom_site_U_iso_or_equiv
_atom_site_adp_type
_atom_site_occupancy
_atom_site_site_symmetry_order
_atom_site_calc_flag
_atom_site_refinement_flags_posn
_atom_site_refinement_flags_adp
_atom_site_refinement_flags_occupancy
Pt1 Pt 0.0000 0.0000 0.0000 0.02128(10) Uani 1 2 d S . P
Cl1 Cl 0.0641(2) -0.0100(2) 0.22790(19) 0.0268(4) Uani 1 1 d . . .
C3 C 0.7094(10) 0.3386(10) -0.0457(8) 0.0345(18) Uani 1 1 d . . .
H3A H 0.7802 0.2934 -0.0974 0.041 Uiso 1 1 calc R U .
H3B H 0.6309 0.3471 -0.1203 0.041 Uiso 1 1 calc R U .
C1 C 0.3702(9) 0.1973(8) 0.0638(8) 0.0242(15) Uani 1 1 d . . .
N1 N 0.2334(7) 0.1198(7) 0.0370(6) 0.0254(13) Uani 1 1 d . . .
C6 C 0.6214(9) 0.4619(10) 0.2308(9) 0.037(2) Uani 1 1 d . . .
H6A H 0.6992 0.4535 0.3061 0.045 Uiso 1 1 calc R U .
H6B H 0.5485 0.5050 0.2805 0.045 Uiso 1 1 calc R U .
N2 N 0.5234(7) 0.2872(8) 0.0928(7) 0.0320(15) Uani 1 1 d . . .
C2 C 0.6146(9) 0.2097(9) 0.0026(9) 0.0329(18) Uani 1 1 d . . .
H2A H 0.5379 0.0963 -0.0904 0.039 Uiso 1 1 calc R U .
H2B H 0.6920 0.1875 0.0654 0.039 Uiso 1 1 calc R U .
C5 C 0.7144(9) 0.5885(9) 0.1846(9) 0.0314(17) Uani 1 1 d . . .
H5A H 0.6362 0.6098 0.1217 0.038 Uiso 1 1 calc R U .
H5B H 0.7884 0.7021 0.2785 0.038 Uiso 1 1 calc R U .
C4 C 0.8136(9) 0.5189(10) 0.0932(10) 0.0364(18) Uani 1 1 d . . .
H4A H 0.9016 0.5129 0.1607 0.044 Uiso 1 1 calc R U .
H4B H 0.8658 0.6011 0.0581 0.044 Uiso 1 1 calc R U .
I1S I 0.45221(6) 0.16193(6) 0.42183(5) 0.02460(11) Uani 1 1 d . . .
I3S I 0.81820(6) 0.54150(6) 0.67171(6) 0.03192(13) Uani 1 1 d . . .
I2S I 0.83544(6) 0.14655(6) 0.41637(5) 0.02894(12) Uani 1 1 d . . .
C1S C 0.7057(8) 0.2574(8) 0.5513(7) 0.0220(14) Uani 1 1 d . . .
H1SA H 0.7093 0.2208 0.6321 0.026 Uiso 1 1 calc R U .
loop_
_atom_site_aniso_label
_atom_site_aniso_U_11
_atom_site_aniso_U_22
_atom_site_aniso_U_33
_atom_site_aniso_U_23
_atom_site_aniso_U_13
_atom_site_aniso_U_12
Pt1 0.01816(19) 0.01350(18) 0.0264(2) 0.00402(15) 0.01205(15) 0.00527(15)
Cl1 0.0215(8) 0.0275(9) 0.0258(9) 0.0092(7) 0.0112(7) 0.0074(7)
C3 0.035(4) 0.039(5) 0.025(4) 0.009(3) 0.019(3) 0.015(4)
C1 0.031(4) 0.013(3) 0.022(4) 0.003(3) 0.013(3) 0.006(3)
N1 0.015(3) 0.018(3) 0.026(3) 0.002(2) 0.007(2) -0.001(2)
C6 0.024(4) 0.026(4) 0.033(4) -0.005(3) 0.013(3) 0.000(3)
N2 0.023(3) 0.018(3) 0.035(4) -0.001(3) 0.017(3) 0.000(3)
C2 0.028(4) 0.020(4) 0.044(5) 0.009(3) 0.020(4) 0.005(3)
C5 0.030(4) 0.016(3) 0.039(5) 0.010(3) 0.009(3) 0.005(3)
C4 0.023(4) 0.032(4) 0.050(5) 0.021(4) 0.018(4) 0.003(3)
I1S 0.0249(2) 0.0208(2) 0.0274(2) 0.01031(18) 0.01200(19) 0.00947(19)
I3S 0.0294(3) 0.0186(2) 0.0388(3) 0.0086(2) 0.0110(2) 0.0075(2)
I2S 0.0305(3) 0.0282(3) 0.0330(3) 0.0140(2) 0.0191(2) 0.0152(2)
C1S 0.027(4) 0.016(3) 0.019(3) 0.006(3) 0.011(3) 0.007(3)
loop_
_atom_type_symbol
_atom_type_description
_atom_type_scat_dispersion_real
_atom_type_scat_dispersion_imag
_atom_type_scat_source
C C 0.0033 0.0016 'International Tables Vol C Tables 4.2.6.8 and 6.1.1.4'
H H 0.0000 0.0000 'International Tables Vol C Tables 4.2.6.8 and 6.1.1.4'
N N 0.0061 0.0033 'International Tables Vol C Tables 4.2.6.8 and 6.1.1.4'
Cl Cl 0.1484 0.1585 'International Tables Vol C Tables 4.2.6.8 and 6.1.1.4'
I I -0.4742 1.8119 'International Tables Vol C Tables 4.2.6.8 and 6.1.1.4'
Pt Pt -1.7033 8.3905 'International Tables Vol C Tables 4.2.6.8 and 6.1.1.4'
loop_
_geom_angle_atom_site_label_1
_geom_angle_atom_site_label_2
_geom_angle_atom_site_label_3
_geom_angle
_geom_angle_site_symmetry_1
_geom_angle_site_symmetry_3
N1 Pt1 N1 180.0 2 .
N1 Pt1 Cl1 90.77(18) 2 2
N1 Pt1 Cl1 89.23(18) . 2
N1 Pt1 Cl1 89.23(18) 2 .
N1 Pt1 Cl1 90.77(18) . .
Cl1 Pt1 Cl1 180.0 2 .
C4 C3 C2 111.0(6) . .
C4 C3 H3A 109.4 . .
C2 C3 H3A 109.4 . .
C4 C3 H3B 109.4 . .
C2 C3 H3B 109.4 . .
H3A C3 H3B 108.0 . .
N1 C1 N2 178.5(8) . .
C1 N1 Pt1 176.7(6) . .
N2 C6 C5 109.6(6) . .
N2 C6 H6A 109.7 . .
C5 C6 H6A 109.7 . .
N2 C6 H6B 109.7 . .
C5 C6 H6B 109.7 . .
H6A C6 H6B 108.2 . .
C1 N2 C2 121.4(6) . .
C1 N2 C6 122.1(6) . .
C2 N2 C6 116.0(6) . .
N2 C2 C3 108.7(6) . .
N2 C2 H2A 109.9 . .
C3 C2 H2A 109.9 . .
N2 C2 H2B 109.9 . .
C3 C2 H2B 109.9 . .
H2A C2 H2B 108.3 . .
C4 C5 C6 111.6(6) . .
C4 C5 H5A 109.3 . .
C6 C5 H5A 109.3 . .
C4 C5 H5B 109.3 . .
C6 C5 H5B 109.3 . .
H5A C5 H5B 108.0 . .
C5 C4 C3 111.9(6) . .
C5 C4 H4A 109.2 . .
C3 C4 H4A 109.2 . .
C5 C4 H4B 109.2 . .
C3 C4 H4B 109.2 . .
H4A C4 H4B 107.9 . .
I2S C1S I1S 113.4(3) . .
I2S C1S I3S 112.9(3) . .
I1S C1S I3S 109.7(3) . .
I2S C1S H1SA 106.8 . .
I1S C1S H1SA 106.8 . .
I3S C1S H1SA 106.8 . .
loop_
_geom_bond_atom_site_label_1
_geom_bond_atom_site_label_2
_geom_bond_distance
_geom_bond_site_symmetry_2
Pt1 N1 1.964(5) 2
Pt1 N1 1.964(5) .
Pt1 Cl1 2.3190(18) 2
Pt1 Cl1 2.3190(18) .
C3 C4 1.512(10) .
C3 C2 1.544(10) .
C3 H3A 0.9900 .
C3 H3B 0.9900 .
C1 N1 1.151(9) .
C1 N2 1.297(9) .
C6 N2 1.475(9) .
C6 C5 1.507(10) .
C6 H6A 0.9900 .
C6 H6B 0.9900 .
N2 C2 1.468(9) .
C2 H2A 0.9900 .
C2 H2B 0.9900 .
C5 C4 1.507(11) .
C5 H5A 0.9900 .
C5 H5B 0.9900 .
C4 H4A 0.9900 .
C4 H4B 0.9900 .
I1S C1S 2.145(7) .
I3S C1S 2.163(6) .
I2S C1S 2.126(6) .
C1S H1SA 1.0000 .
loop_
_geom_torsion_atom_site_label_1
_geom_torsion_atom_site_label_2
_geom_torsion_atom_site_label_3
_geom_torsion_atom_site_label_4
_geom_torsion
C5 C6 N2 C1 -132.0(8)
C5 C6 N2 C2 56.7(9)
C1 N2 C2 C3 132.2(8)
C6 N2 C2 C3 -56.4(9)
C4 C3 C2 N2 53.4(9)
N2 C6 C5 C4 -53.3(9)
C6 C5 C4 C3 54.5(9)
C2 C3 C4 C5 -54.3(9)
