#------------------------------------------------------------------------------
#$Date: 2018-08-14 15:13:30 +0300 (Tue, 14 Aug 2018) $
#$Revision: 209676 $
#$URL: file:///home/coder/svn-repositories/cod/cif/7/11/87/7118716.cif $
#------------------------------------------------------------------------------
#
# This file is available in the Crystallography Open Database (COD),
# http://www.crystallography.net/
#
# All data on this site have been placed in the public domain by the
# contributors.
#
data_7118716
loop_
_publ_author_name
'Bushuyev, Oleksandr S.'
'Tomberg, Anna'
'Vinden, Joanna R.'
'Moitessier, Nicolas'
'Barrett, Christopher J.'
'Fri\<s\<ci\'c, Tomislav'
_publ_section_title
;
 Azo&#x22EF;phenyl stacking: a persistent self-assembly motif guides the
 assembly of fluorinated cis-azobenzenes into photo-mechanical needle crystals
;
_journal_coden_ASTM              CHCOFS
_journal_issue                   10
_journal_name_full
;
 Chemical Communications (Cambridge, United Kingdom)
;
_journal_page_first              2103
_journal_page_last               2106
_journal_paper_doi               10.1039/c5cc08590j
_journal_volume                  52
_journal_year                    2016
_chemical_formula_sum            'C12 H2 Br2 F6 N2'
_chemical_formula_weight         447.96
_space_group_crystal_system      monoclinic
_space_group_IT_number           14
_space_group_name_Hall           '-P 2ybc'
_space_group_name_H-M_alt        'P 1 21/c 1'
_symmetry_space_group_name_Hall  '-P 2ybc'
_symmetry_space_group_name_H-M   'P 1 21/c 1'
_atom_sites_solution_hydrogens   geom
_audit_creation_method           SHELXL-2014/6
_audit_update_record
;
2015-10-13 deposited with the CCDC.
2015-12-04 downloaded from the CCDC.
;
_cell_angle_alpha                90
_cell_angle_beta                 101.917(2)
_cell_angle_gamma                90
_cell_formula_units_Z            2
_cell_length_a                   10.630(2)
_cell_length_b                   4.7239(9)
_cell_length_c                   12.695(2)
_cell_measurement_temperature    100(2)
_cell_volume                     623.74(19)
_computing_structure_refinement  'SHELXL-2014/6 (Sheldrick, 2014)'
_diffrn_ambient_temperature      100(2)
_diffrn_measured_fraction_theta_full 0.999
_diffrn_measured_fraction_theta_max 0.977
_diffrn_measurement_device_type  'Bruker D8'
_diffrn_radiation_type           MoK\a
_diffrn_radiation_wavelength     0.71073
_diffrn_reflns_av_R_equivalents  0.0216
_diffrn_reflns_av_unetI/netI     0.0177
_diffrn_reflns_Laue_measured_fraction_full 0.999
_diffrn_reflns_Laue_measured_fraction_max 0.977
_diffrn_reflns_limit_h_max       13
_diffrn_reflns_limit_h_min       -13
_diffrn_reflns_limit_k_max       6
_diffrn_reflns_limit_k_min       -6
_diffrn_reflns_limit_l_max       16
_diffrn_reflns_limit_l_min       -16
_diffrn_reflns_number            6895
_diffrn_reflns_point_group_measured_fraction_full 0.999
_diffrn_reflns_point_group_measured_fraction_max 0.977
_diffrn_reflns_theta_full        25.242
_diffrn_reflns_theta_max         27.933
_diffrn_reflns_theta_min         1.958
_exptl_absorpt_coefficient_mu    6.569
_exptl_absorpt_correction_T_max  0.7457
_exptl_absorpt_correction_T_min  0.5118
_exptl_absorpt_correction_type   multi-scan
_exptl_absorpt_process_details   SADABS
_exptl_crystal_colour            orange
_exptl_crystal_density_diffrn    2.385
_exptl_crystal_description       block
_exptl_crystal_F_000             424
_exptl_crystal_size_max          0.361
_exptl_crystal_size_mid          0.201
_exptl_crystal_size_min          0.151
_refine_diff_density_max         0.367
_refine_diff_density_min         -0.370
_refine_diff_density_rms         0.070
_refine_ls_extinction_coef       .
_refine_ls_extinction_method     none
_refine_ls_goodness_of_fit_ref   1.052
_refine_ls_hydrogen_treatment    constr
_refine_ls_matrix_type           full
_refine_ls_number_parameters     100
_refine_ls_number_reflns         1462
_refine_ls_number_restraints     0
_refine_ls_restrained_S_all      1.052
_refine_ls_R_factor_all          0.0218
_refine_ls_R_factor_gt           0.0178
_refine_ls_shift/su_max          0.001
_refine_ls_shift/su_mean         0.000
_refine_ls_structure_factor_coef Fsqd
_refine_ls_weighting_details
'w=1/[\s^2^(Fo^2^)+(0.0175P)^2^+0.5553P] where P=(Fo^2^+2Fc^2^)/3'
_refine_ls_weighting_scheme      calc
_refine_ls_wR_factor_gt          0.0403
_refine_ls_wR_factor_ref         0.0416
_reflns_Friedel_coverage         0.000
_reflns_Friedel_fraction_full    .
_reflns_Friedel_fraction_max     .
_reflns_number_gt                1314
_reflns_number_total             1462
_reflns_threshold_expression     'I > 2\s(I)'
_cod_duplicate_entry             7118650
_cod_data_source_file            c5cc08590j2.cif
_cod_data_source_block           AB120_0m
_cod_original_cell_volume        623.7(2)
_cod_database_code               7118716
#BEGIN Tags that were not found in dictionaries:
_shelx_space_group_comment
;
The symmetry employed for this shelxl refinement is uniquely defined
by the following loop, which should always be used as a source of
symmetry information in preference to the above space-group names.
They are only intended as comments.
;
_shelx_estimated_absorpt_t_min   0.200
_shelx_estimated_absorpt_t_max   0.437
_exptl_absorpt_special_details   SADABS
_shelxl_version_number           2014/6
_shelx_res_file
;
TITL AB120_0m in P2(1)/c
CELL 0.71073 10.6301 4.7239 12.6946 90.000 101.917 90.000
ZERR 4.00 0.0020 0.0009 0.0024 0.000 0.002 0.000
LATT 1
SYMM -x, y+1/2, -z+1/2
SFAC C  H  N  F  Br
UNIT 24  4  4  12  4
L.S. 10
ACTA
BOND $H
FMAP 2
PLAN 10
SIZE 0.151 0.201 0.361
HTAB
CONF
TEMP -173.000
WGHT    0.017500    0.555300
FVAR       0.20953
BR1   5    0.691651    0.160876    0.431484    11.00000    0.01607    0.01635 =
         0.01692   -0.00224    0.00178   -0.00172
C1    1    0.863335    0.557835    0.556240    11.00000    0.01324    0.01454 =
         0.01218    0.00178    0.00139    0.00257
C2    1    0.743435    0.425796    0.541355    11.00000    0.01441    0.01312 =
         0.01268    0.00121    0.00148    0.00078
C3    1    0.660693    0.486400    0.608712    11.00000    0.01159    0.01855 =
         0.01796    0.00477    0.00268    0.00046
C4    1    0.693303    0.687907    0.687695    11.00000    0.01773    0.02005 =
         0.01462    0.00430    0.00683    0.00752
C5    1    0.809034    0.827607    0.703600    11.00000    0.01986    0.01845 =
         0.01347   -0.00168    0.00072    0.00391
AFIX  43
H1    2    0.830857    0.967615    0.758031    11.00000   -1.20000
AFIX   0
C6    1    0.892030    0.757545    0.637971    11.00000    0.01270    0.01852 =
         0.01606   -0.00008    0.00001    0.00026
F1    4    0.548700    0.349584    0.598373    11.00000    0.01545    0.02557 =
         0.02600    0.00167    0.00878   -0.00402
F2    4    0.609912    0.747315    0.750600    11.00000    0.02328    0.03076 =
         0.01817    0.00018    0.01145    0.00667
F3    4    1.003423    0.900974    0.652294    11.00000    0.01518    0.02646 =
         0.02792   -0.01287    0.00393   -0.00630
N1    3    0.940714    0.495639    0.480214    11.00000    0.01321    0.01553 =
         0.01641    0.00045    0.00417    0.00042
HKLF 4 1 1 0 0 0 1 0 0 0 1

REM  AB120_0m in P2(1)/c
REM R1 =  0.0178 for    1314 Fo > 4sig(Fo)  and  0.0218 for all    1462 data
REM    100 parameters refined using      0 restraints

END

WGHT      0.0175      0.5552

REM No hydrogen bonds found for HTAB generation

REM Highest difference peak  0.367,  deepest hole -0.370,  1-sigma level  0.070
Q1    1   0.7064  0.4485  0.5728  11.00000  0.05    0.37
Q2    1   0.7872  0.5204  0.5402  11.00000  0.05    0.31
Q3    1   0.7224  0.1625  0.3720  11.00000  0.05    0.31
Q4    1   0.8734  0.6512  0.5906  11.00000  0.05    0.31
Q5    1   0.9012  0.5291  0.5169  11.00000  0.05    0.30
Q6    1   0.8713  0.7473  0.6992  11.00000  0.05    0.29
Q7    1   0.8277  0.8465  0.6421  11.00000  0.05    0.29
Q8    1   0.6876  0.5480  0.6625  11.00000  0.05    0.28
Q9    1   0.8956  0.5913  0.6160  11.00000  0.05    0.26
Q10   1   0.6605  0.7237  0.7011  11.00000  0.05    0.26
;
_shelx_res_checksum              64140
_shelx_hkl_file
;
  -1   0   0   31.33    0.67
  -1   0   0   30.37    0.65
   2   0   0  222.83    4.04
   2   0   0  216.50    4.05
  -2   0   0  224.27    4.10
  -2   0   0  215.45    4.05
   3   0   0  747.10   13.70
  -3   0   0  789.60   13.82
  -3   0   0  762.14   13.74
   3   0   0  778.33   13.74
   4   0   0    0.75    0.21
   4   0   0    0.88    0.23
  -4   0   0    1.02    0.24
  -4   0   0    0.87    0.25
  -5   0   0  277.23    5.33
  -5   0   0  273.44    5.44
   5   0   0  269.35    5.26
   5   0   0  275.73    5.31
  -6   0   0  153.62    3.41
   6   0   0  152.33    3.25
   6   0   0  149.39    3.19
  -6   0   0  151.29    3.27
   7   0   0  172.60    3.75
   7   0   0  174.02    3.70
  -7   0   0  180.98    3.97
  -7   0   0  175.20    3.79
  -8   0   0  181.38    4.01
   8   0   0  179.85    3.97
   8   0   0  181.26    3.89
  -8   0   0  182.10    4.16
  -9   0   0   27.99    1.36
   9   0   0   24.78    1.15
   9   0   0   26.58    1.20
  -9   0   0   26.47    1.25
  10   0   0  113.09    2.93
 -10   0   0  115.74    2.99
 -10   0   0  112.30    3.14
  10   0   0  115.25    2.89
  11   0   0   40.38    1.64
 -11   0   0   38.84    1.69
  12   0   0    7.80    0.89
   0   1   0   -0.03    0.09
   0   1   0   -0.06    0.07
   0   1   0   -0.03    0.08
   0   1   0   -0.04    0.08
  -1  -1   0   95.18    1.85
  -1   1   0   97.81    1.89
  -1   1   0   98.46    1.95
   1   1   0   98.74    1.85
  -1   1   0  101.13    1.88
  -1   1   0   99.36    1.92
   1   1   0   98.35    1.98
   1   1   0   99.14    1.96
   2  -1   0  255.45    4.76
  -2  -1   0  250.52    4.83
   2  -1   0  259.75    4.65
  -2  -1   0  267.54    4.66
  -2   1   0  257.97    4.81
   2   1   0  257.41    4.64
  -2   1   0  252.27    4.68
   2   1   0  255.50    4.80
   3  -1   0  137.94    2.82
  -3  -1   0  143.44    2.91
   3  -1   0  141.88    2.68
  -3  -1   0  146.13    2.70
  -3   1   0  139.59    2.72
  -3   1   0  136.69    2.87
   3   1   0  138.53    2.67
   3   1   0  141.21    2.86
  -4  -1   0  246.58    4.86
   4  -1   0  244.80    4.58
  -4  -1   0  241.55    4.60
   4  -1   0  248.94    4.76
   4   1   0  243.14    4.77
   4   1   0  246.98    4.59
  -4   1   0  243.54    4.81
  -4   1   0  242.31    4.64
  -5  -1   0   19.95    0.87
   5  -1   0   19.36    0.68
   5  -1   0   18.69    0.80
  -5  -1   0   18.84    0.68
   5   1   0   18.82    0.80
   5   1   0   19.10    0.70
  -5   1   0   18.64    0.74
  -5   1   0   18.47    0.82
   6  -1   0  236.00    4.46
  -6  -1   0  232.98    4.51
   6  -1   0  228.94    4.66
  -6  -1   0  233.32    4.81
   6   1   0  219.37    4.61
   6   1   0  219.25    4.47
  -6   1   0  221.43    4.68
  -6   1   0  213.63    4.57
  -7  -1   0  242.74    5.11
   7  -1   0  240.28    4.69
   7  -1   0  244.65    4.95
  -7  -1   0  241.07    4.76
   7   1   0  218.97    4.72
  -7   1   0  238.60    4.98
   7   1   0  239.60    4.90
  -7   1   0  212.44    4.84
  -8  -1   0    0.65    0.35
  -8  -1   0    0.75    0.45
   8  -1   0    1.80    0.39
   8  -1   0    0.58    0.42
  -8   1   0    0.21    0.37
   8   1   0    0.24    0.35
   8   1   0    0.27    0.39
  -8   1   0    0.38    0.41
  -9  -1   0   55.46    1.71
  -9  -1   0   55.26    2.02
   9  -1   0   52.67    1.84
   9   1   0   57.27    1.76
  -9   1   0   53.13    1.89
   9   1   0   52.12    1.81
  10  -1   0   25.88    1.35
 -10  -1   0   26.01    1.49
  10   1   0   23.69    1.33
 -10   1   0   24.52    1.38
 -11  -1   0    2.64    0.79
  11  -1   0    2.86    0.68
  11   1   0    1.92    0.65
 -11   1   0    2.33    0.71
  12  -1   0   31.32    1.62
 -12  -1   0   35.91    1.87
 -12   1   0   31.62    1.71
  13  -1   0    0.73    0.66
 -13   1   0   -0.26    0.66
   0   2   0  101.85    2.09
   0   2   0  100.73    2.11
   0   2   0  101.68    2.16
   0   2   0   98.21    2.04
  -1   2   0  131.66    2.68
   1   2   0  135.87    2.79
   1   2   0  131.82    2.72
   1   2   0  133.55    2.61
  -1   2   0  134.09    2.72
  -1   2   0  133.40    2.64
  -1   2   0  131.47    2.66
   1   2   0  131.25    2.58
   2  -2   0   53.38    1.21
  -2  -2   0   54.12    1.41
  -2  -2   0   52.97    1.19
  -2   2   0   52.65    1.36
  -2   2   0   53.01    1.31
   2   2   0   52.70    1.18
  -2   2   0   52.74    1.26
   2   2   0   53.70    1.37
  -3  -2   0   23.76    0.68
  -3  -2   0   22.26    0.88
   3  -2   0   23.01    0.81
   3  -2   0   22.27    0.66
   3   2   0   23.66    0.87
  -3   2   0   23.46    0.86
  -3   2   0   23.23    0.72
   3   2   0   22.64    0.65
   4  -2   0   15.40    0.72
   4  -2   0   15.09    0.55
  -4  -2   0   15.33    0.55
  -4  -2   0   15.65    0.77
  -4   2   0   14.35    0.74
  -4   2   0   14.16    0.58
   4   2   0   15.37    0.54
   4   2   0   13.85    0.74
  -5  -2   0   26.75    0.81
   5  -2   0   27.54    1.02
  -5  -2   0   25.03    1.07
   5  -2   0   26.74    0.81
  -5   2   0   25.44    0.86
  -5   2   0   24.09    1.04
   5   2   0   25.84    1.05
   5   2   0   25.46    0.80
  -6  -2   0    1.30    0.38
  -6  -2   0    2.42    0.33
   6  -2   0    2.76    0.48
   6  -2   0    2.01    0.31
  -6   2   0    1.99    0.45
   6   2   0    2.45    0.33
   6   2   0    1.81    0.43
  -6   2   0    2.03    0.33
  -7  -2   0   17.78    1.09
   7  -2   0   17.38    0.98
   7   2   0   16.61    1.02
   7   2   0   15.94    0.75
  -7   2   0   17.35    1.03
   8  -2   0   32.24    1.40
  -8  -2   0   30.40    1.47
  -8   2   0   32.12    1.47
   8   2   0   29.61    1.39
  -9  -2   0    1.39    0.60
   9  -2   0    0.02    0.51
   9   2   0    0.30    0.51
  -9   2   0    1.30    0.59
 -10  -2   0   71.42    2.61
  10  -2   0   73.82    2.45
 -10   2   0   74.22    2.53
  10   2   0   75.85    2.46
 -11  -2   0    3.08    0.86
  11  -2   0    5.65    0.91
  11   2   0    5.06    0.88
 -11   2   0    4.08    0.91
  12  -2   0   10.36    1.14
 -12  -2   0    8.56    1.20
  12   2   0    8.35    1.08
 -12   2   0   10.84    1.26
   0   3   0   -0.35    0.19
   0   3   0   -0.35    0.18
   0   3   0   -0.17    0.15
   0   3   0   -0.15    0.21
  -1  -3   0   47.28    1.26
  -1   3   0   44.90    1.28
   1   3   0   48.72    1.37
  -1   3   0   47.06    1.33
  -1   3   0   47.43    1.28
  -1   3   0   47.28    1.35
   1   3   0   45.42    1.21
   1   3   0   48.92    1.43
   2  -3   0   25.94    0.85
  -2  -3   0   26.76    0.84
  -2  -3   0   26.23    1.04
   2   3   0   24.31    0.80
  -2   3   0   26.60    0.94
  -2   3   0   25.85    0.98
   2   3   0   27.02    1.02
  -2   3   0   26.10    0.91
   3  -3   0    1.10    0.25
  -3  -3   0    1.17    0.33
  -3  -3   0    0.81    0.22
   3  -3   0    0.90    0.30
   3   3   0    0.75    0.35
  -3   3   0    1.19    0.37
  -3   3   0    0.79    0.25
   3   3   0    1.00    0.23
  -4  -3   0    4.37    0.57
  -4  -3   0    5.15    0.41
   4  -3   0    5.44    0.42
   4  -3   0    6.34    0.60
  -4   3   0    5.51    0.47
   4   3   0    6.34    0.64
  -4   3   0    6.17    0.67
   4   3   0    4.80    0.40
   5  -3   0    4.70    0.56
  -5  -3   0    3.38    0.53
   5   3   0    4.24    0.60
  -5   3   0    5.50    0.69
  -6  -3   0    0.14    0.39
   6  -3   0    0.95    0.42
  -6   3   0    0.44    0.42
   6   3   0    0.73    0.45
  -7  -3   0    1.06    0.50
   7  -3   0    2.48    0.57
  -7   3   0    2.24    0.62
   7   3   0    1.84    0.59
   8  -3   0   -0.14    0.54
  -8  -3   0    0.31    0.53
   8   3   0   -0.13    0.52
  -8   3   0   -0.13    0.58
   9  -3   0   -0.21    0.57
  -9  -3   0    2.65    0.78
  -9   3   0    1.10    0.72
   9   3   0    1.56    0.68
 -10  -3   0    0.17    0.70
  10  -3   0    0.38    0.70
 -10   3   0    0.72    0.74
  10   3   0   -0.32    0.63
 -11  -3   0    3.89    1.04
  11  -3   0    3.01    0.88
 -11   3   0    3.88    1.03
  11   3   0    4.11    0.92
  12   3   0    0.80    1.26
   0   4   0   38.99    1.43
   0   4   0   40.70    1.31
   0   4   0   40.96    1.35
   0   4   0   39.56    1.28
  -1  -4   0    9.74    0.66
   1   4   0    9.80    0.62
   1   4   0    8.83    0.74
  -1   4   0   10.99    0.70
  -1   4   0    9.98    0.76
   1   4   0   10.08    0.81
  -1   4   0    9.06    0.72
  -1   4   0    8.72    0.67
   2  -4   0   24.98    1.01
  -2  -4   0   24.70    1.20
  -2  -4   0   26.61    1.01
  -2   4   0   23.05    1.03
  -2   4   0   24.95    1.07
   2   4   0   24.49    1.13
  -2   4   0   24.26    1.11
   3  -4   0   29.65    1.07
  -3  -4   0   28.03    1.36
   3  -4   0   29.11    1.20
  -3   4   0   27.56    1.24
   3   4   0   26.69    1.26
  -4  -4   0   40.68    1.70
   4  -4   0   39.71    1.50
   4   4   0   40.87    1.62
  -4   4   0   39.39    1.57
  -5  -4   0   28.23    1.48
   5  -4   0   25.85    1.27
   5   4   0   25.31    1.36
  -5   4   0   27.99    1.41
  -6  -4   0   31.54    1.64
   6  -4   0   31.34    1.48
   6   4   0   31.27    1.58
  -6   4   0   33.91    1.63
   7  -4   0   42.42    1.84
  -7  -4   0   43.48    2.02
   7   4   0   44.56    1.96
  -7   4   0   42.01    1.91
   8  -4   0   29.19    1.66
  -8  -4   0   32.81    1.85
   8   4   0   32.52    1.77
  -8   4   0   30.51    1.79
   9  -4   0    5.83    0.99
  -9  -4   0    3.63    0.94
  -9   4   0    5.74    1.07
   9   4   0    4.02    0.93
 -10  -4   0   16.04    2.27
  10   4   0   14.70    1.56
 -10   4   0   20.39    2.60
   0  -5   0    0.15    0.45
   0   5   0   -0.37    0.36
  -1  -5   0   82.59    2.65
  -1   5   0  104.39    3.29
   1   5   0   86.49    2.51
  -1   5   0   93.48    2.67
   2  -5   0   35.77    1.46
  -2  -5   0   34.82    1.68
   2   5   0   34.17    1.54
  -2   5   0   39.21    1.53
   3  -5   0    0.72    0.48
  -3  -5   0   -0.07    0.49
   3   5   0    0.55    0.52
  -3   5   0    1.11    0.53
  -4  -5   0   56.23    2.27
   4  -5   0   56.33    2.01
  -4   5   0   54.84    2.05
   4   5   0   55.20    2.12
  -5  -5   0    4.68    0.87
   5  -5   0    5.38    0.82
  -5   5   0    4.13    0.80
   5   5   0    5.32    0.89
  -6  -5   0   63.68    2.62
   6  -5   0   65.29    2.39
  -6   5   0   66.06    2.49
   6   5   0   69.31    2.56
  -7  -5   0   20.84    1.73
   7  -5   0   23.14    1.57
   7   5   0   23.95    1.76
  -7   5   0   23.87    1.73
  -2  -6   0   30.82    1.82
   2   6   0   28.67    1.65
  -3  -6   0   39.32    2.11
   3   6   0   40.58    1.92
  13   0  -1   -0.28    0.64
  12   0  -1    0.66    0.57
 -11   0   1    0.32    0.55
  11   0  -1    0.50    0.56
 -11   0   1   -0.25    0.53
 -10   0   1   -0.10    0.48
 -10   0   1    0.26    0.45
  10   0  -1   -0.29    0.44
  -9   0   1    0.02    0.37
  -9   0   1    0.30    0.44
   9   0  -1   -0.25    0.33
   9   0  -1    0.39    0.39
  -8   0   1   -0.67    0.26
  -8   0   1    0.47    0.39
   8   0  -1   -0.65    0.29
   8   0  -1   -0.12    0.29
  -7   0   1    0.18    0.27
   7   0  -1   -0.13    0.25
  -7   0   1    0.76    0.36
   7   0  -1   -0.19    0.26
   6   0  -1    0.21    0.25
  -6   0   1   -0.06    0.21
  -6   0   1   -0.47    0.22
   6   0  -1   -0.12    0.20
  -5   0   1   -0.23    0.15
  -5   0   1    0.20    0.23
   5   0  -1   -0.06    0.19
   5   0  -1   -0.16    0.16
  -4   0   1    0.79    0.23
  -4   0   1    0.40    0.16
   4   0  -1   -0.02    0.14
   4   0  -1    0.05    0.16
  -3   0   1    0.22    0.15
   3   0  -1    0.03    0.14
  -3   0   1    0.09    0.10
   3   0  -1    0.21    0.11
  -2   0   1   -0.23    0.15
  -2   0   1   -0.38    0.09
   2   0  -1   -0.29    0.12
   1   0  -1   -0.07    0.05
   1   0  -1   -0.07    0.08
  -1   0   1    0.09    0.09
   0   0   1   -0.07    0.04
   0   0  -1    0.03    0.04
   0   0   1   -0.04    0.05
   0   0  -1    0.10    0.05
  -1   0  -1   -0.02    0.04
   1   0   1    0.14    0.08
  -1   0  -1    0.00    0.06
  -2   0  -1   -0.06    0.12
  -2   0  -1   -0.01    0.10
   2   0   1    0.16    0.14
   2   0   1    0.08    0.09
   3   0   1    0.59    0.19
  -3   0  -1   -0.18    0.12
  -3   0  -1    0.04    0.12
   3   0   1   -0.01    0.12
  -4   0  -1   -0.05    0.19
   4   0   1    0.06    0.21
   4   0   1   -0.54    0.14
  -4   0  -1   -0.08    0.16
  -5   0  -1   -0.01    0.19
   5   0   1   -0.10    0.20
   5   0   1    0.27    0.22
  -5   0  -1   -0.03    0.20
   6   0   1   -0.21    0.22
   6   0   1    0.10    0.26
  -6   0  -1    0.04    0.25
  -6   0  -1   -0.11    0.23
   7   0   1   -0.27    0.27
   7   0   1    0.16    0.32
  -7   0  -1    0.36    0.32
  -7   0  -1    0.28    0.33
  -8   0  -1    0.00    0.35
   8   0   1    0.45    0.40
   8   0   1    0.03    0.33
  -8   0  -1    0.19    0.39
   9   0   1    0.62    0.45
  -9   0  -1   -0.50    0.39
  -9   0  -1   -0.69    0.39
   9   0   1   -0.26    0.36
  10   0   1    0.75    0.50
 -10   0  -1    0.41    0.50
  10   0   1   -0.28    0.42
  11   0   1    0.07    0.47
 -11   0  -1   -0.21    0.57
 -12   0  -1   -0.87    0.81
 -13  -1   1   16.89    1.52
  13  -1  -1   22.70    1.45
  12  -1  -1    7.86    0.96
 -12  -1   1    6.29    1.01
 -12   1   1    7.40    1.00
  11  -1  -1    1.65    0.62
 -11  -1   1    1.41    0.66
  11   1  -1    1.45    0.63
 -11   1   1    2.58    0.71
 -10  -1   1  159.11    4.10
  10  -1  -1  154.28    3.80
  10   1  -1  160.10    3.73
 -10   1   1  153.65    3.83
  10   1  -1  156.30    3.73
   9  -1  -1    0.21    0.45
  -9  -1   1    0.03    0.50
  -9   1   1   -0.05    0.42
   9   1  -1    0.08    0.38
   9   1  -1    0.20    0.42
  -9   1   1   -0.10    0.42
  -8  -1   1   20.53    1.20
   8  -1  -1   22.51    1.12
  -8  -1   1   22.70    0.93
   8   1  -1   18.36    0.95
  -8   1   1   21.06    1.11
   8   1  -1   22.57    1.06
  -8   1   1   23.11    1.12
   7  -1  -1   92.46    2.04
  -7  -1   1   93.11    2.51
   7  -1  -1   91.98    2.36
  -7  -1   1   91.39    2.12
   7   1  -1   86.84    2.21
  -7   1   1   85.53    2.34
  -7   1   1   90.72    2.32
   7   1  -1   90.28    2.26
  -6  -1   1    4.06    0.53
  -6  -1   1    4.39    0.40
   6  -1  -1    3.61    0.47
   6  -1  -1    3.55    0.34
   6   1  -1    3.70    0.41
  -6   1   1    4.36    0.48
   6   1  -1    3.34    0.42
  -6   1   1    4.04    0.48
  -5  -1   1   16.78    0.60
  -5  -1   1   17.14    0.85
   5  -1  -1   16.95    0.58
   5  -1  -1   16.21    0.76
   5   1  -1   16.09    0.71
   5   1  -1   16.95    0.66
  -5   1   1   17.65    0.71
  -5   1   1   17.09    0.73
  -4  -1   1  103.25    2.05
   4  -1  -1  102.65    2.28
  -4  -1   1  104.77    2.39
   4  -1  -1  103.27    2.01
   4   1  -1  101.20    2.12
  -4   1   1  104.14    2.20
   4   1  -1  102.62    2.23
  -4   1   1   98.28    2.24
   3  -1  -1  106.87    2.31
   3  -1  -1  112.93    2.07
  -3  -1   1  114.26    2.09
  -3  -1   1  106.74    2.39
  -3   1   1  110.21    2.24
   3   1  -1  110.66    2.29
   3   1  -1  110.29    2.18
  -3   1   1  107.84    2.30
  -2  -1   1  244.19    4.63
   2  -1  -1  240.76    4.54
  -2  -1   1  249.10    4.33
   2  -1  -1  249.09    4.34
   2   1  -1  243.89    4.46
   2   1  -1  239.17    4.54
  -2   1   1  236.74    4.50
  -2   1   1  242.64    4.55
   1  -1  -1   36.76    0.84
  -1  -1   1   37.20    0.91
   1   1  -1   36.93    0.89
   1   1  -1   37.45    0.75
   1   1  -1   37.16    0.83
  -1   1   1   37.87    0.88
  -1   1   1   38.37    0.78
  -1   1   1   37.37    0.88
   0   1   1    8.10    0.31
   0   1  -1    8.17    0.32
   0   1   1    9.21    0.32
   0   1   1    8.45    0.26
   0   1  -1    8.93    0.30
   0   1  -1    8.79    0.30
   0   1   1    8.19    0.33
   0   1  -1    8.39    0.30
  -1  -1  -1  136.42    2.61
   1  -1   1  138.76    2.61
  -1   1  -1  136.60    2.52
  -1   1  -1  137.16    2.68
  -1   1  -1  140.77    2.64
   1   1   1  137.83    2.69
   1   1   1  135.82    2.48
   1   1   1  139.88    2.69
   2  -1   1    3.56    0.24
  -2  -1  -1    4.26    0.25
   2   1   1    4.27    0.34
  -2   1  -1    3.91    0.26
  -2   1  -1    3.70    0.17
   2   1   1    3.68    0.16
   2   1   1    3.98    0.29
  -2   1  -1    3.59    0.30
   3  -1   1  142.79    2.85
  -3  -1  -1  141.74    2.80
   3  -1   1  144.49    2.79
  -3  -1  -1  142.89    2.92
  -3   1  -1  141.73    2.98
  -3   1  -1  141.83    2.69
   3   1   1  141.23    2.95
   3   1   1  140.31    2.66
  -4  -1  -1    6.26    0.39
  -4  -1  -1    6.65    0.47
   4  -1   1    6.83    0.41
   4  -1   1    6.81    0.44
   4   1   1    7.62    0.53
  -4   1  -1    6.43    0.55
  -4   1  -1    7.08    0.36
   4   1   1    6.65    0.36
   5  -1   1    7.86    0.53
  -5  -1  -1    8.26    0.57
   5  -1   1    7.69    0.50
  -5  -1  -1    7.73    0.48
   5   1   1    8.18    0.62
  -5   1  -1    8.03    0.48
   5   1   1    6.88    0.44
  -5   1  -1    7.40    0.60
   6  -1   1  182.26    3.80
  -6  -1  -1  175.69    3.90
  -6  -1  -1  175.62    3.70
   6  -1   1  184.62    3.70
   6   1   1  179.88    3.87
   6   1   1  168.78    3.61
  -6   1  -1  179.48    3.95
   7  -1   1    3.12    0.50
  -7  -1  -1    3.24    0.45
   7  -1   1    3.83    0.48
  -7  -1  -1    3.09    0.52
   7   1   1    3.12    0.51
  -7   1  -1    2.26    0.41
  -7   1  -1    2.98    0.54
   7   1   1    3.03    0.42
   8  -1   1   22.45    1.12
   8  -1   1   22.65    1.03
  -8  -1  -1   24.14    1.07
  -8  -1  -1   22.38    1.19
   8   1   1   21.07    0.98
   8   1   1   22.35    1.17
  -8   1  -1   20.64    1.16
  -9  -1  -1    8.61    0.79
   9  -1   1    9.64    0.89
  -9  -1  -1    8.07    0.87
   9   1   1    8.20    0.84
  -9   1  -1   10.13    0.97
  10  -1   1   51.99    1.88
 -10  -1  -1   49.90    1.98
  10   1   1   47.85    1.85
 -10   1  -1   45.83    1.91
 -11  -1  -1    8.07    1.03
  11  -1   1   10.05    1.00
  11   1   1   10.01    1.05
 -11   1  -1    9.95    1.10
  12  -1   1    1.81    0.70
  12   1   1    0.76    0.70
 -12   1  -1    2.22    0.79
 -13   1  -1   14.76    1.40
 -13  -2   1    4.41    1.09
 -13   2   1    9.58    1.26
 -12  -2   1   48.08    2.34
  12  -2  -1   56.01    2.24
 -12   2   1   54.07    2.26
  12   2  -1   55.60    2.17
 -11  -2   1   32.76    1.86
  11  -2  -1   30.78    1.66
  11   2  -1   31.74    1.63
 -11   2   1   31.41    1.71
 -10  -2   1    3.42    0.82
  10  -2  -1    3.96    0.76
 -10   2   1    4.91    0.83
  10   2  -1    3.95    0.76
  -9  -2   1  152.91    4.07
   9  -2  -1  161.01    3.91
   9   2  -1  153.29    3.80
  -9   2   1  160.35    3.94
   8  -2  -1   63.21    2.06
  -8  -2   1   66.90    2.25
   8   2  -1   62.43    2.01
  -8   2   1   59.72    2.04
  -7  -2   1   21.41    1.17
   7  -2  -1   21.23    1.10
  -7   2   1   21.62    0.98
   7   2  -1   22.08    1.10
  -7   2   1   20.80    1.10
   7   2  -1   21.23    0.89
  -6  -2   1  211.10    4.66
   6  -2  -1  210.87    4.48
  -6   2   1  209.82    4.32
  -6   2   1  204.68    4.48
   6   2  -1  209.83    4.19
   6   2  -1  209.45    4.46
   5  -2  -1   53.04    1.21
   5  -2  -1   51.41    1.52
  -5  -2   1   50.50    1.62
  -5  -2   1   52.25    1.21
  -5   2   1   49.61    1.52
  -5   2   1   51.77    1.40
   5   2  -1   53.08    1.53
   5   2  -1   51.58    1.32
   4  -2  -1  161.31    3.42
   4  -2  -1  165.08    3.09
  -4  -2   1  163.53    3.57
  -4  -2   1  165.53    3.09
   4   2  -1  160.51    3.43
  -4   2   1  161.77    3.30
   4   2  -1  157.60    3.20
  -4   2   1  161.59    3.45
  -3  -2   1  183.79    3.41
   3  -2  -1  181.25    3.41
   3  -2  -1  184.35    3.69
  -3  -2   1  181.14    3.81
  -3   2   1  185.76    3.62
   3   2  -1  181.00    3.52
   3   2  -1  180.13    3.71
  -3   2   1  180.61    3.72
   2  -2  -1   51.42    1.26
  -2  -2   1   49.70    1.08
  -2  -2   1   50.97    1.36
   2   2  -1   49.83    1.31
   2   2  -1   49.50    1.17
  -2   2   1   47.50    1.23
  -2   2   1   49.57    1.30
  -2   2   1   49.61    1.11
  -1  -2   1  201.97    3.97
  -1   2   1  197.44    3.84
   1   2  -1  200.71    3.82
  -1   2   1  199.43    3.92
   1   2  -1  203.14    3.77
  -1   2   1  205.13    3.82
   1   2  -1  200.45    3.93
  -1   2   1  200.75    3.93
   0   2  -1  235.20    4.45
   0   2   1  238.26    4.50
   0   2   1  240.31    4.58
   0   2  -1  236.71    4.51
   0   2   1  238.73    4.49
   0   2   1  232.34    4.40
   0   2  -1  235.21    4.51
   0   2  -1  236.85    4.47
  -1  -2  -1  176.21    3.42
  -1   2  -1  179.69    3.42
  -1   2  -1  174.56    3.48
   1   2   1  176.57    3.58
   1   2   1  174.90    3.50
   1   2   1  177.59    3.32
  -1   2  -1  180.31    3.48
  -1   2  -1  175.92    3.44
   2  -2   1   78.76    1.73
  -2  -2  -1   79.84    1.73
  -2   2  -1   80.74    1.88
  -2   2  -1   80.62    1.69
   2   2   1   77.97    1.60
   2   2   1   82.51    1.94
  -2   2  -1   81.31    1.82
   2   2   1   79.50    1.88
   3  -2   1    1.84    0.24
  -3  -2  -1    2.31    0.35
  -3  -2  -1    2.68    0.28
   3   2   1    1.96    0.19
  -3   2  -1    2.17    0.21
  -3   2  -1    2.27    0.32
   3   2   1    2.04    0.34
  -3   2  -1    1.77    0.34
   4  -2   1  520.45    9.27
  -4  -2  -1  516.91    9.27
  -4  -2  -1  513.74    9.59
   4  -2   1  510.32    9.44
   4   2   1  492.57    9.09
  -4   2  -1  501.45    9.57
   4   2   1  509.55    9.56
  -4   2  -1  486.20    9.15
  -5  -2  -1   87.49    2.29
   5  -2   1   85.11    2.15
  -5  -2  -1   89.09    2.01
   5  -2   1   89.19    1.99
   5   2   1   85.80    2.27
  -5   2  -1   90.94    2.33
  -5   2  -1   84.54    1.89
   5   2   1   83.68    1.84
   6  -2   1   16.28    0.88
  -6  -2  -1   15.05    0.92
  -6  -2  -1   16.00    0.74
   6  -2   1   17.17    0.76
  -6   2  -1   14.88    0.96
   6   2   1   14.42    0.96
  -7  -2  -1  170.43    3.63
  -7  -2  -1  171.89    4.02
   7  -2   1  169.71    3.87
   7  -2   1  175.45    3.65
   7   2   1  165.02    3.94
  -7   2  -1  165.47    4.01
  -8  -2  -1   -0.37    0.41
   8  -2   1   -0.17    0.44
   8   2   1    0.37    0.51
  -8   2  -1    0.26    0.51
   9  -2   1   51.71    1.93
  -9  -2  -1   53.00    2.09
   9   2   1   53.26    1.99
  -9   2  -1   52.39    2.05
  10  -2   1   78.06    2.57
 -10  -2  -1   80.34    2.74
  10   2   1   81.43    2.60
 -10   2  -1   81.19    2.69
  11  -2   1   37.58    1.84
 -11  -2  -1   38.38    1.96
 -11   2  -1   44.92    2.05
  11   2   1   39.35    1.89
  12  -2   1   57.21    2.36
 -12   2  -1   66.06    2.61
  12   2   1   61.35    2.45
  12   3  -1   24.08    1.78
 -11  -3   1   21.17    1.76
  11  -3  -1   22.95    1.63
  11   3  -1   19.83    1.61
 -11   3   1   21.39    1.66
  10  -3  -1   81.28    2.71
 -10  -3   1   81.51    2.98
 -10   3   1   74.40    2.73
  10   3  -1   79.68    2.71
   9  -3  -1   15.22    1.27
  -9  -3   1   17.72    1.40
  -9   3   1   17.21    1.36
   9   3  -1   16.21    1.28
   8  -3  -1   58.46    2.10
  -8  -3   1   58.75    2.27
   8   3  -1   58.68    2.11
  -8   3   1   58.72    2.16
  -7  -3   1   76.04    2.47
   7  -3  -1   76.04    2.32
   7   3  -1   73.47    2.30
  -7   3   1   75.86    2.36
  -6  -3   1    0.66    0.45
   6  -3  -1    0.04    0.39
   6   3  -1    1.59    0.49
  -6   3   1    1.12    0.47
   5  -3  -1  121.87    2.94
  -5  -3   1  121.70    3.14
  -5   3   1  120.92    2.77
   5   3  -1  118.26    2.96
   5   3  -1  121.80    2.64
  -5   3   1  124.92    3.02
  -4  -3   1   49.48    1.64
   4  -3  -1   47.41    1.20
   4  -3  -1   47.64    1.48
   4   3  -1   48.23    1.55
  -4   3   1   46.39    1.38
   4   3  -1   47.52    1.29
  -4   3   1   50.09    1.56
   3  -3  -1  187.16    3.66
   3  -3  -1  191.64    3.93
  -3  -3   1  183.67    3.61
  -3  -3   1  185.90    4.10
   3   3  -1  185.58    4.00
   3   3  -1  184.43    3.72
  -3   3   1  190.61    3.99
  -3   3   1  187.21    3.88
  -2  -3   1  348.76    6.37
  -2  -3   1  347.89    6.77
   2  -3  -1  345.44    6.56
   2   3  -1  343.42    6.66
  -2   3   1  336.55    6.41
  -2   3   1  335.55    6.59
   2   3  -1  339.10    6.44
  -2   3   1  345.45    6.64
  -1  -3   1   34.54    1.14
  -1   3   1   33.35    1.00
   1   3  -1   33.22    0.99
   1   3  -1   31.67    0.94
  -1   3   1   33.34    1.01
   1   3  -1   32.97    1.10
  -1   3   1   32.34    1.07
  -1   3   1   33.52    1.11
   0   3  -1  320.91    6.08
   0   3  -1  312.61    6.11
   0   3   1  314.25    6.04
   0   3  -1  315.04    6.01
   0   3  -1  311.23    5.99
   0   3   1  321.47    6.19
   0   3   1  314.26    6.04
   0   3   1  312.83    5.94
  -1  -3  -1   37.52    1.08
   1   3   1   36.90    1.24
  -1   3  -1   37.11    1.11
  -1   3  -1   34.36    1.10
   1   3   1   36.73    1.15
   1   3   1   34.34    0.97
  -1   3  -1   36.22    1.13
  -1   3  -1   37.38    1.12
  -2  -3  -1   25.54    0.84
   2  -3   1   23.47    0.84
  -2   3  -1   25.37    0.93
  -2   3  -1   22.89    0.94
   2   3   1   26.26    1.05
   2   3   1   25.81    0.98
  -2   3  -1   24.32    0.85
   2   3   1   24.31    0.74
  -3  -3  -1  259.72    5.05
  -3  -3  -1  266.12    5.45
   3  -3   1  261.14    5.06
  -3   3  -1  251.71    5.03
   3   3   1  253.69    5.30
  -3   3  -1  261.16    5.24
  -3   3  -1  261.26    5.32
   3   3   1  273.62    5.00
   4  -3   1   43.22    1.43
   4  -3   1   45.23    1.26
  -4  -3  -1   45.15    1.57
  -4  -3  -1   44.22    1.25
  -4   3  -1   45.24    1.53
   4   3   1   43.43    1.50
  -5  -3  -1  185.07    3.81
   5  -3   1  182.45    3.75
  -5  -3  -1  177.26    4.20
   5  -3   1  182.63    4.03
   5   3   1  178.59    4.14
  -5   3  -1  185.02    4.18
   6  -3   1  201.30    4.45
  -6  -3  -1  200.85    4.66
   6   3   1  195.86    4.57
  -6   3  -1  202.57    4.63
  -7  -3  -1    0.56    0.47
   7  -3   1    1.44    0.53
   7   3   1    0.58    0.54
  -7   3  -1    1.32    0.61
   8  -3   1  119.05    3.24
  -8  -3  -1  126.98    3.49
   8   3   1  114.02    3.31
  -8   3  -1  116.50    3.41
   9  -3   1   19.43    1.33
  -9  -3  -1   19.12    1.49
   9   3   1   19.77    1.44
  -9   3  -1   19.73    1.58
  10  -3   1   12.47    1.27
 -10  -3  -1   14.92    1.42
 -10   3  -1   19.19    1.61
  10   3   1   16.55    1.42
  11  -3   1   80.72    2.93
 -11  -3  -1   81.50    3.14
 -11   3  -1   82.90    3.06
  11   3   1   84.07    2.95
  10  -4  -1    1.21    0.83
 -10  -4   1    0.38    0.88
  10   4  -1   -0.28    0.77
 -10   4   1    1.42    0.91
   9  -4  -1   40.70    1.99
  -9  -4   1   41.01    2.17
   9   4  -1   41.14    2.08
  -9   4   1   41.25    2.07
   8  -4  -1   26.58    1.57
  -8  -4   1   28.09    1.78
  -8   4   1   25.67    1.63
   8   4  -1   25.93    1.64
   7  -4  -1   22.95    1.40
  -7  -4   1   24.58    1.58
  -7   4   1   21.14    1.43
   7   4  -1   23.23    1.48
   6  -4  -1   43.02    1.71
  -6  -4   1   41.50    1.90
   6   4  -1   41.47    1.78
  -6   4   1   41.41    1.78
  -5  -4   1    3.33    0.67
   5  -4  -1    3.22    0.60
   5   4  -1    3.48    0.67
  -5   4   1    2.13    0.60
   4  -4  -1  133.75    3.29
  -4  -4   1  138.82    3.57
   4   4  -1  135.33    3.39
  -4   4   1  142.05    3.41
  -3  -4   1   42.50    1.67
   3  -4  -1   43.76    1.49
   3   4  -1   40.68    1.56
  -3   4   1   43.92    1.48
   3   4  -1   50.80    1.75
  -3   4   1   43.30    1.55
  -2  -4   1   20.09    1.10
   2  -4  -1   20.81    0.96
   2   4  -1   20.68    1.07
  -2   4   1   20.87    1.03
  -2   4   1   23.18    1.22
  -2   4   1   20.48    1.00
   2   4  -1   20.09    0.87
  -1  -4   1  114.25    2.87
  -1   4   1  112.44    2.65
  -1   4   1  115.89    2.64
  -1   4   1  115.86    2.84
  -1   4   1  113.10    2.73
   1   4  -1  111.12    2.76
   1   4  -1  114.64    2.63
   0  -4   1   16.00    0.89
   0  -4  -1   15.81    0.84
   0   4   1   14.12    0.91
   0   4  -1   16.28    0.90
   0   4  -1   15.21    0.79
   0   4  -1   15.39    0.87
   0   4  -1   16.23    0.81
   0   4   1   15.17    0.82
   0   4   1   15.35    0.75
  -1  -4  -1   55.13    1.57
  -1   4  -1   52.36    1.62
  -1   4  -1   53.36    1.58
   1   4   1   55.13    1.65
  -1   4  -1   51.83    1.59
   1   4   1   52.01    1.76
  -1   4  -1   52.15    1.59
  -2  -4  -1  115.37    2.67
  -2  -4  -1  119.16    3.05
   2  -4   1  118.77    2.73
  -2   4  -1  117.56    2.85
   2   4   1  114.22    3.02
   2   4   1  115.17    2.88
  -2   4  -1  119.03    2.83
   3  -4   1   38.32    1.27
  -3  -4  -1   39.48    1.59
  -3   4  -1   38.07    1.41
   3   4   1   37.03    1.46
  -3   4  -1   36.79    1.45
  -4  -4  -1   92.73    2.77
   4  -4   1  100.42    2.61
   4   4   1   94.29    2.66
  -4   4  -1   96.07    2.67
  -5  -4  -1   18.02    1.26
   5  -4   1   17.91    1.13
  -5   4  -1   17.51    1.21
   5   4   1   17.43    1.19
  -6  -4  -1   10.52    1.04
   6  -4   1   10.72    0.97
   6   4   1   13.17    1.14
  -6   4  -1   12.02    1.17
  -7  -4  -1   33.16    1.81
   7  -4   1   36.12    1.69
  -7   4  -1   33.61    1.77
   7   4   1   35.44    1.81
  -8  -4  -1    5.09    0.94
   8  -4   1    5.80    0.92
  -8   4  -1    4.72    0.98
   8   4   1    4.63    0.93
  -9  -4  -1   33.56    2.02
   9  -4   1   30.14    1.79
  -9   4  -1   32.09    1.98
   9   4   1   29.65    1.93
   8  -5  -1    0.66    0.81
   7  -5  -1    9.32    1.10
  -7  -5   1    8.93    1.18
   7   5  -1    6.85    1.06
  -7   5   1   10.14    1.21
  -6  -5   1    0.99    0.73
   6  -5  -1    2.21    0.71
  -6   5   1    2.41    0.75
   6   5  -1    1.08    0.69
   5  -5  -1   14.65    1.17
  -5  -5   1   15.22    1.36
  -5   5   1   15.74    1.26
   5   5  -1   13.74    1.21
  -4  -5   1    4.73    0.83
   4  -5  -1    7.54    0.84
   4   5  -1    6.03    0.87
  -4   5   1    7.17    0.88
   3  -5  -1    0.62    0.48
  -3  -5   1    0.91    0.57
  -3   5   1    0.08    0.47
   3   5  -1    0.11    0.50
   2  -5  -1   43.68    1.62
  -2  -5   1   44.00    1.85
  -2   5   1   43.85    1.67
   2   5  -1   45.98    1.76
   1  -5  -1    0.08    0.36
  -1  -5   1    0.43    0.48
  -1   5   1   -0.40    0.40
   1   5  -1    0.33    0.45
   0  -5  -1    2.46    0.52
   0  -5   1    2.18    0.56
   0   5   1    2.70    0.55
   0   5  -1    2.19    0.54
   0   5   1    2.57    0.59
   0   5  -1    1.68    0.48
   1  -5   1   14.86    1.03
  -1  -5  -1   14.15    1.13
  -1   5  -1   12.56    0.93
   1   5   1   13.42    0.99
  -2  -5  -1    0.93    0.53
  -2   5  -1    1.41    0.51
   2   5   1    1.83    0.56
  -2   5  -1    1.68    0.52
   3  -5   1    1.59    0.54
  -3  -5  -1    0.69    0.58
   3   5   1    1.37    0.57
  -3   5  -1    0.89    0.52
  -4  -5  -1    6.36    0.93
   4  -5   1    7.07    0.86
  -4   5  -1    5.23    0.81
   4   5   1    6.99    0.92
   5  -5   1    2.37    0.70
  -5  -5  -1    2.39    0.76
  -5   5  -1    2.02    0.74
   5   5   1    3.12    0.80
   6  -5   1    5.51    0.89
  -6  -5  -1    5.06    0.94
  -6   5  -1    6.19    1.03
   6   5   1    4.72    0.93
   7  -5   1   -0.15    0.65
  -7  -5  -1   -0.80    0.63
   7   5   1    0.47    0.75
  -7   5  -1    0.18    0.75
  -3  -6   1    3.90    0.85
   3   6  -1    2.60    0.79
   2   6  -1    1.39    0.70
  -1  -6  -1    0.87    0.70
  -2  -6  -1    1.67    0.79
   3  -6   1    0.60    0.66
  -3  -6  -1    0.71    0.71
   3   6   1   -0.58    0.60
  13   0  -2   22.73    1.48
  12   0  -2   99.14    2.89
  11   0  -2    1.22    0.58
 -11   0   2    1.54    0.69
 -10   0   2   10.70    0.88
  10   0  -2    9.98    0.90
 -10   0   2    9.92    1.03
  -9   0   2   72.67    2.33
   9   0  -2   73.10    2.15
  -9   0   2   73.08    2.02
   9   0  -2   73.04    1.92
  -8   0   2   22.10    0.94
   8   0  -2   20.52    0.88
  -8   0   2   20.50    1.15
   8   0  -2   20.50    1.03
  -7   0   2  174.39    3.71
   7   0  -2  179.84    3.87
  -7   0   2  183.99    4.10
   7   0  -2  179.29    3.63
   6   0  -2    0.02    0.20
   6   0  -2    0.28    0.25
  -6   0   2    0.02    0.20
  -6   0   2    0.30    0.31
   5   0  -2  580.70   10.32
  -5   0   2  576.04   10.39
   5   0  -2  557.33   10.53
  -5   0   2  578.78   10.73
   4   0  -2  612.33   11.27
  -4   0   2  624.69   11.13
  -4   0   2  615.64   11.42
   4   0  -2  631.84   11.08
  -3   0   2    7.29    0.31
   3   0  -2    7.94    0.40
   3   0  -2    8.43    0.31
  -3   0   2    7.67    0.44
   2   0  -2  445.56    7.97
  -2   0   2  449.00    8.05
   2   0  -2  454.72    7.86
  -2   0   2  423.76    7.87
  -1   0   2    4.33    0.22
  -1   0   2    3.91    0.17
   1   0  -2    3.68    0.18
   0   0   2  251.77    4.60
   0   0   2  249.65    4.55
   0   0  -2  256.98    4.59
   0   0  -2  257.65    4.53
   1   0   2   11.25    0.31
  -1   0  -2   11.44    0.31
   1   0   2   11.14    0.42
  -1   0  -2   10.83    0.40
  -2   0  -2   -0.11    0.18
   2   0   2    0.33    0.22
  -2   0  -2   -0.39    0.11
  -2   0  -2   -0.48    0.10
  -3   0  -2  444.73    8.27
   3   0   2  454.54    8.08
   3   0   2  437.22    8.27
  -3   0  -2  454.81    8.11
   4   0   2  176.45    3.40
  -4   0  -2  171.94    3.57
   4   0   2  168.84    3.55
  -4   0  -2  172.88    3.44
   5   0   2  284.01    5.41
   5   0   2  282.19    5.58
  -5   0  -2  275.27    5.60
  -5   0  -2  283.78    5.49
   6   0   2   49.69    1.41
   6   0   2   48.33    1.51
  -6   0  -2   48.45    1.47
  -6   0  -2   50.84    1.56
  -7   0  -2    8.67    0.69
   7   0   2    9.74    0.70
  -7   0  -2    8.88    0.74
   7   0   2   10.34    0.78
  -8   0  -2  246.87    5.35
  -8   0  -2  253.25    5.32
   8   0   2  251.12    5.16
   8   0   2  246.12    5.25
   9   0   2  137.95    3.37
  -9   0  -2  135.10    3.44
   9   0   2  136.90    3.24
 -10   0  -2   10.48    1.00
  10   0   2   10.88    0.99
  10   0   2    7.27    0.76
 -11   0  -2  120.86    3.39
  11   0   2  121.24    3.30
 -12   0  -2   41.95    1.99
 -13  -1   2   12.22    1.37
  13  -1  -2   12.58    1.19
  12  -1  -2   16.04    1.24
 -12  -1   2   12.31    1.30
 -12   1   2   16.02    1.28
  11  -1  -2  119.43    3.20
 -11  -1   2  116.62    3.50
  11   1  -2  113.29    3.11
 -11   1   2  118.05    3.21
 -10  -1   2   86.06    2.79
  10  -1  -2   88.90    2.57
 -10   1   2   85.44    2.54
  10   1  -2   85.98    2.50
 -10   1   2   83.49    2.66
  10   1  -2   91.04    2.45
   9  -1  -2  116.48    2.92
  -9  -1   2  110.01    3.14
  -9   1   2  113.73    2.88
   9   1  -2  114.98    2.79
   9   1  -2  108.94    2.84
  -9   1   2  101.16    2.97
  -8  -1   2   97.00    2.41
   8  -1  -2   81.28    2.31
  -8  -1   2   86.91    2.57
   8   1  -2   82.64    2.20
  -8   1   2   86.32    2.30
   8   1  -2   82.96    2.25
  -8   1   2   80.02    2.39
   7  -1  -2   -0.09    0.31
  -7  -1   2    0.34    0.23
  -7  -1   2    0.31    0.37
   7  -1  -2    0.37    0.21
  -7   1   2    0.31    0.32
  -7   1   2   -0.14    0.31
   7   1  -2   -0.13    0.28
   7   1  -2   -0.10    0.28
  -6  -1   2  241.31    4.64
  -6  -1   2  249.94    5.22
   6  -1  -2  247.89    5.03
   6  -1  -2  247.83    4.56
  -6   1   2  245.47    4.93
   6   1  -2  246.47    4.87
   6   1  -2  240.42    4.85
  -6   1   2  240.09    4.98
  -5  -1   2   96.51    2.42
   5  -1  -2   95.95    2.27
  -5  -1   2   94.28    1.93
   5  -1  -2   95.79    1.86
  -5   1   2   93.37    2.17
  -5   1   2   96.70    2.23
   5   1  -2   94.90    2.13
   5   1  -2   94.26    2.11
   4  -1  -2   81.34    1.92
  -4  -1   2   78.30    1.57
  -4  -1   2   79.73    2.03
   4   1  -2   80.19    1.76
  -4   1   2   81.01    1.83
  -4   1   2   81.73    1.86
   4   1  -2   80.84    1.81
   3  -1  -2  367.64    7.01
  -3  -1   2  382.52    7.16
   3   1  -2  377.43    6.93
   3   1  -2  370.44    6.87
  -3   1   2  384.05    6.98
  -3   1   2  379.46    6.96
   2  -1  -2    6.95    0.36
  -2  -1   2    6.26    0.40
   2   1  -2    6.88    0.31
  -2   1   2    6.58    0.34
   2   1  -2    6.69    0.35
  -2   1   2    6.32    0.34
   1  -1  -2  317.88    5.81
  -1  -1   2  318.92    5.89
   1   1  -2  321.75    5.81
  -1   1   2  320.12    5.87
   1   1  -2  318.86    5.84
   1   1  -2  311.27    5.68
  -1   1   2  322.76    5.85
  -1   1   2  326.19    5.72
   0  -1   2  507.50    9.23
   0  -1   2  511.49    9.18
   0  -1  -2  507.07    9.11
   0  -1  -2  517.42    9.25
   0   1  -2  517.51    9.22
   0   1  -2  519.14    9.22
   0   1   2  525.64    9.24
   0   1   2  518.17    9.29
   1  -1   2  806.01   14.40
   1  -1   2  801.93   14.22
  -1  -1  -2  821.73   14.41
  -1   1  -2  815.74   14.40
   1   1   2  808.93   14.50
  -1   1  -2  788.66   14.49
   1   1   2  833.14   14.47
   2  -1   2  756.04   13.75
  -2  -1  -2  789.85   13.78
   2   1   2  757.07   13.92
  -2   1  -2  787.09   13.77
  -2   1  -2  750.34   13.92
   2   1   2  786.10   13.84
  -3  -1  -2  164.13    3.36
   3  -1   2  170.19    3.32
  -3  -1  -2  169.83    3.32
  -3   1  -2  168.92    3.31
   3   1   2  170.48    3.09
  -3   1  -2  161.70    3.06
  -3   1  -2  167.87    3.51
   3   1   2  167.38    3.49
   4  -1   2   65.78    1.61
  -4  -1  -2   67.90    1.68
   4  -1   2   66.71    1.61
  -4  -1  -2   68.15    1.63
  -4   1  -2   67.26    1.80
  -4   1  -2   66.58    1.44
   4   1   2   67.36    1.45
   4   1   2   68.75    1.79
  -5  -1  -2  191.38    3.91
   5  -1   2  190.74    3.90
   5  -1   2  189.82    3.87
  -5  -1  -2  195.37    3.98
   5   1   2  191.98    4.07
   5   1   2  177.38    3.69
  -5   1  -2  194.07    4.13
  -6  -1  -2   13.17    0.76
  -6  -1  -2   13.77    0.74
   6  -1   2   14.13    0.76
   6  -1   2   14.02    0.75
   6   1   2   12.96    0.84
  -6   1  -2   15.52    0.89
   6   1   2   13.07    0.66
   7  -1   2  144.82    3.31
  -7  -1  -2  145.68    3.42
  -7  -1  -2  144.56    3.31
   7  -1   2  140.99    3.25
   7   1   2  142.48    3.13
   7   1   2  147.57    3.45
  -7   1  -2  148.57    3.53
   8  -1   2   17.72    0.99
   8  -1   2   17.97    1.02
  -8  -1  -2   18.12    1.02
  -8  -1  -2   16.21    1.05
  -8   1  -2   17.81    1.16
   8   1   2   15.75    1.09
  -9  -1  -2   34.01    1.45
   9  -1   2   36.79    1.51
   9  -1   2   35.92    1.44
  -9  -1  -2   35.25    1.59
   9   1   2   36.66    1.57
  -9   1  -2   34.94    1.65
 -10  -1  -2  139.02    3.72
  10  -1   2  136.58    3.54
 -10  -1  -2  139.80    3.54
 -10   1  -2  141.82    3.74
  10   1   2  140.51    3.63
  11  -1   2    0.27    0.59
 -11   1  -2    1.22    0.70
  11   1   2   -0.30    0.62
  12  -1   2   33.77    1.71
  12   1   2   31.96    1.79
 -12   1  -2   34.84    1.87
 -13   1  -2   26.12    1.79
 -13  -2   2    2.86    1.01
 -13   2   2    6.82    1.15
  12  -2  -2    8.86    1.07
 -12  -2   2    9.11    1.24
 -12   2   2    8.34    1.10
  12   2  -2    8.09    1.03
 -11  -2   2    0.53    0.71
  11  -2  -2    0.43    0.65
  11   2  -2    0.09    0.62
 -11   2   2    0.41    0.63
  10  -2  -2   21.78    1.37
 -10  -2   2   21.18    1.48
 -10   2   2   21.13    1.35
  10   2  -2   21.93    1.32
   9  -2  -2    4.53    0.72
  -9  -2   2    4.97    0.83
   9   2  -2    4.62    0.70
   9   2  -2    3.52    0.58
  -9   2   2    4.18    0.74
  -8  -2   2    8.56    0.90
   8  -2  -2    7.19    0.78
   8   2  -2    9.60    0.75
   8   2  -2    8.50    0.81
  -8   2   2   10.08    0.90
  -8   2   2    7.04    0.76
   7  -2  -2   58.11    1.88
  -7  -2   2   60.72    2.05
  -7   2   2   59.35    1.79
  -7   2   2   61.01    1.87
   7   2  -2   58.64    1.80
   7   2  -2   61.92    1.69
   6  -2  -2    7.19    0.65
  -6  -2   2    6.42    0.70
  -6   2   2    7.55    0.70
   6   2  -2    7.56    0.55
   6   2  -2    6.84    0.64
  -6   2   2    7.24    0.61
   5  -2  -2  100.29    2.44
  -5  -2   2   97.34    2.57
  -5  -2   2  105.01    2.00
  -5   2   2   96.99    2.40
  -5   2   2  100.85    2.34
   5   2  -2   97.84    2.37
   5   2  -2   97.88    2.22
  -4  -2   2  122.56    2.93
   4  -2  -2  126.39    2.81
   4  -2  -2  131.31    2.38
  -4   2   2  125.81    2.73
   4   2  -2  125.18    2.78
  -4   2   2  123.87    2.79
   4   2  -2  124.83    2.62
  -3  -2   2   11.82    0.66
   3  -2  -2   12.76    0.39
   3  -2  -2   13.04    0.61
  -3  -2   2   12.23    0.36
   3   2  -2   11.74    0.52
   3   2  -2   11.38    0.61
  -3   2   2   12.36    0.61
  -3   2   2   12.77    0.58
   2  -2  -2  114.71    2.39
  -2  -2   2  108.14    2.50
  -2   2   2  115.57    2.45
  -2   2   2  113.84    2.21
   2   2  -2  110.33    2.16
  -2   2   2  117.24    2.46
   2   2  -2  114.13    2.34
   2   2  -2  113.16    2.45
   1  -2  -2   12.78    0.50
  -1  -2   2   14.01    0.59
   1   2  -2   13.71    0.53
  -1   2   2   13.54    0.57
  -1   2   2   13.02    0.58
   1   2  -2   14.07    0.60
  -1   2   2   13.96    0.49
   1   2  -2   13.55    0.46
   0  -2  -2   55.88    1.35
   0  -2   2   53.64    1.30
   0   2  -2   57.65    1.29
   0   2   2   55.65    1.41
   0   2  -2   54.37    1.31
   0   2  -2   53.66    1.35
   0   2   2   56.19    1.32
  -1  -2  -2   69.56    1.61
   1  -2   2   70.63    1.61
   1   2   2   70.49    1.67
  -1   2  -2   71.08    1.63
  -1   2  -2   69.81    1.52
  -1   2  -2   72.79    1.66
   1   2   2   73.29    1.74
   1   2   2   70.76    1.43
  -2  -2  -2   16.54    0.62
   2  -2   2   17.31    0.64
  -2   2  -2   16.41    0.51
   2   2   2   17.88    0.75
   2   2   2   18.04    0.75
  -2   2  -2   18.81    0.75
   2   2   2   16.52    0.45
  -2   2  -2   18.13    0.68
  -3  -2  -2   54.57    1.36
   3  -2   2   53.08    1.35
  -3   2  -2   54.54    1.43
   3   2   2   51.28    1.09
   3   2   2   52.66    1.53
  -3   2  -2   54.49    1.54
   3   2   2   56.63    1.54
  -4  -2  -2    6.47    0.45
   4  -2   2    7.36    0.50
   4  -2   2    6.18    0.51
  -4  -2  -2    6.71    0.55
   4   2   2    8.27    0.69
   4   2   2    6.62    0.30
  -4   2  -2    8.45    0.71
  -4   2  -2    6.61    0.32
  -4   2  -2    6.80    0.52
  -5  -2  -2    2.09    0.40
   5  -2   2    1.31    0.30
  -5  -2  -2    2.18    0.34
   5  -2   2    1.03    0.34
  -5   2  -2    1.31    0.43
   5   2   2    1.48    0.44
  -6  -2  -2   52.60    1.72
   6  -2   2   54.99    1.55
   6  -2   2   52.95    1.63
  -6  -2  -2   52.20    1.53
   6   2   2   50.46    1.76
  -6   2  -2   55.11    1.85
  -7  -2  -2    1.09    0.46
   7  -2   2    1.25    0.42
   7  -2   2    1.62    0.49
  -7  -2  -2    1.37    0.37
   7   2   2    1.09    0.52
  -7   2  -2    1.13    0.53
   8  -2   2   21.44    1.19
  -8  -2  -2   19.82    1.24
  -8  -2  -2   18.86    1.01
   8   2   2   20.39    1.28
  -8   2  -2   21.73    1.34
  -9  -2  -2   25.35    1.46
   9  -2   2   23.23    1.34
   9   2   2   23.29    1.46
  -9   2  -2   24.95    1.51
 -10  -2  -2   -0.22    0.59
  10  -2   2    0.01    0.60
  10   2   2   -0.47    0.63
 -10   2  -2    0.07    0.66
  11  -2   2    0.47    0.68
 -11  -2  -2   -0.39    0.64
  11   2   2    0.24    0.68
 -11   2  -2   -0.36    0.67
  12  -2   2   11.87    1.31
 -12  -2  -2    6.65    1.15
  12   2   2    9.85    1.21
 -12   2  -2    8.89    1.23
  12   3  -2    0.47    0.79
 -12   3   2    0.29    0.79
  11  -3  -2    0.25    0.70
 -11  -3   2    2.50    0.91
 -11   3   2    0.48    0.72
  11   3  -2    1.09    0.72
  10  -3  -2    2.87    0.80
 -10  -3   2    3.46    0.89
  10   3  -2    2.28    0.77
 -10   3   2    3.41    0.86
  -9  -3   2    0.18    0.62
   9  -3  -2   -0.06    0.57
  -9   3   2   -0.45    0.53
   9   3  -2   -0.53    0.56
   8  -3  -2    3.09    0.68
  -8  -3   2    2.45    0.72
  -8   3   2    3.87    0.73
   8   3  -2    2.87    0.69
  -7  -3   2    0.36    0.50
   7  -3  -2    0.95    0.49
   7   3  -2    0.15    0.47
  -7   3   2    0.03    0.47
   6  -3  -2   29.90    1.32
  -6  -3   2   30.75    1.48
   6   3  -2   32.10    1.12
   6   3  -2   32.37    1.37
  -6   3   2   32.01    1.23
  -6   3   2   32.78    1.37
  -5  -3   2    0.04    0.35
   5  -3  -2    0.18    0.32
   5   3  -2   -0.12    0.35
  -5   3   2    0.09    0.29
   5   3  -2    0.10    0.25
  -5   3   2   -0.38    0.34
  -4  -3   2   -0.28    0.30
   4  -3  -2   -0.33    0.24
  -4   3   2   -0.12    0.24
   4   3  -2    0.08    0.22
  -4   3   2    0.01    0.29
   4   3  -2    0.22    0.33
  -3  -3   2   65.07    1.87
   3  -3  -2   63.09    1.70
   3  -3  -2   65.68    1.46
   3   3  -2   64.00    1.79
  -3   3   2   65.17    1.77
  -3   3   2   60.45    1.71
   3   3  -2   61.65    1.58
  -2  -3   2    1.82    0.37
   2  -3  -2    2.01    0.33
  -2   3   2    1.61    0.32
   2   3  -2    2.04    0.39
   2   3  -2    2.06    0.32
  -2   3   2    1.93    0.27
  -2   3   2    2.19    0.39
   1  -3  -2   13.74    0.61
  -1  -3   2   14.66    0.73
   1   3  -2   12.87    0.70
  -1   3   2   14.24    0.73
  -1   3   2   13.81    0.61
   1   3  -2   14.38    0.65
  -1   3   2   13.40    0.69
   1   3  -2   13.49    0.58
   0  -3  -2    0.62    0.25
   0  -3   2    0.52    0.22
   0   3   2    0.87    0.29
   0   3  -2    0.62    0.24
   0   3   2    0.35    0.18
   0   3   2    0.46    0.22
   0   3  -2    0.79    0.28
   0   3  -2    0.77    0.25
   1  -3   2    7.20    0.53
  -1  -3  -2    5.89    0.47
  -1   3  -2    6.36    0.46
   1   3   2    6.66    0.39
  -1   3  -2    6.69    0.51
   1   3   2    6.64    0.60
   1   3   2    6.74    0.52
  -1   3  -2    6.85    0.54
   2  -3   2    6.14    0.50
  -2  -3  -2    7.16    0.49
  -2   3  -2    7.20    0.58
   2   3   2    5.32    0.58
  -2   3  -2    5.77    0.44
  -2   3  -2    7.62    0.57
   2   3   2    7.27    0.58
  -3  -3  -2    1.46    0.29
   3  -3   2    1.20    0.29
  -3   3  -2    2.26    0.45
   3   3   2    1.69    0.43
   3   3   2    1.29    0.39
  -3   3  -2    1.48    0.36
  -4  -3  -2   14.04    0.71
   4  -3   2   15.29    0.74
  -4  -3  -2   15.64    0.94
  -4   3  -2   13.40    0.80
   4   3   2   16.54    0.99
  -4   3  -2   14.75    0.95
  -5  -3  -2   26.65    1.26
   5  -3   2   26.30    1.02
  -5  -3  -2   27.66    1.02
   5  -3   2   25.17    1.14
   5   3   2   25.02    1.27
  -5   3  -2   27.03    1.31
  -6  -3  -2    3.13    0.62
   6  -3   2    3.51    0.57
   6   3   2    2.95    0.63
  -6   3  -2    2.65    0.66
   7  -3   2   17.00    1.12
  -7  -3  -2   17.54    1.21
   7   3   2   15.56    1.22
  -7   3  -2   15.83    1.26
   8  -3   2    0.38    0.54
  -8  -3  -2    0.39    0.58
   8   3   2    0.69    0.63
  -8   3  -2    0.17    0.65
   9  -3   2    0.07    0.63
  -9  -3  -2    0.82    0.65
  -9   3  -2    0.12    0.72
   9   3   2    1.12    0.76
 -10  -3  -2    0.33    0.73
  10  -3   2    1.08    0.73
  10   3   2    0.17    0.76
 -10   3  -2    0.85    0.81
  11  -3   2    4.04    0.98
 -11  -3  -2    3.76    1.01
 -11   3  -2    4.53    1.12
  11   3   2    3.17    0.97
  10  -4  -2   44.68    2.16
 -10  -4   2   44.25    2.40
  10   4  -2   43.55    2.18
 -10   4   2   40.88    2.16
  -9  -4   2   11.00    1.35
   9  -4  -2   11.62    1.21
  -9   4   2   13.95    1.36
   9   4  -2   12.31    1.29
  -8  -4   2    1.51    0.79
   8  -4  -2    0.69    0.63
   8   4  -2    1.95    0.75
  -8   4   2    1.64    0.76
   7  -4  -2   35.73    1.65
  -7  -4   2   36.08    1.88
   7   4  -2   33.26    1.70
  -7   4   2   33.66    1.66
  -6  -4   2    7.09    0.92
   6  -4  -2    8.34    0.88
   6   4  -2    8.55    0.94
  -6   4   2    6.53    0.86
  -5  -4   2   58.43    2.14
   5  -4  -2   55.53    1.90
   5   4  -2   57.51    1.99
  -5   4   2   57.10    1.97
   4  -4  -2   50.63    1.71
  -4  -4   2   54.53    1.96
  -4   4   2   47.81    1.75
   4   4  -2   53.40    1.82
   4   4  -2   49.77    1.53
  -4   4   2   51.99    1.69
  -3  -4   2    2.92    0.56
   3  -4  -2    1.70    0.43
   3   4  -2    2.13    0.39
  -3   4   2    1.74    0.42
  -3   4   2    2.00    0.50
   3   4  -2    2.06    0.52
  -2  -4   2   64.16    2.02
   2  -4  -2   62.68    1.80
   2   4  -2   66.71    1.77
   2   4  -2   63.17    1.92
  -2   4   2   63.62    1.88
  -2   4   2   62.90    1.91
  -1  -4   2    0.94    0.38
   1  -4  -2    0.45    0.27
  -1   4   2    0.81    0.30
  -1   4   2    0.59    0.35
  -1   4   2    0.71    0.36
   1   4  -2    0.75    0.39
   1   4  -2    0.75    0.34
   0  -4  -2   31.41    1.19
   0  -4  -2   31.23    1.05
   0  -4   2   31.92    1.23
   0   4  -2   31.29    1.11
   0   4  -2   30.87    1.16
   0   4   2   32.21    1.17
   0   4   2   28.62    1.28
   0   4  -2   29.82    1.19
   1  -4   2  145.19    3.27
   1  -4   2  139.64    3.25
  -1  -4  -2  143.86    3.25
   1   4   2  142.94    3.50
  -1   4  -2  146.65    3.26
  -1   4  -2  140.55    3.26
   1   4   2  147.94    3.32
  -2  -4  -2    2.55    0.42
   2  -4   2    2.07    0.43
  -2   4  -2    2.66    0.50
  -2   4  -2    2.67    0.49
   2   4   2    3.20    0.58
   2   4   2    3.13    0.50
  -3  -4  -2   43.46    1.70
  -3  -4  -2   43.21    1.39
   3  -4   2   43.88    1.43
  -3   4  -2   44.56    1.61
   3   4   2   46.24    1.65
  -3   4  -2   42.37    1.53
   4  -4   2   74.75    2.21
  -4  -4  -2   70.46    2.35
   4  -4   2   75.05    2.02
   4   4   2   74.37    2.29
  -4   4  -2   74.57    2.29
  -5  -4  -2    0.03    0.47
   5  -4   2   -0.09    0.44
  -5   4  -2   -0.32    0.50
   5   4   2    0.84    0.56
   6  -4   2   21.29    1.32
  -6  -4  -2   23.60    1.48
  -6   4  -2   22.88    1.47
   6   4   2   22.57    1.44
   7  -4   2    0.98    0.57
  -7  -4  -2    0.70    0.58
  -7   4  -2    0.38    0.70
   7   4   2    0.62    0.63
  -8  -4  -2    5.22    0.97
   8  -4   2    6.05    0.96
  -8   4  -2    5.56    1.05
   8   4   2    6.77    1.08
   9  -4   2   12.94    1.33
  -9  -4  -2   12.35    1.32
  -9   4  -2   14.40    1.52
   9   4   2   14.44    1.38
   8  -5  -2   36.47    1.99
   7  -5  -2   15.60    1.34
  -7  -5   2   17.62    1.61
  -7   5   2   17.29    1.53
   7   5  -2   19.69    1.55
   6  -5  -2   94.28    2.96
  -6  -5   2  102.32    3.34
   6   5  -2   95.72    3.06
  -6   5   2   96.73    3.06
  -5  -5   2    9.82    1.13
   5  -5  -2    8.39    0.95
  -5   5   2    9.09    1.05
   5   5  -2    9.46    1.05
  -4  -5   2   10.38    1.12
   4  -5  -2   10.19    0.98
  -4   5   2   12.52    1.15
   4   5  -2   11.06    1.07
   3  -5  -2  113.06    3.01
  -3  -5   2  117.27    3.34
  -3   5   2  114.46    3.11
   3   5  -2  118.19    3.17
  -2  -5   2   23.36    1.39
  -2   5   2   23.37    1.24
  -2   5   2   24.00    1.32
   2   5  -2   23.71    1.33
  -1  -5   2   70.79    2.47
   1  -5  -2   69.19    2.17
   1   5  -2   68.96    2.21
  -1   5   2   67.46    2.26
   1   5  -2   70.20    2.06
   0  -5  -2   33.06    1.41
   0  -5   2   32.14    1.47
   0   5   2   33.28    1.58
   0   5  -2   32.60    1.37
   1  -5   2    9.16    0.86
   1   5   2    6.54    0.84
   1   5   2    8.82    0.84
  -1   5  -2    9.11    0.85
   2  -5   2   99.17    2.62
  -2  -5  -2   91.84    2.87
   2   5   2   91.75    2.66
  -2   5  -2   91.23    2.62
  -3  -5  -2   24.63    1.51
  -3   5  -2   23.02    1.33
   3   5   2   23.99    1.41
  -3   5  -2   21.79    1.29
   4  -5   2   39.78    1.72
  -4  -5  -2   40.31    1.96
  -4   5  -2   39.17    1.76
   4   5   2   39.47    1.81
   5  -5   2   53.32    2.08
  -5  -5  -2   52.48    2.30
  -5   5  -2   52.47    2.19
   5   5   2   51.82    2.19
  -6  -5  -2    1.35    0.78
   6  -5   2    0.98    0.70
  -6   5  -2    1.00    0.76
   6   5   2    0.92    0.74
   7  -5   2   60.73    2.54
  -7   5  -2   54.86    2.49
   7   5   2   64.71    3.21
   3  -6  -2    7.71    0.95
   3   6  -2    7.10    1.00
   2   6  -2   10.19    1.10
  -1  -6   2    9.75    1.10
   0  -6  -2   25.07    1.63
  -1  -6  -2   43.17    2.09
  -2  -6  -2    0.74    0.69
   2  -6   2    0.40    0.62
 -13   0   3    0.41    0.75
  13   0  -3    0.55    0.66
 -12   0   3   -0.25    0.64
  12   0  -3   -0.49    0.54
  11   0  -3    0.45    0.56
 -11   0   3   -0.58    0.58
 -10   0   3    0.23    0.58
  10   0  -3   -0.33    0.44
  -9   0   3    0.84    0.52
  -9   0   3    0.41    0.36
   9   0  -3   -0.20    0.40
   8   0  -3    0.03    0.34
   8   0  -3   -0.02    0.26
  -8   0   3   -0.31    0.38
  -8   0   3   -0.33    0.26
  -7   0   3    0.05    0.23
   7   0  -3   -0.49    0.26
  -7   0   3   -0.14    0.32
   7   0  -3    0.19    0.22
  -6   0   3   -0.20    0.24
  -6   0   3   -0.06    0.17
   6   0  -3   -0.02    0.17
   6   0  -3    0.05    0.23
   5   0  -3    0.13    0.20
  -5   0   3   -0.04    0.24
   5   0  -3    0.24    0.15
  -5   0   3    0.00    0.16
  -4   0   3    0.07    0.13
   4   0  -3   -0.22    0.11
   4   0  -3   -0.03    0.17
  -4   0   3   -0.04    0.17
   3   0  -3   -0.09    0.12
  -3   0   3    0.03    0.11
   3   0  -3   -0.11    0.10
  -3   0   3   -0.08    0.14
  -2   0   3   -0.24    0.09
  -2   0   3   -0.28    0.13
   1   0  -3   -0.05    0.07
  -1   0   3   -0.09    0.08
   1   0  -3    0.11    0.08
  -1   0   3    0.12    0.09
   0   0  -3   -0.22    0.08
   0   0   3   -0.30    0.09
   0   0  -3   -0.18    0.11
   0   0   3    0.02    0.14
  -1   0  -3   -0.41    0.08
  -1   0  -3   -0.42    0.13
   1   0   3   -0.47    0.09
   1   0   3   -0.09    0.17
   2   0   3   -0.10    0.09
  -2   0  -3    0.07    0.10
  -2   0  -3   -0.08    0.12
   2   0   3    0.21    0.18
  -3   0  -3    0.05    0.17
  -3   0  -3    0.43    0.13
   3   0   3    0.27    0.13
   3   0   3    0.10    0.20
  -4   0  -3    0.14    0.24
   4   0   3   -0.13    0.15
   4   0   3   -0.14    0.25
  -4   0  -3   -0.08    0.14
   5   0   3    0.17    0.20
   5   0   3    0.12    0.29
  -5   0  -3    0.32    0.26
  -5   0  -3   -0.09    0.17
  -6   0  -3    0.16    0.30
  -6   0  -3   -0.06    0.21
   6   0   3   -0.02    0.24
   6   0   3    0.06    0.33
  -7   0  -3   -0.25    0.26
  -7   0  -3   -0.17    0.34
   7   0   3   -0.15    0.28
   7   0   3    0.34    0.40
   8   0   3   -0.21    0.33
  -8   0  -3   -0.31    0.41
   8   0   3   -0.34    0.42
   9   0   3    0.72    0.51
   9   0   3    0.20    0.42
  -9   0  -3    0.83    0.56
  10   0   3    0.24    0.58
 -10   0  -3   -0.62    0.55
  11   0   3    0.36    0.63
 -11   0  -3    0.52    0.66
 -12   0  -3    0.07    0.70
  13  -1  -3    0.66    0.72
 -13  -1   3    0.66    0.83
  12  -1  -3   18.42    1.34
 -12  -1   3   16.24    1.51
  12   1  -3   18.99    1.36
 -12   1   3   20.87    1.66
  11  -1  -3   -0.52    0.50
 -11  -1   3   -0.12    0.63
 -11   1   3    0.31    0.55
 -11   1   3   -0.13    0.52
  11   1  -3   -0.46    0.52
 -10  -1   3   21.50    1.41
  10  -1  -3   24.57    1.29
  10   1  -3   23.21    1.26
 -10   1   3   24.24    1.26
  10   1  -3   25.43    1.21
 -10   1   3   21.33    1.35
  -9  -1   3    7.94    0.94
   9  -1  -3    7.44    0.81
   9   1  -3    6.15    0.72
   9   1  -3    7.79    0.71
  -9   1   3    7.01    0.74
  -9   1   3    6.75    0.82
   8  -1  -3   16.38    0.99
  -8  -1   3   17.91    1.14
  -8   1   3   16.18    1.03
   8   1  -3   17.01    0.89
   8   1  -3   16.56    0.95
  -8   1   3   18.52    0.93
   7  -1  -3   61.69    1.81
  -7  -1   3   60.30    1.43
  -7  -1   3   62.08    2.01
   7   1  -3   59.76    1.71
  -7   1   3   62.58    1.86
   7   1  -3   61.37    1.66
  -7   1   3   60.53    1.70
  -6  -1   3   80.13    2.24
   6  -1  -3   78.34    2.04
  -6  -1   3   78.67    1.65
   6   1  -3   79.22    1.89
  -6   1   3   76.84    1.93
   6   1  -3   78.13    1.93
  -6   1   3   76.21    2.06
  -5  -1   3   98.43    2.53
  -5  -1   3   97.70    1.92
   5  -1  -3  102.64    2.36
   5   1  -3  102.11    2.23
   5   1  -3   99.81    2.20
  -5   1   3   99.97    2.35
  -5   1   3   98.70    2.24
   4  -1  -3    5.24    0.44
  -4  -1   3    7.84    0.59
   4   1  -3    5.00    0.37
   4   1  -3    5.53    0.40
  -4   1   3    5.37    0.40
  -4   1   3    6.49    0.46
   3  -1  -3   15.78    0.61
  -3  -1   3   14.14    0.69
   3   1  -3   13.47    0.53
   3   1  -3   15.35    0.57
  -3   1   3   15.72    0.61
  -3   1   3   15.86    0.58
  -2  -1   3  277.89    5.41
   2  -1  -3  279.30    5.27
   2   1  -3  277.45    5.23
  -2   1   3  287.38    5.33
   2   1  -3  284.12    5.26
  -2   1   3  289.81    5.28
  -1  -1   3   38.52    0.99
   1  -1  -3   36.78    0.95
   1  -1  -3   40.03    0.89
  -1   1   3   38.84    0.99
   1   1  -3   38.43    0.93
   1   1  -3   35.96    0.87
  -1   1   3   38.82    0.90
   0  -1  -3   39.45    1.01
   0  -1   3   40.62    1.00
   0  -1   3   42.08    0.93
   0  -1  -3   42.74    0.84
   0   1   3   40.78    1.03
   0   1  -3   39.67    1.03
   0   1  -3   41.32    0.98
   0   1   3   42.48    1.07
  -1  -1  -3 1000.00   17.34
   1  -1   3  977.97   17.32
  -1   1  -3  977.42   17.27
  -1   1  -3  958.30   17.44
   1   1   3  981.73   17.35
   1   1   3  947.10   17.45
   2  -1   3    2.71    0.28
  -2  -1  -3    5.33    0.36
  -2   1  -3    3.19    0.28
   2   1   3    4.10    0.34
   2   1   3    4.34    0.42
  -2   1  -3    4.10    0.42
   3  -1   3   27.27    0.89
  -3  -1  -3   29.65    0.91
  -3   1  -3   28.19    1.03
   3   1   3   27.17    1.02
  -3   1  -3   28.08    0.85
   3   1   3   29.42    0.91
   4  -1   3  111.18    2.43
  -4  -1  -3  113.54    2.52
  -4  -1  -3  112.25    2.50
   4  -1   3  109.73    2.50
  -4   1  -3  115.52    2.73
   4   1   3  115.51    2.70
  -5  -1  -3    6.27    0.54
   5  -1   3    5.98    0.52
  -5  -1  -3    6.65    0.52
   5  -1   3    5.82    0.49
   5   1   3    6.25    0.65
  -5   1  -3    6.76    0.69
   6  -1   3  124.12    2.86
  -6  -1  -3  119.87    2.85
   6  -1   3  119.97    2.75
  -6  -1  -3  120.53    2.84
  -6   1  -3  119.61    3.04
   6   1   3  117.01    2.97
  -7  -1  -3   49.29    1.62
  -7  -1  -3   52.32    1.69
   7  -1   3   49.17    1.64
   7  -1   3   52.34    1.62
  -7   1  -3   56.36    1.88
   7   1   3   51.49    1.78
   8  -1   3   18.07    1.09
  -8  -1  -3   18.61    1.08
   8  -1   3   19.47    1.05
  -8  -1  -3   18.44    1.08
  -8   1  -3   20.01    1.24
   8   1   3   18.01    1.20
  -9  -1  -3   21.45    1.28
  -9  -1  -3   19.70    1.22
   9  -1   3   22.07    1.23
   9  -1   3   22.44    1.27
   9   1   3   24.38    1.42
  -9   1  -3   23.41    1.44
 -10  -1  -3    3.84    0.74
  10  -1   3    4.63    0.76
 -10   1  -3    6.64    0.99
  10   1   3    4.72    0.85
  11  -1   3   14.17    1.21
  11   1   3   13.24    1.26
 -11   1  -3   14.93    1.38
  12   1   3    2.97    0.89
 -12   1  -3    3.16    0.91
 -13  -2   3   58.97    2.74
 -13   2   3   66.29    2.53
 -12  -2   3    0.17    0.75
  12  -2  -3    0.85    0.68
 -12   2   3    0.52    0.69
  11  -2  -3   35.14    1.74
 -11  -2   3   35.66    1.96
  11   2  -3   35.66    1.66
 -11   2   3   38.39    1.77
  10  -2  -3   33.26    1.60
 -10  -2   3   30.23    1.70
  10   2  -3   34.20    1.54
 -10   2   3   33.21    1.58
  10   2  -3   31.91    1.46
   9  -2  -3   41.65    1.67
  -9  -2   3   45.92    1.97
   9   2  -3   41.21    1.61
  -9   2   3   42.55    1.69
  -9   2   3   40.71    1.73
   9   2  -3   42.86    1.57
  -8  -2   3  123.65    3.38
   8  -2  -3  120.93    3.14
   8   2  -3  122.20    2.95
  -8   2   3  120.40    3.09
  -8   2   3  125.02    3.17
   8   2  -3  121.51    3.01
  -7  -2   3   24.53    1.30
   7  -2  -3   25.02    1.16
  -7   2   3   26.44    1.16
   7   2  -3   25.15    1.05
   7   2  -3   24.69    1.12
  -7   2   3   25.21    1.14
   6  -2  -3   88.78    2.31
  -6  -2   3   81.71    2.43
   6   2  -3   87.22    2.10
  -6   2   3   86.12    2.24
  -6   2   3   86.00    2.24
   6   2  -3   85.28    2.20
   5  -2  -3  142.75    3.23
  -5  -2   3  141.59    3.40
  -5   2   3  145.28    3.19
   5   2  -3  141.23    3.01
   5   2  -3  141.08    3.14
  -5   2   3  140.59    3.14
   4  -2  -3   32.52    1.10
  -4  -2   3   31.69    1.21
  -4   2   3   31.46    1.06
   4   2  -3   31.74    1.07
  -4   2   3   31.39    1.06
   4   2  -3   30.34    0.97
  -3  -2   3  250.96    5.18
   3  -2  -3  257.99    5.03
  -3   2   3  257.92    5.03
   3   2  -3  261.76    5.03
  -3   2   3  259.84    5.05
   3   2  -3  252.63    4.91
  -3   2   3  251.17    4.62
   2  -2  -3   60.92    1.46
  -2  -2   3   59.14    1.56
  -2   2   3   57.98    1.51
   2   2  -3   57.39    1.41
  -2   2   3   57.66    1.49
   2   2  -3   60.18    1.51
  -2   2   3   59.51    1.26
   1  -2  -3  237.36    4.49
  -1  -2   3  236.10    4.63
   1  -2  -3  239.19    4.63
   1   2  -3  236.90    4.55
  -1   2   3  237.48    4.46
  -1   2   3  235.08    4.66
   1   2  -3  235.64    4.40
   1   2  -3  239.65    4.63
   0  -2  -3  494.17    9.00
   0  -2  -3  483.25    8.78
   0  -2   3  481.44    8.91
   0  -2   3  488.46    8.98
   0   2   3  497.63    8.96
   0   2  -3  495.09    8.97
   0   2   3  490.07    9.08
   0   2  -3  481.93    8.90
  -1  -2  -3   43.94    1.17
   1  -2   3   42.40    1.17
  -1  -2  -3   43.40    0.92
   1  -2   3   42.08    1.02
  -1   2  -3   44.68    1.18
   1   2   3   42.97    1.22
  -1   2  -3   43.95    1.21
   1   2   3   43.07    1.25
  -2  -2  -3  107.87    2.32
   2  -2   3  101.47    2.02
   2  -2   3  103.74    2.29
   2   2   3  105.49    2.45
   2   2   3  107.63    2.44
  -2   2  -3  105.34    2.32
  -2   2  -3  103.43    2.42
  -3  -2  -3  239.60    4.69
   3  -2   3  236.81    4.66
   3   2   3  236.65    4.90
  -3   2  -3  235.31    4.90
   3   2   3  232.57    4.82
  -3   2  -3  241.76    4.72
  -4  -2  -3   35.29    1.20
   4  -2   3   32.60    1.09
  -4  -2  -3   32.45    1.08
  -4   2  -3   34.49    1.12
  -4   2  -3   32.21    1.29
   4   2   3   31.23    1.27
   5  -2   3  242.96    4.86
   5  -2   3  236.26    4.90
  -5  -2  -3  244.32    5.07
  -5  -2  -3  246.27    4.90
  -5   2  -3  240.42    5.22
   5   2   3  232.12    5.15
  -6  -2  -3    9.36    0.81
  -6  -2  -3    9.63    0.70
   6  -2   3    9.11    0.73
   6  -2   3    9.11    0.74
  -6   2  -3   10.47    0.96
   6   2   3   11.12    0.98
  -7  -2  -3  126.30    3.03
   7  -2   3  122.28    3.07
   7  -2   3  129.14    3.05
  -7  -2  -3  124.46    3.21
  -7   2  -3  126.23    3.35
   7   2   3  123.90    3.29
  -8  -2  -3  119.46    3.02
  -8  -2  -3  119.33    3.25
   8  -2   3  121.28    3.13
   8  -2   3  125.97    3.07
   8   2   3  119.87    3.30
  -8   2  -3  116.19    3.33
   9  -2   3   -0.09    0.52
  -9  -2  -3    0.21    0.53
   9   2   3    0.42    0.62
  -9   2  -3   -0.37    0.66
  10  -2   3   47.22    1.97
 -10  -2  -3   48.82    2.11
  10   2   3   52.44    2.17
 -10   2  -3   48.69    2.20
  11  -2   3    7.20    1.04
 -11  -2  -3    7.93    1.10
  11   2   3    7.68    1.13
 -11   2  -3    8.26    1.21
  12  -2   3    7.48    1.12
 -12   2  -3    9.11    1.81
  12   2   3    9.17    1.22
 -12   3   3   51.82    2.38
  12   3  -3   58.41    2.42
  11  -3  -3    3.02    0.81
 -11  -3   3    2.62    0.94
  11   3  -3    3.26    0.85
 -11   3   3    2.59    0.85
  10  -3  -3   14.51    1.31
 -10  -3   3   16.51    1.53
 -10   3   3   15.77    1.36
  10   3  -3   14.56    1.24
  -9  -3   3  119.39    3.59
   9  -3  -3  114.56    3.27
   9   3  -3  113.39    3.18
  -9   3   3  114.20    3.27
   8  -3  -3    9.99    1.00
  -8  -3   3    8.09    0.99
  -8   3   3   11.85    1.08
   8   3  -3    9.30    0.95
   8   3  -3   10.06    1.13
   7  -3  -3  172.83    4.18
  -7  -3   3  176.05    4.44
   7   3  -3  175.91    4.12
   7   3  -3  175.46    3.86
  -7   3   3  181.71    4.09
  -7   3   3  177.68    4.17
  -6  -3   3  105.07    3.00
   6  -3  -3  106.79    2.81
   6   3  -3  107.97    2.55
   6   3  -3  103.04    2.76
  -6   3   3  106.55    2.79
  -6   3   3  109.17    2.71
  -5  -3   3   34.02    1.48
   5  -3  -3   35.13    1.36
   5   3  -3   36.21    1.19
  -5   3   3   38.15    1.34
  -5   3   3   34.35    1.33
   5   3  -3   36.04    1.37
   4  -3  -3  121.47    2.83
  -4  -3   3  117.24    3.00
  -4   3   3  117.05    2.80
   4   3  -3  116.30    2.83
  -4   3   3  119.95    2.85
   4   3  -3  116.60    2.64
  -3  -3   3    0.49    0.32
   3  -3  -3    0.39    0.25
  -3   3   3    0.28    0.27
   3   3  -3    0.38    0.25
  -3   3   3    0.27    0.28
   3   3  -3    0.30    0.32
   2  -3  -3  141.95    2.98
  -2  -3   3  135.39    3.15
  -2   3   3  137.57    2.80
  -2   3   3  136.41    3.11
   2   3  -3  137.26    2.96
  -2   3   3  138.06    3.09
   2   3  -3  137.95    3.09
   1  -3  -3  144.56    3.13
  -1  -3   3  140.82    3.13
   1  -3  -3  140.67    2.94
   1   3  -3  142.87    3.13
  -1   3   3  140.06    3.17
   1   3  -3  138.19    3.02
   1   3  -3  142.13    2.87
  -1   3   3  140.44    2.93
   0  -3   3   36.96    1.14
   0  -3  -3   35.60    1.15
   0  -3   3   34.23    1.15
   0  -3  -3   36.60    1.00
   0   3   3   35.76    1.24
   0   3  -3   35.75    1.06
   0   3   3   34.45    1.09
   0   3  -3   35.58    1.13
   1  -3   3  235.60    4.58
   1  -3   3  231.53    4.68
  -1  -3  -3  233.92    4.39
  -1  -3  -3  231.45    4.68
  -1   3  -3  236.60    4.70
   1   3   3  233.25    4.87
  -1   3  -3  231.24    4.67
   1   3   3  229.70    4.72
  -2  -3  -3   53.10    1.47
   2  -3   3   51.37    1.47
  -2   3  -3   51.98    1.51
  -2   3  -3   52.69    1.58
   2   3   3   53.61    1.60
   2   3   3   54.62    1.68
   3  -3   3   78.77    1.98
  -3  -3  -3   78.83    1.98
   3   3   3   78.13    2.21
  -3   3  -3   84.48    2.10
  -3   3  -3   78.30    2.17
   3   3   3   78.88    2.19
   4  -3   3   99.07    2.36
  -4  -3  -3   97.57    2.36
  -4  -3  -3   97.30    2.63
  -4   3  -3   98.15    2.47
   4   3   3   95.94    2.62
  -4   3  -3   99.41    2.65
  -5  -3  -3   40.45    1.61
   5  -3   3   43.99    1.53
  -5  -3  -3   41.35    1.37
   5  -3   3   41.20    1.38
   5   3   3   43.01    1.68
  -5   3  -3   42.26    1.69
  -6  -3  -3   94.30    2.42
  -6  -3  -3   96.70    2.77
   6  -3   3   98.51    2.45
   6  -3   3   93.23    2.58
  -6   3  -3   92.96    2.82
   6   3   3   88.45    2.74
   7  -3   3   76.01    2.33
  -7  -3  -3   75.19    2.49
   7   3   3   74.53    2.53
  -7   3  -3   77.90    2.61
   8  -3   3   34.73    1.62
  -8  -3  -3   32.23    1.72
  -8   3  -3   31.81    1.80
   8   3   3   32.77    1.76
   9  -3   3   69.55    2.47
  -9  -3  -3   68.93    2.62
   9   3   3   73.45    2.64
  -9   3  -3   71.02    2.74
 -10  -3  -3    4.10    0.97
  10  -3   3    2.88    0.87
 -10   3  -3    2.80    0.99
  10   3   3    2.94    0.90
  11  -3   3   75.02    3.81
 -10  -4   3   23.68    1.92
  10  -4  -3   21.67    1.66
  10   4  -3   23.67    1.69
 -10   4   3   21.23    1.70
  -9  -4   3   10.75    1.32
   9  -4  -3   13.45    1.27
   9   4  -3    9.55    1.14
  -9   4   3   11.72    1.28
  -8  -4   3   56.18    2.46
   8  -4  -3   58.41    2.24
   8   4  -3   54.30    2.22
  -8   4   3   55.82    2.20
  -7  -4   3   20.97    1.53
   7  -4  -3   19.63    1.30
  -7   4   3   19.97    1.32
   7   4  -3   18.39    1.34
  -6  -4   3   28.12    1.58
   6  -4  -3   27.55    1.43
  -6   4   3   27.72    1.45
   6   4  -3   26.76    1.47
  -5  -4   3  112.10    3.20
   5  -4  -3  111.40    2.95
  -5   4   3  108.76    2.97
   5   4  -3  111.58    2.71
   5   4  -3  108.70    2.99
  -5   4   3  113.65    2.92
   4  -4  -3    2.90    0.52
  -4  -4   3    3.04    0.65
   4   4  -3    3.86    0.53
  -4   4   3    4.14    0.68
  -4   4   3    4.33    0.62
   4   4  -3    3.42    0.62
  -3  -4   3   71.97    2.25
   3  -4  -3   67.45    1.97
  -3   4   3   71.55    2.10
  -3   4   3   70.22    2.09
   3   4  -3   71.22    1.94
   3   4  -3   71.12    2.13
  -2  -4   3   21.91    1.12
   2  -4  -3   19.58    0.93
   2   4  -3   20.73    1.10
  -2   4   3   19.33    1.05
   2   4  -3   21.07    0.96
  -2   4   3   20.49    1.04
   1  -4  -3   64.17    2.09
   1  -4  -3   52.43    1.68
  -1  -4   3   50.58    1.70
   1   4  -3   50.46    1.59
  -1   4   3   50.90    1.74
   1   4  -3   50.13    1.68
   0  -4  -3  108.88    2.64
   0  -4   3  102.72    2.61
   0  -4   3  103.00    2.63
   0   4  -3  103.21    2.56
   0   4   3  104.88    2.53
   0   4   3  102.24    2.75
  -1  -4  -3    3.05    0.47
   1  -4   3    2.50    0.47
   1   4   3    2.01    0.41
  -1   4  -3    2.91    0.50
   1   4   3    2.62    0.55
  -1   4  -3    2.80    0.48
   2  -4   3   40.89    1.41
  -2  -4  -3   39.26    1.36
  -2   4  -3   38.42    1.43
   2   4   3   39.01    1.46
   2   4   3   39.49    1.61
  -2   4  -3   41.24    1.47
  -3  -4  -3   27.31    1.10
   3  -4   3   26.25    1.12
   3   4   3   26.54    1.29
   3   4   3   25.77    1.33
  -3   4  -3   24.44    1.19
  -3   4  -3   26.23    1.26
  -4  -4  -3    0.23    0.47
   4  -4   3    0.46    0.38
   4   4   3    0.11    0.46
  -4   4  -3    0.83    0.55
  -4   4  -3    0.75    0.46
   5  -4   3   69.74    2.23
  -5  -4  -3   66.79    2.38
   5   4   3   67.75    2.35
  -5   4  -3   71.72    2.38
  -6  -4  -3   15.92    1.28
   6  -4   3   14.37    1.15
   6   4   3   14.31    1.26
  -6   4  -3   16.57    1.36
  -7  -4  -3   38.74    1.94
   7  -4   3   38.44    1.76
   7   4   3   35.49    1.90
  -7   4  -3   34.61    1.91
  -8  -4  -3   46.02    2.22
   8  -4   3   48.29    2.05
  -8   4  -3   47.12    2.32
   8   4   3   49.57    2.29
  -9  -4  -3    0.67    0.76
   9  -4   3    0.18    0.76
   9   4   3   -0.05    0.80
  -9   4  -3    0.47    0.91
   8  -5  -3    0.29    0.65
  -8  -5   3   -0.21    1.26
  -7  -5   3   30.82    2.01
   7  -5  -3   30.24    1.75
  -7   5   3   32.90    1.81
   7   5  -3   35.04    1.90
   6  -5  -3    1.24    0.63
  -6  -5   3    0.45    0.75
  -6   5   3    0.85    0.67
   6   5  -3    0.85    0.70
   5  -5  -3    8.25    0.93
  -5  -5   3    6.24    0.99
   5   5  -3    7.99    1.00
  -5   5   3    7.61    0.96
  -4  -5   3   14.35    1.27
   4  -5  -3   19.09    1.86
  -4   5   3   13.99    1.15
   4   5  -3   13.67    1.14
  -3  -5   3    1.89    0.66
  -3   5   3    2.48    0.62
   3   5  -3    1.70    0.63
  -3   5   3    2.24    0.60
   2  -5  -3   18.10    1.14
  -2  -5   3   14.48    1.51
   2   5  -3   15.25    1.00
  -2   5   3   14.13    1.07
   2   5  -3   15.17    1.17
   1  -5  -3    4.09    0.66
  -1  -5   3    4.84    0.75
   1   5  -3    4.53    0.67
  -1   5   3    5.86    0.80
   0  -5  -3    3.86    0.66
   0  -5   3    4.29    0.69
   0   5   3    3.59    0.72
   0   5  -3    5.00    0.69
   1  -5   3   13.32    1.07
  -1  -5  -3   10.81    0.91
   1   5   3   13.64    1.16
   1   5   3   12.92    1.09
  -1   5  -3   11.05    0.95
   2  -5   3    2.78    0.61
   2   5   3    2.96    0.64
   2   5   3    3.48    0.73
  -2   5  -3    3.91    0.69
  -3  -5  -3   16.09    1.35
   3   5   3   16.03    1.21
  -3   5  -3   15.78    1.19
  -3   5  -3   13.60    1.28
  -4  -5  -3    1.25    0.68
   4  -5   3    1.45    0.64
  -4   5  -3    2.21    0.71
   4   5   3    2.38    0.69
  -5  -5  -3    1.95    0.80
   5  -5   3    2.15    0.75
   5   5   3    3.80    0.85
  -5   5  -3    2.45    0.80
   6  -5   3    7.60    1.06
  -6  -5  -3    7.91    1.12
  -6   5  -3    8.74    1.18
   6   5   3   11.82    1.29
  -7   5  -3    1.09    0.90
   3  -6  -3    1.08    0.62
  -2  -6   3    0.32    0.68
   2  -6  -3    0.73    0.53
  -1  -6   3    1.31    0.73
  -1   6   3    0.80    0.81
   0  -6   3    4.14    0.84
   0   6   3    1.51    0.76
  -1  -6  -3   -0.67    0.62
  -1   6  -3   -0.56    0.55
  -2  -6  -3    0.76    0.79
  -2   6  -3    2.74    0.76
 -13   0   4    0.90    0.75
  13   0  -4    0.47    0.69
  12   0  -4   99.07    2.96
 -12   0   4  100.31    3.25
  11   0  -4   39.80    1.71
 -11   0   4   40.52    1.91
 -10   0   4   13.47    1.22
  10   0  -4   11.15    0.99
  -9   0   4  784.44   15.15
   9   0  -4  798.67   14.85
  -9   0   4  790.41   14.52
   8   0  -4   24.44    1.14
  -8   0   4   26.88    0.97
  -8   0   4   25.65    1.31
   8   0  -4   24.73    0.90
   7   0  -4   79.40    1.76
  -7   0   4   76.70    1.84
  -7   0   4   78.65    2.28
   7   0  -4   78.24    2.09
   6   0  -4  314.66    5.81
  -6   0   4  319.61    5.91
   6   0  -4  312.72    6.16
  -6   0   4  307.15    6.36
  -5   0   4   -0.08    0.15
   5   0  -4   -0.04    0.16
   5   0  -4    0.21    0.23
  -5   0   4    0.21    0.27
   4   0  -4  385.93    7.13
   4   0  -4  379.04    6.89
  -4   0   4  381.77    7.28
  -4   0   4  379.81    6.95
  -3   0   4  244.79    4.56
   3   0  -4  250.12    4.61
   3   0  -4  247.04    4.72
  -3   0   4  257.44    4.88
  -2   0   4  294.99    5.39
   2   0  -4  303.27    5.42
  -2   0   4  292.24    5.54
   2   0  -4  294.38    5.45
  -1   0   4  453.79    8.36
  -1   0   4  460.69    8.41
   1   0  -4  464.41    8.33
   1   0  -4  478.23    8.38
   0   0   4   28.09    0.72
   0   0   4   27.65    0.80
   0   0  -4   27.10    0.78
   0   0  -4   28.62    0.68
  -1   0  -4  441.08    7.99
  -1   0  -4  436.81    7.76
   1   0   4  426.92    7.99
   1   0   4  430.28    7.79
  -2   0  -4   77.65    1.83
   2   0   4   78.39    1.61
   2   0   4   74.98    1.83
  -2   0  -4   80.35    1.59
   3   0   4   58.11    1.61
  -3   0  -4   60.48    1.33
  -3   0  -4   60.67    1.60
   4   0   4  659.61   11.95
  -4   0  -4  674.17   12.33
  -4   0  -4  662.90   11.97
   4   0   4  660.00   12.32
   5   0   4  118.29    2.50
  -5   0  -4  113.01    2.78
  -5   0  -4  120.30    2.54
   5   0   4  116.06    2.82
   6   0   4   10.35    0.86
   6   0   4    9.84    0.61
  -6   0  -4   10.19    0.78
  -6   0  -4    9.90    0.62
   7   0   4  327.18    6.45
   7   0   4  324.67    6.78
  -7   0  -4  335.63    6.86
  -8   0  -4    0.99    0.55
   8   0   4    1.97    0.59
  -9   0  -4   71.20    2.42
   9   0   4   77.17    2.42
 -10   0  -4   34.89    1.75
  10   0   4   30.97    1.65
  11   0   4   82.81    2.75
 -11   0  -4   83.54    2.85
 -12   0  -4   59.97    2.49
 -13  -1   4   28.27    1.88
  13  -1  -4   28.37    1.66
  13   1  -4   28.61    1.67
 -12  -1   4   15.52    1.45
  12  -1  -4   17.44    1.33
  12   1  -4   19.14    1.37
 -12   1   4   15.51    1.44
 -11  -1   4   45.69    2.08
  11  -1  -4   45.74    1.87
 -11   1   4   45.97    2.04
 -11   1   4   46.05    1.78
  11   1  -4   46.58    1.83
 -10  -1   4   37.95    1.81
  10  -1  -4   37.14    1.59
 -10   1   4   37.30    1.74
 -10   1   4   38.06    1.51
  10   1  -4   35.95    1.55
   9  -1  -4    1.89    0.50
  -9  -1   4    2.95    0.70
   9   1  -4    3.40    0.60
   9   1  -4    2.97    0.51
  -9   1   4    2.37    0.52
  -9   1   4    3.11    0.67
   8  -1  -4   54.28    1.74
  -8  -1   4   51.31    1.95
  -8   1   4   54.83    1.89
   8   1  -4   57.85    1.59
   8   1  -4   54.45    1.71
  -8   1   4   51.99    1.62
   7  -1  -4   61.39    1.80
  -7  -1   4   59.29    1.98
   7   1  -4   58.66    1.60
  -7   1   4   60.01    1.67
   7   1  -4   62.42    1.73
  -7   1   4   57.27    1.86
   6  -1  -4   67.73    1.85
  -6  -1   4   67.96    2.05
  -6  -1   4   65.19    1.39
   6   1  -4   68.86    1.70
  -6   1   4   68.30    1.74
  -6   1   4   69.79    1.92
   6   1  -4   65.55    1.75
   5  -1  -4  213.51    4.45
  -5  -1   4  220.30    4.70
   5   1  -4  215.26    4.33
  -5   1   4  218.37    4.34
   5   1  -4  221.91    4.29
  -5   1   4  220.00    4.51
  -4  -1   4   37.31    1.28
   4  -1  -4   37.68    1.14
  -4   1   4   39.35    1.19
   4   1  -4   39.29    1.07
  -4   1   4   38.21    1.09
   4   1  -4   38.39    1.07
  -3  -1   4  325.75    6.34
   3  -1  -4  317.58    6.14
   3   1  -4  333.07    6.11
   3   1  -4  327.35    6.11
  -3   1   4  330.49    6.23
  -3   1   4  329.90    6.14
   2  -1  -4  567.05   10.23
  -2  -1   4  572.49   10.34
   2  -1  -4  567.72   10.17
  -2  -1   4  551.06   10.19
  -2   1   4  569.50   10.30
  -2   1   4  542.62   10.08
   2   1  -4  566.47   10.04
   2   1  -4  576.44   10.21
   1  -1  -4    0.23    0.11
  -1  -1   4    0.14    0.14
  -1  -1   4    0.47    0.15
   1  -1  -4    0.21    0.15
  -1   1   4    0.76    0.20
  -1   1   4    0.04    0.14
   1   1  -4    0.20    0.14
   1   1  -4    0.49    0.16
   0  -1   4   57.64    1.36
   0  -1   4   56.13    1.20
   0  -1  -4   59.38    1.13
   0  -1  -4   57.60    1.37
   0   1  -4   56.73    1.38
   0   1  -4   57.16    1.31
   0   1   4   56.28    1.43
   0   1   4   56.75    1.38
  -1  -1  -4  145.73    2.92
   1  -1   4  143.13    2.90
   1  -1   4  135.78    2.57
  -1   1  -4  143.74    3.01
   1   1   4  142.63    2.89
  -1   1  -4  141.72    2.82
   1   1   4  142.23    3.05
  -2  -1  -4    7.83    0.46
   2  -1   4    7.18    0.47
   2   1   4    7.60    0.59
   2   1   4    7.16    0.44
  -2   1  -4    7.06    0.39
  -2   1  -4    7.50    0.56
  -3  -1  -4  108.50    2.45
   3  -1   4  109.63    2.45
  -3   1  -4  107.89    2.33
  -3   1  -4  107.41    2.63
   3   1   4  112.78    2.43
   3   1   4  110.92    2.65
  -4  -1  -4    1.12    0.30
   4  -1   4    0.12    0.25
  -4  -1  -4    0.22    0.19
   4   1   4    0.47    0.16
   4   1   4    0.61    0.35
  -4   1  -4    0.50    0.23
  -4   1  -4    0.58    0.34
  -5  -1  -4  206.13    4.32
   5  -1   4  202.32    4.30
   5  -1   4  205.84    4.15
  -5  -1  -4  200.89    4.22
  -5   1  -4  209.70    4.54
   5   1   4  199.30    4.47
   6  -1   4   30.94    1.13
   6  -1   4   33.57    1.31
  -6  -1  -4   31.10    1.17
  -6  -1  -4   32.44    1.26
  -6   1  -4   33.30    1.44
   6   1   4   32.97    1.40
   7  -1   4    3.89    0.54
  -7  -1  -4    3.70    0.53
  -7  -1  -4    4.55    0.62
   7  -1   4    4.94    0.67
   7   1   4    4.46    0.69
  -7   1  -4    4.03    0.71
   8  -1   4  110.22    2.77
   8  -1   4  111.16    2.91
  -8  -1  -4  104.91    2.89
  -8  -1  -4  106.14    2.85
  -8   1  -4  103.56    3.04
   8   1   4  108.57    3.02
   9  -1   4    1.51    0.63
   9  -1   4    1.68    0.56
  -9  -1  -4    1.22    0.61
  -9   1  -4    2.97    0.77
   9   1   4    2.08    0.71
  10  -1   4   40.19    1.80
  10  -1   4   40.20    1.71
 -10  -1  -4   39.96    1.82
  10   1   4   40.35    1.92
 -10   1  -4   40.77    1.98
 -11  -1  -4   75.20    2.65
  11   1   4   75.73    2.65
 -11   1  -4   74.70    2.82
  12   1   4   -0.34    0.79
 -12   1  -4    0.44    0.81
 -13  -2   4    1.01    1.29
 -13   2   4    1.67    0.80
  12  -2  -4    3.99    0.86
 -12  -2   4    2.52    0.95
 -12   2   4    3.66    0.86
  11  -2  -4   11.85    1.13
 -11  -2   4   11.01    1.26
 -11   2   4   12.51    1.14
  11   2  -4   10.40    1.01
  11   2  -4   12.79    1.10
 -10  -2   4   20.08    1.46
  10  -2  -4   23.22    1.38
  10   2  -4   22.51    1.30
 -10   2   4   19.82    1.41
 -10   2   4   20.70    1.30
  10   2  -4   21.63    1.27
  -9  -2   4   28.80    1.60
   9  -2  -4   25.65    1.36
  -9   2   4   28.07    1.38
   9   2  -4   30.00    1.35
  -9   2   4   29.84    1.50
   9   2  -4   27.48    1.30
   8  -2  -4   18.77    1.09
  -8  -2   4   19.16    1.29
  -8   2   4   17.47    1.12
   8   2  -4   18.26    1.03
  -8   2   4   16.21    1.04
   8   2  -4   19.14    1.02
  -7  -2   4   16.70    1.12
   7  -2  -4   14.82    0.95
  -7   2   4   14.82    0.89
  -7   2   4   14.28    0.92
   7   2  -4   13.76    0.90
   7   2  -4   14.71    0.84
   6  -2  -4   20.28    1.02
  -6  -2   4   20.71    1.16
  -6   2   4   20.15    0.96
   6   2  -4   22.52    0.93
  -6   2   4   21.21    1.02
   6   2  -4   20.70    0.96
  -5  -2   4    3.31    0.52
   5  -2  -4    4.08    0.51
  -5   2   4    3.35    0.44
   5   2  -4    4.16    0.49
  -5   2   4    3.97    0.48
   5   2  -4    3.14    0.39
   4  -2  -4   28.23    1.03
  -4  -2   4   28.42    1.17
  -4   2   4   28.87    1.05
   4   2  -4   27.76    1.01
  -4   2   4   28.40    1.02
   4   2  -4   30.14    0.97
  -3  -2   4    6.81    0.61
   3  -2  -4    5.70    0.49
  -3   2   4    5.19    0.49
   3   2  -4    5.89    0.46
  -3   2   4    5.87    0.52
   3   2  -4    5.81    0.49
   2  -2  -4   25.29    0.83
  -2  -2   4   24.64    0.95
   2  -2  -4   24.87    0.89
  -2   2   4   25.51    0.92
   2   2  -4   25.91    0.84
  -2   2   4   25.09    0.69
   2   2  -4   26.34    0.92
  -2   2   4   25.71    0.90
  -1  -2   4   54.92    1.43
   1  -2  -4   53.83    1.43
  -1  -2   4   53.20    1.43
   1  -2  -4   54.76    1.30
   1   2  -4   56.66    1.40
   1   2  -4   53.68    1.26
  -1   2   4   55.89    1.48
  -1   2   4   56.39    1.32
   0  -2   4   -0.07    0.14
   0  -2  -4    0.32    0.13
   0  -2   4    0.07    0.20
   0  -2  -4    0.18    0.20
   0   2  -4    0.21    0.20
   0   2  -4    0.38    0.20
   0   2   4    0.42    0.21
   0   2   4    0.26    0.21
  -1  -2  -4  326.52    6.22
   1  -2   4  317.98    5.95
   1  -2   4  324.25    6.21
   1   2   4  335.94    6.32
   1   2   4  328.79    6.31
  -1   2  -4  316.61    6.16
  -1   2  -4  326.99    6.29
   2  -2   4   17.20    0.73
  -2  -2  -4   17.31    0.73
  -2   2  -4   15.59    0.81
   2   2   4   16.40    0.78
  -2   2  -4   16.48    0.69
   2   2   4   15.63    0.82
   3  -2   4   84.22    1.97
  -3  -2  -4   80.07    1.96
   3   2   4   77.17    2.04
   3   2   4   75.55    2.13
  -3   2  -4   75.38    2.13
  -3   2  -4   78.12    1.92
  -4  -2  -4   79.91    2.03
   4  -2   4   81.80    2.04
   4   2   4   77.57    2.25
  -4   2  -4   80.58    2.30
   4   2   4   77.59    2.11
  -4   2  -4   79.32    2.01
  -5  -2  -4  107.04    2.62
  -5  -2  -4  106.41    2.71
   5  -2   4  108.84    2.62
   5  -2   4  108.34    2.60
   5   2   4  110.77    2.92
  -5   2  -4  109.76    2.96
   6  -2   4   79.45    2.13
  -6  -2  -4   76.52    2.12
  -6  -2  -4   73.03    2.20
   6  -2   4   76.06    2.12
  -6   2  -4   79.64    2.47
   6   2   4   73.33    2.35
   7  -2   4   22.56    1.14
  -7  -2  -4   21.59    1.14
  -7  -2  -4   23.69    1.22
   7  -2   4   22.54    1.20
   7   2   4   21.03    1.35
  -7   2  -4   23.69    1.45
  -8  -2  -4    1.01    0.49
   8  -2   4    2.23    0.60
   8  -2   4    1.59    0.58
  -8  -2  -4    2.49    0.62
   8   2   4    0.89    0.65
  -8   2  -4    2.51    0.79
  -9  -2  -4   15.16    1.22
   9  -2   4   13.17    1.12
  -9  -2  -4   13.95    1.11
   9   2   4   14.10    1.27
  -9   2  -4   15.45    1.37
 -10  -2  -4    4.14    0.84
  10  -2   4    5.87    0.95
  10   2   4    6.64    1.04
 -10   2  -4    6.03    1.07
  11  -2   4    3.48    0.89
  11   2   4    3.91    0.98
 -11   2  -4    5.07    1.10
  12   3  -4   -0.26    0.71
 -12   3   4    0.41    0.77
 -11  -3   4    2.59    0.97
  11  -3  -4    5.81    1.00
 -11   3   4    4.27    0.93
  11   3  -4    3.67    0.89
 -10  -3   4    8.26    1.19
  10  -3  -4    8.21    0.99
 -10   3   4   10.77    1.15
  10   3  -4    8.91    1.02
   9  -3  -4    0.43    0.57
  -9  -3   4    0.47    0.69
  -9   3   4   -0.34    0.54
   9   3  -4    0.15    0.51
   9   3  -4    0.23    0.57
  -8  -3   4   21.09    1.42
   8  -3  -4   17.01    1.20
   8   3  -4   17.44    1.20
  -8   3   4   19.65    1.25
   8   3  -4   17.83    1.04
  -8   3   4   18.33    1.20
   7  -3  -4    9.04    0.88
  -7  -3   4    7.34    0.91
   7   3  -4    6.89    0.79
  -7   3   4    7.62    0.80
   7   3  -4    7.17    0.69
  -7   3   4    9.50    0.92
  -6  -3   4    7.09    0.84
   6  -3  -4    5.91    0.69
  -6   3   4    6.31    0.70
   6   3  -4    4.46    0.64
  -6   3   4    5.04    0.67
   6   3  -4    4.87    0.58
  -5  -3   4   16.61    1.07
   5  -3  -4   15.55    0.93
  -5   3   4   14.08    0.89
  -5   3   4   14.36    0.90
   5   3  -4   15.24    0.96
   5   3  -4   15.43    0.82
   4  -3  -4    8.38    0.69
  -4  -3   4    9.18    0.84
  -4   3   4    8.18    0.67
   4   3  -4    8.42    0.74
  -4   3   4    8.94    0.70
   4   3  -4    8.42    0.62
   3  -3  -4    0.85    0.30
  -3  -3   4    0.12    0.31
  -3   3   4    0.60    0.34
   3   3  -4    0.45    0.35
  -3   3   4    1.14    0.35
   3   3  -4    0.68    0.30
   2  -3  -4    1.73    0.31
   2  -3  -4    1.31    0.34
  -2  -3   4    0.92    0.33
   2   3  -4    1.39    0.32
  -2   3   4    1.97    0.40
  -2   3   4    1.79    0.27
   2   3  -4    1.32    0.38
  -2   3   4    1.38    0.36
  -1  -3   4    1.69    0.37
   1  -3  -4    3.10    0.45
  -1  -3   4    1.98    0.36
   1  -3  -4    1.95    0.29
   1   3  -4    1.82    0.27
  -1   3   4    1.42    0.28
   1   3  -4    2.46    0.39
  -1   3   4    1.68    0.38
   0  -3   4    0.56    0.30
   0  -3   4    0.69    0.26
   0  -3  -4    0.96    0.21
   0  -3  -4    0.60    0.28
   0   3  -4    0.12    0.25
   0   3   4    1.02    0.33
   0   3   4    0.68    0.25
   0   3  -4    0.73    0.27
   1  -3   4    0.58    0.30
  -1  -3  -4    0.52    0.27
  -1   3  -4    1.12    0.32
   1   3   4    0.92    0.30
  -1   3  -4    0.72    0.29
   1   3   4    0.52    0.31
  -2  -3  -4   35.33    1.19
   2  -3   4   34.33    1.19
   2   3   4   35.14    1.29
  -2   3  -4   34.43    1.21
   2   3   4   36.50    1.35
  -2   3  -4   34.62    1.28
  -3  -3  -4    2.69    0.43
   3  -3   4    1.99    0.40
   3   3   4    1.47    0.44
   3   3   4    2.39    0.50
  -3   3  -4    3.06    0.56
  -3   3  -4    3.07    0.48
  -4  -3  -4   16.79    0.87
   4  -3   4   17.19    0.90
   4   3   4   17.70    1.12
   4   3   4   15.45    0.99
  -4   3  -4   16.78    1.09
  -4   3  -4   15.38    0.91
   5  -3   4   10.30    0.81
  -5  -3  -4   10.79    0.78
  -5  -3  -4   11.91    0.96
   5   3   4   10.08    0.99
  -5   3  -4   10.90    0.89
  -5   3  -4   11.56    1.08
   6  -3   4    9.60    0.83
  -6  -3  -4   10.45    0.83
   6  -3   4    9.54    0.91
  -6  -3  -4    9.12    0.93
   6   3   4    9.92    1.06
  -6   3  -4   10.89    1.12
  -7  -3  -4    0.78    0.55
   7  -3   4    1.15    0.56
   7   3   4   -0.32    0.62
  -7   3  -4    0.20    0.67
   8  -3   4   -0.37    0.56
  -8  -3  -4   -0.21    0.58
   8   3   4    0.45    0.69
  -8   3  -4    0.43    0.75
  -9  -3  -4    0.57    0.66
   9  -3   4   -0.11    0.70
  -9   3  -4    0.52    0.81
   9   3   4    0.73    0.77
  10  -3   4   -0.53    0.71
 -10  -3  -4    1.18    0.79
  10   3   4   -0.55    0.74
 -10   3  -4   -1.16    0.77
 -10  -4   4    2.84    1.01
  10  -4  -4    2.57    0.85
  10   4  -4    3.17    0.92
 -10   4   4    3.39    0.93
  -9  -4   4   13.19    1.42
   9  -4  -4   12.11    1.24
  -9   4   4   15.34    1.40
   9   4  -4   12.74    1.26
  -8  -4   4    6.59    1.05
   8  -4  -4    6.95    0.93
   8   4  -4    4.89    0.91
  -8   4   4    5.76    0.93
  -7  -4   4   12.15    1.23
   7  -4  -4   16.00    1.26
   7   4  -4   15.22    1.25
  -7   4   4   16.11    1.22
   6  -4  -4   18.90    1.20
  -6  -4   4   17.04    1.32
   6   4  -4   16.80    1.02
  -6   4   4   17.96    1.15
  -6   4   4   17.58    1.20
   6   4  -4   17.41    1.23
   5  -4  -4   35.15    1.50
  -5  -4   4   34.77    1.69
  -5   4   4   35.29    1.55
   5   4  -4   36.21    1.58
   5   4  -4   36.44    1.38
  -5   4   4   36.42    1.52
   4  -4  -4   31.07    1.32
  -4  -4   4   30.06    1.51
  -4   4   4   29.73    1.35
   4   4  -4   30.53    1.40
  -4   4   4   30.19    1.36
   4   4  -4   30.69    1.22
   3  -4  -4   43.31    1.51
  -3  -4   4   45.46    1.75
  -3   4   4   46.34    1.65
   3   4  -4   44.67    1.66
  -3   4   4   47.11    1.68
   3   4  -4   48.22    1.54
   2  -4  -4   68.49    2.03
  -2  -4   4   67.65    2.09
   2   4  -4   64.54    1.89
  -2   4   4   63.35    2.02
   2   4  -4   67.62    2.05
  -1  -4   4   62.57    1.92
  -1  -4   4   62.71    1.93
   1  -4  -4   62.93    1.90
  -1   4   4   61.97    1.97
   1   4  -4   59.63    1.81
   0  -4   4   14.31    0.96
   0  -4  -4   13.23    0.86
   0   4  -4   15.32    0.89
   0   4   4   14.42    0.81
   0   4   4   15.26    0.99
   1  -4   4   38.13    1.42
  -1  -4  -4   36.47    1.35
  -1   4  -4   38.55    1.42
   1   4   4   35.80    1.52
  -1   4  -4   34.09    1.35
   1   4   4   35.16    1.33
  -2  -4  -4    6.04    0.65
   2  -4   4    5.98    0.66
  -2   4  -4    5.99    0.70
  -2   4  -4    7.02    0.72
   2   4   4    7.98    0.76
   2   4   4    7.31    0.82
   3  -4   4    7.89    0.73
  -3  -4  -4    7.11    0.69
   3   4   4    8.42    0.85
  -3   4  -4    6.74    0.73
   3   4   4    5.78    0.77
  -3   4  -4    9.49    0.90
  -4  -4  -4   56.62    1.81
   4  -4   4   58.50    1.85
  -4  -4  -4   56.94    2.11
  -4   4  -4   58.03    1.95
  -4   4  -4   59.41    2.08
   4   4   4   59.22    2.14
  -5  -4  -4    3.45    0.73
   5  -4   4    4.19    0.73
   5  -4   4    4.10    0.72
   5   4   4    3.67    0.81
  -5   4  -4    4.24    0.86
  -6  -4  -4   21.97    1.46
   6  -4   4   21.55    1.36
   6   4   4   22.93    1.56
  -6   4  -4   23.03    1.62
   7  -4   4   32.11    1.67
  -7  -4  -4   29.95    1.75
  -7   4  -4   27.88    1.86
   7   4   4   28.00    1.82
   8  -4   4    0.50    0.69
  -8  -4  -4    0.40    0.70
   8   4   4    0.70    0.80
  -8   4  -4    0.24    0.91
   8  -5  -4   37.92    2.01
  -8  -5   4   48.21    3.12
  -7  -5   4   21.23    1.77
   7  -5  -4   20.30    1.49
   7   5  -4   20.63    1.59
  -7   5   4   19.38    1.53
   6  -5  -4    1.22    0.64
  -6  -5   4    0.56    0.76
   6   5  -4    0.45    0.64
  -6   5   4    0.46    0.61
  -5  -5   4   47.20    2.17
   5   5  -4   47.03    1.99
  -5   5   4   43.29    1.91
  -4  -5   4    5.69    0.91
  -4   5   4    5.74    0.84
  -4   5   4    7.27    0.89
   4   5  -4    6.92    0.92
   3  -5  -4   76.72    2.44
   3   5  -4   77.88    2.30
  -3   5   4   78.43    2.51
   3   5  -4   72.13    2.47
  -2  -5   4   43.84    1.79
   2  -5  -4   41.50    1.70
   2   5  -4   40.97    1.61
  -2   5   4   40.99    1.78
  -1  -5   4    4.52    0.75
   1  -5  -4    4.00    0.67
  -1   5   4    2.57    0.64
   1   5  -4    3.98    0.65
   0  -5   4   56.49    2.00
   0  -5  -4   56.58    1.95
   0   5  -4   54.60    1.90
   0   5   4   54.17    2.09
  -1  -5  -4   22.90    1.21
   1  -5   4   22.90    1.34
  -1   5  -4   19.82    1.25
   1   5   4   22.21    1.42
   2  -5   4   62.03    2.09
   2   5   4   60.48    2.10
   2   5   4   60.05    2.28
  -2   5  -4   60.53    2.08
  -3  -5  -4   83.38    2.85
   3  -5   4   89.92    2.75
  -3   5  -4   84.96    2.62
   3   5   4   84.26    2.68
  -4  -5  -4    0.30    0.63
  -4   5  -4    0.60    0.65
  -4   5  -4    0.88    0.60
   4   5   4   -0.29    0.55
   5  -5   4   81.37    2.73
  -5  -5  -4   82.22    2.99
  -5   5  -4   79.54    2.80
   5   5   4   81.51    2.86
   6  -5   4   25.77    1.73
  -6  -5  -4   22.81    2.27
  -6   5  -4   26.79    1.82
   6   5   4   26.80    1.82
  -2  -6   4    4.04    0.93
   2  -6  -4    4.29    0.81
  -1  -6   4  122.64    3.57
  -1   6   4  124.22    3.75
   0  -6   4    0.66    0.71
   0   6  -4    1.67    0.68
   0   6   4    0.49    0.70
  13   0  -5    0.97    0.71
 -13   0   5    0.27    0.77
 -12   0   5    0.29    0.73
  12   0  -5   -0.84    0.56
  11   0  -5   -0.75    0.51
 -11   0   5   -0.43    0.55
  10   0  -5   -0.33    0.44
 -10   0   5   -0.07    0.54
  -9   0   5    0.22    0.51
   9   0  -5    0.08    0.44
  -8   0   5    0.23    0.27
  -8   0   5   -0.21    0.41
   8   0  -5    0.12    0.35
   7   0  -5    0.10    0.21
  -7   0   5    0.38    0.38
   7   0  -5    0.60    0.35
  -7   0   5    0.06    0.22
   6   0  -5   -0.01    0.24
  -6   0   5   -0.04    0.28
  -6   0   5    0.05    0.19
   6   0  -5   -0.18    0.17
   5   0  -5   -0.14    0.20
   5   0  -5   -0.08    0.16
  -5   0   5   -0.09    0.25
  -5   0   5   -0.30    0.15
  -4   0   5    0.01    0.21
   4   0  -5    0.24    0.15
  -4   0   5   -0.07    0.12
   4   0  -5   -0.03    0.17
   3   0  -5   -0.16    0.13
   3   0  -5   -0.01    0.13
  -3   0   5   -0.23    0.16
  -3   0   5    0.14    0.14
  -2   0   5   -0.24    0.12
   2   0  -5    0.91    0.18
   2   0  -5   -0.03    0.12
  -2   0   5   -0.03    0.14
  -1   0   5   -0.04    0.14
   1   0  -5    0.34    0.13
  -1   0   5   -0.06    0.15
   1   0  -5   -0.01    0.14
   0   0  -5    0.03    0.15
   0   0   5    0.14    0.18
   0   0   5    0.20    0.13
  -1   0  -5    0.15    0.17
   1   0   5    0.01    0.20
   1   0   5    0.09    0.12
  -1   0  -5   -0.05    0.10
   2   0   5   -0.05    0.14
  -2   0  -5   -0.04    0.13
  -2   0  -5    0.14    0.21
   2   0   5   -0.04    0.22
  -3   0  -5   -0.05    0.15
  -3   0  -5    0.07    0.23
   3   0   5   -0.09    0.27
   4   0   5    0.20    0.31
  -4   0  -5    0.04    0.15
   4   0   5    0.16    0.18
  -4   0  -5   -0.08    0.25
   5   0   5   -0.05    0.36
  -5   0  -5   -0.11    0.30
   5   0   5    0.26    0.21
  -5   0  -5   -0.06    0.18
  -6   0  -5    0.09    0.37
   6   0   5    0.50    0.44
   6   0   5   -0.28    0.23
  -7   0  -5   -0.01    0.45
   7   0   5   -0.30    0.46
   8   0   5    0.09    0.53
  -8   0  -5    0.50    0.55
   9   0   5   -0.13    0.60
  -9   0  -5    0.07    0.60
  10   0   5   -0.38    0.61
 -10   0  -5    0.23    0.65
 -11   0  -5   -0.82    0.66
  11   0   5    0.02    0.75
 -12   0  -5    0.07    0.78
  12   0   5   -1.02    0.76
 -13  -1   5    5.16    1.08
  13  -1  -5    7.96    1.03
  13   1  -5    6.35    1.00
 -13   1   5    6.80    1.17
  12  -1  -5    6.96    0.95
 -12  -1   5    6.38    1.07
 -12   1   5    5.75    1.05
  12   1  -5    6.74    0.93
 -11  -1   5   39.16    1.98
  11  -1  -5   41.72    1.80
  11   1  -5   38.34    1.71
 -11   1   5   40.91    1.98
  10  -1  -5    1.62    0.58
 -10  -1   5    0.62    0.64
 -10   1   5    0.35    0.58
 -10   1   5    0.03    0.44
  10   1  -5    1.13    0.53
  -9  -1   5    1.23    0.61
   9  -1  -5    0.55    0.51
   9   1  -5    1.39    0.49
  -9   1   5    0.66    0.40
  -9   1   5    0.25    0.53
   9   1  -5    0.84    0.41
   8  -1  -5   37.19    1.42
  -8  -1   5   36.87    1.65
  -8   1   5   31.89    1.47
   8   1  -5   32.91    1.32
   8   1  -5   35.05    1.20
  -8   1   5   34.30    1.26
  -7  -1   5    1.26    0.48
   7  -1  -5    0.28    0.35
   7   1  -5    0.83    0.36
  -7   1   5    1.98    0.48
   7   1  -5    1.45    0.35
  -7   1   5    0.93    0.33
  -6  -1   5   74.92    2.21
   6  -1  -5   75.92    2.00
  -6   1   5   74.17    2.08
  -6   1   5   73.79    1.86
   6   1  -5   73.01    1.81
   6   1  -5   75.71    1.92
  -5  -1   5   12.11    0.79
   5  -1  -5   11.25    0.64
   5   1  -5   12.48    0.63
  -5   1   5   13.47    0.74
  -5   1   5   11.45    0.60
   5   1  -5   12.30    0.61
  -4  -1   5   13.17    0.75
   4  -1  -5   11.50    0.59
  -4   1   5   10.94    0.56
   4   1  -5   12.21    0.58
   4   1  -5   11.34    0.56
  -4   1   5   11.44    0.64
  -3  -1   5  188.57    3.71
   3  -1  -5  189.66    3.75
  -3  -1   5  193.41    3.92
   3  -1  -5  193.29    3.73
  -3   1   5  190.49    3.85
  -3   1   5  175.39    3.53
   3   1  -5  186.71    3.73
  -2  -1   5    0.33    0.18
   2  -1  -5    0.75    0.21
  -2  -1   5    0.47    0.21
   2  -1  -5    0.62    0.16
   2   1  -5    0.40    0.16
   2   1  -5    0.65    0.19
  -2   1   5    0.66    0.20
  -2   1   5    0.59    0.21
   1  -1  -5   58.29    1.25
   1  -1  -5   59.00    1.43
  -1  -1   5   58.35    1.42
  -1  -1   5   59.20    1.36
   1   1  -5   58.38    1.40
   1   1  -5   58.58    1.38
  -1   1   5   56.98    1.45
  -1   1   5   58.50    1.46
   0  -1  -5   10.58    0.33
   0  -1   5   10.28    0.52
   0  -1   5   10.11    0.38
   0  -1  -5    9.44    0.51
   0   1   5    9.40    0.57
   0   1  -5    9.42    0.53
   0   1  -5   10.54    0.47
   0   1   5    9.20    0.49
   1  -1   5  181.43    3.35
  -1  -1  -5  186.35    3.73
   1  -1   5  183.01    3.70
  -1   1  -5  186.83    3.82
   1   1   5  187.95    3.69
   1   1   5  179.60    3.86
  -1   1  -5  181.30    3.59
   2  -1   5   72.66    1.82
  -2  -1  -5   73.73    1.83
  -2   1  -5   72.96    1.94
  -2   1  -5   74.96    1.69
   2   1   5   72.29    1.98
   2   1   5   73.25    1.75
  -3  -1  -5    0.92    0.27
   3  -1   5    1.15    0.31
   3   1   5    1.12    0.38
  -3   1  -5    0.80    0.23
  -3   1  -5    1.40    0.38
   3   1   5    0.86    0.27
  -4  -1  -5   51.88    1.53
   4  -1   5   49.23    1.52
   4   1   5   50.56    1.44
  -4   1  -5   48.95    1.37
   4   1   5   50.63    1.71
  -4   1  -5   51.25    1.69
   5  -1   5   59.44    1.60
  -5  -1  -5   59.89    1.66
   5  -1   5   61.63    1.82
  -5  -1  -5   58.97    1.78
  -5   1  -5   57.96    1.93
   5   1   5   58.92    1.95
   6  -1   5   60.18    1.72
   6  -1   5   65.13    1.99
  -6  -1  -5   61.85    1.93
  -6  -1  -5   63.90    1.82
   6   1   5   62.82    2.08
  -6   1  -5   60.89    2.09
   7  -1   5   17.22    1.12
  -7  -1  -5   15.54    1.05
   7  -1   5   15.60    0.89
  -7  -1  -5   15.79    0.95
   7   1   5   12.49    1.05
  -7   1  -5   15.67    1.21
  -8  -1  -5    1.87    0.57
   8  -1   5    1.15    0.51
   8  -1   5    0.83    0.55
  -8   1  -5    2.68    0.72
   8   1   5    0.86    0.63
   9  -1   5   25.99    1.55
  -9  -1  -5   25.21    1.49
   9  -1   5   25.71    1.34
  -9   1  -5   28.45    1.68
   9   1   5   26.57    1.60
 -10  -1  -5   28.71    1.66
  10  -1   5   28.42    1.65
  10   1   5   27.25    1.67
 -10   1  -5   26.34    1.70
 -11  -1  -5    0.87    0.76
  11   1   5    0.46    0.78
 -11   1  -5    3.73    1.00
  12   1   5   13.98    1.45
 -12  -2   5   26.30    1.82
  12  -2  -5   29.04    1.65
  12   2  -5   24.19    1.55
 -12   2   5   27.48    1.64
 -11  -2   5    3.76    1.01
  11  -2  -5    4.56    0.80
  11   2  -5    4.98    0.89
  11   2  -5    4.55    0.83
 -11   2   5    2.95    0.83
 -11   2   5    6.93    0.92
 -10  -2   5   44.32    2.08
  10  -2  -5   46.08    1.85
  10   2  -5   46.23    1.73
  10   2  -5   45.02    1.82
 -10   2   5   47.40    1.84
 -10   2   5   41.27    1.96
  -9  -2   5   43.04    1.95
   9  -2  -5   42.85    1.74
  -9   2   5   43.73    1.87
   9   2  -5   44.92    1.63
  -9   2   5   44.55    1.70
   9   2  -5   45.01    1.69
   8  -2  -5   68.00    2.17
  -8  -2   5   70.38    2.45
  -8   2   5   71.84    2.13
   8   2  -5   68.02    2.05
  -8   2   5   73.21    2.31
   8   2  -5   75.53    2.14
  -7  -2   5   39.18    1.68
   7  -2  -5   37.45    1.44
   7   2  -5   38.56    1.37
  -7   2   5   40.29    1.43
  -7   2   5   38.11    1.52
   7   2  -5   38.64    1.39
  -6  -2   5    1.43    0.46
   6  -2  -5    1.58    0.40
  -6   2   5    2.17    0.43
   6   2  -5    1.77    0.41
   6   2  -5    1.72    0.42
  -6   2   5    1.46    0.42
   5  -2  -5  341.03    6.80
  -5  -2   5  347.90    7.11
  -5   2   5  344.60    6.79
   5   2  -5  350.74    6.70
  -5   2   5  350.21    6.89
   5   2  -5  344.21    6.75
  -4  -2   5   84.49    2.33
   4  -2  -5   85.50    2.12
  -4   2   5   87.62    2.15
   4   2  -5   88.32    2.08
   4   2  -5   86.00    2.12
  -4   2   5   86.74    2.20
   3  -2  -5    8.81    0.57
  -3  -2   5    8.35    0.65
   3  -2  -5    8.05    0.51
   3   2  -5    8.59    0.54
  -3   2   5    8.39    0.56
  -3   2   5    7.79    0.56
   3   2  -5    9.51    0.62
  -2  -2   5  275.75    5.41
   2  -2  -5  276.59    5.27
  -2  -2   5  271.48    5.50
   2  -2  -5  278.15    5.45
   2   2  -5  281.10    5.37
  -2   2   5  278.78    5.51
  -2   2   5  276.05    5.16
   1  -2  -5    4.33    0.31
  -1  -2   5    3.80    0.39
  -1  -2   5    4.04    0.43
   1  -2  -5    3.71    0.40
  -1   2   5    4.95    0.49
  -1   2   5    4.22    0.38
   1   2  -5    3.52    0.33
   1   2  -5    3.66    0.38
   0  -2   5  118.23    2.63
   0  -2  -5  123.32    2.28
   0  -2   5  120.68    2.47
   0  -2  -5  118.05    2.64
   0   2  -5  118.65    2.58
   0   2  -5  117.08    2.61
   0   2   5  117.51    2.70
   0   2   5  117.02    2.64
   1  -2   5  284.42    5.50
  -1  -2  -5  284.21    5.52
   1  -2   5  284.44    5.11
   1   2   5  282.62    5.62
  -1   2  -5  274.14    5.58
  -1   2  -5  273.03    5.41
   1   2   5  277.38    5.56
  -2  -2  -5  168.28    3.51
   2  -2   5  162.78    3.47
   2   2   5  153.97    3.63
   2   2   5  168.00    3.56
  -2   2  -5  164.00    3.41
  -2   2  -5  158.67    3.64
   3  -2   5  233.07    4.79
  -3  -2  -5  234.64    4.82
   3   2   5  235.91    4.87
  -3   2  -5  231.97    5.05
  -3   2  -5  234.79    4.72
   3   2   5  237.20    5.07
  -4  -2  -5   40.45    1.37
   4  -2   5   40.93    1.40
   4   2   5   40.86    1.59
  -4   2  -5   39.41    1.31
  -4   2  -5   41.97    1.63
   4   2   5   42.91    1.44
  -5  -2  -5   80.31    2.20
   5  -2   5   82.28    2.21
  -5  -2  -5   79.95    2.23
  -5   2  -5   77.44    2.11
   5   2   5   83.62    2.49
  -5   2  -5   79.02    2.48
  -6  -2  -5   28.01    1.26
  -6  -2  -5   30.11    1.31
   6  -2   5   31.42    1.34
   6  -2   5   27.99    1.22
  -6   2  -5   29.08    1.51
   6   2   5   27.32    1.47
   7  -2   5    0.16    0.43
  -7  -2  -5    1.09    0.48
  -7  -2  -5    0.22    0.40
   7  -2   5    0.14    0.50
  -7   2  -5    1.17    0.67
   7   2   5   -0.08    0.58
   8  -2   5  138.92    3.60
  -8  -2  -5  141.05    3.65
   8  -2   5  134.81    3.46
  -8  -2  -5  135.96    3.55
  -8   2  -5  143.27    3.95
   8   2   5  137.78    3.81
  -9  -2  -5   21.45    1.38
   9  -2   5   23.82    1.60
   9  -2   5   21.29    1.33
  -9  -2  -5   21.39    1.39
   9   2   5   22.26    1.59
  -9   2  -5   21.99    1.66
  10  -2   5    7.82    1.04
 -10   2  -5   10.40    1.28
  10   2   5   10.89    1.26
  11  -2   5   51.07    2.22
  11   2   5   48.96    2.35
 -11   2  -5   51.09    2.58
 -12   3   5   35.74    1.95
  11  -3  -5   70.47    2.61
 -11  -3   5   73.53    2.93
 -11   3   5   68.52    2.56
  10  -3  -5    6.13    0.90
 -10  -3   5    5.30    1.07
 -10   3   5    5.40    0.90
  10   3  -5    4.71    0.86
  10   3  -5    3.92    0.85
   9  -3  -5   97.02    2.91
  -9  -3   5   99.09    3.24
   9   3  -5   95.90    2.77
  -9   3   5   98.02    2.90
  -9   3   5   98.59    3.04
   9   3  -5  101.27    2.87
  -8  -3   5   22.94    1.56
   8  -3  -5   24.38    1.33
  -8   3   5   22.91    1.33
  -8   3   5   24.94    1.39
   8   3  -5   22.23    1.19
   8   3  -5   22.83    1.33
   7  -3  -5   20.15    1.19
  -7  -3   5   22.29    1.43
  -7   3   5   22.03    1.25
   7   3  -5   24.34    1.15
   7   3  -5   23.59    1.25
  -7   3   5   22.29    1.23
  -6  -3   5  170.67    4.33
   6  -3  -5  176.73    4.08
   6   3  -5  178.09    4.05
   6   3  -5  177.02    3.90
  -6   3   5  173.06    4.05
  -6   3   5  179.04    4.11
  -5  -3   5   57.33    2.01
   5  -3  -5   57.22    1.77
  -5   3   5   56.23    1.81
  -5   3   5   52.54    1.74
   5   3  -5   55.44    1.78
   5   3  -5   55.24    1.66
   4  -3  -5  174.50    3.84
  -4  -3   5  173.41    4.10
  -4   3   5  172.95    3.94
   4   3  -5  172.57    3.88
  -4   3   5  174.88    3.90
   4   3  -5  175.44    3.75
   3  -3  -5  223.11    4.55
  -3  -3   5  218.05    4.80
   3  -3  -5  222.72    4.69
   3   3  -5  213.17    4.63
  -3   3   5  216.23    4.65
  -3   3   5  221.81    4.71
   3   3  -5  223.10    4.54
  -2  -3   5    3.90    0.51
  -2  -3   5    2.52    0.43
   2  -3  -5    3.58    0.42
   2  -3  -5    2.69    0.46
  -2   3   5    2.49    0.45
   2   3  -5    4.09    0.49
  -1  -3   5  219.62    4.62
   1  -3  -5  223.73    4.66
   1  -3  -5  215.62    4.36
  -1  -3   5  217.15    4.60
  -1   3   5  225.99    4.43
   1   3  -5  226.89    4.58
  -1   3   5  226.42    4.74
   0  -3   5   27.29    1.12
   0  -3   5   26.10    1.07
   0  -3  -5   26.12    1.05
   0   3  -5   26.90    1.04
   0   3   5   25.85    0.98
   0   3  -5   27.08    0.97
   0   3   5   26.03    1.13
   1  -3   5   48.84    1.52
  -1  -3  -5   48.14    1.50
  -1   3  -5   47.91    1.49
  -1   3  -5   49.65    1.49
   1   3   5   50.64    1.55
   1   3   5   47.55    1.61
  -2  -3  -5  285.72    5.86
   2  -3   5  291.51    5.85
  -2   3  -5  289.71    5.85
   2   3   5  298.49    6.05
  -2   3  -5  296.42    5.99
   2   3   5  286.17    6.03
  -3  -3  -5   38.00    1.36
   3  -3   5   40.13    1.39
  -3   3  -5   36.03    1.34
   3   3   5   39.77    1.53
  -3   3  -5   40.51    1.56
   3   3   5   40.94    1.59
  -4  -3  -5  104.84    2.63
   4  -3   5  101.57    2.60
  -4   3  -5  103.06    2.90
  -4   3  -5  105.04    2.64
   4   3   5  101.24    2.78
   4   3   5   97.50    2.87
  -5  -3  -5  108.00    2.98
  -5  -3  -5  110.09    2.79
   5  -3   5  113.25    2.82
  -5   3  -5  101.73    3.08
  -5   3  -5  103.27    2.76
   5   3   5  109.04    3.13
  -6  -3  -5    3.37    0.60
  -6  -3  -5    2.05    0.63
   6  -3   5    2.13    0.58
   6  -3   5    2.11    0.56
   6   3   5    3.12    0.77
  -6   3  -5    2.64    0.80
  -7  -3  -5  111.11    3.23
  -7  -3  -5  106.75    2.95
   7  -3   5  113.43    3.07
   7  -3   5  110.57    2.99
  -7   3  -5  111.92    3.43
   7   3   5  107.19    3.34
   8  -3   5    7.24    0.93
  -8  -3  -5    7.46    1.00
   8   3   5    7.09    1.07
  -8   3  -5    6.81    1.17
   9  -3   5   37.14    1.85
  -9  -3  -5   33.70    1.90
   9   3   5   36.65    2.06
  -9   3  -5   34.94    2.11
 -10  -3  -5   47.53    2.30
  10  -3   5   46.57    2.18
 -10  -4   5   30.85    2.23
  10  -4  -5   36.51    1.88
 -10   4   5   33.45    2.10
  10   4  -5   34.51    1.94
   9  -4  -5    3.46    0.81
  -9  -4   5    2.39    0.97
  -9   4   5    2.36    0.81
   9   4  -5    4.12    0.90
   8  -4  -5   23.49    1.48
  -8  -4   5   25.12    1.73
   8   4  -5   24.75    1.54
  -8   4   5   25.79    1.57
  -7  -4   5   61.67    2.52
   7  -4  -5   62.53    2.23
  -7   4   5   61.38    2.25
  -7   4   5   65.97    2.29
   7   4  -5   60.23    2.23
   7   4  -5   62.63    2.04
  -6  -4   5   30.00    1.70
   6  -4  -5   26.79    1.41
  -6   4   5   29.91    1.49
   6   4  -5   29.52    1.50
  -6   4   5   30.35    1.48
   6   4  -5   31.18    1.35
   5  -4  -5   77.35    2.35
  -5  -4   5   77.87    2.66
  -5   4   5   81.01    2.45
   5   4  -5   77.45    2.42
   5   4  -5   82.60    2.28
  -5   4   5   81.08    2.46
   4  -4  -5   14.58    0.96
  -4  -4   5   15.16    1.19
   4   4  -5   14.96    0.93
  -4   4   5   14.78    1.02
  -4   4   5   16.67    1.08
   4   4  -5   15.22    1.09
   3  -4  -5   16.86    1.03
  -3  -4   5   17.53    1.14
   3   4  -5   16.19    1.08
  -3   4   5   16.26    1.05
   3   4  -5   16.27    0.98
  -2  -4   5   42.81    1.63
  -2  -4   5   42.22    1.60
   2  -4  -5   42.80    1.57
   2   4  -5   38.81    1.45
  -2   4   5   41.26    1.61
  -1  -4   5   11.52    0.91
   1  -4  -5   10.19    0.84
   1   4  -5   11.48    0.83
  -1   4   5   10.15    0.93
   0  -4   5   79.92    2.28
   0  -4  -5   80.15    2.26
   0   4  -5   79.70    2.23
   0   4   5   79.97    2.41
   1  -4   5   32.85    1.35
  -1  -4  -5   27.81    1.24
   1   4   5   30.78    1.43
   1   4   5   32.26    1.27
  -1   4  -5   31.09    1.30
   2  -4   5    2.96    0.57
  -2  -4  -5    3.11    0.54
   2   4   5    4.85    0.66
   2   4   5    2.54    0.60
  -2   4  -5    2.48    0.55
  -2   4  -5    3.43    0.59
  -3  -4  -5   86.64    2.44
   3  -4   5   89.34    2.48
  -3   4  -5   87.70    2.52
   3   4   5   93.04    2.70
  -3   4  -5   93.36    2.64
   3   4   5   89.02    2.71
  -4  -4  -5   15.36    0.99
   4  -4   5   16.22    1.06
  -4   4  -5   17.80    1.15
   4   4   5   15.35    1.22
   4   4   5   15.42    1.27
  -4   4  -5   15.31    1.25
  -5  -4  -5    9.66    1.07
  -5  -4  -5   11.17    1.44
   5  -4   5   11.87    0.99
   5   4   5   11.46    1.21
  -5   4  -5   13.70    1.11
  -5   4  -5   10.04    1.16
  -6  -4  -5   51.49    2.18
   6  -4   5   49.33    1.99
   6   4   5   50.12    2.26
  -6   4  -5   50.31    2.28
  -7  -4  -5    0.97    0.69
   7  -4   5   -0.21    0.63
  -7   4  -5    1.02    0.90
   7   4   5    0.17    0.79
   8  -4   5   24.35    1.63
  -8  -4  -5   26.32    1.77
  -8   4  -5   23.87    2.00
   8   4   5   25.31    1.98
   7  -5  -5    1.17    0.72
  -7  -5   5   -0.48    0.72
   7   5  -5    1.50    0.98
  -7   5   5    0.81    0.69
  -6  -5   5    5.23    1.04
  -6   5   5    4.46    0.85
   6   5  -5    5.00    0.91
  -5  -5   5    3.26    0.87
   5  -5  -5    1.84    0.62
  -5   5   5    2.99    0.70
   5   5  -5    1.66    0.71
  -5   5   5    2.64    0.71
   4  -5  -5    0.91    0.56
  -4   5   5    0.69    0.55
   4   5  -5    0.88    0.57
   4   5  -5    1.20    0.66
  -3  -5   5    8.30    0.95
   3  -5  -5    7.28    0.89
  -3   5   5    9.03    1.00
   3   5  -5    7.61    0.83
   2  -5  -5    1.63    0.56
  -2  -5   5    1.53    0.64
  -2   5   5    1.43    0.59
   2   5  -5    0.95    0.51
  -1  -5   5    0.64    0.57
   1  -5  -5    0.94    0.49
  -1   5   5   -0.03    0.49
   1   5  -5    1.14    0.52
   0  -5   5    3.59    0.71
   0  -5  -5    5.78    0.78
   0   5   5    5.26    0.85
   0   5  -5    4.34    0.73
   1  -5   5    1.53    0.61
  -1  -5  -5    1.01    0.49
  -1   5  -5    1.38    0.60
   1   5   5    0.74    0.58
  -2  -5  -5    3.52    0.61
   2  -5   5    4.66    0.75
  -2   5  -5    3.89    0.74
   2   5   5    4.20    0.81
   3  -5   5    3.97    0.75
   3   5   5    2.81    0.79
   3   5   5    4.40    0.78
  -3   5  -5    3.41    0.75
  -4  -5  -5    1.22    0.73
  -4   5  -5    3.40    0.77
   4   5   5    1.94    0.73
   5  -5   5   14.13    1.31
  -5  -5  -5   12.66    1.36
   5   5   5   14.17    1.42
  -5   5  -5   12.28    1.30
  -6   5  -5    2.40    0.95
  13   0  -6   52.76    2.22
 -13   0   6   46.21    2.41
  12   0  -6   -0.19    0.64
 -12   0   6    0.18    0.70
 -11   0   6   75.32    2.78
  11   0  -6   77.44    2.50
 -10   0   6    5.56    0.97
  10   0  -6    4.09    0.71
  -9   0   6   49.67    2.07
   9   0  -6   52.82    1.82
  -8   0   6   75.84    1.98
   8   0  -6   73.07    2.14
  -8   0   6   67.72    2.35
   7   0  -6    2.89    0.50
  -7   0   6    2.55    0.56
  -7   0   6    1.94    0.33
   7   0  -6    2.62    0.48
  -6   0   6  141.01    3.36
  -6   0   6  134.28    2.77
   6   0  -6  142.00    3.14
  -6   0   6  139.35    2.86
  -5   0   6  123.76    2.54
   5   0  -6  126.09    2.61
   5   0  -6  127.77    2.80
  -5   0   6  131.08    3.04
  -4   0   6  331.10    6.13
   4   0  -6  336.31    6.17
  -4   0   6  334.51    6.47
   4   0  -6  327.06    6.30
  -3   0   6   25.63    0.78
   3   0  -6   25.59    0.82
  -3   0   6   29.08    0.95
   3   0  -6   26.78    0.80
  -2   0   6   18.78    0.71
   2   0  -6   17.92    0.64
  -2   0   6   17.62    0.64
   2   0  -6   17.49    0.62
   1   0  -6  674.11   12.24
  -1   0   6  670.15   12.25
  -1   0   6  675.68   12.22
   1   0  -6  684.47   12.13
   0   0   6  354.08    6.60
   0   0  -6  357.77    6.52
   0   0  -6  357.94    6.73
   0   0   6  357.00    6.75
   1   0   6  147.80    2.94
  -1   0  -6  149.71    3.17
  -1   0  -6  150.05    2.89
   1   0   6  147.32    3.19
   2   0   6  456.59    8.22
  -2   0  -6  450.09    8.54
   2   0   6  440.55    8.55
  -2   0  -6  454.54    8.18
   3   0   6  143.43    3.30
  -3   0  -6  147.16    2.88
   3   0   6  147.57    2.91
  -3   0  -6  137.56    3.24
  -4   0  -6   40.48    1.09
  -4   0  -6   40.36    1.08
   4   0   6   39.37    1.45
  -4   0  -6   38.19    1.40
   5   0   6  142.35    3.45
   5   0   6  141.62    2.96
  -5   0  -6  142.07    3.42
  -6   0  -6    2.16    0.52
   6   0   6    1.10    0.52
   7   0   6  140.51    3.61
  -7   0  -6  135.52    3.57
  -8   0  -6  123.50    3.46
   8   0   6  120.64    3.39
  -9   0  -6   22.70    1.55
   9   0   6   25.31    1.61
  10   0   6   49.22    2.15
 -10   0  -6   50.49    2.25
 -11   0  -6   13.98    1.46
  11   0   6   14.12    1.39
  13  -1  -6   11.18    1.19
 -13  -1   6    9.65    1.35
 -13   1   6    8.89    1.33
  13   1  -6   11.56    1.22
  12  -1  -6   48.24    2.02
 -12  -1   6   41.48    2.17
 -12   1   6   42.16    2.18
  12   1  -6   50.44    2.04
 -11  -1   6    0.53    0.73
  11  -1  -6   -0.03    0.55
  11   1  -6    0.68    0.61
 -11   1   6    0.95    0.75
 -10  -1   6   70.87    2.57
  10  -1  -6   72.57    2.31
 -10   1   6   65.59    2.47
 -10   1   6   73.42    2.11
  10   1  -6   67.80    2.25
  -9  -1   6   75.25    2.56
   9  -1  -6   76.14    2.29
  -9   1   6   75.24    2.10
  -9   1   6   72.98    2.47
   9   1  -6   76.91    2.29
   8  -1  -6  125.57    3.13
  -8  -1   6  124.20    3.42
   8   1  -6  127.34    3.10
  -8   1   6  126.46    2.96
  -8   1   6  127.10    3.34
   8   1  -6  128.10    2.87
  -7  -1   6  264.19    5.93
   7  -1  -6  265.64    5.63
   7   1  -6  284.17    5.61
   7   1  -6  277.14    5.38
  -7   1   6  270.01    5.46
  -7   1   6  277.34    5.85
  -6  -1   6   79.95    2.35
   6  -1  -6   82.00    2.13
   6   1  -6   81.97    1.96
   6   1  -6   80.68    2.08
  -6   1   6   84.74    2.03
  -6   1   6   80.54    2.26
  -5  -1   6   44.56    1.54
   5  -1  -6   46.54    1.36
   5   1  -6   42.62    1.30
  -5   1   6   45.18    1.46
  -5   1   6   44.08    1.29
   5   1  -6   43.75    1.25
   4  -1  -6  188.92    3.87
  -4  -1   6  191.84    4.11
   4  -1  -6  195.84    3.90
  -4  -1   6  189.20    3.82
  -4   1   6  194.62    4.05
   4   1  -6  187.30    3.87
  -3  -1   6    8.63    0.51
  -3  -1   6    8.26    0.57
   3  -1  -6    8.30    0.46
   3  -1  -6    8.75    0.52
   3   1  -6    8.46    0.50
   3   1  -6    8.15    0.40
  -3   1   6    7.53    0.54
  -3   1   6    7.94    0.46
  -2  -1   6  226.48    4.43
  -2  -1   6  226.27    4.45
   2  -1  -6  226.24    4.30
   2  -1  -6  228.10    4.46
   2   1  -6  227.93    4.35
  -2   1   6  223.00    4.43
   2   1  -6  227.70    4.41
  -2   1   6  223.36    4.52
  -1  -1   6   39.92    1.06
   1  -1  -6   40.86    0.97
   1  -1  -6   41.60    1.18
  -1  -1   6   39.54    1.15
   1   1  -6   44.10    1.19
  -1   1   6   41.03    1.23
  -1   1   6   40.70    1.19
   1   1  -6   41.72    1.11
   0  -1  -6  108.50    2.12
   0  -1   6  109.12    2.20
   0  -1   6  112.80    2.46
   0  -1  -6  110.12    2.45
   0   1   6  108.78    2.56
   0   1  -6  110.85    2.50
   0   1  -6  110.42    2.34
   0   1   6  110.01    2.43
   1  -1   6  358.09    6.95
  -1  -1  -6  366.75    6.98
   1  -1   6  366.94    6.55
  -1  -1  -6  365.82    6.50
  -1   1  -6  370.03    7.08
   1   1   6  367.71    6.90
   1   1   6  359.25    7.13
  -1   1  -6  359.07    6.79
  -2  -1  -6    0.61    0.27
   2  -1   6    0.56    0.30
  -2  -1  -6    0.42    0.11
   2  -1   6    0.68    0.11
  -2   1  -6    0.51    0.21
   2   1   6    1.24    0.39
  -2   1  -6    0.36    0.30
   2   1   6    1.03    0.27
   3  -1   6  136.05    3.08
  -3  -1  -6  135.15    3.08
  -3   1  -6  134.28    2.86
   3   1   6  137.01    2.96
  -3   1  -6  132.41    3.23
   3   1   6  137.72    3.30
   4  -1   6  119.97    2.89
  -4  -1  -6  111.86    2.84
  -4   1  -6  121.76    2.65
   4   1   6  121.48    3.10
  -4   1  -6  120.25    3.06
   4   1   6  119.06    2.72
   5  -1   6   21.80    1.15
  -5  -1  -6   22.45    0.94
  -5  -1  -6   22.10    1.10
  -5   1  -6   21.89    0.93
  -5   1  -6   22.92    1.27
   5   1   6   21.32    1.24
   6  -1   6  288.84    6.22
  -6  -1  -6  297.51    5.98
   6  -1   6  299.61    5.89
  -6  -1  -6  289.22    6.20
  -6   1  -6  293.56    6.41
   6   1   6  298.43    6.41
   7  -1   6   55.09    1.69
  -7  -1  -6   51.35    1.92
   7  -1   6   52.11    1.95
   7   1   6   50.50    2.01
  -7   1  -6   55.29    2.12
  -8  -1  -6   52.93    2.02
   8  -1   6   54.43    1.82
   8  -1   6   51.90    2.05
  -8   1  -6   54.46    2.23
   8   1   6   60.34    2.23
  -9  -1  -6   65.90    2.39
   9  -1   6   62.07    2.40
  -9   1  -6   67.81    2.54
   9   1   6   63.13    2.45
 -10  -1  -6    0.96    0.73
  10  -1   6    0.32    0.74
 -10   1  -6    0.25    0.78
  10   1   6    0.56    0.80
 -11  -1  -6   38.42    2.07
 -11   1  -6   42.46    2.22
  11   1   6   41.15    2.19
 -12  -2   6    0.74    0.81
  12  -2  -6    0.49    0.69
 -12   2   6    0.06    0.60
 -12   2   6   -0.24    0.72
  12   2  -6   -0.82    0.62
 -11  -2   6   17.90    1.61
  11  -2  -6   18.93    1.38
  11   2  -6   18.27    1.34
 -11   2   6   19.27    1.32
 -11   2   6   15.83    1.50
  10  -2  -6    3.27    0.69
 -10  -2   6    0.62    0.71
 -10   2   6    2.91    0.83
  10   2  -6    1.03    0.61
  10   2  -6    3.17    0.68
 -10   2   6    2.80    0.65
   9  -2  -6    3.28    0.65
  -9  -2   6    2.88    0.81
   9   2  -6    3.41    0.65
   9   2  -6    2.53    0.60
  -9   2   6    2.61    0.61
  -9   2   6    3.58    0.76
  -8  -2   6   24.91    1.47
   8  -2  -6   22.85    1.20
   8   2  -6   23.58    1.18
  -8   2   6   25.18    1.37
   8   2  -6   20.61    1.11
  -8   2   6   23.47    1.19
  -7  -2   6   11.21    1.03
   7  -2  -6   10.40    0.84
  -7   2   6   11.46    0.98
   7   2  -6   11.48    0.84
  -7   2   6   11.50    0.83
   7   2  -6   10.37    0.83
   6  -2  -6   35.97    1.33
  -6  -2   6   36.28    1.56
   6   2  -6   36.74    1.31
   6   2  -6   36.46    1.28
  -6   2   6   37.60    1.44
  -6   2   6   34.28    1.29
  -5  -2   6    0.13    0.37
   5  -2  -6    0.46    0.28
  -5   2   6    0.75    0.32
   5   2  -6    1.95    0.40
   5   2  -6    0.20    0.32
  -5   2   6    0.07    0.29
   4  -2  -6    0.37    0.29
   4  -2  -6    1.66    0.32
  -4  -2   6    0.28    0.34
  -4   2   6    0.65    0.31
   4   2  -6    1.16    0.32
   4   2  -6    0.32    0.31
   3  -2  -6   69.29    1.85
  -3  -2   6   71.06    1.83
  -3  -2   6   68.77    1.94
   3  -2  -6   72.35    1.73
   3   2  -6   71.85    1.80
  -3   2   6   68.52    1.90
  -2  -2   6   -0.17    0.23
  -2  -2   6    0.06    0.23
   2  -2  -6    0.32    0.17
   2  -2  -6    0.22    0.24
  -2   2   6    0.06    0.17
  -2   2   6   -0.07    0.22
   2   2  -6    0.39    0.18
   2   2  -6    0.24    0.23
  -1  -2   6   44.17    1.34
   1  -2  -6   46.35    1.08
  -1  -2   6   45.79    1.25
   1  -2  -6   44.36    1.35
   1   2  -6   45.00    1.30
  -1   2   6   43.90    1.38
  -1   2   6   46.01    1.31
   0  -2  -6   83.36    1.61
   0  -2   6   83.22    1.78
   0  -2  -6   84.64    2.07
   0  -2   6   81.73    2.03
   0   2   6   81.38    2.09
   0   2  -6   77.56    2.05
   0   2  -6   80.13    1.96
   0   2   6   80.07    2.08
   1  -2   6    0.88    0.30
  -1  -2  -6    0.60    0.27
  -1   2  -6    0.43    0.35
   1   2   6    0.94    0.30
   1   2   6    0.31    0.31
  -1   2  -6    0.66    0.27
  -2  -2  -6    0.75    0.29
   2  -2   6    0.62    0.32
  -2   2  -6    0.78    0.28
   2   2   6    0.76    0.30
  -2   2  -6    0.44    0.39
   2   2   6    0.70    0.38
  -3  -2  -6   35.39    1.30
   3  -2   6   37.12    1.32
   3   2   6   37.33    1.53
   3   2   6   35.74    1.31
  -3   2  -6   37.53    1.23
  -3   2  -6   35.69    1.50
   4  -2   6    3.98    0.58
  -4  -2  -6    3.12    0.51
  -4   2  -6    4.10    0.53
  -4   2  -6    4.27    0.73
   4   2   6    4.04    0.69
   4   2   6    3.94    0.56
  -5  -2  -6    3.61    0.59
   5  -2   6    5.42    0.69
  -5  -2  -6    3.60    0.55
  -5   2  -6    5.17    0.82
   5   2   6    3.66    0.73
  -5   2  -6    3.76    0.56
   6  -2   6   14.97    1.09
   6  -2   6   16.88    0.99
  -6  -2  -6   18.81    1.09
  -6  -2  -6   17.50    1.10
   6   2   6   17.73    1.31
  -6   2  -6   18.54    1.33
   7  -2   6    0.76    0.51
   7  -2   6    0.64    0.59
  -7  -2  -6    0.43    0.47
  -7  -2  -6    0.34    0.50
  -7   2  -6    0.75    0.69
   7   2   6    0.53    0.64
  -8  -2  -6    9.43    1.01
   8  -2   6    7.69    0.89
  -8  -2  -6    9.65    0.97
   8  -2   6    7.40    0.96
   8   2   6   10.04    1.21
  -8   2  -6    9.12    1.18
   9  -2   6    2.25    0.72
   9  -2   6    3.21    0.82
  -9  -2  -6    2.60    0.74
  -9   2  -6    3.00    0.97
   9   2   6    2.51    0.92
 -10  -2  -6   15.80    1.60
  10  -2   6   18.09    1.36
  10   2   6   14.38    1.47
 -10   2  -6   17.54    1.69
 -12   3   6    6.92    1.09
 -11  -3   6    0.51    0.83
  11  -3  -6   -0.10    0.65
  11   3  -6    0.71    0.69
 -11   3   6    0.42    0.64
 -10  -3   6    1.26    0.79
  10  -3  -6    1.46    0.64
  10   3  -6    0.90    0.67
  10   3  -6    0.41    0.62
 -10   3   6    1.07    0.73
 -10   3   6    1.25    0.65
   9  -3  -6   -0.32    0.50
  -9  -3   6    0.47    0.70
  -9   3   6    0.78    0.55
  -9   3   6    0.32    0.63
   9   3  -6    0.41    0.58
   9   3  -6    0.13    0.58
   8  -3  -6   -0.26    0.45
  -8  -3   6   -0.35    0.58
   8   3  -6    0.53    0.49
  -8   3   6    0.33    0.53
  -8   3   6    0.06    0.49
   8   3  -6    0.45    0.56
  -7  -3   6    0.51    0.56
   7  -3  -6    0.06    0.40
   7   3  -6    0.52    0.45
   7   3  -6    0.40    0.49
  -7   3   6    0.60    0.47
  -7   3   6    0.76    0.50
  -6  -3   6    2.79    0.66
   6  -3  -6    2.45    0.52
   6   3  -6    1.61    0.55
   6   3  -6    2.18    0.51
  -6   3   6    2.01    0.52
  -6   3   6    2.16    0.57
  -5  -3   6    8.49    0.89
   5  -3  -6   10.50    0.78
   5   3  -6    8.44    0.71
  -5   3   6    9.55    0.86
   5   3  -6    9.43    0.84
  -5   3   6    8.65    0.80
   4  -3  -6   22.50    0.99
   4  -3  -6   23.34    1.11
  -4  -3   6   22.75    1.22
  -4   3   6   25.71    1.17
   4   3  -6   22.53    1.02
   4   3  -6   23.07    1.14
   3  -3  -6    0.65    0.35
  -3  -3   6    0.57    0.39
  -3  -3   6    0.73    0.39
   3  -3  -6    0.64    0.26
  -3   3   6    1.06    0.39
   3   3  -6    0.63    0.34
   2  -3  -6   20.74    1.00
  -2  -3   6   20.30    1.00
   2  -3  -6   20.76    0.84
  -2  -3   6   22.50    1.04
  -2   3   6   21.47    1.05
   2   3  -6   20.58    0.96
  -1  -3   6    1.50    0.42
  -1  -3   6    1.41    0.37
   1  -3  -6    1.11    0.36
  -1   3   6    1.79    0.33
  -1   3   6    1.85    0.44
   1   3  -6    2.48    0.45
   0  -3   6    0.64    0.36
   0  -3  -6    1.00    0.37
   0   3  -6    1.25    0.34
   0   3  -6    1.07    0.38
   0   3   6    0.97    0.32
   0   3   6    0.99    0.36
  -1  -3  -6    4.38    0.55
   1  -3   6    2.83    0.48
   1   3   6    3.06    0.50
  -1   3  -6    4.03    0.52
  -1   3  -6    4.35    0.55
   1   3   6    3.64    0.55
   2  -3   6   18.93    1.00
  -2  -3  -6   20.08    0.99
  -2   3  -6   21.05    1.10
   2   3   6   19.15    1.12
  -2   3  -6   18.69    0.96
   2   3   6   20.18    1.10
  -3  -3  -6    5.19    0.62
   3  -3   6    5.15    0.63
  -3   3  -6    4.93    0.60
  -3   3  -6    5.69    0.78
   3   3   6    5.17    0.66
   3   3   6    7.17    0.85
   4  -3   6   12.25    0.95
  -4  -3  -6   12.75    0.93
   4   3   6   12.42    0.98
  -4   3  -6   11.57    1.09
  -4   3  -6   13.00    0.96
   4   3   6   12.58    1.14
   5  -3   6    8.80    0.89
  -5  -3  -6    9.50    0.89
  -5  -3  -6    6.95    0.85
  -5   3  -6    9.01    1.06
  -5   3  -6    9.87    0.87
   5   3   6    8.75    1.05
   6  -3   6    0.61    0.54
  -6  -3  -6    0.17    0.47
   6  -3   6    0.21    0.53
  -6  -3  -6   -0.13    0.50
   6   3   6    1.20    0.71
  -6   3  -6   -0.06    0.64
  -7  -3  -6    0.37    0.58
   7  -3   6   -0.19    0.56
  -7  -3  -6    0.65    0.54
   7  -3   6    0.66    0.59
   7   3   6   -0.19    0.71
  -7   3  -6   -0.64    0.70
   8  -3   6    2.86    0.78
  -8  -3  -6    3.18    0.80
   8   3   6    0.84    0.82
  -8   3  -6    1.88    0.97
  -9  -3  -6    2.97    0.87
   9  -3   6    1.23    0.76
  -9   3  -6    1.25    0.97
   9   3   6    4.20    1.05
  10  -4  -6   -0.41    0.64
  10   4  -6    0.10    0.72
   9  -4  -6    9.34    1.06
  -9  -4   6    7.74    1.23
   9   4  -6    8.05    1.05
  -9   4   6   10.17    1.18
  -8  -4   6   60.79    2.62
   8  -4  -6   62.72    2.27
   8   4  -6   59.77    2.29
   8   4  -6   63.45    2.19
  -8   4   6   60.81    2.31
  -8   4   6   63.39    2.42
   7  -4  -6    0.63    0.51
  -7  -4   6    0.03    0.65
  -7   4   6    1.16    0.63
   7   4  -6   -0.02    0.52
   7   4  -6   -0.31    0.61
  -7   4   6    0.51    0.57
  -6  -4   6   24.44    1.58
   6  -4  -6   23.40    1.33
   6   4  -6   25.91    1.44
  -6   4   6   24.21    1.36
  -6   4   6   24.43    1.42
   6   4  -6   23.82    1.28
  -5  -4   6   58.83    2.27
   5  -4  -6   60.28    2.08
   5  -4  -6   60.10    2.00
   5   4  -6   58.70    2.08
  -5   4   6   62.79    2.10
  -5   4   6   62.95    2.15
   5   4  -6   60.04    1.96
  -4  -4   6    0.15    0.51
   4  -4  -6    0.42    0.42
   4   4  -6    0.50    0.53
  -4   4   6   -0.12    0.43
   4   4  -6    0.56    0.45
  -3  -4   6   22.36    1.30
  -3  -4   6   24.78    1.30
   3  -4  -6   22.49    1.22
   3   4  -6   25.68    1.19
  -3   4   6   22.02    1.23
  -2  -4   6    0.09    0.44
   2  -4  -6    0.22    0.37
   2   4  -6    0.29    0.43
  -2   4   6    0.03    0.40
   1  -4  -6   14.00    0.96
  -1  -4   6   14.42    1.06
  -1   4   6   11.52    0.95
   1   4  -6   13.05    0.92
   0  -4   6   27.19    1.29
   0  -4  -6   23.46    1.17
   0   4  -6   23.25    1.18
   0   4   6   22.25    1.25
   1  -4   6    0.58    0.47
  -1  -4  -6   -0.13    0.34
   1   4   6    0.41    0.38
   1   4   6    0.04    0.41
  -1   4  -6    0.27    0.44
  -2  -4  -6   52.35    1.81
   2  -4   6   54.87    1.84
   2   4   6   52.47    1.89
  -2   4  -6   55.89    1.83
   2   4   6   49.57    1.97
   3  -4   6    0.28    0.48
  -3  -4  -6    0.37    0.41
  -3   4  -6    0.82    0.56
   3   4   6    0.33    0.50
  -3   4  -6   -0.45    0.45
   3   4   6    0.48    0.54
  -4  -4  -6    9.56    0.90
   4  -4   6    7.81    0.87
   4   4   6    7.82    1.00
   4   4   6    8.49    0.99
  -4   4  -6   10.09    0.97
  -4   4  -6    7.49    0.96
  -5  -4  -6   55.44    1.98
   5  -4   6   55.78    2.00
  -5  -4  -6   55.05    2.23
  -5   4  -6   54.16    2.01
   5   4   6   51.80    2.30
  -5   4  -6   53.36    2.27
  -6  -4  -6    6.86    1.02
   6  -4   6    6.20    0.95
  -6   4  -6    6.71    1.12
   6   4   6    7.58    1.14
  -7  -4  -6   19.54    1.62
   7  -4   6   18.47    1.46
   7   4   6   18.46    1.68
  -7   4  -6   20.36    1.77
  -8  -4  -6   18.45    1.98
  -7  -5   6   48.64    2.45
   6  -5  -6   12.56    1.22
  -6  -5   6   13.51    1.42
  -6   5   6   14.23    1.30
   5  -5  -6   25.31    1.52
   5   5  -6   25.92    1.43
  -5   5   6   26.25    1.56
   5   5  -6   26.45    1.60
  -4  -5   6   48.34    2.03
   4  -5  -6   44.19    1.92
   4   5  -6   48.10    1.85
  -4   5   6   48.37    2.04
  -3  -5   6    1.80    0.71
   3  -5  -6    2.19    0.62
  -3   5   6    2.84    0.70
   3   5  -6    3.57    0.69
  -2  -5   6   90.85    2.77
   2  -5  -6   86.38    2.71
   2   5  -6   81.75    2.55
  -2   5   6   88.56    2.84
  -1  -5   6   35.37    1.72
   1  -5  -6   35.67    1.62
  -1   5   6   33.96    1.74
   1   5  -6   35.55    1.57
   0  -5   6   42.23    1.83
   0  -5  -6   41.05    1.73
   0   5  -6   39.73    1.71
   0   5   6   38.99    1.86
  -1  -5  -6   86.13    2.60
   1  -5   6   83.08    2.64
   1   5   6   84.07    2.84
  -1   5  -6   80.74    2.55
  -2  -5  -6    3.70    0.69
   2  -5   6    4.02    0.78
   2   5   6    3.67    0.83
  -2   5  -6    4.81    0.83
   3  -5   6   30.09    1.60
   3   5   6   30.05    1.74
  -3   5  -6   29.48    1.58
   3   5   6   30.00    1.68
  -4  -5  -6   10.54    1.26
  -4   5  -6   10.40    1.11
   4   5   6   10.19    1.18
   5   5   6    5.24    1.01
 -13   0   7   -0.26    0.80
  13   0  -7   -0.41    0.69
  12   0  -7   -0.33    0.60
 -12   0   7    0.10    0.80
  11   0  -7   -0.43    0.58
 -11   0   7    0.00    0.67
  10   0  -7   -0.21    0.50
 -10   0   7   -0.42    0.59
  -9   0   7   -0.11    0.56
   9   0  -7    0.23    0.46
   8   0  -7    0.26    0.41
  -8   0   7   -0.62    0.43
   7   0  -7    0.06    0.33
  -7   0   7   -0.19    0.39
   6   0  -7    0.22    0.27
  -6   0   7   -0.12    0.32
   6   0  -7   -0.16    0.20
  -5   0   7    0.10    0.20
   5   0  -7    0.17    0.20
   5   0  -7    0.10    0.24
  -5   0   7    0.03    0.27
  -4   0   7   -0.06    0.18
  -4   0   7    0.05    0.23
   4   0  -7    0.12    0.20
   4   0  -7    0.18    0.19
  -3   0   7   -0.25    0.17
   3   0  -7   -0.11    0.16
  -3   0   7   -0.02    0.22
   3   0  -7   -0.20    0.17
   2   0  -7    0.89    0.21
  -2   0   7    0.15    0.20
  -2   0   7    0.03    0.21
   2   0  -7   -0.24    0.17
  -1   0   7    0.26    0.22
   1   0  -7   -0.02    0.16
  -1   0   7    0.16    0.19
   1   0  -7    0.23    0.21
   0   0   7   -0.15    0.17
   0   0   7    0.11    0.23
   0   0  -7   -0.15    0.19
   0   0  -7    0.01    0.15
   1   0   7   -0.16    0.16
  -1   0  -7    0.14    0.24
  -1   0  -7    0.21    0.16
   1   0   7   -0.19    0.26
  -2   0  -7   -0.07    0.26
   2   0   7    0.04    0.31
   2   0   7    0.00    0.17
  -2   0  -7   -0.16    0.16
  -3   0  -7   -0.05    0.30
   3   0   7   -0.47    0.34
   3   0   7    0.06    0.20
  -3   0  -7   -0.12    0.18
   4   0   7   -0.25    0.38
  -4   0  -7    0.13    0.21
  -4   0  -7   -0.14    0.34
   5   0   7    0.31    0.48
  -5   0  -7   -0.17    0.37
  -6   0  -7    0.02    0.44
   6   0   7   -0.11    0.49
  -7   0  -7   -0.35    0.52
   7   0   7    0.20    0.61
  -8   0  -7    0.85    0.67
   8   0   7    0.01    0.65
  -9   0  -7    0.50    0.69
   9   0   7    0.19    0.69
 -10   0  -7   -0.47    0.71
  10   0   7   -0.51    0.74
  11   0   7    0.19    0.80
 -11   0  -7   -0.94    0.80
  13  -1  -7    2.35    1.02
 -13  -1   7    2.61    0.95
  13   1  -7    0.89    0.76
 -13   1   7    0.43    0.81
 -12  -1   7   -0.11    0.73
  12  -1  -7    0.93    0.69
  12   1  -7    0.34    0.68
 -12   1   7   -0.57    0.72
 -11  -1   7   35.01    1.96
  11  -1  -7   35.52    1.70
 -11   1   7   32.83    1.89
  11   1  -7   38.95    1.74
  10  -1  -7   13.35    1.11
 -10  -1   7   11.00    1.22
  10   1  -7    9.41    0.98
 -10   1   7   13.55    1.36
  -9  -1   7    2.84    0.76
   9  -1  -7    2.88    0.61
  -9   1   7    3.52    0.78
   9   1  -7    3.04    0.60
  -9   1   7    3.50    0.57
   8  -1  -7  157.02    3.77
  -8  -1   7  156.37    4.09
  -8   1   7  162.85    4.06
   8   1  -7  162.06    3.47
  -8   1   7  163.12    3.59
   8   1  -7  163.77    3.78
   7  -1  -7    7.77    0.72
  -7  -1   7    5.18    0.75
   7   1  -7    5.18    0.59
  -7   1   7    5.02    0.72
   7   1  -7    4.89    0.52
  -7   1   7    4.33    0.52
   6  -1  -7   20.99    0.97
  -6  -1   7   20.72    1.12
  -6  -1   7   19.69    0.84
  -6   1   7   21.28    1.07
   6   1  -7   20.99    0.95
  -6   1   7   20.18    0.88
   5  -1  -7   55.50    1.58
   5  -1  -7   56.29    1.55
  -5  -1   7   59.90    1.81
  -5  -1   7   54.49    1.49
  -5   1   7   56.95    1.76
   5   1  -7   55.17    1.58
  -4  -1   7    1.95    0.40
  -4  -1   7    2.97    0.38
   4  -1  -7    2.15    0.33
   4  -1  -7    3.05    0.40
  -4   1   7    1.90    0.36
   4   1  -7    2.67    0.36
  -3  -1   7  154.54    3.28
   3  -1  -7  151.43    3.16
  -3  -1   7  146.77    3.12
   3  -1  -7  148.28    3.04
  -3   1   7  148.31    3.27
   3   1  -7  148.55    3.13
   3   1  -7  147.07    3.00
  -3   1   7  142.71    3.08
   2  -1  -7  102.99    2.32
   2  -1  -7   95.52    2.09
  -2  -1   7  101.38    2.26
  -2  -1   7  101.49    2.29
   2   1  -7   99.52    2.22
   2   1  -7  101.11    2.24
  -2   1   7   98.68    2.32
  -2   1   7   98.41    2.35
   1  -1  -7   36.90    1.17
  -1  -1   7   38.20    1.04
  -1  -1   7   35.89    1.15
   1  -1  -7   37.12    0.94
  -1   1   7   38.15    1.17
   1   1  -7   39.46    1.19
   1   1  -7   36.19    1.08
  -1   1   7   35.57    1.22
   0  -1   7   34.07    1.15
   0  -1  -7   37.20    0.88
   0  -1  -7   36.90    1.18
   0   1   7   36.26    1.14
   0   1  -7   38.05    1.24
   0   1   7   35.91    1.28
   0   1  -7   36.68    1.07
  -1  -1  -7    9.18    0.34
   1  -1   7    8.42    0.37
  -1  -1  -7    7.99    0.59
   1  -1   7    7.93    0.62
   1   1   7    8.21    0.55
  -1   1  -7    8.56    0.66
  -1   1  -7    8.10    0.50
   1   1   7    9.00    0.73
  -2  -1  -7   50.69    1.54
   2  -1   7   47.65    1.53
   2   1   7   51.10    1.42
  -2   1  -7   49.30    1.62
  -2   1  -7   48.30    1.33
   2   1   7   53.25    1.72
   3  -1   7    7.00    0.68
  -3  -1  -7    5.52    0.60
   3   1   7    4.66    0.49
  -3   1  -7    5.59    0.49
  -3   1  -7    7.34    0.74
   3   1   7    5.54    0.71
  -4  -1  -7   -0.06    0.33
   4  -1   7    0.55    0.40
   4   1   7    0.31    0.47
  -4   1  -7   -0.31    0.26
   4   1   7    0.18    0.31
  -4   1  -7    0.24    0.40
  -5  -1  -7   74.77    2.01
  -5  -1  -7   75.73    2.28
   5  -1   7   72.86    2.27
  -5   1  -7   81.30    2.03
  -5   1  -7   77.82    2.44
   5   1   7   74.51    2.44
   6  -1   7   -0.14    0.53
   6  -1   7    0.69    0.38
  -6  -1  -7    0.41    0.45
  -6   1  -7    0.64    0.58
   6   1   7    0.48    0.59
  -7  -1  -7    5.14    0.80
   7  -1   7    4.65    0.81
   7  -1   7    4.77    0.68
  -7   1  -7    5.18    0.89
   7   1   7    4.08    0.82
   8  -1   7   33.16    1.74
  -8  -1  -7   33.94    1.69
   8   1   7   34.67    1.83
  -8   1  -7   35.38    1.89
  -9  -1  -7    1.26    0.70
   9  -1   7    0.57    0.71
   9   1   7    2.28    0.85
  -9   1  -7    2.94    0.89
 -10  -1  -7   16.57    1.54
  10  -1   7   18.04    1.55
  10   1   7   17.54    1.55
 -10   1  -7   19.86    1.69
  11  -1   7    5.11    1.10
 -11  -1  -7    3.25    0.99
 -12  -2   7   36.19    2.15
  12  -2  -7   35.30    1.85
  12   2  -7   34.37    1.88
 -12   2   7   30.83    2.04
  11  -2  -7   19.83    1.41
 -11  -2   7   18.02    1.61
 -11   2   7   17.81    1.60
  11   2  -7   17.55    1.40
 -11   2   7   19.76    1.34
  10  -2  -7   49.95    2.01
 -10  -2   7   49.54    2.27
 -10   2   7   54.49    1.96
 -10   2   7   53.44    2.27
  10   2  -7   50.83    2.00
  10   2  -7   52.28    1.91
  -9  -2   7   96.13    3.17
   9  -2  -7   98.40    2.85
  -9   2   7  102.02    2.80
  -9   2   7  108.49    3.15
   9   2  -7  101.24    2.86
   9   2  -7  102.35    2.71
  -8  -2   7   19.76    1.38
   8  -2  -7   18.20    1.12
   8   2  -7   18.31    1.11
  -8   2   7   19.64    1.26
   8   2  -7   18.63    1.08
  -8   2   7   18.01    1.08
   7  -2  -7   60.83    1.93
  -7  -2   7   59.08    2.17
   7   2  -7   63.39    1.92
  -7   2   7   62.34    2.11
  -7   2   7   61.10    1.90
   7   2  -7   62.22    1.86
  -6  -2   7   99.57    2.85
   6  -2  -7   95.62    2.53
   6   2  -7  101.86    2.54
  -6   2   7  100.04    2.56
  -6   2   7  102.82    2.73
   6   2  -7  101.21    2.53
  -5  -2   7   13.78    0.82
   5  -2  -7   15.22    0.81
  -5  -2   7   16.35    1.03
   5  -2  -7   13.72    0.84
   5   2  -7   15.46    0.86
  -5   2   7   14.24    0.90
   5   2  -7   15.47    0.83
  -4  -2   7  287.38    5.82
   4  -2  -7  296.45    5.76
  -4  -2   7  293.04    6.04
   4  -2  -7  295.99    5.89
  -4   2   7  290.00    5.98
   4   2  -7  290.39    5.80
   3  -2  -7    7.13    0.63
  -3  -2   7    6.44    0.58
  -3  -2   7    8.07    0.66
   3  -2  -7    7.82    0.50
  -3   2   7    8.06    0.64
   3   2  -7    8.77    0.63
  -2  -2   7  133.85    3.08
   2  -2  -7  135.78    3.11
  -2  -2   7  144.97    3.08
   2  -2  -7  141.13    2.83
  -2   2   7  139.67    2.96
   2   2  -7  139.21    3.04
  -2   2   7  134.12    3.17
  -1  -2   7  242.54    4.70
  -1  -2   7  240.53    4.91
   1  -2  -7  241.69    4.50
   1  -2  -7  236.94    4.93
  -1   2   7  245.91    5.00
   1   2  -7  240.03    4.84
  -1   2   7  236.21    4.90
   0  -2  -7    0.34    0.27
   0  -2   7    0.10    0.29
   0   2   7   -0.20    0.25
   0   2  -7    0.31    0.32
   0   2  -7   -0.08    0.25
   0   2   7    0.70    0.35
   1  -2   7   87.31    2.22
  -1  -2  -7   85.00    2.22
   1   2   7   78.11    2.33
  -1   2  -7   83.16    2.33
  -1   2  -7   89.45    2.12
   1   2   7   87.59    2.23
  -2  -2  -7   30.20    1.20
   2  -2   7   31.48    1.22
   2   2   7   30.85    1.40
  -2   2  -7   30.15    1.37
   2   2   7   30.11    1.18
  -2   2  -7   31.64    1.12
   3  -2   7   68.05    2.00
  -3  -2  -7   69.62    2.01
   3   2   7   70.31    2.26
   3   2   7   69.45    1.98
  -3   2  -7   65.17    2.21
  -3   2  -7   65.27    1.84
   4  -2   7  127.94    3.20
  -4  -2  -7  128.50    3.21
  -4   2  -7  130.97    3.04
  -4   2  -7  128.69    3.51
   4   2   7  134.85    3.54
   4   2   7  131.80    3.19
   5  -2   7   23.55    1.28
  -5  -2  -7   22.41    1.22
  -5   2  -7   25.59    1.52
   5   2   7   23.42    1.47
   5   2   7   22.70    1.19
  -5   2  -7   23.95    1.12
   6  -2   7   97.69    2.78
   6  -2   7   97.20    2.56
  -6  -2  -7   96.99    2.67
  -6  -2  -7   93.20    2.73
  -6   2  -7   94.69    3.03
   6   2   7   93.83    3.01
  -7  -2  -7   42.63    1.73
   7  -2   7   44.86    1.90
   7  -2   7   41.85    1.63
  -7  -2  -7   40.74    1.80
   7   2   7   45.88    2.06
  -7   2  -7   37.78    1.97
  -8  -2  -7    2.04    0.72
   8  -2   7    2.12    0.78
   8  -2   7    3.01    0.66
   8   2   7    2.44    0.86
  -8   2  -7    1.32    0.80
  -9  -2  -7   41.04    2.00
   9  -2   7   40.46    1.80
   9  -2   7   41.17    2.05
   9   2   7   47.09    2.28
  -9   2  -7   42.71    2.26
 -10  -2  -7    5.99    1.04
  10   2   7    7.08    1.49
 -11  -3   7   29.95    1.99
  11  -3  -7   31.91    1.77
 -11   3   7   31.33    1.76
 -11   3   7   29.90    1.97
  11   3  -7   30.05    1.69
 -10  -3   7   46.80    2.33
  10  -3  -7   43.73    1.91
  10   3  -7   45.04    1.91
 -10   3   7   41.54    2.14
 -10   3   7   45.23    1.98
  10   3  -7   44.47    1.99
   9  -3  -7    7.95    0.92
  -9  -3   7    8.87    1.18
  -9   3   7    9.32    1.02
   9   3  -7    8.09    0.94
  -9   3   7   10.06    1.19
   9   3  -7    9.37    0.97
  -8  -3   7   81.45    2.87
   8  -3  -7   82.05    2.52
   8   3  -7   83.20    2.48
  -8   3   7   85.68    2.57
  -8   3   7   80.60    2.70
   8   3  -7   82.02    2.52
  -7  -3   7   12.49    1.16
   7  -3  -7   15.31    1.04
   7   3  -7   14.80    1.13
   7   3  -7   13.57    1.02
  -7   3   7   13.89    1.03
  -7   3   7   13.66    1.14
  -6  -3   7   44.61    1.89
   6  -3  -7   45.07    1.62
  -6   3   7   44.20    1.76
   6   3  -7   44.05    1.60
   6   3  -7   48.15    1.73
  -6   3   7   45.88    1.70
   5  -3  -7   66.34    1.94
  -5  -3   7   64.78    2.23
   5  -3  -7   65.28    2.05
  -5   3   7   65.26    2.11
   5   3  -7   68.07    1.96
   5   3  -7   64.45    2.02
   4  -3  -7   41.03    1.38
  -4  -3   7   45.03    1.59
   4  -3  -7   43.21    1.57
  -4  -3   7   41.66    1.65
   4   3  -7   41.62    1.46
  -4   3   7   45.04    1.63
   3  -3  -7  110.53    2.83
  -3  -3   7  110.89    2.80
  -3  -3   7  107.64    2.85
   3  -3  -7  114.57    2.91
  -3   3   7  111.52    2.91
   3   3  -7  112.88    2.74
  -2  -3   7  109.37    2.73
   2  -3  -7  107.04    2.75
  -2  -3   7  110.14    2.76
   2   3  -7  109.25    2.67
  -2   3   7  107.25    2.82
   1  -3  -7   46.81    1.59
  -1  -3   7   45.86    1.58
  -1   3   7   45.88    1.65
   1   3  -7   48.18    1.53
   0  -3   7  138.74    3.30
   0  -3  -7  135.10    3.28
   0   3   7  144.37    3.27
   0   3  -7  138.82    3.21
   0   3   7  140.17    3.40
  -1  -3  -7    6.32    0.68
   1  -3   7    6.13    0.67
   1   3   7    6.87    0.71
  -1   3  -7    6.68    0.69
   1   3   7    5.54    0.69
  -1   3  -7    6.28    0.65
  -2  -3  -7  172.11    3.92
   2  -3   7  166.58    3.87
   2   3   7  174.64    4.11
  -2   3  -7  167.74    3.80
   2   3   7  163.79    3.99
  -2   3  -7  174.42    4.07
  -3  -3  -7   56.73    1.86
   3  -3   7   57.62    1.89
  -3   3  -7   56.02    2.08
   3   3   7   58.98    1.97
   3   3   7   58.97    2.13
  -3   3  -7   55.63    1.79
  -4  -3  -7   42.46    1.64
   4  -3   7   42.92    1.66
  -4   3  -7   43.19    1.60
  -4   3  -7   42.26    1.92
   4   3   7   43.36    1.75
   4   3   7   42.78    1.93
  -5  -3  -7  113.26    3.15
  -5  -3  -7  109.53    3.04
   5  -3   7  112.08    3.08
  -5   3  -7  113.67    3.43
   5   3   7  115.77    3.18
   5   3   7  111.74    3.43
  -5   3  -7  115.14    2.99
  -6  -3  -7   45.62    1.84
  -6  -3  -7   49.45    1.98
   6  -3   7   47.85    1.91
   6  -3   7   46.75    1.81
   6   3   7   45.83    2.17
  -6   3  -7   42.33    2.15
  -7  -3  -7   43.18    1.95
  -7  -3  -7   45.39    1.91
   7  -3   7   43.33    1.86
   7  -3   7   42.26    1.89
  -7   3  -7   38.17    2.13
   7   3   7   43.84    2.19
  -8  -3  -7   57.72    2.28
  -8  -3  -7   52.74    2.30
   8  -3   7   69.43    2.95
   8  -3   7   57.86    2.25
  -8   3  -7   57.56    2.62
   8   3   7   59.15    2.63
  -9  -3  -7   -0.15    0.75
   9  -3   7   -0.55    0.71
  -9  -4   7   40.31    2.25
   9  -4  -7   40.60    1.92
  -9   4   7   36.95    1.93
  -9   4   7   36.31    2.01
   9   4  -7   40.54    1.97
  -8  -4   7    0.94    0.78
   8  -4  -7    0.84    0.60
  -8   4   7    0.79    0.69
   8   4  -7    0.22    0.67
   8   4  -7    0.58    0.60
  -8   4   7    0.00    0.57
  -7  -4   7   19.47    1.52
   7  -4  -7   22.14    1.31
  -7   4   7   20.38    1.39
  -7   4   7   20.48    1.42
   7   4  -7   21.07    1.29
   7   4  -7   19.76    1.42
   6  -4  -7   19.33    1.24
   6  -4  -7   17.77    1.25
  -6  -4   7   20.26    1.50
   6   4  -7   18.89    1.23
   6   4  -7   18.18    1.35
  -6   4   7   17.43    1.28
   5  -4  -7    1.30    0.55
  -5  -4   7    1.11    0.66
   5   4  -7    2.08    0.61
  -5   4   7    1.64    0.59
   5   4  -7    1.61    0.63
   4  -4  -7   55.01    2.01
  -4  -4   7   61.20    2.65
  -4  -4   7   59.10    2.10
   4   4  -7   60.90    1.96
  -4   4   7   60.36    2.16
  -3  -4   7   21.28    1.30
   3  -4  -7   21.22    1.21
   3   4  -7   22.87    1.19
  -3   4   7   20.97    1.25
   2  -4  -7   49.78    1.83
  -2  -4   7   48.95    1.85
  -2   4   7   50.66    1.89
   2   4  -7   50.72    1.77
  -1  -4   7   65.41    2.16
   1  -4  -7   67.61    2.15
  -1   4   7   68.62    2.25
   1   4  -7   67.11    2.08
   0  -4   7   -0.03    0.46
   0  -4  -7    0.58    0.42
   0   4  -7   -0.11    0.41
   0   4   7    0.04    0.44
  -1  -4  -7   36.41    1.52
   1  -4   7   36.85    1.58
   1   4   7   38.54    1.69
  -1   4  -7   38.40    1.53
  -2  -4  -7   41.45    1.65
   2  -4   7   41.60    1.72
   2   4   7   43.38    1.77
  -2   4  -7   45.34    1.69
   2   4   7   40.13    1.80
  -3  -4  -7   14.18    1.05
   3  -4   7   13.80    1.10
   3   4   7   14.76    1.19
  -3   4  -7   11.99    1.03
   3   4   7   13.39    1.18
  -3   4  -7   11.49    1.26
   4  -4   7  112.76    3.14
  -4  -4  -7  117.25    3.17
  -4   4  -7  110.61    3.10
  -4   4  -7  111.52    3.39
   4   4   7  111.32    3.34
   4   4   7  122.75    3.52
   5  -4   7    2.89    0.72
  -5  -4  -7    2.49    0.68
  -5  -4  -7    2.75    0.77
  -5   4  -7    2.78    0.70
   5   4   7    2.65    0.85
  -5   4  -7    2.06    0.85
   6  -4   7   43.88    1.99
   6  -4   7   44.30    1.95
  -6  -4  -7   51.40    2.26
   6   4   7   43.16    2.30
   7  -4   7   23.00    1.76
  -7  -4  -7   23.95    1.75
   7   4   7   22.01    1.99
  -7   4  -7   21.07    1.88
  -7   5   7   -0.32    0.70
  -6  -5   7   11.21    1.66
   6  -5  -7   11.81    1.73
   6   5  -7   13.48    1.87
   6   5  -7   10.22    1.06
  -6   5   7   12.22    1.31
   5  -5  -7    0.46    0.58
  -5  -5   7   -0.38    0.63
  -5   5   7    0.99    0.65
   5   5  -7    0.57    0.64
   4  -5  -7    1.01    0.59
  -4  -5   7    2.59    0.79
  -4   5   7    3.02    0.76
   4   5  -7    2.53    0.71
   3  -5  -7   11.62    1.11
  -3  -5   7   11.04    1.12
   3   5  -7   13.36    1.11
  -3   5   7   12.17    1.20
   2  -5  -7    1.35    0.61
  -2  -5   7    0.86    0.66
  -2   5   7    0.80    0.59
   2   5  -7    0.77    0.57
   1  -5  -7    2.73    0.66
  -1  -5   7    1.76    0.72
  -1   5   7    3.28    0.77
   1   5  -7    2.79    0.70
   0  -5   7   22.69    1.51
   0  -5  -7   22.34    1.38
   0   5  -7   20.34    1.32
   0   5   7   18.78    1.43
  -1  -5  -7    1.27    0.56
   1  -5   7    1.25    0.67
   1   5   7    0.03    0.58
  -1   5  -7    0.51    0.57
   2  -5   7    1.48    0.71
  -2  -5  -7    1.94    0.63
  -2   5  -7    1.47    0.68
   2   5   7    1.80    0.72
   3  -5   7    5.04    0.89
  -3  -5  -7    5.71    0.84
   3   5   7    5.02    0.92
  -3   5  -7    6.24    0.92
   4  -5   7   -0.56    0.63
   4   5   7    0.73    0.73
 -13   0   8   61.25    2.71
  13   0  -8   71.80    3.09
  12   0  -8   28.31    1.63
 -12   0   8   25.49    1.79
  11   0  -8   27.02    1.52
 -11   0   8   25.85    1.70
 -10   0   8   88.07    3.01
  10   0  -8   93.29    2.72
  -9   0   8    0.17    0.58
   9   0  -8    0.43    0.48
   8   0  -8  103.26    2.74
  -8   0   8  105.05    3.01
  -7   0   8   43.19    1.67
   7   0  -8   42.28    1.48
   6   0  -8   37.21    1.29
  -6   0   8   35.91    1.44
   6   0  -8   36.54    1.11
  -5   0   8  435.26    8.15
  -5   0   8  438.40    8.58
   5   0  -8  439.83    8.35
   5   0  -8  444.99    8.19
  -4   0   8  134.65    2.87
   4   0  -8  133.27    2.87
  -4   0   8  138.14    3.15
   4   0  -8  138.24    2.95
   3   0  -8   14.70    0.68
  -3   0   8   14.25    0.74
  -3   0   8   14.67    0.69
   3   0  -8   15.90    0.68
  -2   0   8  361.88    6.90
   2   0  -8  365.14    6.77
   2   0  -8  353.05    6.85
  -2   0   8  360.48    6.89
   1   0  -8    0.33    0.19
  -1   0   8    0.37    0.26
  -1   0   8    0.04    0.21
   1   0  -8    0.24    0.25
   0   0   8  166.41    3.61
   0   0  -8  166.19    3.59
   0   0   8  166.42    3.40
   0   0  -8  166.18    3.30
   1   0   8   51.93    1.62
   1   0   8   51.35    1.33
  -1   0  -8   51.74    1.58
  -1   0  -8   51.46    1.27
  -2   0  -8  231.43    4.91
   2   0   8  230.17    4.51
   2   0   8  232.88    4.96
  -2   0  -8  234.61    4.46
  -3   0  -8  232.61    4.47
   3   0   8  241.14    4.61
   3   0   8  223.93    5.02
  -3   0  -8  223.39    4.97
  -4   0  -8    1.16    0.50
   4   0   8    1.66    0.56
  -5   0  -8  120.69    3.21
   5   0   8  117.75    3.21
   6   0   8  161.92    4.12
  -6   0  -8  163.04    4.09
   7   0   8   90.63    2.93
  -7   0  -8   89.65    2.87
  -8   0  -8  138.09    3.94
   8   0   8  138.50    3.91
   9   0   8   10.83    1.26
  -9   0  -8    6.89    1.12
 -10   0  -8   24.93    1.86
  10   0   8   21.62    1.76
 -13   1   8    2.06    1.02
 -12  -1   8   36.73    2.15
  12  -1  -8   38.65    1.87
  12   1  -8   36.56    1.87
 -12   1   8   38.43    2.20
 -11  -1   8   68.75    2.72
  11  -1  -8   74.99    2.47
  11   1  -8   68.59    2.42
 -11   1   8   62.37    2.65
 -10  -1   8    0.39    0.65
  10  -1  -8    1.05    0.59
  10   1  -8    1.12    0.61
 -10   1   8    0.48    0.66
   9  -1  -8   24.51    1.31
  -9  -1   8   24.28    1.51
  -9   1   8   25.15    1.15
  -9   1   8   23.19    1.46
   9   1  -8   24.06    1.30
   8  -1  -8   37.25    1.49
  -8  -1   8   34.16    1.66
  -8   1   8   37.59    1.36
  -8   1   8   36.18    1.69
   8   1  -8   36.80    1.47
  -7  -1   8   16.92    0.84
   7  -1  -8   15.95    0.87
  -7  -1   8   17.45    1.18
   7  -1  -8   17.48    0.98
   7   1  -8   16.32    0.93
  -7   1   8   15.14    1.05
  -6  -1   8   62.34    2.04
   6  -1  -8   62.75    1.72
  -6  -1   8   61.63    1.67
   6  -1  -8   62.12    1.81
  -6   1   8   59.72    1.97
   6   1  -8   62.83    1.81
   5  -1  -8    0.15    0.27
   5  -1  -8    0.50    0.29
  -5  -1   8    0.25    0.29
  -5  -1   8    0.32    0.37
  -5   1   8   -0.28    0.28
   5   1  -8    0.15    0.29
  -4  -1   8  149.03    3.29
  -4  -1   8  140.31    3.06
   4  -1  -8  140.06    3.08
   4  -1  -8  138.47    3.00
   4   1  -8  135.02    3.06
  -4   1   8  138.02    3.25
   3  -1  -8   21.03    0.90
   3  -1  -8   21.53    0.77
  -3  -1   8   22.08    0.90
  -3  -1   8   22.32    0.92
   3   1  -8   21.23    0.86
  -3   1   8   22.03    0.94
  -3   1   8   19.89    0.87
   3   1  -8   21.09    0.81
  -2  -1   8    5.52    0.48
   2  -1  -8    4.57    0.48
   2  -1  -8    5.07    0.39
  -2  -1   8    5.35    0.51
   2   1  -8    4.32    0.44
  -2   1   8    5.09    0.52
   2   1  -8    4.52    0.47
  -2   1   8    5.59    0.58
  -1  -1   8  193.14    3.82
   1  -1  -8  192.23    4.03
  -1  -1   8  189.07    3.99
   1  -1  -8  195.25    3.69
   1   1  -8  189.95    4.03
   1   1  -8  191.33    3.88
  -1   1   8  181.54    4.10
  -1   1   8  194.46    4.02
   0  -1   8    0.02    0.18
   0  -1  -8    1.07    0.32
   0  -1   8   -0.04    0.28
   0  -1  -8    0.26    0.16
   0   1  -8    0.18    0.23
   0   1   8    0.64    0.38
   0   1   8    0.25    0.25
   0   1  -8    0.25    0.32
   1  -1   8  106.19    2.63
  -1  -1  -8  106.17    2.63
   1   1   8  106.09    2.49
   1   1   8  109.02    2.79
  -1   1  -8  107.26    2.70
  -1   1  -8  106.03    2.38
  -2  -1  -8  286.42    5.97
   2  -1   8  282.96    5.95
  -2   1  -8  300.98    6.12
  -2   1  -8  293.50    5.67
   2   1   8  293.27    5.77
   2   1   8  298.66    6.19
   3  -1   8    0.58    0.42
  -3  -1  -8    0.60    0.37
  -3   1  -8    0.86    0.30
  -3   1  -8    0.19    0.42
   3   1   8    0.35    0.30
   3   1   8    0.13    0.48
  -4  -1  -8  117.50    3.03
   4  -1   8  112.54    2.99
   4   1   8  118.84    2.78
   4   1   8  114.93    3.20
  -4   1  -8  115.45    3.16
  -4   1  -8  118.23    2.68
  -5  -1  -8   31.91    1.47
   5  -1   8   33.28    1.53
   5   1   8   32.86    1.65
  -5   1  -8   32.23    1.62
  -5   1  -8   32.89    1.22
  -6  -1  -8   24.67    1.42
   6  -1   8   24.38    1.45
   6   1   8   22.80    1.50
  -6   1  -8   22.76    1.47
  -7  -1  -8   13.64    1.19
   7  -1   8   14.67    1.26
  -7   1  -8   13.13    1.33
   7   1   8   14.75    1.34
  -8  -1  -8    0.96    0.67
   8  -1   8    1.84    0.78
  -8   1  -8    2.02    0.84
   8   1   8    1.98    0.85
   9  -1   8   67.15    2.64
  -9  -1  -8   64.59    2.59
  -9   1  -8   63.07    2.69
   9   1   8   60.82    2.56
 -10  -1  -8   16.47    1.55
  10  -1   8   14.84    1.47
  10   1   8   15.80    1.54
 -10   1  -8   21.61    2.21
 -12  -2   8    2.22    1.00
  12  -2  -8    2.47    0.79
  12   2  -8    1.49    0.79
 -12   2   8    1.46    0.94
  11  -2  -8    4.38    0.89
 -11  -2   8    4.86    1.08
  11   2  -8    7.01    0.99
 -11   2   8    5.77    1.09
 -11   2   8    5.27    0.80
  10  -2  -8    8.80    0.94
 -10  -2   8   10.01    1.26
  10   2  -8   10.63    1.06
 -10   2   8   10.37    0.97
 -10   2   8    9.50    1.20
   9  -2  -8    0.88    0.52
  -9  -2   8   -0.99    0.57
   9   2  -8    0.23    0.53
   9   2  -8    0.33    0.51
  -9   2   8    0.10    0.46
  -9   2   8    0.32    0.62
  -8  -2   8   83.83    2.79
   8  -2  -8   82.79    2.47
   8   2  -8   89.03    2.43
  -8   2   8   89.62    2.79
  -8   2   8   88.36    2.49
   8   2  -8   87.72    2.53
   7  -2  -8    7.11    0.73
   7  -2  -8    9.80    0.84
  -7  -2   8    9.71    1.02
  -7   2   8   10.16    0.97
   7   2  -8    7.95    0.78
   7   2  -8    8.83    0.80
   6  -2  -8   36.35    1.36
  -6  -2   8   39.65    1.66
  -6  -2   8   37.27    1.38
   6  -2  -8   38.00    1.42
  -6   2   8   37.61    1.53
   6   2  -8   37.59    1.41
  -5  -2   8   63.17    1.85
   5  -2  -8   66.16    1.82
  -5  -2   8   63.26    2.06
   5  -2  -8   65.94    1.91
   5   2  -8   62.49    1.84
  -5   2   8   65.33    2.02
   4  -2  -8  106.78    2.43
  -4  -2   8  102.49    2.67
   4  -2  -8  104.80    2.60
  -4  -2   8   99.14    2.54
   4   2  -8  102.93    2.52
  -4   2   8  102.04    2.68
   3  -2  -8   76.74    1.85
  -3  -2   8   79.46    2.09
  -3  -2   8   77.93    2.09
   3  -2  -8   78.88    2.10
   3   2  -8   77.37    2.02
  -3   2   8   74.29    2.13
   2  -2  -8   34.92    1.29
   2  -2  -8   36.67    1.01
  -2  -2   8   35.44    1.29
  -2  -2   8   38.14    1.20
  -2   2   8   34.05    1.31
   2   2  -8   36.05    1.24
   1  -2  -8    1.82    0.41
  -1  -2   8    1.26    0.39
  -1  -2   8    2.06    0.44
   1   2  -8    1.13    0.38
  -1   2   8    1.56    0.42
   1   2  -8    1.98    0.40
  -1   2   8    1.88    0.41
   0  -2   8   20.10    1.00
   0  -2  -8   21.78    1.00
   0   2   8   21.12    1.10
   0   2  -8   22.00    0.94
   0   2   8   21.21    1.01
   0   2  -8   18.89    1.05
   1  -2   8    5.59    0.61
  -1  -2  -8    8.80    0.72
   1   2   8    8.98    0.90
   1   2   8    7.71    0.70
  -1   2  -8    7.47    0.82
  -1   2  -8    7.55    0.62
   2  -2   8   13.24    0.92
  -2  -2  -8   14.43    0.92
  -2   2  -8   14.04    0.81
  -2   2  -8   14.28    1.10
   2   2   8   15.99    0.92
   2   2   8   14.39    1.09
   3  -2   8   30.51    1.37
  -3  -2  -8   32.08    1.35
   3   2   8   30.40    1.55
  -3   2  -8   29.04    1.17
   3   2   8   32.21    1.30
  -3   2  -8   30.89    1.57
   4  -2   8    2.23    0.59
  -4  -2  -8    2.73    0.59
  -4   2  -8    2.68    0.50
   4   2   8    1.73    0.52
   4   2   8    1.62    0.67
  -4   2  -8    3.25    0.81
  -5  -2  -8   16.15    1.15
   5  -2   8   17.35    1.20
   5   2   8   16.87    1.08
  -5   2  -8   19.16    1.51
  -5   2  -8   16.52    1.00
   5   2   8   17.20    1.38
  -6  -2  -8   28.06    1.52
   6  -2   8   28.98    1.55
   6  -2   8   29.91    1.33
  -6  -2  -8   30.76    1.43
  -6   2  -8   30.44    1.76
   6   2   8   29.42    1.80
  -7  -2  -8    0.48    0.61
   7  -2   8   -0.41    0.65
   7  -2   8    0.16    0.50
   7   2   8    0.89    0.77
  -7   2  -8    0.47    0.77
   8  -2   8   37.67    1.68
   8  -2   8   38.46    1.98
  -8  -2  -8   36.99    1.90
  -8   2  -8   33.64    2.04
   8   2   8   36.64    2.09
  -9  -2  -8    7.27    1.07
   9  -2   8    7.29    1.11
   9   2   8    6.55    1.19
  -9   2  -8    7.50    1.26
  11  -3  -8    0.14    0.66
 -11  -3   8   -0.69    0.95
 -11   3   8    0.16    0.65
  11   3  -8    0.12    0.75
 -11   3   8   -0.28    0.84
 -10  -3   8    2.24    0.92
  10  -3  -8   -0.30    0.58
 -10   3   8    0.75    0.81
  10   3  -8   -0.03    0.64
 -10   3   8    0.03    0.58
  10   3  -8    0.43    0.71
  -9  -3   8    0.35    0.70
   9  -3  -8    0.30    0.56
   9   3  -8    1.42    0.67
  -9   3   8    0.08    0.53
   9   3  -8    0.53    0.63
  -9   3   8    0.62    0.69
  -8  -3   8    0.03    0.64
   8  -3  -8    0.53    0.51
   8   3  -8    0.77    0.57
  -8   3   8   -0.14    0.55
   8   3  -8   -0.03    0.58
  -8   3   8    0.05    0.47
   7  -3  -8   14.61    1.11
   7  -3  -8   12.93    0.99
  -7  -3   8   14.39    1.29
  -7   3   8   16.84    1.23
   7   3  -8   15.81    1.15
   7   3  -8   17.37    1.13
   6  -3  -8    1.35    0.52
  -6  -3   8    3.38    0.72
   6  -3  -8    3.14    0.55
  -6  -3   8    2.19    0.59
   6   3  -8    3.03    0.59
  -6   3   8    2.64    0.63
  -5  -3   8   14.12    1.15
   5  -3  -8   14.98    0.88
  -5  -3   8   14.15    1.04
   5  -3  -8   16.57    1.05
  -5   3   8   13.48    1.04
   5   3  -8   14.40    0.97
  -4  -3   8    9.76    0.91
  -4  -3   8    9.71    0.85
   4  -3  -8   11.93    0.90
   4   3  -8   12.09    0.92
  -4   3   8   11.33    0.99
   3  -3  -8   11.58    0.89
  -3  -3   8   10.51    0.86
  -3  -3   8   13.11    0.92
   3   3  -8   11.53    0.88
  -3   3   8   11.46    0.91
   2  -3  -8    4.13    0.64
  -2  -3   8    4.03    0.62
  -2   3   8    4.58    0.66
   2   3  -8    3.02    0.54
   1  -3  -8    0.16    0.36
  -1  -3   8    0.64    0.43
   1   3  -8    0.09    0.38
  -1   3   8    0.16    0.38
   0  -3  -8    2.08    0.49
   0  -3   8    1.22    0.49
   0   3  -8    1.91    0.48
   0   3   8    1.96    0.47
   0   3   8    1.85    0.47
   1  -3   8    0.51    0.45
  -1  -3  -8    1.11    0.42
  -1   3  -8    0.67    0.42
   1   3   8    0.57    0.41
  -1   3  -8    0.32    0.60
   1   3   8    1.03    0.49
  -2  -3  -8   11.59    0.89
   2  -3   8   13.12    1.00
   2   3   8   13.45    1.14
   2   3   8   12.57    0.97
  -2   3  -8   13.54    0.89
  -2   3  -8   11.88    1.07
  -3  -3  -8   30.09    1.40
   3  -3   8   29.04    1.41
  -3   3  -8   30.64    1.33
   3   3   8   31.50    1.48
   3   3   8   28.19    1.60
  -3   3  -8   30.33    1.63
  -4  -3  -8    1.18    0.54
   4  -3   8    1.19    0.60
  -4   3  -8    1.73    0.55
  -4   3  -8    2.64    0.82
   4   3   8    0.88    0.70
   4   3   8    1.07    0.58
  -5  -3  -8   -0.13    0.50
   5  -3   8   -0.64    0.53
   5   3   8   -0.10    0.69
   5   3   8   -0.61    0.48
  -5   3  -8    0.25    0.50
  -5   3  -8    0.12    0.75
  -6  -3  -8   12.68    1.14
   6  -3   8   11.77    1.17
  -6  -3  -8   12.56    1.16
  -6   3  -8   11.89    1.06
   6   3   8   11.95    1.40
  -6   3  -8   15.26    1.60
   7  -3   8    1.93    0.78
  -7  -3  -8    1.70    0.71
  -7  -3  -8    1.71    0.71
   7  -3   8    2.44    0.74
   7   3   8    2.90    0.96
  -7   3  -8    0.90    0.91
  -8  -3  -8    0.23    0.70
   8  -3   8   -0.18    0.78
  -8  -3  -8    0.06    0.71
   8  -3   8   -0.78    0.63
   8   3   8    0.60    0.91
  -8   3  -8    0.30    0.89
   9  -4  -8    2.84    0.74
  -9  -4   8    1.55    0.93
  -9   4   8    0.84    0.79
   9   4  -8    1.42    0.82
   9   4  -8    1.20    0.74
  -9   4   8    2.10    0.80
   8  -4  -8   12.28    1.11
  -8  -4   8   11.22    1.33
   8  -4  -8    9.54    1.07
  -8   4   8   10.72    1.21
   8   4  -8   11.30    1.10
   8   4  -8   13.17    1.26
  -7  -4   8    7.95    1.12
   7  -4  -8    6.21    0.92
  -7   4   8    8.13    1.06
   7   4  -8    4.63    0.80
   7   4  -8    7.54    1.02
  -6  -4   8    7.71    1.07
   6  -4  -8    8.00    0.95
  -6  -4   8    7.49    0.96
  -6   4   8    8.25    1.01
   6   4  -8    8.34    0.96
  -5  -4   8   33.77    1.63
   5  -4  -8   30.14    1.54
   5   4  -8   29.07    1.45
  -5   4   8   30.95    1.62
   4  -4  -8    5.97    0.84
  -4  -4   8    6.68    0.89
  -4   4   8    7.44    0.95
   4   4  -8    5.67    0.74
  -3  -4   8   26.37    1.44
   3  -4  -8   25.91    1.36
  -3   4   8   24.55    1.40
   3   4  -8   22.82    1.26
   2  -4  -8   36.38    1.57
  -2  -4   8   32.52    1.59
   2   4  -8   32.94    1.47
  -2   4   8   30.92    1.54
   1  -4  -8    0.61    0.47
  -1  -4   8    0.45    0.53
  -1   4   8    0.04    0.46
   1   4  -8    0.63    0.49
   0  -4   8   81.89    2.53
   0  -4  -8   84.94    2.51
   0   4  -8   82.65    2.43
   0   4   8   76.66    2.54
   1  -4   8   10.83    0.99
  -1  -4  -8   12.79    1.10
   1   4   8   11.27    1.06
  -1   4  -8   13.75    1.08
  -2  -4  -8    7.31    0.84
   2  -4   8    9.28    0.96
  -2   4  -8    9.12    0.90
   2   4   8    8.57    0.97
   2   4   8    8.69    1.00
   3  -4   8   54.29    2.04
  -3  -4  -8   53.26    1.98
   3   4   8   48.18    2.09
   3   4   8   52.33    2.21
  -3   4  -8   52.71    1.97
  -4  -4  -8   16.87    1.28
   4  -4   8   16.18    1.28
  -4   4  -8   15.89    1.22
  -4   4  -8   15.93    1.47
   4   4   8   18.39    1.41
   4   4   8   15.95    1.45
   5  -4   8   17.09    1.36
  -5  -4  -8   18.78    1.52
  -5  -4  -8   17.95    1.38
   5   4   8   18.77    1.66
  -5   4  -8   18.31    1.33
  -5   4  -8   15.28    1.49
   6  -4   8    3.87    0.89
   6  -4   8    3.54    0.87
  -6  -4  -8    2.69    0.87
  -6  -4  -8    4.02    0.87
  -6   4  -8    3.21    1.06
   6   4   8    3.12    1.03
  -6   5   8   58.95    2.51
   5  -5  -8   -0.10    0.65
   5   5  -8    0.17    0.66
  -5   5   8   -0.65    0.60
  -4  -5   8   76.12    2.66
   4  -5  -8   70.15    2.57
   4   5  -8   72.04    2.47
  -4   5   8   71.40    2.64
   3  -5  -8   30.05    1.66
  -3  -5   8   28.95    1.73
  -3   5   8   30.49    1.74
   3   5  -8   27.71    1.54
  -2  -5   8    4.16    0.85
   2  -5  -8    2.86    0.72
   2   5  -8    2.04    0.71
  -2   5   8    3.72    0.85
  -1  -5   8   26.43    1.64
   1  -5  -8   26.75    1.52
  -1   5   8   21.34    1.51
   1   5  -8   24.04    1.45
   0  -5  -8    4.80    0.82
   0  -5   8    5.86    0.91
   0   5   8    4.72    0.88
   0   5  -8    4.20    0.81
   1  -5   8   38.94    1.93
  -1  -5  -8   37.68    1.80
   1   5   8   39.65    2.01
  -1   5  -8   41.54    1.85
  -2  -5  -8   28.15    1.60
   2  -5   8   32.94    1.83
  -2   5  -8   32.99    1.73
   2   5   8   32.44    2.10
   3  -5   8    3.01    0.83
  -3  -5  -8    2.54    0.71
  12   0  -9   -0.29    0.68
 -12   0   9    0.22    0.77
  11   0  -9   -0.35    0.59
 -11   0   9    0.89    0.76
 -10   0   9   -0.71    0.59
  10   0  -9   -0.11    0.50
   9   0  -9    0.02    0.50
  -9   0   9    0.20    0.61
   8   0  -9   -0.44    0.39
  -8   0   9   -0.66    0.51
  -7   0   9   -0.43    0.42
   7   0  -9   -0.45    0.33
  -6   0   9    0.32    0.41
   6   0  -9    0.13    0.30
  -5   0   9    0.20    0.37
   5   0  -9   -0.36    0.25
   5   0  -9    0.12    0.24
  -5   0   9    0.25    0.36
  -4   0   9   -0.54    0.29
  -4   0   9   -0.03    0.27
   4   0  -9   -0.22    0.24
   4   0  -9    0.07    0.26
  -3   0   9   -0.14    0.27
   3   0  -9   -0.28    0.24
  -3   0   9   -0.13    0.26
   3   0  -9   -0.11    0.21
   2   0  -9   -0.13    0.25
  -2   0   9   -0.24    0.27
  -2   0   9    0.34    0.27
   2   0  -9   -0.08    0.22
   1   0  -9   -0.23    0.26
   1   0  -9   -0.01    0.19
  -1   0   9    0.49    0.28
  -1   0   9    0.08    0.29
   0   0  -9   -0.21    0.19
   0   0  -9   -0.04    0.30
   0   0   9    0.16    0.35
   0   0   9    0.12    0.25
  -1   0  -9    0.51    0.37
   1   0   9    0.29    0.24
  -1   0  -9    0.26    0.22
   1   0   9   -0.19    0.35
  -2   0  -9   -0.09    0.21
   2   0   9    0.02    0.23
  -2   0  -9    0.00    0.36
   2   0   9   -0.04    0.41
   3   0   9   -0.08    0.48
  -3   0  -9    0.27    0.43
   4   0   9    0.33    0.52
  -4   0  -9   -0.59    0.43
   5   0   9   -0.12    0.56
  -5   0  -9    0.11    0.53
   6   0   9   -0.13    0.62
  -6   0  -9    0.19    0.58
   7   0   9   -0.02    0.68
  -7   0  -9    0.08    0.64
  -8   0  -9   -0.73    0.71
   8   0   9   -0.34    0.71
  -9   0  -9   -0.34    0.79
   9   0   9   -0.15    0.78
 -12  -1   9   14.05    1.54
  12  -1  -9   14.67    1.29
  12   1  -9   13.94    1.31
 -12   1   9   18.52    1.81
  11  -1  -9   -0.35    0.58
 -11  -1   9   -0.80    0.70
 -11   1   9   -0.72    0.69
  11   1  -9   -0.11    0.58
  10  -1  -9   17.68    1.30
 -10  -1   9   18.43    1.61
  10   1  -9   21.05    1.33
 -10   1   9   17.37    1.51
   9  -1  -9    2.98    0.65
  -9  -1   9    1.35    0.73
   9   1  -9    1.98    0.59
  -9   1   9    1.48    0.71
  -8  -1   9   30.72    1.69
   8  -1  -9   33.47    1.43
   8  -1  -9   31.69    1.34
   8   1  -9   33.69    1.45
  -8   1   9   34.46    1.68
   7  -1  -9   49.66    1.68
  -7  -1   9   51.19    1.97
   7  -1  -9   50.13    1.59
   7   1  -9   49.12    1.69
  -7   1   9   51.04    1.94
   6  -1  -9    0.34    0.33
  -6  -1   9    0.67    0.36
  -6  -1   9    0.20    0.47
   6  -1  -9    0.09    0.32
  -6   1   9    0.28    0.42
   6   1  -9    0.09    0.34
  -5  -1   9   17.03    0.88
   5  -1  -9   19.35    0.92
  -5  -1   9   18.86    1.08
   5  -1  -9   18.98    0.88
   5   1  -9   18.17    0.91
  -5   1   9   18.55    1.02
   4  -1  -9   68.94    1.76
   4  -1  -9   66.83    1.86
  -4  -1   9   70.72    1.95
  -4  -1   9   67.04    1.84
  -4   1   9   69.11    2.01
   4   1  -9   68.16    1.85
  -3  -1   9   86.40    2.23
   3  -1  -9   90.64    2.08
  -3  -1   9   89.94    2.26
   3  -1  -9   89.07    2.26
   3   1  -9   89.45    2.20
  -3   1   9   90.73    2.36
  -3   1   9   89.12    2.28
   3   1  -9   98.50    2.32
   2  -1  -9   17.53    0.88
   2  -1  -9   18.03    0.69
  -2  -1   9   16.97    0.78
  -2  -1   9   16.92    0.89
   2   1  -9   18.42    0.88
   2   1  -9   18.18    0.82
  -2   1   9   18.22    0.96
  -2   1   9   17.85    0.91
  -1  -1   9    4.11    0.51
   1  -1  -9    4.33    0.53
  -1  -1   9    4.58    0.43
   1  -1  -9    5.04    0.39
  -1   1   9    6.32    0.69
   1   1  -9    4.16    0.53
   1   1  -9    5.57    0.50
  -1   1   9    4.12    0.50
   0  -1  -9   59.64    1.80
   0  -1   9   67.74    1.76
   0  -1   9   61.48    1.82
   0   1  -9   58.69    1.84
   0   1   9   55.72    1.89
   0   1   9   59.61    1.70
   0   1  -9   59.33    1.59
  -1  -1  -9   54.87    1.74
   1  -1   9   57.02    1.79
   1   1   9   54.10    1.89
  -1   1  -9   53.82    1.81
   1   1   9   56.66    1.62
  -1   1  -9   54.66    1.51
  -2  -1  -9    7.09    0.72
   2  -1   9    5.60    0.67
  -2   1  -9    6.96    0.57
  -2   1  -9    8.89    0.89
   2   1   9    7.52    0.87
   2   1   9    6.96    0.60
   3  -1   9   51.83    1.85
  -3  -1  -9   51.73    1.82
  -3   1  -9   52.82    1.52
   3   1   9   53.17    2.01
  -3   1  -9   55.22    1.96
   3   1   9   52.69    1.61
  -4  -1  -9   20.22    1.21
   4  -1   9   18.57    1.23
   4   1   9   16.92    0.95
  -4   1  -9   18.99    0.92
  -4   1  -9   18.25    1.24
   4   1   9   18.14    1.32
  -5  -1  -9   12.18    1.11
   5  -1   9   11.37    1.10
  -5   1  -9   12.00    1.18
   5   1   9   11.96    1.22
  -5   1  -9   11.58    0.82
  -6  -1  -9   51.07    2.08
   6  -1   9   49.15    2.08
   6   1   9   52.54    2.25
  -6   1  -9   51.43    2.22
   7  -1   9    9.41    1.12
  -7  -1  -9    8.39    1.06
   7   1   9   10.08    1.24
  -7   1  -9    9.83    1.25
  -8  -1  -9   23.26    1.63
   8  -1   9   23.97    1.73
   8   1   9   28.64    1.84
  -8   1  -9   22.86    1.76
  -9  -1  -9   23.08    1.77
   9  -1   9   24.94    1.88
   9   1   9   26.18    1.91
  -9   1  -9   23.64    1.88
  12   2  -9    4.00    1.14
 -12   2   9    2.90    1.03
 -11  -2   9   46.67    2.37
  11  -2  -9   47.52    2.05
  11   2  -9   45.70    2.07
 -11   2   9   47.12    2.38
  10  -2  -9    0.48    0.58
 -10  -2   9   -0.51    0.66
  10   2  -9    0.55    0.62
 -10   2   9    0.04    0.71
 -10   2   9    0.21    0.54
   9  -2  -9   45.91    1.77
  -9  -2   9   44.34    2.13
   9  -2  -9   45.78    1.81
   9   2  -9   42.81    1.82
  -9   2   9   46.34    2.11
  -8  -2   9   88.59    2.44
  -8  -2   9   83.97    2.83
   8  -2  -9   83.20    2.47
   8  -2  -9   86.38    2.52
   8   2  -9   88.75    2.57
  -8   2   9   88.87    2.83
   7  -2  -9   42.48    1.59
   7  -2  -9   41.91    1.59
  -7  -2   9   43.29    1.57
  -7  -2   9   42.39    1.86
  -7   2   9   41.45    1.77
   7   2  -9   42.12    1.61
  -6  -2   9  130.34    3.09
   6  -2  -9  123.66    3.04
   6  -2  -9  124.29    3.12
  -6  -2   9  127.81    3.39
   6   2  -9  125.79    3.12
  -6   2   9  128.05    3.35
   5  -2  -9   18.45    1.03
  -5  -2   9   18.08    1.05
   5  -2  -9   18.35    0.90
  -5  -2   9   19.07    1.12
   5   2  -9   18.21    1.00
  -5   2   9   17.86    1.07
  -4  -2   9   61.54    1.86
   4  -2  -9   62.20    1.67
   4  -2  -9   60.58    1.86
  -4  -2   9   61.32    1.90
  -4   2   9   59.59    1.94
   4   2  -9   60.48    1.81
   3  -2  -9   30.18    1.22
   3  -2  -9   28.26    0.95
  -3  -2   9   31.20    1.20
  -3  -2   9   29.84    1.24
  -3   2   9   29.66    1.29
   3   2  -9   27.10    1.14
  -2  -2   9    0.54    0.31
  -2  -2   9    0.14    0.38
   2  -2  -9    0.54    0.36
   2   2  -9    0.59    0.35
  -2   2   9    0.44    0.37
  -1  -2   9  226.02    4.76
   1  -2  -9  225.12    4.78
  -1   2   9  223.14    4.79
   1   2  -9  222.09    4.62
  -1   2   9  208.23    4.81
   0  -2   9   53.22    1.72
   0  -2  -9   52.90    1.72
   0   2  -9   51.37    1.82
   0   2   9   51.75    1.71
   0   2  -9   50.91    1.57
   0   2   9   48.21    1.83
  -1  -2  -9   22.86    1.13
   1  -2   9   21.74    1.16
   1   2   9   22.53    1.33
  -1   2  -9   22.80    1.31
   1   2   9   22.64    1.11
  -1   2  -9   23.00    1.02
  -2  -2  -9  112.27    3.00
   2  -2   9  115.14    3.01
   2   2   9  115.55    2.92
  -2   2  -9  114.64    2.78
  -2   2  -9  120.35    3.27
   2   2   9  117.26    3.27
   3  -2   9    3.35    0.67
  -3  -2  -9    1.98    0.55
   3   2   9    2.61    0.76
  -3   2  -9    2.74    0.52
   3   2   9    2.75    0.56
  -3   2  -9    2.65    0.75
  -4  -2  -9   31.31    1.52
   4  -2   9   34.92    1.61
   4   2   9   36.70    1.49
  -4   2  -9   36.68    1.38
   4   2   9   37.59    1.88
  -4   2  -9   35.80    1.84
  -5  -2  -9   60.00    2.21
   5  -2   9   64.59    2.28
  -5   2  -9   63.14    2.50
   5   2   9   59.22    2.05
  -5   2  -9   61.40    1.94
   5   2   9   62.56    2.45
  -6  -2  -9   12.09    1.15
   6  -2   9   10.37    1.12
  -6   2  -9   13.41    1.41
  -6   2  -9   10.21    0.95
   6   2   9   14.72    1.45
   7  -2   9   69.52    2.34
  -7  -2  -9   73.88    2.68
   7  -2   9   76.51    2.77
  -7   2  -9   77.14    2.93
   7   2   9   79.04    2.92
   8  -2   9   34.09    1.98
  -8  -2  -9   32.57    1.92
  -8   2  -9   28.56    1.99
   8   2   9   32.55    2.08
   9  -2   9   18.35    1.63
  -9  -2  -9   16.45    1.49
 -11   3   9   -0.57    0.85
  11   3  -9   -0.52    0.99
 -11   3   9   -0.51    0.65
  10  -3  -9   60.19    2.26
 -10  -3   9   57.99    2.61
 -10   3   9   58.96    2.29
 -10   3   9   58.91    2.59
  10   3  -9   54.94    2.20
  10   3  -9   58.25    2.34
  -9  -3   9    9.50    1.26
   9  -3  -9    9.89    1.03
   9  -3  -9    9.38    1.03
   9   3  -9    8.34    1.02
   9   3  -9    9.08    1.05
  -9   3   9    9.49    1.18
   8  -3  -9   21.19    1.35
   8  -3  -9   19.08    1.24
  -8  -3   9   22.82    1.37
  -8  -3   9   19.93    1.51
   8   3  -9   20.43    1.32
  -8   3   9   20.32    1.49
   7  -3  -9  139.18    3.43
   7  -3  -9  135.84    3.55
  -7  -3   9  132.31    3.46
  -7  -3   9  130.24    3.76
   7   3  -9  137.80    3.49
  -7   3   9  132.53    3.70
   6  -3  -9   26.78    1.25
  -6  -3   9   29.00    1.45
  -6  -3   9   25.97    1.51
   6  -3  -9   26.90    1.37
   6   3  -9   25.43    1.32
  -6   3   9   26.84    1.46
  -5  -3   9   79.06    2.37
   5  -3  -9   74.39    2.35
  -5  -3   9   77.59    2.46
   5   3  -9   74.13    2.25
  -5   3   9   79.72    2.50
  -4  -3   9   82.17    2.47
   4  -3  -9   87.44    2.51
  -4  -3   9   92.94    2.72
   4   3  -9   82.97    2.39
  -4   3   9   82.33    2.58
   3  -3  -9    5.16    0.72
  -3  -3   9    3.84    0.66
   3   3  -9    4.09    0.62
  -3   3   9    4.30    0.68
   2  -3  -9  138.63    3.46
  -2  -3   9  143.99    3.47
  -2   3   9  135.45    3.51
   2   3  -9  135.78    3.31
   1  -3  -9   14.36    0.97
  -1  -3   9   11.21    0.93
   1   3  -9   14.13    0.97
  -1   3   9   15.23    1.08
   0  -3  -9   66.86    2.15
   0  -3   9   72.30    2.21
   0   3   9   66.94    2.20
   0   3  -9   69.37    2.06
   1  -3   9   98.77    2.82
  -1  -3  -9   99.89    2.81
   1   3   9  106.20    2.97
  -1   3  -9  102.89    2.70
   1   3   9  101.66    2.87
   2  -3   9    9.09    0.94
  -2  -3  -9    5.49    0.75
   2   3   9    6.87    0.83
  -2   3  -9    8.01    0.79
   2   3   9    7.57    0.96
  -2   3  -9    6.59    0.93
  -3  -3  -9   83.36    2.56
   3  -3   9   85.03    2.57
   3   3   9   71.91    2.68
   3   3   9   81.87    2.54
  -3   3  -9   79.06    2.33
  -4  -3  -9   26.46    1.46
   4  -3   9   24.52    1.47
   4   3   9   24.36    1.74
   4   3   9   24.32    1.43
  -4   3  -9   24.65    1.30
  -4   3  -9   24.57    1.71
   5  -3   9   19.76    1.42
  -5  -3  -9   19.71    1.39
   5   3   9   20.21    1.34
  -5   3  -9   21.36    1.80
  -5   3  -9   22.82    1.31
   5   3   9   21.70    1.73
   6  -3   9  103.95    3.23
  -6  -3  -9  104.87    3.20
  -6  -3  -9  107.14    3.25
   6   3   9  107.69    3.58
  -6   3  -9  102.02    3.60
  -6   3  -9  107.12    3.03
   7  -3   9    1.18    0.69
   7  -3   9    0.90    0.81
  -7  -3  -9    2.45    0.76
  -7  -3  -9    1.62    0.77
  -7   3  -9    0.95    0.99
   7   3   9    1.25    0.96
   9  -4  -9   35.23    2.30
  -9  -4   9   30.33    2.06
  -9   4   9   34.24    2.28
  -8  -4   9   12.42    1.42
   8  -4  -9   11.99    1.19
  -8  -4   9    9.76    1.12
   8   4  -9   15.20    1.29
  -8   4   9   11.81    1.35
  -7  -4   9    1.94    0.83
  -7  -4   9    2.83    0.80
   7  -4  -9    1.92    0.66
   7   4  -9    1.53    0.69
  -7   4   9    1.91    0.81
  -6  -4   9   36.44    1.83
   6  -4  -9   38.66    1.78
   6   4  -9   36.64    1.70
  -6   4   9   36.16    1.87
   5  -4  -9    7.62    0.95
  -5  -4   9    7.73    0.98
   5   4  -9    8.32    0.92
  -5   4   9    9.39    1.05
   4  -4  -9    8.35    0.99
  -4  -4   9    7.78    0.94
   4   4  -9    6.35    0.82
  -4   4   9    9.62    1.09
  -3  -4   9   50.61    2.01
   3  -4  -9   47.92    1.94
  -3   4   9   50.31    2.04
   3   4  -9   50.83    1.88
  -2  -4   9    2.64    0.71
   2  -4  -9    1.25    0.57
  -2   4   9    1.39    0.58
   2   4  -9    1.27    0.60
   1  -4  -9   44.72    1.83
  -1  -4   9   45.74    1.89
  -1   4   9   45.12    1.92
   1   4  -9   46.12    1.77
   0  -4  -9   41.59    1.77
   0  -4   9   45.33    1.89
   0   4  -9   42.35    1.73
   0   4   9   42.12    1.85
  -1  -4  -9   15.96    1.17
   1  -4   9   16.35    1.34
  -1   4  -9   14.94    1.12
   1   4   9   14.97    1.23
   2  -4   9   52.67    2.10
  -2  -4  -9   52.80    2.02
   2   4   9   51.73    2.12
  -2   4  -9   54.36    2.01
   3  -4   9   -0.49    0.61
  -3  -4  -9   -0.02    0.52
   3   4   9    1.33    0.77
   3   4   9    0.37    0.60
  -3   4  -9   -0.02    0.58
   4  -4   9   39.15    1.90
  -4  -4  -9   35.87    1.78
   4   4   9   32.18    1.81
  -4   4  -9   31.73    1.64
   4   4   9   30.27    2.00
  -5  -4  -9    3.97    0.94
  -5  -4  -9    2.73    0.81
   5  -4   9    2.34    0.83
  -5   4  -9    3.29    0.78
   5   4   9    1.17    0.90
  -5   4  -9    2.03    0.99
  -4   5   9   12.89    1.91
   4   5  -9    9.74    1.19
   3  -5  -9    2.35    0.82
  -3   5   9    1.13    0.70
   3   5  -9    1.27    0.69
   2  -5  -9   11.13    1.20
  -2  -5   9    8.52    1.12
   2   5  -9    9.82    1.08
  -2   5   9    8.78    1.18
  -1  -5   9    3.06    0.85
   1  -5  -9    4.69    0.86
  -1   5   9    3.53    0.89
   1   5  -9    2.69    0.77
   0  -5  -9    3.41    0.78
   0  -5   9    3.70    0.87
   0   5  -9    3.36    1.05
  -1  -5  -9   13.23    1.22
   1  -5   9   14.77    1.35
 -12   0  10    7.70    1.25
  12   0 -10    9.18    1.14
  11   0 -10    1.75    0.72
 -11   0  10    2.01    0.93
 -10   0  10  101.92    3.38
  10   0 -10  108.23    3.07
   9   0 -10   85.85    2.57
  -9   0  10   86.67    2.89
  -8   0  10   21.56    1.39
   8   0 -10   21.43    1.20
  -7   0  10  145.89    3.77
   7   0 -10  148.34    3.50
   6   0 -10   60.61    1.84
  -6   0  10   64.89    2.11
   5   0 -10   35.18    1.27
   5   0 -10   36.14    1.52
  -5   0  10   35.18    1.44
  -4   0  10   98.25    2.42
  -4   0  10  100.93    2.60
   4   0 -10   99.25    2.40
   4   0 -10   98.69    2.39
  -3   0  10    0.02    0.31
   3   0 -10   -0.20    0.28
   3   0 -10   -0.22    0.24
  -3   0  10    0.37    0.33
   2   0 -10  135.40    3.14
  -2   0  10  135.91    3.10
   2   0 -10  140.31    2.97
  -2   0  10  134.87    3.17
   1   0 -10  203.30    4.09
  -1   0  10  199.87    4.41
   1   0 -10  200.85    4.38
  -1   0  10  208.06    4.24
   0   0 -10   54.40    1.44
   0   0  10   57.65    1.84
   0   0  10   53.15    1.53
   0   0 -10   56.85    1.78
   1   0  10   99.84    2.28
   1   0  10   99.16    2.68
  -1   0 -10   97.76    2.19
  -1   0 -10   94.28    2.61
   2   0  10   34.23    1.52
  -2   0 -10   31.31    1.42
  -3   0 -10  143.21    3.67
   3   0  10  149.56    3.79
  -4   0 -10   95.13    2.92
   4   0  10  108.49    3.09
   5   0  10    1.68    0.74
  -5   0 -10    0.90    0.63
  -6   0 -10   68.78    2.56
   6   0  10   73.82    2.66
   7   0  10    2.83    0.94
  -7   0 -10    1.91    0.82
   8   0  10    5.39    1.10
  -8   0 -10    3.99    1.01
  12  -1 -10   -0.24    0.72
 -12  -1  10   -1.37    1.11
 -12   1  10    0.00    0.87
  12   1 -10   -0.22    0.81
 -11  -1  10   43.51    2.29
  11  -1 -10   39.45    1.89
  11   1 -10   43.52    1.96
 -11   1  10   37.71    2.12
  10  -1 -10   17.10    1.26
 -10  -1  10   15.12    1.47
  10   1 -10   14.74    1.21
 -10   1  10   14.89    1.47
  -9  -1  10   25.77    1.66
   9  -1 -10   30.11    1.45
  -9   1  10   28.59    1.67
   9   1 -10   26.66    1.43
  -8  -1  10   87.50    2.83
   8  -1 -10   81.38    2.42
  -8   1  10   85.46    2.80
   8   1 -10   84.55    2.50
   7  -1 -10    0.15    0.38
  -7  -1  10    0.49    0.56
   7  -1 -10   -0.06    0.39
  -7   1  10   -0.29    0.50
   7   1 -10   -0.05    0.41
  -6  -1  10   79.14    2.10
  -6  -1  10   81.12    2.42
   6  -1 -10   77.80    2.13
   6  -1 -10   76.84    2.12
  -6   1  10   74.15    2.35
   6   1 -10   78.28    2.20
  -5  -1  10   65.01    2.05
   5  -1 -10   67.02    1.92
  -5  -1  10   67.69    1.90
   5  -1 -10   67.84    1.85
   5   1 -10   65.93    1.92
  -5   1  10   70.54    2.15
  -4  -1  10   19.32    1.01
   4  -1 -10   19.00    0.97
   4  -1 -10   19.27    0.86
  -4  -1  10   18.24    0.96
  -4   1  10   19.61    1.06
   4   1 -10   20.09    0.95
   3  -1 -10  361.00    7.16
   3  -1 -10  364.84    6.90
  -3  -1  10  352.19    7.12
  -3  -1  10  361.06    7.10
  -3   1  10  363.80    7.25
   3   1 -10  367.05    7.07
  -2  -1  10   67.16    1.80
  -2  -1  10   64.11    1.90
   2  -1 -10   68.03    1.65
   2  -1 -10   63.40    1.91
   2   1 -10   70.23    1.94
  -2   1  10   63.71    2.00
   2   1 -10   67.69    1.80
  -2   1  10   65.20    1.92
   1  -1 -10   62.86    1.88
  -1  -1  10   61.33    1.64
  -1  -1  10   61.52    1.89
   1   1 -10   61.15    1.70
   1   1 -10   65.68    1.93
  -1   1  10   61.28    1.82
  -1   1  10   60.67    1.98
   0  -1  10  116.28    2.99
   0  -1 -10  122.86    3.02
   0   1 -10  117.46    3.03
   0   1 -10  118.59    2.71
   0   1  10  121.90    2.85
   0   1  10  117.46    3.13
  -1  -1 -10    0.58    0.44
   1  -1  10   -0.13    0.42
   1   1  10    0.55    0.53
  -1   1 -10    0.54    0.32
   1   1  10    0.88    0.37
  -1   1 -10    1.42    0.54
   2  -1  10   82.58    2.44
  -2  -1 -10   86.44    2.45
   2   1  10   83.29    2.61
  -2   1 -10   82.26    2.07
   2   1  10   82.19    2.16
  -2   1 -10   76.39    2.47
  -3  -1 -10   12.48    1.05
   3  -1  10   10.61    0.99
   3   1  10   11.72    0.82
  -3   1 -10   12.60    1.14
   3   1  10   12.05    1.15
  -3   1 -10   11.71    0.76
   4  -1  10   49.53    1.97
  -4  -1 -10   46.30    1.89
  -4   1 -10   46.70    1.97
   4   1  10   46.85    2.06
  -4   1 -10   48.05    1.53
   5  -1  10   77.88    2.68
  -5  -1 -10   74.62    2.59
   5   1  10   77.35    2.79
  -5   1 -10   82.47    2.76
   6  -1  10   11.16    1.20
  -6  -1 -10   14.02    1.28
   6   1  10   11.56    1.30
  -6   1 -10   10.77    1.29
   7  -1  10   75.15    2.75
  -7  -1 -10   71.95    2.70
   7   1  10   72.89    2.86
  -7   1 -10   75.79    2.88
   8  -1  10   27.44    1.89
  -8  -1 -10   28.47    1.89
  -8   1 -10   26.84    1.94
   8   1  10   30.37    1.98
 -11  -2  10   -0.73    0.81
  11  -2 -10    0.04    0.63
 -11   2  10    0.98    0.90
  11   2 -10    0.28    0.70
  10  -2 -10   11.22    1.09
 -10  -2  10   10.22    1.30
 -10   2  10    9.85    1.31
  10   2 -10   10.94    1.13
   9  -2 -10   19.70    1.28
   9  -2 -10   22.29    1.32
  -9  -2  10   17.65    1.52
   9   2 -10   20.19    1.34
  -9   2  10   19.27    1.47
   8  -2 -10    0.43    0.48
  -8  -2  10    0.19    0.58
  -8  -2  10   -0.27    0.63
   8  -2 -10    0.23    0.47
  -8   2  10    0.32    0.60
   8   2 -10    0.56    0.53
  -7  -2  10    1.50    0.57
   7  -2 -10    1.36    0.55
  -7  -2  10    1.96    0.70
   7  -2 -10    1.59    0.51
   7   2 -10    1.52    0.58
  -7   2  10    2.95    0.70
  -6  -2  10   13.37    1.00
   6  -2 -10   12.72    0.86
   6  -2 -10   12.27    0.96
  -6  -2  10   12.77    1.09
  -6   2  10   13.49    1.15
   6   2 -10   11.36    0.94
  -5  -2  10    1.84    0.54
   5  -2 -10    2.33    0.54
  -5  -2  10    2.20    0.60
   5  -2 -10    2.25    0.44
  -5   2  10    2.89    0.62
   5   2 -10    2.25    0.51
  -4  -2  10    2.53    0.57
   4  -2 -10    2.38    0.54
  -4  -2  10    2.64    0.55
   4  -2 -10    2.70    0.41
   4   2 -10    2.37    0.53
  -4   2  10    2.97    0.61
  -3  -2  10   15.60    1.03
  -3  -2  10   17.16    0.94
   3  -2 -10   16.72    1.01
   3   2 -10   16.73    0.93
  -3   2  10   16.24    1.03
   2  -2 -10    0.79    0.41
  -2  -2  10    0.43    0.45
  -2   2  10    0.87    0.44
   2   2 -10    0.66    0.40
  -1  -2  10    6.89    0.75
   1  -2 -10    5.80    0.69
   1   2 -10    7.32    0.70
  -1   2  10    5.87    0.72
  -1   2  10    7.11    1.19
   0  -2  10    4.53    0.66
   0  -2 -10    3.46    0.58
   0   2 -10    1.78    0.59
   0   2  10    3.41    0.71
   0   2 -10    5.25    0.62
   0   2  10    4.07    0.65
   1  -2  10   43.61    1.70
  -1  -2 -10   42.02    1.64
   1   2  10   43.60    1.60
  -1   2 -10   41.47    1.45
   1   2  10   43.21    1.87
  -1   2 -10   42.81    1.85
  -2  -2 -10    0.47    0.47
   2  -2  10    1.21    0.56
   2   2  10    0.53    0.63
   2   2  10    1.13    0.47
  -2   2 -10    0.06    0.39
  -2   2 -10    0.17    0.59
  -3  -2 -10   10.96    1.01
   3  -2  10   10.79    1.02
  -3   2 -10    9.90    0.83
   3   2  10   10.37    1.16
   3   2  10    9.06    0.85
  -3   2 -10    8.44    1.10
   4  -2  10   54.05    2.09
  -4  -2 -10   51.45    2.05
   4   2  10   54.53    2.33
  -4   2 -10   51.14    1.76
   4   2  10   53.96    1.89
  -4   2 -10   55.24    2.33
   5  -2  10    1.41    0.74
  -5  -2 -10    0.02    0.57
  -5   2 -10    0.36    0.81
   5   2  10    0.34    0.74
  -5   2 -10    0.85    0.53
   5   2  10    0.22    0.59
  -6  -2 -10    5.09    0.92
   6  -2  10    3.86    0.94
   6   2  10    3.21    0.94
  -6   2 -10    4.93    1.13
  -6   2 -10    5.13    0.77
   7  -2  10   20.19    1.70
  -7  -2 -10   16.53    1.46
   7   2  10   17.42    1.59
  -7   2 -10   15.79    1.61
   8  -2  10    2.11    0.87
  -8  -2 -10    2.06    0.89
  10  -3 -10    1.42    0.68
  10  -3 -10    1.38    0.75
 -10  -3  10    0.51    0.85
 -10   3  10    0.75    0.85
  10   3 -10    0.46    0.74
  -9  -3  10    1.94    0.85
   9  -3 -10    1.59    0.64
   9  -3 -10    1.59    0.71
  -9  -3  10    2.05    0.74
   9   3 -10    1.28    0.76
  -9   3  10    1.36    0.81
  -8  -3  10   -0.41    0.58
   8  -3 -10   -0.04    0.51
   8  -3 -10    0.80    0.60
  -8  -3  10   -0.02    0.69
   8   3 -10   -0.04    0.61
  -8   3  10    0.36    0.68
  -7  -3  10   13.22    1.13
   7  -3 -10   14.56    1.06
   7  -3 -10   12.04    1.11
  -7  -3  10   13.62    1.27
  -7   3  10   12.26    1.26
   7   3 -10   12.29    1.12
  -6  -3  10    2.49    0.70
   6  -3 -10    1.26    0.60
  -6  -3  10    1.07    0.64
  -6   3  10    4.29    0.81
   6   3 -10    2.01    0.63
  -5  -3  10    5.14    0.79
   5  -3 -10    5.25    0.79
   5   3 -10    4.27    0.67
  -5   3  10    6.94    0.92
   4  -3 -10    1.98    0.57
  -4  -3  10    0.38    0.55
  -4   3  10    0.81    0.53
   4   3 -10    1.93    0.56
  -3  -3  10    0.34    0.52
   3  -3 -10   -0.06    0.44
  -3   3  10    0.16    0.46
   3   3 -10    0.55    0.47
  -2  -3  10    0.85    0.54
   2  -3 -10    0.19    0.44
  -2   3  10    0.39    0.47
   2   3 -10    0.66    0.48
   1  -3 -10    1.22    0.52
  -1  -3  10    1.67    0.58
  -1   3  10    0.85    0.52
   1   3 -10    0.15    0.49
   0  -3  10    4.47    0.76
   0  -3 -10    4.31    0.69
   0   3  10    5.97    0.79
   0   3 -10    4.92    0.71
   1  -3  10    4.95    0.78
  -1  -3 -10    4.34    0.73
   1   3  10    4.34    0.82
   1   3  10    4.47    0.74
  -1   3 -10    3.52    0.62
  -2  -3 -10    5.51    0.84
   2  -3  10    6.83    0.92
   2   3  10    5.53    0.80
   2   3  10    3.89    0.86
  -2   3 -10    6.76    0.77
   3  -3  10    1.00    0.66
  -3  -3 -10   -0.48    0.47
  -3   3 -10    0.23    0.70
   3   3  10   -0.21    0.51
   3   3  10   -0.38    0.68
  -3   3 -10   -0.31    0.45
  -4  -3 -10    0.93    0.63
   4  -3  10    0.02    0.66
  -4   3 -10    0.80    0.56
  -4   3 -10    1.41    0.85
   4   3  10    0.54    0.59
   4   3  10    0.59    0.84
  -5  -3 -10    0.06    0.62
   5  -3  10    0.12    0.68
  -5   3 -10   -0.33    0.84
   5   3  10   -0.12    0.61
  -5   3 -10   -0.09    0.56
   5   3  10    0.03    0.78
  -6  -3 -10    0.04    0.69
  -6  -3 -10    0.23    0.63
   6  -3  10    0.04    0.74
  -6   3 -10    0.18    0.92
   6   3  10    0.01    0.88
  -6   3 -10    0.18    0.62
   7  -3  10    1.99    0.79
  -7  -3 -10    0.55    0.82
  -8  -4  10   -0.07    0.76
  -8  -4  10    1.17    0.89
   8   4 -10    0.45    0.98
  -7  -4  10   22.49    1.64
   7  -4 -10   24.35    1.60
  -7   4  10   27.72    1.79
   7   4 -10   23.87    1.52
   6  -4 -10    0.30    0.60
  -6  -4  10    0.97    0.74
  -6   4  10    0.45    0.66
   6   4 -10    0.55    0.63
  -5  -4  10    5.07    0.91
   5  -4 -10    4.43    0.84
  -5   4  10    5.28    0.92
   5   4 -10    5.05    0.84
  -4  -4  10   50.05    2.08
   4  -4 -10   51.47    2.08
  -4   4  10   50.82    2.17
   4   4 -10   54.02    1.99
   3  -4 -10    5.42    0.85
  -3  -4  10    4.80    0.88
  -3   4  10    6.69    0.97
   3   4 -10    6.59    0.87
  -2  -4  10   27.47    1.56
   2  -4 -10   24.75    1.45
  -2   4  10   23.23    1.46
   2   4 -10   23.84    1.38
  -1  -4  10   27.66    1.57
   1  -4 -10   28.20    1.51
  -1   4  10   25.92    1.55
   1   4 -10   24.57    1.39
   0  -4 -10    2.86    0.67
   0  -4  10    2.44    0.78
   0   4  10    2.43    0.73
   0   4 -10    2.31    0.66
   1  -4  10   12.54    1.17
  -1  -4 -10   11.94    1.13
   1   4  10   12.16    1.19
  -1   4 -10   16.62    1.20
   2  -4  10    0.12    0.67
  -2  -4 -10    0.18    0.52
   2   4  10    0.22    0.61
  -2   4 -10   -0.25    0.56
   3  -4  10   35.28    1.90
  -3  -4 -10   36.90    1.86
   3   4  10   37.66    1.90
  -3   4 -10   39.74    1.79
  -4  -4 -10    7.48    1.04
   4  -4  10    5.19    1.00
   4   4  10    5.51    0.96
  -4   4 -10    6.41    0.95
   4   4  10    4.31    1.08
 -11   0  11    0.23    0.78
  11   0 -11    0.01    0.65
  10   0 -11    0.34    0.61
 -10   0  11   -0.33    0.72
   9   0 -11    0.10    0.50
  -9   0  11   -0.12    0.63
  -8   0  11   -0.10    0.59
   8   0 -11    0.60    0.48
  -7   0  11   -0.24    0.53
   7   0 -11    0.18    0.43
   6   0 -11    0.33    0.39
  -6   0  11   -0.17    0.47
  -5   0  11    0.33    0.45
   5   0 -11    0.03    0.33
  -4   0  11   -0.09    0.36
  -4   0  11   -0.09    0.37
   4   0 -11    0.15    0.32
   4   0 -11   -0.20    0.33
  -3   0  11   -0.17    0.34
   3   0 -11   -0.33    0.29
   3   0 -11    0.00    0.34
  -3   0  11   -0.07    0.37
   2   0 -11   -0.38    0.26
  -2   0  11   -0.80    0.29
  -2   0  11    0.24    0.40
   2   0 -11   -0.07    0.36
   1   0 -11   -0.30    0.36
  -1   0  11    0.22    0.44
  -1   0  11    0.08    0.35
   1   0 -11    0.21    0.27
   0   0 -11   -0.09    0.25
   0   0  11    0.13    0.30
   0   0  11   -0.49    0.45
   0   0 -11    0.03    0.41
   1   0  11    0.50    0.54
  -1   0 -11    0.23    0.46
  -2   0 -11   -0.12    0.50
   2   0  11   -0.16    0.55
   3   0  11    0.26    0.59
  -3   0 -11   -0.40    0.50
  -4   0 -11    0.11    0.62
   4   0  11    0.11    0.64
  -5   0 -11   -0.34    0.64
   5   0  11    0.07    0.71
  -6   0 -11    0.70    0.73
   6   0  11   -0.52    0.71
  -7   0 -11    0.06    0.76
   7   0  11    1.12    0.84
 -11  -1  11   16.72    1.66
  11  -1 -11   16.74    1.39
  11   1 -11   16.79    1.40
 -11   1  11   12.67    1.50
 -10  -1  11    4.73    1.02
  10  -1 -11    7.84    0.95
  10   1 -11    6.96    0.97
 -10   1  11    6.55    1.14
  -9  -1  11   15.03    1.39
   9  -1 -11   14.58    1.16
  -9   1  11   14.15    1.39
   9   1 -11   14.03    1.16
   8  -1 -11    0.69    0.51
  -8  -1  11    0.41    0.64
   8   1 -11    1.77    0.60
  -8   1  11   -0.18    0.56
  -7  -1  11   22.20    1.34
   7  -1 -11   20.35    1.13
   7   1 -11   19.22    1.15
  -7   1  11   20.05    1.30
   6  -1 -11    4.77    0.61
   6  -1 -11    5.84    0.67
  -6  -1  11    5.64    0.76
   6   1 -11    5.70    0.69
  -6   1  11    4.66    0.73
  -5  -1  11    0.00    0.45
   5  -1 -11    0.15    0.32
  -5  -1  11    0.13    0.38
   5  -1 -11   -0.27    0.35
   5   1 -11    0.44    0.42
  -5   1  11    0.64    0.47
   4  -1 -11   51.02    1.69
   4  -1 -11   53.15    1.55
  -4  -1  11   52.47    1.72
  -4  -1  11   51.80    1.74
  -4   1  11   48.96    1.77
   4   1 -11   51.63    1.64
   3  -1 -11   -0.14    0.27
  -3  -1  11    0.75    0.39
   3  -1 -11    0.14    0.38
  -3  -1  11    0.00    0.41
   3   1 -11    0.74    0.38
  -3   1  11    0.26    0.41
  -2  -1  11    3.02    0.60
   2  -1 -11    3.10    0.57
  -2  -1  11    3.09    0.47
  -2   1  11    3.41    0.57
   2   1 -11    2.34    0.45
  -2   1  11    2.02    0.59
   2   1 -11    2.06    0.73
   1  -1 -11   29.31    1.33
  -1  -1  11   29.00    1.38
  -1   1  11   34.09    1.50
  -1   1  11   29.28    1.25
   1   1 -11   33.48    1.41
   1   1 -11   29.30    1.14
   0  -1 -11    0.92    0.48
   0  -1  11    0.93    0.54
   0   1  11    0.71    0.54
   0   1 -11    0.43    0.49
   0   1 -11    0.63    0.35
   0   1  11    0.78    0.40
  -1  -1 -11   45.93    1.72
   1  -1  11   41.64    1.71
   1   1  11   43.82    1.88
   1   1  11   44.78    1.52
  -1   1 -11   44.75    1.43
  -1   1 -11   44.21    1.77
   2  -1  11   10.73    1.01
  -2  -1 -11    9.94    0.98
  -2   1 -11   10.01    0.75
   2   1  11    9.70    0.80
   2   1  11   11.57    1.16
  -2   1 -11   11.42    1.11
  -3  -1 -11    9.71    1.01
   3  -1  11   11.39    1.10
   3   1  11    9.69    1.16
  -3   1 -11    8.27    1.03
  -3   1 -11    9.64    0.84
   4  -1  11   25.76    1.58
  -4  -1 -11   26.56    1.51
   4   1  11   23.47    1.68
  -4   1 -11   23.36    1.55
  -5  -1 -11    0.38    0.65
   5  -1  11    1.13    0.75
   5   1  11    1.13    0.83
  -5   1 -11    1.47    0.80
  -6  -1 -11   15.97    1.44
   6  -1  11   15.91    1.46
   6   1  11   14.31    1.43
  -6   1 -11   17.99    1.62
  -7  -1 -11   16.04    1.53
   7  -1  11   17.17    1.61
   7   1  11   20.89    1.79
  -7   1 -11   17.46    1.66
  11  -2 -11   24.64    1.62
  10  -2 -11   47.47    2.01
 -10  -2  11   51.52    2.41
 -10   2  11   49.97    2.38
  10   2 -11   49.29    2.12
   9  -2 -11    0.25    0.57
  -9  -2  11    0.74    0.77
   9   2 -11    0.32    0.60
  -9   2  11    0.88    0.74
   8  -2 -11   32.10    1.55
  -8  -2  11   34.94    1.88
   8  -2 -11   34.44    1.55
   8   2 -11   33.22    1.61
  -8   2  11   32.35    1.76
  -7  -2  11   17.47    1.15
   7  -2 -11   16.64    1.08
  -7  -2  11   18.82    1.40
   7  -2 -11   16.88    1.14
  -7   2  11   15.48    1.28
   7   2 -11   17.48    1.15
  -6  -2  11   50.39    1.96
  -6  -2  11   45.83    1.75
   6  -2 -11   47.04    1.61
   6  -2 -11   46.69    1.76
  -6   2  11   48.24    1.95
   6   2 -11   47.00    1.72
   5  -2 -11   84.70    2.44
  -5  -2  11   86.05    2.51
  -5  -2  11   81.30    2.38
   5   2 -11   77.87    2.33
  -5   2  11   76.01    2.49
  -4  -2  11   20.56    1.19
   4  -2 -11   18.65    1.14
  -4  -2  11   24.05    1.26
  -4   2  11   20.65    1.25
   4   2 -11   21.65    1.13
   3  -2 -11   90.06    2.57
  -3  -2  11   90.12    2.56
  -3   2  11   89.22    2.62
   3   2 -11   92.37    2.45
  -2  -2  11   37.83    1.60
   2  -2 -11   41.13    1.62
  -2   2  11   39.40    1.60
   2   2 -11   43.14    1.52
   1  -2 -11    2.30    0.56
  -1  -2  11    1.96    0.61
  -1   2  11    2.67    0.59
   1   2 -11    2.09    0.50
   0  -2  11   83.18    2.49
   0  -2 -11   80.65    2.44
   0   2  11   79.31    2.39
   0   2 -11   81.18    2.25
   0   2  11   77.84    2.62
  -1  -2 -11    7.69    0.90
   1  -2  11    8.67    0.98
   1   2  11    7.43    0.81
   1   2  11    8.60    1.09
  -1   2 -11    5.69    0.89
  -1   2 -11    7.98    0.75
   2  -2  11   28.12    1.58
  -2  -2 -11   27.47    1.48
   2   2  11   30.86    1.40
  -2   2 -11   32.90    1.78
  -2   2 -11   30.72    1.31
   2   2  11   27.08    1.70
   3  -2  11  157.48    4.06
  -3  -2 -11  155.43    4.04
   3   2  11  153.41    3.80
  -3   2 -11  152.57    3.66
  -3   2 -11  158.06    4.32
   3   2  11  163.93    4.39
   4  -2  11    0.36    0.68
  -4  -2 -11    0.86    0.62
   4   2  11   -0.34    0.76
  -4   2 -11    0.30    0.48
  -4   2 -11    0.06    0.76
   5  -2  11   56.59    2.38
  -5  -2 -11   57.11    2.36
  -5   2 -11   58.98    2.01
   5   2  11   60.25    2.59
  -5   2 -11   61.79    2.64
   6  -2  11   20.03    1.65
  -6  -2 -11   23.95    1.74
  -6   2 -11   24.22    1.91
   6   2  11   21.21    1.77
   7  -2  11   27.23    2.00
  -7  -2 -11   26.31    1.87
  -7   2 -11   31.15    3.13
   9  -3 -11   42.03    1.96
  -9  -3  11   44.65    2.23
   9  -3 -11   42.61    1.87
  -9   3  11   44.62    2.27
   9   3 -11   40.89    1.99
   8  -3 -11   -0.10    0.62
  -8  -3  11   -0.07    0.63
  -8  -3  11    0.08    0.68
  -8   3  11   -0.01    0.68
   8   3 -11    0.94    0.72
   7  -3 -11   71.75    2.47
  -7  -3  11   73.39    2.61
  -7  -3  11   68.16    2.39
  -7   3  11   72.71    2.62
   7   3 -11   70.03    2.38
   6  -3 -11   36.97    1.72
  -6  -3  11   37.65    1.75
  -6   3  11   38.01    1.85
   6   3 -11   38.30    1.67
  -5  -3  11   25.97    1.49
   5  -3 -11   25.93    1.46
   5   3 -11   25.78    1.34
  -5   3  11   26.39    1.56
  -4  -3  11   74.46    2.43
   4  -3 -11   74.63    2.43
   4   3 -11   71.03    2.28
  -4   3  11   73.44    2.50
   3  -3 -11   45.19    1.85
  -3  -3  11   50.03    1.92
   3   3 -11   48.06    1.78
  -3   3  11   46.37    1.90
   2  -3 -11   47.15    1.89
  -2  -3  11   49.83    1.94
   2   3 -11   49.29    1.80
  -2   3  11   46.46    1.93
   1  -3 -11   71.54    2.39
  -1  -3  11   77.06    2.46
  -1   3  11   74.15    2.46
   1   3 -11   75.28    2.31
   0  -3 -11    2.91    0.69
   0  -3  11    2.08    0.68
   0   3 -11    2.91    0.65
   0   3  11    2.77    0.63
   1  -3  11  101.80    3.05
  -1  -3 -11   96.36    2.97
  -1   3 -11  107.65    2.87
   1   3  11  104.35    3.03
  -2  -3 -11   36.66    1.79
   2  -3  11   45.72    2.01
   2   3  11   39.67    2.05
   2   3  11   44.70    1.87
  -2   3 -11   40.76    1.66
  -3  -3 -11   17.29    1.39
   3  -3  11   20.83    1.57
   3   3  11   18.73    1.62
   3   3  11   19.04    1.37
  -3   3 -11   19.33    1.21
   4  -3  11   52.54    2.25
  -4  -3 -11   52.05    2.20
   4   3  11   48.93    2.48
  -4   3 -11   55.55    2.01
   4   3  11   48.86    2.09
  -5  -3 -11    7.87    1.10
   5  -3  11    5.50    1.02
   5   3  11    9.92    1.41
   5   3  11    7.41    1.02
  -5   3 -11    7.35    0.93
  -5   3 -11    7.04    1.31
  -6   3 -11   20.73    1.47
  -6   3 -11   17.47    2.13
  -6  -4  11    7.19    1.07
   6  -4 -11    6.87    1.02
  -6   4  11    7.98    1.14
   6   4 -11    7.36    0.98
  -5  -4  11   93.55    2.97
   5  -4 -11   88.02    2.93
  -5   4  11   88.28    3.02
   5   4 -11   88.01    2.79
  -4  -4  11    1.94    0.77
   4  -4 -11    1.20    0.66
   4   4 -11    1.52    0.68
  -4   4  11    1.56    0.73
   3  -4 -11   41.90    1.90
  -3  -4  11   42.06    1.95
   3   4 -11   39.62    1.78
  -3   4  11   38.28    1.93
  -2  -4  11   24.25    1.59
   2  -4 -11   28.02    1.59
   2   4 -11   24.31    1.45
  -2   4  11   24.25    1.58
  -1  -4  11    3.18    0.80
   1  -4 -11    3.25    0.77
   1   4 -11    2.55    0.73
  -1   4  11    4.55    0.89
   0  -4 -11   38.12    1.85
   0  -4  11   37.62    1.89
   0   4  11   38.29    1.91
   0   4 -11   34.74    1.71
  -1  -4 -11   12.08    1.23
   1  -4  11    9.41    1.11
   1   4  11   11.43    1.23
  -1   4 -11   13.85    1.19
   2  -4  11   28.55    1.78
  -2  -4 -11   25.14    1.62
   2   4  11   27.92    1.73
  -2   4 -11   31.11    1.64
  -3  -4 -11   27.64    1.82
   3   4  11   25.61    1.71
  11   0 -12   42.95    2.02
 -11   0  12   39.69    2.57
 -10   0  12   -0.40    0.72
  10   0 -12    0.32    0.60
  -9   0  12   63.42    2.50
   9   0 -12   62.00    2.22
  -8   0  12   16.72    1.40
   8   0 -12   15.35    1.13
  -7   0  12   56.75    2.18
   7   0 -12   56.85    1.92
   6   0 -12  125.64    3.10
  -6   0  12  123.39    3.37
   5   0 -12    0.85    0.42
  -5   0  12    0.78    0.47
   4   0 -12   84.49    2.23
  -4   0  12   83.17    2.42
   3   0 -12  174.58    4.01
  -3   0  12  172.59    4.00
   3   0 -12  176.85    3.82
  -3   0  12  179.69    4.08
   2   0 -12  145.20    3.54
  -2   0  12  147.12    3.61
  -2   0  12  148.83    3.43
   2   0 -12  146.73    3.26
  -1   0  12  219.69    4.63
   1   0 -12  219.28    4.87
   1   0 -12  216.30    4.47
  -1   0  12  217.17    4.93
   0   0 -12   21.27    1.24
   0   0  12   20.75    1.30
  -1   0 -12   46.26    1.86
   1   0  12   44.16    1.89
   2   0  12  125.89    3.50
  -2   0 -12  118.79    3.37
   3   0  12   -0.39    0.67
  -3   0 -12   -0.37    0.58
  -4   0 -12   62.63    2.42
   4   0  12   62.78    2.53
   5   0  12   18.35    1.57
  -5   0 -12   18.55    1.55
   6   0  12   16.16    1.56
  -6   0 -12   15.07    1.46
  11  -1 -12    0.75    0.76
  10  -1 -12   36.30    1.77
 -10  -1  12   40.51    2.13
  10   1 -12   38.47    1.84
 -10   1  12   40.21    2.19
  -9  -1  12    0.80    0.76
   9  -1 -12    0.69    0.58
   9   1 -12    0.58    0.59
  -9   1  12    0.78    0.77
   8  -1 -12   38.72    1.63
  -8  -1  12   41.94    1.93
   8   1 -12   39.78    1.71
  -8   1  12   37.95    1.88
   7  -1 -12  113.47    2.96
  -7  -1  12  112.52    3.25
  -7   1  12  110.00    3.28
   7   1 -12  114.61    3.03
   6  -1 -12    1.88    0.48
  -6  -1  12    1.19    0.59
   6  -1 -12    2.11    0.54
  -6   1  12    1.43    0.64
   6   1 -12    1.61    0.54
  -5  -1  12   69.35    2.11
   5  -1 -12   69.78    2.13
  -5  -1  12   69.55    2.21
   5  -1 -12   68.16    1.97
  -5   1  12   69.19    2.28
   5   1 -12   67.68    2.07
  -4  -1  12   19.22    1.14
   4  -1 -12   18.42    1.12
   4  -1 -12   19.58    0.95
  -4  -1  12   19.37    1.10
   4   1 -12   19.26    1.05
  -4   1  12   20.69    1.18
   3  -1 -12   17.37    1.07
  -3  -1  12   14.70    1.08
  -3  -1  12   16.48    0.98
   3   1 -12   16.00    0.95
  -3   1  12   15.25    1.06
   2  -1 -12   15.90    1.08
  -2  -1  12   13.94    1.10
   2   1 -12   15.29    0.91
  -2   1  12   12.70    0.97
   1  -1 -12    2.72    0.60
  -1  -1  12    2.45    0.67
   1   1 -12    2.22    0.61
  -1   1  12    3.38    0.59
  -1   1  12    3.74    0.73
   1   1 -12    3.07    0.53
   0  -1 -12   98.20    2.83
   0  -1  12   96.59    2.83
   0   1  12   98.85    2.62
   0   1  12  103.44    3.02
   0   1 -12  101.09    2.91
   0   1 -12   99.16    2.48
   1  -1  12   33.73    1.68
  -1  -1 -12   33.21    1.60
   1   1  12   37.03    1.41
  -1   1 -12   39.90    1.75
  -1   1 -12   34.91    1.30
   1   1  12   35.66    1.79
   2  -1  12   10.31    1.10
  -2  -1 -12   10.47    1.07
  -2   1 -12   12.23    1.19
   2   1  12   11.10    1.21
  -3  -1 -12   56.48    2.21
   3  -1  12   58.14    2.30
   3   1  12   60.08    2.41
  -3   1 -12   53.53    2.23
   4  -1  12    7.37    1.06
  -4  -1 -12    7.63    1.03
   4   1  12    8.01    1.18
  -4   1 -12    7.82    1.11
   5  -1  12   29.89    1.94
  -5  -1 -12   30.74    1.85
  -5   1 -12   28.32    1.86
   5   1  12   24.77    1.86
   6  -1  12   41.46    2.22
  -6  -1 -12   40.53    2.17
  -6   1 -12   39.04    2.23
   6   1  12   40.20    2.28
 -10  -2  12    0.13    0.81
  10  -2 -12   -0.02    0.61
   9  -2 -12    4.38    0.78
  -9  -2  12    5.99    1.10
  -9   2  12    6.18    1.09
   9   2 -12    6.69    0.97
   8  -2 -12    5.76    0.80
   8  -2 -12    5.81    0.84
  -8  -2  12    5.87    1.02
  -8   2  12    5.33    0.95
   8   2 -12    6.83    0.95
  -7  -2  12    7.49    1.01
   7  -2 -12    9.31    0.97
   7  -2 -12    7.13    0.79
   7   2 -12    7.72    0.93
  -7   2  12    9.12    1.10
   6  -2 -12   11.84    1.06
  -6  -2  12    9.18    0.91
  -6  -2  12   11.04    1.05
   6   2 -12   10.73    1.00
  -6   2  12   12.05    1.15
  -5  -2  12    1.52    0.59
   5  -2 -12    1.81    0.60
   5   2 -12    1.91    0.60
  -5   2  12    3.13    0.75
  -4  -2  12   21.68    1.26
   4  -2 -12   21.15    1.26
   4   2 -12   21.69    1.19
  -4   2  12   20.94    1.31
  -3  -2  12   21.22    1.29
   3  -2 -12   19.32    1.23
   3   2 -12   23.30    1.20
  -3   2  12   21.72    1.31
  -2  -2  12    0.02    0.51
   2  -2 -12    0.22    0.47
  -2   2  12   -0.30    0.42
   2   2 -12    0.21    0.45
   1  -2 -12   47.61    1.89
  -1  -2  12   50.95    1.96
  -1   2  12   48.02    1.85
   1   2 -12   49.45    1.71
   0  -2 -12   15.52    1.20
   0  -2  12   15.51    1.25
   0   2 -12   15.56    1.01
   0   2  12   15.01    1.12
   1  -2  12    2.12    0.72
  -1  -2 -12    2.44    0.67
   1   2  12    2.18    0.58
  -1   2 -12    1.99    0.53
   1   2  12    2.10    0.82
   2  -2  12   10.88    1.10
  -2  -2 -12   10.92    1.11
   2   2  12   14.18    1.43
  -2   2 -12   10.62    1.24
   2   2  12   12.04    1.02
  -2   2 -12   11.60    0.93
   3  -2  12    1.75    0.74
  -3  -2 -12    2.68    0.77
  -3   2 -12    2.41    0.93
  -3   2 -12    2.52    0.64
   3   2  12    2.70    0.95
  -4  -2 -12    7.96    1.07
   4  -2  12    6.90    1.03
  -4   2 -12    9.29    1.30
   4   2  12    8.76    1.28
  -4   2 -12    8.21    0.86
   5  -2  12    0.05    0.78
  -5  -2 -12    0.07    0.73
   5   2  12    0.66    0.90
  -5   2 -12    0.74    0.93
  -6   2 -12    4.07    1.22
  -8  -3  12    0.98    0.74
   8  -3 -12    0.56    0.69
  -8  -3  12    0.62    0.83
   8   3 -12    0.71    0.72
  -8   3  12    0.88    0.78
  -7  -3  12    4.31    0.85
   7  -3 -12    5.15    0.89
   7   3 -12    5.45    0.87
  -7   3  12    6.21    1.00
   6  -3 -12   11.34    1.13
  -6  -3  12    9.54    1.09
  -6   3  12   13.00    1.29
   6   3 -12   12.43    1.15
  -5  -3  12    1.81    0.69
   5  -3 -12    1.40    0.65
  -5   3  12    1.68    0.71
   5   3 -12    1.90    0.64
  -4  -3  12    0.05    0.61
   4  -3 -12    0.15    0.53
  -4   3  12    0.00    0.56
   4   3 -12    0.48    0.58
   3  -3 -12   14.84    1.26
  -3  -3  12   14.12    1.21
   3   3 -12   15.03    1.12
  -3   3  12   15.33    1.22
   2  -3 -12    1.89    0.67
  -2  -3  12    2.88    0.73
  -2   3  12    2.30    0.70
   2   3 -12    1.29    0.61
   1  -3 -12    0.30    0.56
  -1  -3  12   -0.10    0.61
  -1   3  12   -0.01    0.52
   1   3 -12    0.17    0.54
   0  -3 -12    5.73    0.86
   0  -3  12    8.92    1.08
   0   3 -12    8.65    0.92
   0   3  12    7.66    0.96
  -1  -3 -12    0.14    0.59
   1  -3  12   -0.70    0.63
   1   3  12    0.48    0.58
  -1   3 -12    0.33    0.57
   2  -3  12    0.45    0.75
  -2  -3 -12   -0.24    0.57
  -2   3 -12   -0.61    0.51
   2   3  12    0.38    0.62
   3  -3  12   -1.61    0.68
  -3  -3 -12    0.00    0.66
   3   3  12    0.29    0.83
  -3   3 -12   -0.48    0.53
   3   3  12    0.65    0.63
   4  -3  12    2.89    0.98
  -4  -3 -12    2.81    0.88
   4   3  12    2.28    1.03
   4   3  12    3.16    0.82
  -4   3 -12    3.32    0.76
  -4  -4  12    9.38    1.42
  -3  -4  12    3.92    0.92
   3  -4 -12    3.84    0.89
   3   4 -12    3.22    0.86
  -3   4  12    3.99    0.88
   2  -4 -12   -0.10    0.61
  -2  -4  12    0.03    0.72
  -2   4  12    0.95    0.67
   2   4 -12   -0.10    0.60
   1  -4 -12   12.44    1.27
  -1  -4  12   20.82    1.90
   1   4 -12   19.83    1.39
  -1   4  12   17.77    1.47
   0   4  12    2.79    0.84
   0   4 -12    2.14    0.91
  10   0 -13    0.21    0.63
 -10   0  13   -0.59    0.75
   9   0 -13   -0.12    0.60
  -9   0  13    0.78    0.76
   8   0 -13   -0.74    0.49
  -8   0  13    0.20    0.66
   7   0 -13    0.45    0.50
  -7   0  13    0.38    0.61
  -6   0  13   -0.50    0.51
   6   0 -13    0.79    0.48
  -5   0  13   -0.36    0.48
   5   0 -13   -0.29    0.40
   4   0 -13    0.07    0.41
  -4   0  13    0.37    0.49
  -3   0  13    0.18    0.46
   3   0 -13   -0.66    0.42
   3   0 -13    0.09    0.37
   2   0 -13    0.46    0.48
  -2   0  13    0.71    0.56
   2   0 -13    0.53    0.51
  -2   0  13    0.06    0.49
   1   0 -13    0.23    0.52
  -1   0  13    0.38    0.57
   0   0  13   -0.21    0.58
   0   0 -13    0.20    0.53
   1   0  13    0.59    0.69
  -1   0 -13   -0.33    0.55
  -2   0 -13   -0.11    0.64
   2   0  13    0.65    0.71
   3   0  13    0.65    0.74
  -3   0 -13    0.46    0.68
   4   0  13    0.87    0.77
  -4   0 -13    1.03    0.76
  -5   0 -13    1.60    0.87
   5   0  13   -0.04    0.83
 -10  -1  13    1.59    0.90
  10  -1 -13   -0.89    0.62
   9  -1 -13   10.69    1.03
  -9  -1  13   12.12    1.34
  -9   1  13   13.80    1.42
   9   1 -13   10.49    1.12
  -8  -1  13   16.25    1.42
   8  -1 -13   18.04    1.20
  -8   1  13   17.18    1.44
   8   1 -13   19.03    1.30
   7  -1 -13    2.69    0.61
  -7  -1  13    2.72    0.76
   7   1 -13    2.29    0.64
  -7   1  13    2.25    0.78
   6  -1 -13   24.32    1.22
  -6  -1  13   25.65    1.44
  -6   1  13   29.42    1.55
   6   1 -13   23.52    1.30
   5  -1 -13    9.88    0.93
   5  -1 -13   10.98    0.85
  -5  -1  13    9.51    0.94
   5   1 -13   10.63    0.92
  -5   1  13   11.28    1.07
   4  -1 -13    8.82    0.90
  -4  -1  13    7.69    1.16
  -4  -1  13    9.55    0.97
   4   1 -13    9.48    0.85
  -4   1  13   10.41    0.97
  -3  -1  13   44.57    1.83
   3  -1 -13   44.45    1.76
   3   1 -13   46.57    1.63
  -3   1  13   46.38    1.77
   2  -1 -13   10.30    0.98
  -2  -1  13   10.13    1.01
   2   1 -13   10.57    0.85
  -2   1  13   12.30    1.04
  -1  -1  13   23.60    1.45
   1  -1 -13   22.21    1.34
  -1   1  13   24.37    1.25
  -1   1  13   23.70    1.54
   1   1 -13   21.84    1.11
   0  -1 -13   47.17    1.93
   0  -1  13   44.32    1.97
   0   1 -13   46.73    1.98
   0   1  13   50.83    2.14
   0   1 -13   46.29    1.57
   0   1  13   49.78    2.18
   1  -1  13    5.09    0.93
  -1  -1 -13    5.86    0.89
   1   1  13    3.81    0.93
  -1   1 -13    4.82    0.89
   2  -1  13    9.66    1.15
  -2  -1 -13    7.09    1.00
   2   1  13    8.84    1.16
  -2   1 -13    7.51    1.06
   3  -1  13   20.74    1.61
  -3  -1 -13   18.10    1.48
   3   1  13   16.48    1.52
  -3   1 -13   18.92    1.50
  -4  -1 -13   28.81    1.83
   4  -1  13   26.67    1.87
   4   1  13   29.61    2.01
  -4   1 -13   27.19    1.86
   5  -1  13   12.28    1.44
  -5  -1 -13   12.47    1.41
   5   1  13   13.88    1.53
  -5   1 -13   11.15    1.42
  -9  -2  13   16.22    1.48
   9  -2 -13   16.83    1.28
   8  -2 -13   15.66    1.35
  -8  -2  13   13.79    1.34
  -8   2  13   11.52    1.29
   8   2 -13   11.29    1.11
   7  -2 -13   31.01    1.63
  -7  -2  13   36.10    1.83
   7   2 -13   30.31    1.57
  -7   2  13   32.70    1.80
  -6  -2  13    0.55    0.60
   6  -2 -13    2.26    0.67
   6   2 -13    1.26    0.61
  -6   2  13    1.34    0.70
   5  -2 -13   22.87    1.38
  -5  -2  13   22.39    1.39
   5   2 -13   23.23    1.33
  -5   2  13   22.86    1.42
   4  -2 -13   42.08    1.80
  -4  -2  13   40.31    1.78
  -4   2  13   39.51    1.78
   4   2 -13   40.34    1.64
   3  -2 -13    4.97    0.81
  -3  -2  13    5.66    0.86
   3   2 -13    4.52    0.73
  -3   2  13    6.08    0.87
  -2  -2  13   87.82    2.73
   2  -2 -13   84.42    2.71
  -2   2  13   87.96    2.69
   2   2 -13   87.17    2.50
   1  -2 -13   32.70    1.67
  -1  -2  13   32.59    1.71
   1   2 -13   35.32    1.47
  -1   2  13   33.57    1.61
   0  -2  13   21.80    1.53
   0  -2 -13   23.98    1.49
   0   2 -13   23.03    1.23
   0   2  13   22.70    1.34
   1  -2  13   53.17    2.23
  -1  -2 -13   54.03    2.19
  -1   2 -13   54.13    1.86
   1   2  13   53.91    2.00
   1   2  13   53.92    2.42
   2  -2  13    2.30    0.80
  -2  -2 -13    2.48    0.76
  -2   2 -13    2.03    0.60
   2   2  13    1.26    0.89
  -2   2 -13    2.97    1.29
   3  -2  13   62.34    2.54
  -3  -2 -13   60.15    2.45
   3   2  13   61.36    2.73
  -3   2 -13   62.49    2.72
  -4  -2 -13   11.37    1.29
   4  -2  13   11.61    1.31
  -4   2 -13   14.95    1.57
   4   2  13   12.78    1.51
  -5   2 -13    8.84    1.41
  -7  -3  13    1.11    0.73
   7  -3 -13    4.74    0.93
   6  -3 -13   42.92    1.99
  -6  -3  13   42.48    2.00
   6   3 -13   41.66    1.86
  -6   3  13   44.44    2.11
  -5  -3  13   11.00    1.16
   5  -3 -13   11.52    1.21
   5   3 -13   13.26    1.17
  -5   3  13   11.56    1.24
   4  -3 -13   19.92    1.45
  -4  -3  13   19.02    1.50
   4   3 -13   20.33    1.35
  -4   3  13   18.50    1.43
   3  -3 -13   96.71    3.07
  -3  -3  13   98.74    3.08
  -3   3  13  100.25    3.14
   3   3 -13  102.36    2.92
  -2  -3  13    0.91    0.69
   2  -3 -13    0.40    0.62
   2   3 -13    0.76    0.63
  -2   3  13    0.03    0.63
   1  -3 -13   28.34    1.63
  -1  -3  13   27.71    1.72
  -1   3  13   30.16    1.64
   1   3 -13   29.08    1.52
   0  -3 -13   34.62    1.80
   0  -3  13   34.25    1.90
   0   3 -13   33.75    1.60
   0   3  13   39.35    1.85
   1  -3  13    0.71    0.78
  -1  -3 -13    1.02    0.73
   1   3  13    0.38    0.60
  -1   3 -13    0.47    0.58
   2  -3  13   66.67    2.97
  -2  -3 -13   62.72    2.58
  -2   3 -13   65.07    2.25
   2   3  13   61.06    2.40
   3   3  13    3.64    0.85
  -3   3 -13    5.38    0.84
  -9   0  14   13.38    1.37
   9   0 -14   12.02    1.16
  -8   0  14   35.64    1.95
   8   0 -14   37.59    1.71
  -7   0  14   11.81    1.22
   7   0 -14   10.01    0.98
   6   0 -14   73.38    2.25
  -6   0  14   71.66    2.50
   5   0 -14   73.48    2.24
  -5   0  14   75.67    2.48
   4   0 -14    1.16    0.50
  -4   0  14    1.99    0.61
  -2   0  14    1.41    0.69
   2   0 -14    3.52    0.76
  -1   0  14    4.33    0.82
   1   0 -14    3.33    0.76
   0   0 -14   42.05    1.90
   0   0  14   45.28    2.05
  -1   0 -14    0.33    0.69
   1   0  14   -0.41    0.70
  -2   0 -14   75.53    2.73
   2   0  14   74.04    2.81
  -3   0 -14   12.65    1.33
   3   0  14   19.15    1.65
   4   0  14    3.39    1.05
  -4   0 -14    1.98    0.95
  -9  -1  14   32.87    1.92
   9  -1 -14   30.95    1.67
   9   1 -14   32.07    1.96
   8  -1 -14   -0.28    0.56
  -8  -1  14    0.29    0.70
  -8   1  14   -0.87    0.67
   8   1 -14   -0.82    0.58
  -7  -1  14   35.18    1.81
   7  -1 -14   35.38    1.59
   7   1 -14   35.95    1.69
  -7   1  14   32.26    1.78
  -6  -1  14    7.58    0.96
   6   1 -14    7.81    0.87
  -6   1  14    6.23    0.96
   5   1 -14   35.45    1.54
  -5   1  14   31.99    1.66
   4  -1 -14   49.50    1.96
  -4  -1  14   49.94    2.08
  -4   1  14   53.73    2.03
   4   1 -14   50.62    1.81
  -3  -1  14    7.65    1.00
   3  -1 -14    5.79    0.86
   3   1 -14    9.16    0.85
  -3   1  14   10.07    1.01
   2  -1 -14   91.80    2.82
  -2  -1  14   96.37    2.91
  -2   1  14   91.38    2.72
   2   1 -14   90.22    2.52
  -1  -1  14   27.77    1.66
   1  -1 -14   27.78    1.60
   1   1 -14   28.17    1.27
   0  -1 -14   12.33    1.20
   0  -1  14   14.17    1.31
   0   1  14   11.59    1.24
  -1  -1 -14   54.38    2.26
   1  -1  14   57.50    2.35
  -1   1 -14   58.04    2.37
   1   1  14   56.32    2.47
   2  -1  14   25.00    1.78
  -2  -1 -14   21.86    1.62
  -2   1 -14   21.23    1.64
   2   1  14   22.28    1.74
   3  -1  14    8.13    1.18
  -3  -1 -14    8.82    1.17
  -3   1 -14    8.40    1.21
   3   1  14   14.70    1.53
  -4  -1 -14   63.89    3.80
  -8  -2  14   15.54    1.42
   7   2 -14    0.31    0.64
  -7   2  14    0.76    0.71
   6  -2 -14    7.05    0.93
  -6   2  14    6.66    1.03
   6   2 -14    5.82    0.88
  -5  -2  14   34.58    1.74
   5  -2 -14   32.35    1.68
   5   2 -14   34.65    1.60
  -5   2  14   33.40    1.75
  -4  -2  14    0.95    0.70
   4  -2 -14    0.11    0.61
   4   2 -14   -0.27    0.52
  -4   2  14    0.22    0.62
   3  -2 -14    2.31    0.75
  -3  -2  14    1.47    0.70
   3   2 -14    3.59    0.72
  -3   2  14    3.28    0.78
  -2  -2  14   15.86    1.34
   2  -2 -14   20.45    1.43
   2   2 -14   18.88    1.22
  -2   2  14   19.45    1.35
   1  -2 -14    1.47    0.72
  -1  -2  14    1.23    0.81
  -1   2  14    0.35    0.60
   1   2 -14    0.91    0.61
   0  -2  14   14.87    1.35
   0  -2 -14   13.08    1.25
   0   2 -14   16.65    1.13
   0   2  14   14.26    1.22
   1  -2  14    0.31    0.77
  -1  -2 -14    0.29    0.70
  -1   2 -14    0.54    0.56
  -2  -2 -14    9.09    1.15
   2  -2  14    8.22    1.19
   2   2  14   10.82    1.41
   3   2  14    7.50    1.25
  -3   2 -14    8.67    1.61
  -5  -3  14    2.19    0.83
   5  -3 -14    2.47    0.86
  -4  -3  14   -0.09    0.75
   4  -3 -14    0.33    0.65
   4   3 -14   -0.37    0.59
  -4   3  14   -0.21    0.61
   3  -3 -14    1.38    0.75
  -3  -3  14    0.39    0.73
   3   3 -14    1.84    0.71
  -3   3  14    1.09    0.71
  -2  -3  14    1.69    0.82
   2  -3 -14    2.03    0.77
  -2   3  14    1.43    0.69
   2   3 -14    1.90    0.71
   1  -3 -14    1.43    0.98
  -1  -3  14    1.12    0.98
  -1   3  14    1.08    0.74
   1   3 -14    0.23    0.65
   0   3 -14    0.10    0.62
   0   3  14   -0.04    0.65
   1   3  14    1.00    0.69
  -1   3 -14    0.48    0.63
  -8   0  15    0.58    0.72
   8   0 -15   -0.63    0.57
   7   0 -15    0.56    0.61
  -7   0  15   -0.47    0.69
   6   0 -15   -0.11    0.53
  -6   0  15    0.00    0.63
  -5   0  15   -0.13    0.61
   5   0 -15    0.22    0.52
  -1   0  15   -0.66    0.68
   1   0 -15   -0.21    0.63
   0   0 -15    0.75    0.70
   0   0  15    0.21    0.77
   1   0  15   -0.46    0.78
  -1   0 -15    0.43    0.75
   2   0  15    0.63    0.91
  -2   0 -15    0.38    0.78
  -3   0 -15    0.41    0.98
  -8  -1  15   15.24    1.45
   8  -1 -15   18.67    1.47
  -7  -1  15    1.72    0.81
   7   1 -15    0.54    0.64
  -7   1  15    0.46    0.74
  -6   1  15    1.59    0.75
   6   1 -15    2.27    0.71
   5   1 -15   15.52    1.16
  -5   1  15   16.39    1.35
  -4   1  15    0.67    0.62
   4   1 -15   -0.59    0.49
  -3  -1  15   11.11    1.17
   3  -1 -15    8.40    1.02
   3   1 -15   10.39    0.96
  -3   1  15   10.18    1.06
   2  -1 -15   23.05    1.54
  -2  -1  15   20.81    1.60
   1  -1 -15   14.75    1.29
  -1  -1  15   13.43    1.27
   0  -1  15   33.14    1.96
   0  -1 -15   31.45    1.79
   1  -1  15    0.70    0.84
  -1  -1 -15   -0.56    0.69
  -1   1 -15   -0.70    1.03
   1   1  15   -0.36    0.84
   2  -1  15    6.16    1.15
  -2  -1 -15    5.53    1.03
   2   1  15    5.59    1.15
  -2   1 -15    4.49    1.04
   6  -2 -15   80.17    2.86
  -6   2  15   77.86    3.04
   6   2 -15   79.69    2.88
   5  -2 -15    1.15    0.73
  -5  -2  15   -0.75    0.73
   5   2 -15    0.23    0.59
  -5   2  15    0.35    0.67
   4  -2 -15   43.50    2.07
   4   2 -15   46.03    1.88
  -4   2  15   43.21    2.06
  -3  -2  15   10.98    1.20
   3  -2 -15   12.01    1.24
  -3   2  15   16.17    1.30
   3   2 -15   14.56    1.19
  -2  -2  15   29.02    1.86
   2  -2 -15   29.09    1.77
   2   2 -15   28.81    1.52
  -2   2  15   29.38    1.68
  -1  -2  15   40.65    2.13
   1  -2 -15   39.27    2.02
  -1   2  15   41.06    1.91
   1   2 -15   42.38    1.78
   0  -2  15    6.35    1.13
   0  -2 -15    4.97    1.00
   0   2 -15    5.81    0.86
  -6   0  16   -0.03    0.69
   0   0  16   43.38    2.32
  -6   1  16   24.33    1.67
   6   1 -16   22.88    1.48
   5   1 -16    3.58    0.75
  -5   1  16    2.71    0.85
  -4   1  16   23.80    1.56
   4   1 -16   22.85    1.36
   3  -1 -16   33.62    1.88
   2  -1 -16    1.90    0.82
  -2  -1  16    0.17    0.82
   1  -1 -16   10.41    1.23
  -1  -1  16   10.10    1.29
   0  -1  16   29.30    2.11
   0   0   0    0.00    0.00
;
_shelx_hkl_checksum              35841
#END Tags that were not found in dictionaries
loop_
_space_group_symop_operation_xyz
'x, y, z'
'-x, y+1/2, -z+1/2'
'-x, -y, -z'
'x, -y-1/2, z-1/2'
loop_
_atom_site_label
_atom_site_type_symbol
_atom_site_fract_x
_atom_site_fract_y
_atom_site_fract_z
_atom_site_U_iso_or_equiv
_atom_site_adp_type
_atom_site_occupancy
_atom_site_site_symmetry_order
_atom_site_calc_flag
_atom_site_refinement_flags_posn
_atom_site_refinement_flags_adp
_atom_site_refinement_flags_occupancy
_atom_site_disorder_assembly
_atom_site_disorder_group
Br1 Br 0.69165(2) 0.16088(4) 0.43148(2) 0.01668(7) Uani 1 1 d . . . . .
C1 C 0.86333(18) 0.5578(4) 0.55624(14) 0.0135(4) Uani 1 1 d . . . . .
C2 C 0.74343(18) 0.4258(4) 0.54136(15) 0.0136(4) Uani 1 1 d . . . . .
C3 C 0.66069(17) 0.4864(4) 0.60871(15) 0.0161(4) Uani 1 1 d . . . . .
C4 C 0.69330(19) 0.6879(4) 0.68770(15) 0.0170(4) Uani 1 1 d . . . . .
C5 C 0.80903(19) 0.8276(4) 0.70360(15) 0.0177(4) Uani 1 1 d . . . . .
H1 H 0.8309 0.9676 0.7580 0.021 Uiso 1 1 calc R U . . .
C6 C 0.89203(18) 0.7575(4) 0.63797(16) 0.0162(4) Uani 1 1 d . . . . .
F1 F 0.54870(11) 0.3496(2) 0.59837(10) 0.0217(3) Uani 1 1 d . . . . .
F2 F 0.60991(11) 0.7473(3) 0.75060(9) 0.0230(3) Uani 1 1 d . . . . .
F3 F 1.00342(11) 0.9010(3) 0.65229(10) 0.0233(3) Uani 1 1 d . . . . .
N1 N 0.94071(14) 0.4956(3) 0.48021(12) 0.0149(3) Uani 1 1 d . . . . .
loop_
_atom_site_aniso_label
_atom_site_aniso_U_11
_atom_site_aniso_U_22
_atom_site_aniso_U_33
_atom_site_aniso_U_23
_atom_site_aniso_U_13
_atom_site_aniso_U_12
Br1 0.01607(10) 0.01635(10) 0.01692(10) -0.00224(7) 0.00178(7) -0.00172(7)
C1 0.0132(9) 0.0145(9) 0.0122(9) 0.0018(7) 0.0014(7) 0.0026(7)
C2 0.0144(9) 0.0131(8) 0.0127(8) 0.0012(7) 0.0015(7) 0.0008(7)
C3 0.0116(9) 0.0186(9) 0.0180(9) 0.0048(7) 0.0027(7) 0.0005(7)
C4 0.0177(9) 0.0201(10) 0.0146(9) 0.0043(8) 0.0068(7) 0.0075(8)
C5 0.0199(10) 0.0185(9) 0.0135(9) -0.0017(7) 0.0007(7) 0.0039(8)
C6 0.0127(9) 0.0185(9) 0.0161(9) -0.0001(7) 0.0000(7) 0.0003(7)
F1 0.0154(6) 0.0256(6) 0.0260(6) 0.0017(5) 0.0088(5) -0.0040(5)
F2 0.0233(6) 0.0308(6) 0.0182(6) 0.0002(5) 0.0114(5) 0.0067(5)
F3 0.0152(6) 0.0265(6) 0.0279(7) -0.0129(5) 0.0039(5) -0.0063(5)
N1 0.0132(7) 0.0155(8) 0.0164(8) 0.0004(6) 0.0042(6) 0.0004(6)
loop_
_atom_type_symbol
_atom_type_description
_atom_type_scat_dispersion_real
_atom_type_scat_dispersion_imag
_atom_type_scat_source
C C 0.0033 0.0016 'International Tables Vol C Tables 4.2.6.8 and 6.1.1.4'
H H 0.0000 0.0000 'International Tables Vol C Tables 4.2.6.8 and 6.1.1.4'
N N 0.0061 0.0033 'International Tables Vol C Tables 4.2.6.8 and 6.1.1.4'
F F 0.0171 0.0103 'International Tables Vol C Tables 4.2.6.8 and 6.1.1.4'
Br Br -0.2901 2.4595 'International Tables Vol C Tables 4.2.6.8 and 6.1.1.4'
loop_
_geom_angle_atom_site_label_1
_geom_angle_atom_site_label_2
_geom_angle_atom_site_label_3
_geom_angle
_geom_angle_site_symmetry_1
_geom_angle_site_symmetry_3
C6 C1 C2 117.26(17) . .
C6 C1 N1 125.36(17) . .
C2 C1 N1 117.10(16) . .
C3 C2 C1 120.34(17) . .
C3 C2 Br1 118.34(14) . .
C1 C2 Br1 121.31(14) . .
F1 C3 C4 119.46(16) . .
F1 C3 C2 120.55(17) . .
C4 C3 C2 119.98(17) . .
F2 C4 C5 119.64(18) . .
F2 C4 C3 118.80(17) . .
C5 C4 C3 121.56(17) . .
C6 C5 C4 117.59(18) . .
C6 C5 H1 121.2 . .
C4 C5 H1 121.2 . .
F3 C6 C5 117.07(17) . .
F3 C6 C1 119.68(17) . .
C5 C6 C1 123.19(18) . .
N1 N1 C1 113.25(19) 3_766 .
loop_
_geom_bond_atom_site_label_1
_geom_bond_atom_site_label_2
_geom_bond_distance
_geom_bond_site_symmetry_2
Br1 C2 1.8701(19) .
C1 C6 1.389(3) .
C1 C2 1.396(3) .
C1 N1 1.422(2) .
C2 C3 1.377(3) .
C3 F1 1.337(2) .
C3 C4 1.374(3) .
C4 F2 1.340(2) .
C4 C5 1.374(3) .
C5 C6 1.373(3) .
C5 H1 0.9500 .
C6 F3 1.344(2) .
N1 N1 1.257(3) 3_766
loop_
_geom_torsion_atom_site_label_1
_geom_torsion_atom_site_label_2
_geom_torsion_atom_site_label_3
_geom_torsion_atom_site_label_4
_geom_torsion
_geom_torsion_site_symmetry_1
_geom_torsion_site_symmetry_2
_geom_torsion_site_symmetry_3
_geom_torsion_site_symmetry_4
C6 C1 C2 C3 -2.5(3) . . . .
N1 C1 C2 C3 -176.84(17) . . . .
C6 C1 C2 Br1 178.23(14) . . . .
N1 C1 C2 Br1 3.9(2) . . . .
C1 C2 C3 F1 -176.44(17) . . . .
Br1 C2 C3 F1 2.9(2) . . . .
C1 C2 C3 C4 3.2(3) . . . .
Br1 C2 C3 C4 -177.47(14) . . . .
F1 C3 C4 F2 -1.8(3) . . . .
C2 C3 C4 F2 178.55(17) . . . .
F1 C3 C4 C5 177.92(17) . . . .
C2 C3 C4 C5 -1.7(3) . . . .
F2 C4 C5 C6 179.30(17) . . . .
C3 C4 C5 C6 -0.4(3) . . . .
C4 C5 C6 F3 178.22(17) . . . .
C4 C5 C6 C1 1.1(3) . . . .
C2 C1 C6 F3 -176.72(17) . . . .
N1 C1 C6 F3 -2.9(3) . . . .
C2 C1 C6 C5 0.3(3) . . . .
N1 C1 C6 C5 174.14(18) . . . .
C6 C1 N1 N1 37.2(3) . . . 3_766
C2 C1 N1 N1 -148.9(2) . . . 3_766
