#------------------------------------------------------------------------------
#$Date: 2016-05-06 03:19:51 +0300 (Fri, 06 May 2016) $
#$Revision: 182609 $
#$URL: svn://www.crystallography.net/cod/cif/7/11/89/7118910.cif $
#------------------------------------------------------------------------------
#
# This file is available in the Crystallography Open Database (COD),
# http://www.crystallography.net/
#
# All data on this site have been placed in the public domain by the
# contributors.
#
data_7118910
loop_
_publ_author_name
'Ivanov, Daniil M.'
'Novikov, Alexander S.'
'Ananyev, Ivan V.'
'Kirina, Yulia V.'
'Kukushkin, Vadim Yu'
_publ_section_title
;
 Halogen bonding between metal centers and halocarbons.
;
_journal_issue                   32
_journal_name_full
'Chemical communications (Cambridge, England)'
_journal_page_first              5565
_journal_page_last               5568
_journal_paper_doi               10.1039/c6cc01107a
_journal_volume                  52
_journal_year                    2016
_chemical_formula_moiety         'C12 H20 Cl2 N4 Pt, 2(C H I3)'
_chemical_formula_sum            'C14 H22 Cl2 I6 N4 Pt'
_chemical_formula_weight         1273.74
_space_group_crystal_system      triclinic
_space_group_IT_number           2
_space_group_name_Hall           '-P 1'
_space_group_name_H-M_alt        'P -1'
_symmetry_space_group_name_Hall  '-P 1'
_symmetry_space_group_name_H-M   'P -1'
_atom_sites_solution_hydrogens   geom
_audit_creation_method           SHELXL-2014/6
_audit_update_record
;
2016-01-11 deposited with the CCDC.
2016-03-16 downloaded from the CCDC.
;
_cell_angle_alpha                113.589(2)
_cell_angle_beta                 100.676(2)
_cell_angle_gamma                107.808(2)
_cell_formula_units_Z            1
_cell_length_a                   9.1465(11)
_cell_length_b                   9.1681(11)
_cell_length_c                   10.0680(12)
_cell_measurement_reflns_used    391
_cell_measurement_temperature    100(2)
_cell_measurement_theta_max      25
_cell_measurement_theta_min      3
_cell_volume                     689.34(14)
_computing_cell_refinement       'Bruker SAINT'
_computing_data_collection       'Bruker APEX II'
_computing_data_reduction        'Bruker SAINT'
_computing_molecular_graphics    'Bruker SHELXTL'
_computing_publication_material  'Bruker SHELXTL'
_computing_structure_refinement  'SHELXL-97 (Sheldrick, 1997)'
_computing_structure_solution    'SHELXS-97 (Sheldrick, 1997)'
_diffrn_ambient_temperature      100(2)
_diffrn_measured_fraction_theta_full 1.000
_diffrn_measured_fraction_theta_max 0.998
_diffrn_measurement_device_type  'Bruker APEX II CCD area detector''
_diffrn_measurement_method       'omega scans'
_diffrn_radiation_type           MoK\a
_diffrn_radiation_wavelength     0.71073
_diffrn_reflns_av_R_equivalents  0.0269
_diffrn_reflns_av_unetI/netI     0.0387
_diffrn_reflns_Laue_measured_fraction_full 1.000
_diffrn_reflns_Laue_measured_fraction_max 0.998
_diffrn_reflns_limit_h_max       12
_diffrn_reflns_limit_h_min       -12
_diffrn_reflns_limit_k_max       12
_diffrn_reflns_limit_k_min       -12
_diffrn_reflns_limit_l_max       13
_diffrn_reflns_limit_l_min       -13
_diffrn_reflns_number            7188
_diffrn_reflns_point_group_measured_fraction_full 1.000
_diffrn_reflns_point_group_measured_fraction_max 0.998
_diffrn_reflns_theta_full        25.242
_diffrn_reflns_theta_max         28.000
_diffrn_reflns_theta_min         2.359
_exptl_absorpt_coefficient_mu    12.010
_exptl_absorpt_correction_T_max  0.262
_exptl_absorpt_correction_T_min  0.176
_exptl_absorpt_correction_type   multi-scan
_exptl_absorpt_process_details   SADABS
_exptl_crystal_colour            yellow
_exptl_crystal_density_diffrn    3.068
_exptl_crystal_description       prism
_exptl_crystal_F_000             564
_exptl_crystal_size_max          0.210
_exptl_crystal_size_mid          0.190
_exptl_crystal_size_min          0.160
_refine_diff_density_max         1.431
_refine_diff_density_min         -0.946
_refine_diff_density_rms         0.218
_refine_ls_extinction_method     none
_refine_ls_goodness_of_fit_ref   1.002
_refine_ls_hydrogen_treatment    constr
_refine_ls_matrix_type           full
_refine_ls_number_parameters     124
_refine_ls_number_reflns         3318
_refine_ls_number_restraints     0
_refine_ls_restrained_S_all      1.002
_refine_ls_R_factor_all          0.0415
_refine_ls_R_factor_gt           0.0302
_refine_ls_shift/su_max          0.000
_refine_ls_shift/su_mean         0.000
_refine_ls_structure_factor_coef Fsqd
_refine_ls_weighting_details
'w=1/[\s^2^(Fo^2^)+(0.0369P)^2^] where P=(Fo^2^+2Fc^2^)/3'
_refine_ls_weighting_scheme      calc
_refine_ls_wR_factor_gt          0.0653
_refine_ls_wR_factor_ref         0.0695
_reflns_Friedel_coverage         0.000
_reflns_number_gt                2730
_reflns_number_total             3318
_reflns_threshold_expression     I>2\s(I)
_cod_data_source_file            c6cc01107a2.cif
_cod_data_source_block           a
_cod_depositor_comments
'Adding full bibliography for 7118900--7118914.cif.'
_cod_original_cell_volume        689.33(14)
_cod_database_code               7118910
_shelx_space_group_comment
;
The symmetry employed for this shelxl refinement is uniquely defined
by the following loop, which should always be used as a source of
symmetry information in preference to the above space-group names.
They are only intended as comments.
;
_shelx_estimated_absorpt_t_min   0.187
_shelx_estimated_absorpt_t_max   0.250
_shelxl_version_number           2014/6
_shelx_res_file
;
TITL a in P-1
CELL 0.71073 9.1465    9.1681   10.0680 113.5889 100.6765    107.8083
ZERR    1.00 0.0011    0.0011    0.0012   0.0020   0.0021      0.0022
LATT  1
SFAC C H N CL I PT
UNIT 14 22 4 2 6 1
size 0.21 0.19 0.16
L.S. 20
PLAN  20
temp -173.00
BOND $H
fmap 2
conf
htab
omit -4 56
acta

WGHT    0.036900
FVAR       0.10328
PT1   6    0.000000    0.000000    0.000000    10.50000    0.01440    0.01169 =
         0.01870    0.00326    0.00833    0.00471
CL1   4    0.064509   -0.009294    0.229762    11.00000    0.01571    0.01913 =
         0.01961    0.00667    0.00759    0.00568
C3    1    0.709191    0.336314   -0.046242    11.00000    0.02734    0.02506 =
         0.02787    0.01326    0.01862    0.01095
AFIX  23
H3A   2    0.780844    0.290989   -0.096575    11.00000   -1.20000
H3B   2    0.630056    0.342805   -0.122966    11.00000   -1.20000
AFIX   0
C1    1    0.368614    0.196723    0.063347    11.00000    0.02052    0.01391 =
         0.01583    0.00652    0.00969    0.00722
N1    3    0.234195    0.120674    0.037651    11.00000    0.01971    0.01820 =
         0.01778    0.00324    0.00812    0.00478
C6    1    0.621125    0.462302    0.231468    11.00000    0.02008    0.02086 =
         0.02186   -0.00184    0.00642    0.00214
AFIX  23
H6A   2    0.700028    0.454949    0.307680    11.00000   -1.20000
H6B   2    0.547274    0.504363    0.280598    11.00000   -1.20000
AFIX   0
N2    3    0.524653    0.287888    0.093180    11.00000    0.01628    0.01287 =
         0.02358   -0.00195    0.01199   -0.00116
C2    1    0.616430    0.210917    0.002526    11.00000    0.01919    0.01426 =
         0.02618    0.00404    0.01296    0.00671
AFIX  23
H2A   2    0.539537    0.097522   -0.090252    11.00000   -1.20000
H2B   2    0.694411    0.188752    0.065830    11.00000   -1.20000
AFIX   0
C5    1    0.713015    0.589324    0.182597    11.00000    0.02658    0.01524 =
         0.02644    0.00789    0.00594    0.00712
AFIX  23
H5A   2    0.785345    0.704083    0.275909    11.00000   -1.20000
H5B   2    0.633059    0.607671    0.117369    11.00000   -1.20000
AFIX   0
C4    1    0.815066    0.522285    0.093511    11.00000    0.02061    0.02861 =
         0.03106    0.01627    0.01172    0.00565
AFIX  23
H4A   2    0.904783    0.519145    0.162874    11.00000   -1.20000
H4B   2    0.865177    0.603301    0.056309    11.00000   -1.20000
AFIX   0
I1S   5    0.452409    0.162101    0.421948    11.00000    0.01910    0.01669 =
         0.02006    0.00790    0.00893    0.00773
I3S   5    0.818285    0.542561    0.672739    11.00000    0.02190    0.01547 =
         0.02777    0.00710    0.00869    0.00667
I2S   5    0.836188    0.147066    0.416903    11.00000    0.02249    0.02153 =
         0.02351    0.01011    0.01330    0.01131
C1S   1    0.706351    0.258680    0.553691    11.00000    0.02215    0.01935 =
         0.02194    0.01159    0.01381    0.01041
AFIX  13
H1SA  2    0.710350    0.222058    0.634968    11.00000   -1.20000

AFIX   0
HKLF 4

REM  a in P-1
REM R1 =  0.0302 for    2730 Fo > 4sig(Fo)  and  0.0415 for all    3318 data
REM    124 parameters refined using      0 restraints

END

WGHT      0.0368      0.0000

REM Instructions for potential hydrogen bonds
HTAB C6 I3S
EQIV $1 -x+1, -y+1, -z+1
HTAB C6 I1S_$1
EQIV $2 -x+1, -y, -z
HTAB C2 I1S_$2
EQIV $3 -x+1, -y, -z+1
HTAB C1S I1S_$3

REM Highest difference peak  1.431,  deepest hole -0.946,  1-sigma level  0.218
Q1    1   0.0459 -0.0416  0.0597  11.00000  0.05    1.43
Q2    1   0.0891  0.0358  0.0474  11.00000  0.05    1.33
Q3    1   0.5644  0.2020  0.4945  11.00000  0.05    1.19
Q4    1   0.0893  0.1102  0.0465  11.00000  0.05    1.15
Q5    1   0.8181  0.5990  0.6205  11.00000  0.05    1.12
Q6    1   0.4161  0.2186  0.3807  11.00000  0.05    1.08
Q7    1   0.9415  0.2054  0.4646  11.00000  0.05    1.05
Q8    1   0.1454  0.0537  0.2772  11.00000  0.05    1.03
Q9    1   0.4785  0.1177  0.4815  11.00000  0.05    1.02
Q10   1   0.8097  0.2173  0.3797  11.00000  0.05    1.00
Q11   1   0.7388  0.1461  0.3337  11.00000  0.05    0.99
Q12   1   0.8917  0.1169  0.4797  11.00000  0.05    0.97
Q13   1   0.7323  0.0763  0.3617  11.00000  0.05    0.97
Q14   1   0.7169  0.4612  0.6066  11.00000  0.05    0.94
Q15   1   0.0628 -0.0569  0.1827  11.00000  0.05    0.89
Q16   1   0.8678  0.4965  0.7262  11.00000  0.05    0.88
Q17   1   0.9315  0.6193  0.7209  11.00000  0.05    0.87
Q18   1   0.3571  0.0556  0.3564  11.00000  0.05    0.86
Q19   1  -0.0027  0.0804  0.0645  11.00000  0.05    0.85
Q20   1   0.8847  0.2363  0.3857  11.00000  0.05    0.82
;
_shelx_res_checksum              27692
_shelx_hkl_file
;
   0   1   0   96.62    1.55
   0   1   0   96.69    1.30
   0   1   0   96.79    1.21
   0  -1   0   93.64    1.21
   0   2   0  105.30    2.18
   0   2   0  103.47    1.76
   0  -2   0  102.54    1.56
   0   3   0  207.38    3.81
   0   3   0  205.47    3.08
   0  -3   0  205.12    2.83
   0   4   0    4.34    0.73
   0   4   0    6.04    1.03
   0  -4   0    4.19    0.61
   0   5   0   44.29    1.77
   0  -5   0   45.94    1.41
   0   6   0  208.49    4.10
   0  -6   0  217.21    3.52
   0   7   0  177.35    3.94
   0   8   0    5.88    1.31
   0   9   0    5.02    1.33
   0  10   0    9.88    1.68
  -1  11   0   14.35    2.12
  -1  10   0    0.64    1.27
  -1   9   0   53.28    2.69
  -1   8   0    2.45    0.98
   1  -7   0   87.65    2.30
  -1   7   0   83.71    2.73
   1  -6   0    0.14    0.60
  -1   6   0   -0.49    0.64
   1  -5   0  141.31    2.62
  -1   5   0  145.18    2.95
   1  -4   0   16.14    0.97
  -1   4   0   17.54    1.14
   1  -3   0  281.71    3.69
  -1   3   0  286.62    3.84
   1  -2   0  100.05    1.72
  -1   2   0  110.43    1.80
   1  -1   0    7.02    0.47
  -1   1   0    6.11    0.42
   1   0   0   40.98    0.88
   1   0   0   38.98    0.82
   1   0   0   39.82    0.75
   1   1   0   67.32    1.28
   1   1   0   64.38    1.22
   1   1   0   66.05    1.55
   1   2   0  628.22    6.89
   1   2   0  625.49    8.00
  -1  -2   0  635.88    6.97
   1   3   0   24.46    1.60
   1   3   0   27.07    1.25
  -1  -3   0   25.07    0.96
   1   4   0  193.86    3.46
   1   4   0  186.01    4.26
  -1  -4   0  196.81    3.06
   1   5   0   19.42    1.90
   1   5   0   20.12    1.44
  -1  -5   0   21.01    1.05
   1   6   0   23.59    1.71
  -1  -6   0   27.61    1.35
   1   7   0    1.73    0.95
   1   8   0   89.46    3.15
   1   9   0   51.04    2.76
   1  10   0   18.89    2.15
  -2  11   0   31.16    2.65
  -2  10   0   15.88    1.91
  -2   9   0    1.07    1.03
  -2   8   0   30.87    1.99
   2  -7   0   27.95    1.57
  -2   7   0   32.37    1.86
   2  -6   0   50.23    1.72
  -2   6   0   50.35    2.00
   2  -5   0  607.67    7.50
  -2   5   0  605.71    7.65
   2  -4   0   49.20    1.55
  -2   4   0   51.61    1.69
   2  -3   0  118.43    2.24
  -2   3   0  116.32    2.23
   2  -2   0  269.48    3.75
  -2   2   0  260.36    3.58
   2  -1   0  108.34    2.01
  -2   1   0  109.25    1.90
   2   0   0   10.52    0.85
   2   0   0   12.45    0.88
   2   0   0   10.88    0.68
   2   1   0  540.84    6.90
   2   1   0  551.95    6.23
   2   1   0  547.15    6.56
   2   2   0  240.67    3.57
   2   2   0  245.01    4.31
   2   2   0  241.37    3.58
   2   3   0   43.86    2.08
   2   3   0   48.42    1.64
  -2  -3   0   51.59    1.48
   2   4   0   11.13    1.40
   2   4   0   10.33    1.07
  -2  -4   0    8.60    0.85
   2   5   0    9.39    1.57
   2   5   0   11.40    1.28
  -2  -5   0   12.61    0.98
   2   6   0   76.80    2.70
  -2  -6   0   79.60    2.19
   2   7   0   13.42    1.61
   2   8   0   90.89    3.36
   2   9   0    1.70    1.31
  -3  11   0    1.44    1.33
  -3  10   0   67.66    3.19
  -3   9   0   25.82    2.18
   3  -8   0   74.74    2.45
  -3   8   0   79.75    2.83
   3  -7   0    8.90    1.16
  -3   7   0   11.33    1.31
   3  -6   0    1.12    0.74
  -3   6   0    1.45    0.75
   3  -5   0    1.95    0.71
  -3   5   0    1.47    0.64
   3  -4   0   91.23    2.29
  -3   4   0   89.16    2.26
   3  -3   0  487.25    6.43
  -3   3   0  479.79    6.06
   3  -2   0  108.57    2.40
  -3   2   0  104.74    2.19
   3  -1   0  138.49    2.74
  -3   1   0  131.14    2.52
   3   0   0  162.73    3.00
   3   0   0  168.08    2.76
   3   0   0  164.91    3.11
   3   1   0   11.88    1.10
   3   1   0   10.55    0.97
   3   1   0   10.16    1.01
   3   2   0    2.69    0.68
   3   2   0    1.58    0.78
   3   2   0    1.82    0.67
   3   3   0  464.37    6.43
   3   3   0  464.18    7.57
   3   4   0  116.06    3.73
   3   4   0  116.49    3.00
  -3  -4   0  116.83    2.67
   3   5   0  125.62    3.39
   3   5   0  123.60    4.29
  -3  -5   0  124.23    2.87
   3   6   0    5.35    1.24
   3   7   0    8.82    1.53
   3   8   0    3.19    1.47
   3   9   0   18.25    2.22
  -4  11   0   14.83    2.02
  -4  10   0   60.53    3.03
  -4   9   0   -0.74    0.87
   4  -8   0   35.96    2.08
  -4   8   0   34.95    2.14
   4  -7   0   19.24    1.60
  -4   7   0   21.25    1.72
   4  -6   0   49.77    2.05
  -4   6   0   53.91    2.12
   4  -5   0    2.44    0.80
  -4   5   0    2.66    0.77
   4  -4   0  173.77    3.50
  -4   4   0  179.72    3.46
   4  -3   0   28.59    1.59
  -4   3   0   31.56    1.49
   4  -2   0   53.91    2.00
  -4   2   0   55.13    1.77
   4  -1   0    9.38    1.19
  -4   1   0    9.15    0.97
   4   0   0   13.79    1.08
   4   0   0   13.11    1.37
   4   0   0   14.00    1.36
   4   1   0   82.51    2.41
   4   1   0   81.94    2.45
   4   1   0   76.78    2.30
   4   2   0    1.61    0.83
   4   2   0    3.44    0.86
   4   2   0    2.93    0.84
   4   3   0   95.96    3.28
   4   3   0   97.30    2.76
   4   3   0   96.92    2.74
   4   4   0    0.19    0.92
   4   4   0    0.02    1.04
  -4  -4   0    1.20    0.71
   4   5   0   64.42    2.75
  -4  -5   0   62.25    2.26
   4   6   0   -1.04    1.08
   4   7   0   63.13    3.10
   4   8   0   -0.03    1.31
  -5  11   0    1.63    1.35
  -5  10   0    1.71    1.22
   5  -9   0   54.67    2.59
  -5   9   0   53.55    2.69
   5  -8   0  118.06    3.49
  -5   8   0  119.69    3.58
   5  -7   0   45.00    2.24
  -5   7   0   45.67    2.22
   5  -6   0   13.09    1.45
  -5   6   0   14.39    1.48
   5  -5   0  129.27    3.33
  -5   5   0  133.82    3.28
   5  -4   0    0.18    0.77
  -5   4   0    0.22    0.61
   5  -3   0    5.63    1.07
  -5   3   0    7.77    1.00
   5  -2   0  571.81    8.27
  -5   2   0  589.53    7.75
   5  -1   0  104.86    2.13
   5  -1   0  103.71    2.96
  -5   1   0  103.25    2.65
   5   0   0  137.78    3.50
   5   0   0  136.62    2.92
  -5   0   0  134.36    3.08
   5   1   0   46.01    2.04
   5   1   0   50.44    2.27
   5   1   0   47.25    2.12
   5   2   0    7.76    1.20
   5   2   0   10.83    1.46
   5   2   0    7.30    1.35
   5   3   0    4.86    1.34
   5   3   0    4.68    1.24
   5   3   0    6.21    1.30
   5   4   0   55.39    3.17
   5   4   0   54.10    2.64
  -5  -4   0   56.05    2.30
   5   5   0  115.35    3.74
  -5  -5   0  118.18    3.45
   5   6   0   14.13    1.93
   5   7   0    8.69    1.78
  -6  11   0   23.42    2.48
  -6  10   0    3.39    1.35
   6  -9   0   19.76    1.98
  -6   9   0   18.50    1.97
   6  -8   0    5.21    1.30
  -6   8   0    6.37    1.29
   6  -7   0   43.99    2.41
  -6   7   0   39.49    2.23
   6  -6   0    9.74    0.89
   6  -6   0   10.18    1.41
  -6   6   0    9.32    1.36
   6  -5   0   62.25    2.59
  -6   5   0   59.43    2.38
   6  -4   0   23.93    1.84
  -6   4   0   21.27    1.61
   6  -3   0    7.58    1.29
  -6   3   0    7.27    1.08
   6  -2   0    3.18    1.02
  -6   2   0    1.48    0.69
   6  -1   0    1.36    0.98
   6  -1   0    1.78    0.60
  -6   1   0    2.14    0.74
   6   0   0  150.48    4.00
   6   0   0  148.41    3.29
  -6   0   0  143.23    3.42
   6   1   0   14.69    1.59
   6   1   0   15.23    1.72
   6   1   0   12.75    1.68
   6   2   0  109.55    3.61
   6   2   0  109.83    3.60
   6   2   0  112.01    3.55
   6   3   0    7.48    1.56
   6   3   0    6.11    1.40
   6   3   0    5.04    1.49
   6   4   0    0.35    1.24
  -6  -4   0    1.12    0.89
   6   5   0    7.72    1.68
   6   6   0   26.22    2.51
   6   7   0   21.39    2.45
  -7  11   0   -0.28    1.28
  -7  10   0   14.74    2.07
   7  -9   0   -0.56    1.16
  -7   9   0    0.15    1.16
   7  -8   0   -0.76    1.05
  -7   8   0   -0.11    0.94
   7  -7   0  174.62    4.66
  -7   7   0  170.36    4.54
   7  -6   0   16.20    1.91
  -7   6   0   17.21    1.75
   7  -5   0   74.25    3.04
  -7   5   0   78.30    2.87
   7  -4   0   67.52    2.96
  -7   4   0   67.48    2.64
   7  -3   0    2.08    1.04
  -7   3   0    2.12    0.86
   7  -2   0    5.91    1.35
  -7   2   0    5.52    1.05
   7  -1   0   57.18    1.89
   7  -1   0   56.80    2.81
  -7   1   0   53.88    2.28
   7   0   0   50.32    2.74
   7   0   0   55.54    2.24
  -7   0   0   47.33    2.17
   7   1   0   17.18    2.03
   7   1   0   18.28    1.81
   7   2   0    7.28    1.61
   7   2   0    6.50    1.44
   7   2   0    5.94    1.55
   7   3   0    4.11    1.56
   7   3   0    6.03    1.70
   7   4   0   11.92    1.94
  -7  -4   0   16.18    1.84
   7   5   0    1.09    1.47
   7   6   0   28.54    2.70
  -8  11   0   13.94    2.24
   8 -10   0   53.63    3.32
  -8  10   0   58.05    3.27
   8  -9   0    2.12    1.48
  -8   9   0    1.37    1.25
   8  -8   0    3.69    1.51
  -8   8   0    4.47    1.37
   8  -7   0   13.78    1.98
  -8   7   0   15.20    1.90
   8  -6   0   -0.41    1.22
  -8   6   0    0.90    1.00
   8  -5   0  120.35    4.14
  -8   5   0  121.89    3.82
   8  -4   0   58.16    2.94
  -8   4   0   50.93    2.50
   8  -3   0   78.14    3.39
  -8   3   0   81.94    2.95
   8  -2   0   48.40    2.88
  -8   2   0   48.93    2.32
   8  -1   0    1.05    0.87
   8  -1   0    4.01    1.51
  -8   1   0    2.10    0.90
   8   0   0   29.11    2.64
  -8   0   0   30.52    2.00
   8   1   0   72.76    3.46
  -8  -1   0   72.73    2.92
   8   2   0   43.40    3.01
   8   3   0   52.18    3.27
   8   3   0   48.61    3.22
   8   4   0   -0.62    1.60
   8   5   0    3.68    1.91
  -9  11   0    3.29    1.74
   9 -10   0   20.40    2.53
  -9  10   0   16.59    2.48
   9  -9   0    4.09    1.81
  -9   9   0    2.37    1.53
   9  -8   0   17.65    2.41
  -9   8   0   16.69    2.14
   9  -7   0   -0.84    1.24
  -9   7   0    2.44    1.32
   9  -6   0   35.82    2.91
  -9   6   0   37.90    2.52
   9  -5   0    0.76    1.22
  -9   5   0    0.93    1.03
   9  -4   0   11.67    1.89
  -9   4   0   10.30    1.52
   9  -3   0    4.91    1.55
  -9   3   0    3.28    1.12
   9  -2   0    7.40    1.78
  -9   2   0    8.28    1.35
   9  -1   0   34.16    2.81
  -9   1   0   26.93    2.06
   9   0   0    1.47    1.53
  -9   0   0   -0.06    0.85
   9   1   0   19.40    2.59
  -9  -1   0   14.57    1.79
   9   2   0    5.76    1.94
  -9  -2   0    4.45    1.29
   9   3   0   19.12    2.76
  -9  -3   0   16.04    2.03
  10 -10   0   38.48    3.36
 -10  10   0   36.86    3.36
  10  -9   0   52.39    3.57
 -10   9   0   48.95    3.40
  10  -8   0   29.28    2.94
 -10   8   0   36.64    2.97
  10  -7   0   10.43    2.14
 -10   7   0    9.85    1.80
  10  -6   0    3.00    1.63
 -10   6   0    2.50    1.26
  10  -5   0   10.59    1.98
 -10   5   0   11.63    1.80
  10  -4   0   83.68    3.86
 -10   4   0   82.51    3.39
  10  -3   0   30.79    2.97
 -10   3   0   34.95    2.38
  10  -2   0   77.51    4.01
 -10   2   0   74.28    3.15
  10  -1   0    0.80    1.67
 -10   1   0    0.32    0.95
  10   0   0   -1.25    1.55
 -10   0   0    1.78    1.10
  10   1   0    4.60    2.02
 -10  -1   0    5.56    1.40
  10   2   0    4.86    1.92
 -10  -2   0    1.62    1.21
  11  -9   0    8.14    2.21
 -11   9   0    8.26    2.07
  11  -8   0    8.50    2.27
 -11   8   0    6.81    1.85
  11  -7   0   33.57    3.25
 -11   7   0   36.76    2.97
  11  -6   0   21.57    2.81
 -11   6   0   19.89    2.34
  11  -5   0    3.51    1.83
 -11   5   0   -0.51    1.12
  11  -4   0   -0.13    1.64
 -11   4   0    1.07    1.19
  11  -3   0    1.99    1.79
 -11   3   0    3.31    1.27
  11  -2   0   28.02    3.09
 -11   2   0   31.11    2.37
  11  -1   0    7.27    2.28
 -11   1   0    6.86    1.53
  11   0   0   61.81    4.14
 -11   0   0   65.62    3.28
  11   1   0   -0.85    1.98
 -11  -1   0    1.64    1.20
  12  -8   0   15.46    2.65
 -12   8   0   14.36    2.31
  12  -7   0   44.56    3.77
 -12   7   0   48.49    3.45
  12  -6   0   -0.98    1.77
 -12   6   0    2.61    1.41
  12  -5   0    2.13    2.02
 -12   5   0    2.59    1.45
  12  -4   0    3.50    2.11
 -12   4   0    2.84    1.32
  12  -3   0   10.65    2.42
 -12   3   0   12.99    1.94
  12  -2   0   16.79    2.83
 -12   2   0   15.67    2.00
 -12   1   1    1.57    1.21
  12  -1  -1   -0.52    1.89
 -12   2   1    2.60    1.23
  12  -2  -1    1.25    1.87
 -12   3   1    4.32    1.36
  12  -3  -1    3.34    2.16
 -12   4   1   24.92    2.49
  12  -4  -1   25.83    3.04
 -12   5   1    6.59    1.75
  12  -5  -1    7.05    2.10
 -12   6   1   29.17    2.80
  12  -6  -1   31.92    3.34
 -12   7   1    1.65    1.48
  12  -7  -1    2.05    1.89
 -12   8   1   -0.87    1.41
  12  -8  -1   -0.73    1.77
 -11  -1   1   27.67    2.77
  11   1  -1   25.91    3.16
 -11   0   1    4.97    1.45
  11   0  -1    4.23    2.04
 -11   1   1    2.52    1.17
  11  -1  -1    2.42    1.91
 -11   2   1    0.62    1.07
  11  -2  -1    1.65    1.73
 -11   3   1    5.89    1.41
  11  -3  -1    4.02    1.85
 -11   4   1   46.62    2.81
  11  -4  -1   53.90    3.61
 -11   5   1   10.17    1.75
  11  -5  -1   12.27    2.22
 -11   6   1   19.93    2.32
  11  -6  -1   20.60    2.67
 -11   7   1   13.98    2.06
  11  -7  -1   17.21    2.65
 -11   8   1    3.87    1.63
  11  -8  -1    3.93    2.01
 -11   9   1    1.65    1.63
  11  -9  -1   -3.18    1.66
 -10  -3   1    0.07    1.31
  10   3  -1   -2.31    2.09
 -10  -2   1    7.47    1.61
  10   2  -1    2.88    1.89
 -10  -1   1   30.35    2.53
  10   1  -1   32.08    3.08
 -10   0   1   23.54    2.32
  10   0  -1   24.95    2.81
 -10   1   1   82.89    3.42
  10  -1  -1   79.13    4.05
 -10   2   1    0.69    0.95
  10  -2  -1    2.86    1.59
  10  -3  -1    6.57    1.81
 -10   4   1   20.47    2.05
  10  -4  -1   20.68    2.40
 -10   5   1    8.27    1.64
  10  -5  -1    5.78    1.81
 -10   6   1   56.85    3.17
  10  -6  -1   56.40    3.47
 -10   7   1   52.13    3.18
  10  -7  -1   47.00    3.41
 -10   8   1   15.54    2.20
  10  -8  -1   21.04    2.71
 -10   9   1    9.42    2.06
  10  -9  -1   13.11    2.45
 -10  10   1    0.61    1.56
  10 -10  -1    0.29    1.79
   9   4  -1    3.05    1.88
   9   3  -1    1.92    1.60
  -9  -2   1   16.34    2.03
   9   2  -1   14.55    2.20
  -9  -1   1   20.03    2.10
   9   1  -1   23.02    2.56
  -9   0   1    2.15    1.04
   9   0  -1    0.88    1.47
  -9   1   1   18.06    1.85
   9  -1  -1   25.52    2.63
  -9   2   1    0.46    0.82
   9  -2  -1   -0.37    1.21
  -9   3   1   37.99    2.34
   9  -3  -1   38.86    2.71
  -9   4   1    1.90    1.02
   9  -4  -1    2.27    1.36
  -9   5   1   26.03    2.22
   9  -5  -1   23.77    2.43
  -9   6   1    3.53    1.20
   9  -6  -1    3.06    1.49
  -9   7   1   24.49    2.38
   9  -7  -1   27.28    2.59
  -9   8   1    2.46    1.39
   9  -8  -1    4.36    1.65
  -9   9   1   18.42    2.30
   9  -9  -1   15.95    2.31
  -9  10   1    3.63    1.70
   9 -10  -1    9.36    2.07
   8   5  -1   26.09    2.80
   8   4  -1   73.21    4.77
   8   4  -1   68.86    3.63
   8   3  -1    4.06    1.63
   8   3  -1    2.43    1.62
   8   2  -1    1.08    1.35
  -8  -1   1   23.59    1.99
   8   1  -1   28.26    2.57
  -8   0   1   62.74    2.65
   8   0  -1   61.47    3.27
  -8   1   1   83.14    3.00
   8  -1  -1   81.92    3.47
  -8   2   1  114.83    3.37
   8  -2  -1  112.46    3.82
  -8   3   1   16.92    1.73
   8  -3  -1   19.22    2.10
  -8   4   1    8.36    1.38
   8  -4  -1    9.86    1.64
  -8   5   1    3.71    1.17
   8  -5  -1    3.62    1.36
  -8   6   1    9.39    1.52
   8  -6  -1    4.95    1.36
  -8   7   1   86.26    3.49
   8  -7  -1   90.96    3.63
  -8   8   1   34.68    2.63
   8  -8  -1   30.85    2.64
  -8   9   1   63.37    3.38
   8  -9  -1   64.49    3.40
  -8  10   1    4.61    1.55
   8 -10  -1    1.49    1.56
  -8  11   1    1.74    1.60
   7   6  -1    0.04    1.49
   7   5  -1    2.92    1.55
   7   4  -1   22.09    2.26
   7   4  -1   18.79    2.13
   7   3  -1   29.76    2.52
   7   3  -1   31.46    2.45
   7   2  -1  120.33    3.92
   7   2  -1  123.83    3.96
   7   1  -1    0.06    1.09
  -7   0   1   11.94    1.39
   7   0  -1    8.97    1.55
  -7   1   1   40.16    2.03
   7  -1  -1   36.46    2.29
  -7   2   1   67.58    2.46
   7  -2  -1   71.80    2.96
  -7   3   1   32.64    1.88
   7  -3  -1   26.18    1.99
  -7   4   1  190.56    4.43
   7  -4  -1  183.72    4.48
  -7   5   1   28.86    1.93
   7  -5  -1   29.56    2.26
  -7   6   1    4.34    1.18
   7  -6  -1    4.30    1.31
  -7   7   1   11.51    1.64
   7  -7  -1   14.43    1.86
  -7   8   1    4.41    1.27
   7  -8  -1    3.20    1.34
  -7   9   1   39.91    2.73
   7  -9  -1   34.61    2.72
  -7  10   1   25.22    2.50
  -7  11   1   51.05    3.37
   6   7  -1    3.32    1.63
   6   6  -1    1.67    1.46
   6   5  -1   79.37    3.36
   6   4  -1   38.16    2.50
   6   4  -1   39.90    2.44
   6   3  -1  143.61    3.89
   6   3  -1  149.36    3.96
   6   2  -1    6.86    1.34
   6   2  -1    7.30    1.40
   6   1  -1    3.08    1.15
   6   1  -1   -0.57    0.91
  -6   0   1    0.19    0.59
   6   0  -1   -1.46    0.78
  -6   1   1    5.29    0.95
   6  -1  -1    6.55    1.17
  -6   2   1  159.74    3.60
   6  -2  -1  162.88    3.90
  -6   3   1   54.36    2.16
   6  -3  -1   56.26    2.39
  -6   4   1  168.43    3.91
   6  -4  -1  171.59    4.09
  -6   5   1    7.16    1.15
   6  -5  -1    6.60    1.22
  -6   6   1   32.33    2.00
   6  -6  -1   30.73    2.14
  -6   7   1   -0.17    0.87
   6  -7  -1    0.15    1.04
  -6   8   1   41.63    2.47
   6  -8  -1   48.85    2.66
  -6   9   1    4.25    1.31
   6  -9  -1    2.61    1.25
  -6  10   1   24.65    2.34
  -6  11   1    5.09    1.63
   5   8  -1   51.91    3.20
   5   7  -1   57.85    3.09
   5   6  -1    5.53    1.43
  -5  -5   1    2.64    0.89
   5   5  -1    3.85    1.24
   5   4  -1   28.29    2.29
   5   4  -1   36.30    2.16
   5   3  -1   64.96    2.64
   5   3  -1   68.19    2.56
   5   2  -1   68.28    2.50
   5   2  -1   68.81    2.46
   5   1  -1  606.43    8.53
   5   1  -1  616.41    8.36
   5   0  -1   44.37    2.10
  -5   1   1   13.94    1.27
   5  -1  -1   13.60    1.37
  -5   2   1   74.03    2.28
   5  -2  -1   74.19    2.49
  -5   3   1    1.54    0.68
   5  -3  -1    1.16    0.74
  -5   4   1  164.79    3.51
   5  -4  -1  162.28    3.70
  -5   5   1  246.49    4.61
   5  -5  -1  239.31    4.77
  -5   6   1  219.11    4.51
   5  -6  -1  224.99    4.66
  -5   7   1    0.93    0.88
   5  -7  -1    2.39    1.05
  -5   8   1    0.94    0.92
   5  -8  -1    0.31    1.03
  -5   9   1   23.84    2.10
   5  -9  -1   26.64    2.20
  -5  10   1   32.26    2.55
  -5  11   1   20.17    2.33
   4   9  -1    2.17    1.61
   4   8  -1   49.06    3.06
   4   7  -1    1.63    1.25
   4   6  -1   31.34    2.27
  -4  -5   1    1.64    0.69
   4   5  -1    0.51    1.03
   4   4  -1   51.27    2.06
   4   4  -1   52.00    2.42
   4   3  -1   77.20    2.48
   4   3  -1   74.78    2.28
   4   2  -1   21.22    1.55
   4   2  -1   24.73    1.51
   4   1  -1  111.99    2.74
   4   1  -1  112.76    2.75
   4   0  -1   18.53    1.49
   4   0  -1   19.01    1.36
  -4   1   1  379.51    5.40
   4  -1  -1  381.05    5.67
  -4   2   1    8.18    0.97
   4  -2  -1    7.10    1.01
  -4   3   1  204.18    3.70
   4  -3  -1  204.54    3.85
  -4   4   1   15.68    1.23
   4  -4  -1   16.72    1.40
  -4   5   1   47.17    1.88
   4  -5  -1   46.78    1.95
  -4   6   1   14.43    1.39
   4  -6  -1   14.17    1.43
  -4   7   1  112.27    3.21
   4  -7  -1  110.79    3.21
  -4   8   1   70.60    2.75
   4  -8  -1   72.73    2.77
  -4   9   1   13.37    1.73
  -4  10   1    6.29    1.52
  -4  11   1    3.71    1.48
   3   9  -1    4.11    1.53
   3   8  -1   29.17    2.45
   3   7  -1   34.45    2.27
   3   6  -1  250.59    4.93
  -3  -5   1   23.21    1.17
   3   5  -1   22.94    1.75
  -3  -4   1    9.80    0.88
   3   4  -1   10.32    1.25
   3   3  -1  105.27    2.65
   3   3  -1  103.22    2.31
   3   2  -1   66.74    1.94
   3   2  -1   68.89    2.09
   3   1  -1  189.08    3.29
   3   1  -1  190.26    3.31
   3   0  -1  638.18    7.83
   3   0  -1  658.07    7.75
  -3   1   1  412.84    5.38
   3  -1  -1  418.63    5.59
  -3   2   1    1.88    0.54
   3  -2  -1    1.67    0.61
  -3   3   1    0.17    0.51
   3  -3  -1    0.63    0.64
  -3   4   1   46.03    1.67
   3  -4  -1   45.77    1.76
  -3   5   1  217.28    3.93
   3  -5  -1  217.52    4.03
  -3   6   1   71.42    2.33
   3  -6  -1   70.94    2.34
  -3   7   1  229.51    4.59
   3  -7  -1  235.67    4.50
  -3   8   1    1.10    0.94
   3  -8  -1    1.56    0.98
  -3   9   1   15.02    1.82
  -3  10   1    1.94    1.20
  -3  11   1    9.46    1.86
   2  10  -1    3.86    1.52
   2   9  -1   22.56    2.25
   2   8  -1   -0.10    0.97
   2   7  -1    1.17    0.96
  -2  -6   1   15.06    1.49
   2   6  -1   12.00    1.37
  -2  -5   1   54.26    1.41
   2   5  -1   54.98    2.07
  -2  -4   1  390.86    4.86
   2   4  -1  379.20    5.55
   2   3  -1   40.04    1.22
   2   3  -1   37.56    1.54
   2   2  -1   98.92    2.13
   2   2  -1   98.87    1.91
   2   1  -1  155.66    2.48
   2   1  -1  156.10    2.53
   2   0  -1   83.96    1.83
   2   0  -1   83.57    1.73
  -2   1   1   13.35    0.87
   2  -1  -1   12.10    0.89
  -2   2   1 1000.00   10.82
  -2   2   1  980.13   10.23
   2  -2  -1  982.45   10.91
  -2   3   1  291.46    4.37
  -2   3   1  306.02    4.11
   2  -3  -1  294.22    4.30
  -2   4   1  133.03    2.70
  -2   4   1  134.27    3.06
   2  -4  -1  132.76    2.78
  -2   5   1    7.89    0.94
  -2   5   1   10.01    1.21
   2  -5  -1    7.46    1.00
  -2   6   1   24.20    1.54
   2  -6  -1   29.99    1.64
  -2   7   1   41.19    2.10
   2  -7  -1   40.26    2.04
  -2   8   1   30.69    2.01
  -2   9   1  174.37    4.46
  -2  10   1   11.19    1.79
   1  10  -1    0.58    1.24
   1   9  -1    7.07    1.52
   1   8  -1   22.13    1.90
   1   7  -1   43.42    2.18
   1   6  -1   28.49    1.75
   1   5  -1  220.78    4.01
   1   4  -1   63.77    1.96
  -1  -3   1   32.27    0.79
   1   3  -1   31.76    1.33
   1   2  -1    0.71    0.41
   1   2  -1    0.87    0.28
   1   1  -1    0.27    0.29
   1   1  -1    0.75    0.27
  -1   0   1  186.08    2.25
   1   0  -1  191.00    2.42
   1   0  -1  189.49    2.36
   1   0  -1  188.66    2.33
  -1   1   1  132.24    2.03
  -1   1   1  135.48    1.82
   1  -1  -1  126.55    2.06
  -1   2   1  523.64    6.53
  -1   2   1  518.42    5.68
   1  -2  -1  510.93    6.11
  -1   3   1    0.78    0.62
  -1   3   1    0.63    0.48
   1  -3  -1    1.47    0.59
  -1   4   1  119.45    3.06
  -1   4   1  118.89    2.50
   1  -4  -1  114.97    2.49
  -1   5   1    0.15    0.59
  -1   5   1    0.99    0.83
   1  -5  -1    1.11    0.66
  -1   6   1   80.00    3.17
  -1   6   1   74.98    2.38
   1  -6  -1   81.17    2.37
  -1   7   1    5.52    1.11
   1  -7  -1    5.30    1.05
  -1   8   1   35.03    2.19
  -1   9   1   11.43    1.59
  -1  10   1    3.12    1.42
   0  11  -1    0.31    1.38
   0  10  -1   30.49    2.49
   0   9  -1  108.48    3.63
   0   8  -1   14.45    1.62
   0   7  -1    7.25    1.22
   0   6  -1  116.53    2.90
   0   5  -1   14.41    1.19
   0   4  -1    5.63    0.80
   0   3  -1  868.73    9.28
   0   2  -1  212.88    2.80
   0  -1   1  158.45    1.73
   0  -1   1  149.40    2.06
   0   1  -1  139.96    1.81
   0   1  -1  152.12    1.72
   0   0   1   74.42    1.35
   0   0  -1   78.97    1.23
   0   1   1   63.17    1.04
   0   1   1   64.47    1.57
   0  -1  -1   63.13    1.28
   0   2   1   15.23    0.80
   0   2   1   15.06    1.18
   0  -2  -1   13.49    0.79
   0   3   1  229.63    3.37
   0   3   1  231.75    4.40
   0  -3  -1  235.60    3.55
   0   4   1  492.04    6.22
   0   4   1  491.68    7.71
   0  -4  -1  491.31    6.39
   0   5   1   21.14    1.36
   0   5   1   20.22    1.87
   0  -5  -1   21.74    1.31
   0   6   1   23.73    1.70
   0   6   1   26.32    2.38
   0  -6  -1   24.07    1.50
   0   7   1   64.66    2.51
   0   8   1   16.12    1.72
   0   9   1    7.30    1.47
   0  10   1   98.38    3.67
  -1  11  -1    0.56    1.35
  -1  10  -1   28.85    2.41
  -1   9  -1    0.14    0.98
  -1   8  -1   36.34    2.12
  -1   7  -1    2.08    0.89
   1  -6   1   26.85    1.10
  -1   6  -1   27.03    1.59
   1  -5   1   28.23    1.02
  -1   5  -1   28.26    1.42
   1  -4   1    3.78    0.50
  -1   4  -1    3.85    0.70
   1  -3   1   68.95    1.33
  -1   3  -1   72.23    1.64
   1  -2   1   20.09    0.90
  -1   2  -1   21.07    0.87
   1  -1   1  355.58    4.27
   1  -1   1  368.28    4.32
  -1   1  -1  372.56    3.85
   1   0   1    8.11    0.73
   1   0   1    7.62    0.51
   1   0   1    7.85    0.64
   1   1   1  202.34    3.51
   1   1   1  207.99    2.62
  -1  -1  -1  210.58    3.04
   1   2   1   21.63    0.95
   1   2   1   20.95    1.48
  -1  -2  -1   18.20    0.96
   1   3   1    7.39    0.80
   1   3   1    4.61    1.05
  -1  -3  -1    7.63    0.80
   1   4   1    2.98    0.99
   1   4   1    1.02    0.60
  -1  -4  -1    0.79    0.52
   1   5   1   77.37    3.21
   1   5   1   80.77    2.38
  -1  -5  -1   80.09    2.25
   1   6   1   83.15    2.65
   1   6   1   84.98    3.71
  -1  -6  -1   87.99    2.49
   1   7   1   45.54    2.31
   1   8   1   16.87    1.77
   1   9   1   10.79    1.70
  -2  11  -1   15.18    2.00
  -2  10  -1    2.11    1.22
  -2   9  -1    1.89    1.01
  -2   8  -1  217.50    4.67
   2  -7   1   21.32    1.25
  -2   7  -1   20.48    1.57
   2  -6   1   37.21    1.42
  -2   6  -1   41.19    1.80
   2  -5   1  143.38    2.61
  -2   5  -1  142.97    2.98
   2  -4   1    1.47    0.54
  -2   4  -1    1.06    0.56
   2  -3   1    3.21    0.58
  -2   3  -1    4.25    0.61
   2  -2   1  178.67    2.87
   2  -2   1  174.92    2.53
  -2   2  -1  170.61    2.59
   2  -1   1  540.09    6.27
   2  -1   1  532.64    6.57
  -2   1  -1  525.99    5.83
   2   0   1   14.11    0.87
   2   0   1   15.10    1.06
   2   0   1   16.09    1.04
   2   1   1    4.37    0.74
   2   1   1    2.85    0.62
   2   1   1    2.02    0.78
   2   2   1  126.24    2.41
   2   2   1  124.94    3.27
  -2  -2  -1  120.96    2.51
   2   3   1   56.92    1.81
   2   3   1   57.73    2.52
  -2  -3  -1   57.62    1.80
   2   4   1    7.83    1.38
   2   4   1    9.47    1.06
  -2  -4  -1    8.27    0.95
   2   5   1  188.96    5.24
   2   5   1  192.37    3.88
  -2  -5  -1  191.25    3.76
   2   6   1    4.00    1.54
   2   6   1    5.38    1.16
  -2  -6  -1    5.44    0.96
   2   7   1   23.79    2.00
   2   8   1    2.35    1.22
   2   9   1   -0.26    1.26
  -3  11  -1   30.40    2.62
  -3  10  -1    0.46    1.09
  -3   9  -1    1.91    1.06
   3  -8   1    3.17    0.90
  -3   8  -1    4.47    1.11
   3  -7   1    3.61    0.85
  -3   7  -1    2.34    0.85
   3  -6   1  255.33    4.24
  -3   6  -1  260.74    4.59
   3  -5   1   53.32    1.78
  -3   5  -1   51.06    1.84
   3  -4   1  120.92    2.63
  -3   4  -1  124.98    2.65
   3  -3   1  203.04    3.57
   3  -3   1  199.84    2.99
  -3   3  -1  194.67    3.27
   3  -2   1    6.22    0.89
   3  -2   1    6.72    0.65
  -3   2  -1    7.08    0.79
   3  -1   1   90.99    2.00
   3  -1   1   89.97    2.40
  -3   1  -1   90.58    2.00
   3   0   1  316.44    4.83
   3   0   1  318.65    4.93
   3   0   1  317.85    4.45
   3   1   1  228.04    4.04
   3   1   1  232.34    4.35
   3   1   1  227.71    3.62
   3   2   1  138.13    3.06
   3   2   1  139.53    3.62
   3   2   1  132.57    2.75
   3   3   1    1.77    0.74
   3   3   1    0.68    0.90
  -3  -3  -1    1.54    0.62
   3   4   1   54.99    2.91
   3   4   1   56.65    2.22
  -3  -4  -1   50.83    2.02
   3   5   1   -0.58    1.23
   3   5   1    0.54    0.92
  -3  -5  -1    0.00    0.70
   3   6   1    0.88    1.49
   3   6   1    3.24    1.18
   3   7   1   91.50    3.33
   3   8   1   15.02    1.91
  -4  12  -1    0.16    1.36
  -4  11  -1    9.07    1.78
  -4  10  -1   23.90    2.24
  -4   9  -1    8.35    1.43
   4  -8   1    0.96    0.83
  -4   8  -1   -0.19    0.85
   4  -7   1  101.00    2.79
  -4   7  -1   99.44    3.03
   4  -6   1   20.65    1.46
  -4   6  -1   17.87    1.43
   4  -5   1   17.41    1.38
  -4   5  -1   17.36    1.33
   4  -4   1    1.07    0.50
   4  -4   1    1.13    0.70
  -4   4  -1    0.96    0.63
   4  -3   1    9.09    1.18
   4  -3   1    8.84    0.83
  -4   3  -1    8.91    0.99
   4  -2   1   75.77    1.74
   4  -2   1   73.79    2.39
  -4   2  -1   71.70    2.00
   4  -1   1   -0.19    0.51
   4  -1   1   -0.30    0.71
  -4   1  -1    0.22    0.50
   4   0   1  120.13    3.06
   4   0   1  116.12    2.81
   4   1   1    7.83    1.01
   4   1   1    7.28    1.16
   4   1   1    6.32    1.06
   4   2   1   75.39    2.35
   4   2   1   72.79    2.88
   4   2   1   79.06    2.62
   4   3   1    0.69    1.06
   4   3   1    0.93    0.91
  -4  -3  -1   -0.53    0.53
   4   4   1   26.84    2.59
   4   4   1   34.80    2.06
  -4  -4  -1   30.09    1.81
   4   5   1   -1.46    1.19
   4   5   1   -0.58    0.92
  -4  -5  -1    1.14    0.80
   4   6   1    4.76    1.41
   4   7   1    4.09    1.42
   4   8   1   -1.52    1.44
  -5  12  -1    6.07    1.84
  -5  11  -1   60.13    3.23
  -5  10  -1   44.66    2.77
   5  -9   1   30.65    2.10
  -5   9  -1   32.40    2.23
   5  -8   1   60.35    2.55
  -5   8  -1   57.80    2.68
   5  -7   1    3.71    1.08
  -5   7  -1    4.02    1.05
   5  -6   1   20.12    1.29
   5  -6   1   20.30    1.71
  -5   6  -1   23.79    1.70
   5  -5   1  305.85    4.45
   5  -5   1  296.23    5.43
  -5   5  -1  314.71    5.28
   5  -4   1  122.22    3.30
   5  -4   1  124.71    2.31
  -5   4  -1  120.62    3.03
   5  -3   1  181.98    4.07
  -5   3  -1  186.72    3.72
   5  -2   1   31.23    1.31
   5  -2   1   28.94    1.86
  -5   2  -1   31.36    1.56
   5  -1   1   46.20    1.78
   5  -1   1   47.50    2.21
  -5   1  -1   44.32    1.77
   5   0   1    6.36    1.01
   5   0   1    7.38    1.24
  -5   0  -1    8.16    1.03
   5   1   1   19.87    1.73
   5   1   1   19.78    1.66
   5   1   1   20.89    1.83
   5   2   1  186.68    4.02
   5   2   1  186.45    4.40
   5   2   1  189.55    4.76
   5   3   1   16.73    1.62
   5   3   1   14.29    1.88
  -5  -3  -1   16.91    1.69
   5   4   1   41.55    2.34
   5   4   1   37.69    2.98
  -5  -4  -1   39.19    2.13
   5   5   1   30.18    2.38
   5   5   1   33.08    3.15
  -5  -5  -1   30.90    2.11
   5   6   1    1.02    1.40
   5   7   1   -1.41    1.36
  -6  12  -1   16.11    2.32
  -6  11  -1   -1.68    1.09
  -6  10  -1   13.45    1.89
   6  -9   1    7.85    1.46
  -6   9  -1    4.51    1.31
   6  -8   1   28.76    1.63
   6  -8   1   30.98    2.29
  -6   8  -1   28.38    2.12
   6  -7   1   30.86    1.53
   6  -7   1   29.53    2.26
  -6   7  -1   30.90    2.05
   6  -6   1    0.07    0.58
   6  -6   1    1.14    0.98
  -6   6  -1    0.91    0.84
   6  -5   1    1.20    1.02
  -6   5  -1    3.80    0.99
   6  -4   1    3.62    1.11
  -6   4  -1    4.15    1.00
   6  -3   1  126.45    3.63
  -6   3  -1  127.27    3.23
   6  -2   1   16.32    1.75
   6  -2   1   17.71    1.15
  -6   2  -1   15.03    1.41
   6  -1   1  163.23    4.16
   6  -1   1  159.66    3.41
  -6   1  -1  158.09    3.55
   6   0   1    5.47    1.45
   6   0   1    3.77    1.02
  -6   0  -1    5.47    0.95
   6   1   1    0.24    0.94
   6   1   1    1.43    1.19
   6   2   1   13.99    1.70
   6   2   1   13.71    1.83
   6   2   1   12.54    1.73
   6   3   1    9.53    1.82
   6   3   1    9.62    1.57
   6   4   1   44.30    3.31
   6   4   1   40.34    2.60
  -6  -4  -1   39.16    2.34
   6   5   1   23.16    2.21
   6   6   1   23.27    2.38
  -7  12  -1   -2.00    1.45
  -7  11  -1    1.06    1.34
  -7  10  -1   86.06    3.73
   7  -9   1   31.93    2.61
  -7   9  -1   31.99    2.56
   7  -8   1   69.72    2.59
   7  -8   1   66.84    3.22
  -7   8  -1   69.21    3.11
   7  -7   1   11.10    1.08
   7  -7   1   16.08    2.02
  -7   7  -1    8.77    1.47
   7  -6   1   -1.38    1.03
  -7   6  -1   -0.24    0.94
   7  -5   1    2.67    1.23
  -7   5  -1    2.37    1.02
   7  -4   1   41.16    2.55
  -7   4  -1   42.39    2.17
   7  -3   1  122.07    3.93
  -7   3  -1  131.26    3.43
   7  -2   1   40.15    2.60
   7  -2   1   41.30    1.71
  -7   2  -1   41.31    2.02
   7  -1   1   19.85    1.62
   7  -1   1   21.07    2.11
  -7   1  -1   20.61    1.59
   7   0   1   28.95    2.58
   7   0   1   25.36    2.18
  -7   0  -1   24.00    1.69
   7   1   1   15.69    1.85
   7   1   1   14.75    2.01
  -7  -1  -1   17.19    1.70
   7   2   1    0.80    1.45
   7   2   1    1.30    1.23
   7   2   1    0.51    1.28
   7   3   1   71.74    3.70
   7   3   1   74.79    3.47
  -7  -3  -1   77.80    3.24
   7   4   1    1.77    1.52
  -7  -4  -1    3.11    1.19
   7   5   1   13.73    2.10
  -8  11  -1    0.73    1.52
   8 -10   1   -0.64    1.18
  -8  10  -1   -0.13    1.27
   8  -9   1   -0.29    1.27
  -8   9  -1    0.06    1.13
   8  -8   1   81.89    3.61
  -8   8  -1   85.24    3.58
   8  -7   1   53.90    3.03
  -8   7  -1   52.64    2.88
   8  -6   1  121.60    4.14
  -8   6  -1  125.40    3.98
   8  -5   1   -0.47    1.14
  -8   5  -1   -0.25    0.90
   8  -4   1   -0.57    1.09
  -8   4  -1    0.66    0.91
   8  -3   1   35.95    2.71
  -8   3  -1   41.14    2.24
   8  -2   1   36.83    2.70
  -8   2  -1   34.31    2.05
   8  -1   1   81.31    2.84
   8  -1   1   78.60    3.54
  -8   1  -1   85.29    2.94
   8   0   1  117.22    3.55
   8   0   1  118.23    4.34
  -8   0  -1  113.18    3.39
   8   1   1   18.40    2.42
   8   1   1   14.71    2.00
  -8  -1  -1   17.07    1.74
   8   2   1    5.28    1.68
   8   2   1    8.43    1.96
  -8  -2  -1    9.21    1.46
  -8  -3  -1    1.64    1.18
   8   4   1   -0.51    1.65
  -9  11  -1   11.81    2.30
   9 -10   1   -1.29    1.40
  -9  10  -1    0.25    1.46
   9  -9   1   27.91    2.80
  -9   9  -1   23.04    2.53
   9  -8   1   16.22    2.26
  -9   8  -1   17.21    2.25
   9  -7   1   25.47    2.70
  -9   7  -1   25.46    2.48
   9  -6   1   15.78    2.17
  -9   6  -1   17.00    1.96
   9  -5   1   -0.52    1.25
  -9   5  -1   -0.41    0.99
   9  -4   1   40.23    2.95
  -9   4  -1   39.00    2.41
   9  -3   1    3.97    1.55
  -9   3  -1    2.40    0.97
   9  -2   1   45.64    3.15
  -9   2  -1   38.90    2.28
   9  -1   1   -0.12    1.42
  -9   1  -1   -0.06    0.77
   9   0   1   30.14    2.90
  -9   0  -1   33.31    2.24
   9   1   1   -0.49    1.56
  -9  -1  -1    1.85    1.02
   9   2   1   30.62    3.18
  -9  -2  -1   28.16    2.32
  -9  -3  -1    5.21    1.52
  -9  -3  -1    4.14    1.55
  10 -10   1    1.23    1.65
 -10  10  -1    0.30    1.67
  10  -9   1   -1.09    1.56
 -10   9  -1    0.03    1.45
  10  -8   1   13.86    2.40
 -10   8  -1   12.49    2.04
  10  -7   1   45.79    3.27
 -10   7  -1   47.00    3.06
  10  -6   1   51.99    3.46
 -10   6  -1   51.15    3.05
  10  -5   1  108.18    4.49
 -10   5  -1  113.27    4.03
  10  -4   1    7.90    2.00
 -10   4  -1    9.82    1.60
  10  -3   1   -0.42    1.38
 -10   3  -1    0.51    0.89
  10  -2   1   -1.46    1.48
 -10   2  -1    1.73    0.98
  10  -1   1   -1.48    1.61
 -10   1  -1    3.55    1.20
  10   0   1   55.39    3.85
 -10   0  -1   47.67    2.73
  10   1   1   25.49    3.21
 -10  -1  -1   25.35    2.34
  10   2   1   35.95    3.67
 -10  -2  -1   41.69    3.22
  11  -9   1   22.82    2.97
 -11   9  -1   25.28    2.84
  11  -8   1    2.62    1.95
 -11   8  -1    0.96    1.48
  11  -7   1   10.04    2.35
 -11   7  -1    6.59    1.74
  11  -6   1    1.11    1.84
 -11   6  -1    1.22    1.34
  11  -5   1   35.18    3.34
 -11   5  -1   36.30    2.76
  11  -4   1   14.78    2.56
 -11   4  -1   10.20    1.68
  11  -3   1   80.61    4.38
 -11   3  -1   77.94    3.35
  11  -2   1    3.55    2.11
 -11   2  -1    8.13    1.49
  11  -1   1    2.89    2.14
 -11   1  -1    4.23    1.21
  11   0   1   -0.17    2.03
 -11   0  -1    2.20    1.09
  12  -8   1    4.89    2.27
 -12   8  -1    3.95    1.69
  12  -7   1   -0.10    2.03
 -12   7  -1    2.49    1.57
  12  -6   1    7.96    2.30
 -12   6  -1    5.79    1.65
  12  -5   1   28.32    3.41
 -12   5  -1   33.61    2.85
  12  -4   1   14.89    2.77
 -12   4  -1   21.40    2.33
  12  -3   1   16.49    2.81
 -12   3  -1   18.66    2.10
 -12   0   2    1.07    1.31
  12   0  -2   -1.31    1.90
 -12   1   2   19.06    2.26
  12  -1  -2   18.69    2.79
 -12   2   2    7.58    1.61
  12  -2  -2   11.53    2.45
 -12   3   2   27.99    2.65
  12  -3  -2   32.92    3.41
 -12   4   2    0.82    1.19
  12  -4  -2    3.57    1.94
 -12   5   2    3.98    1.45
  12  -5  -2   -3.66    1.58
 -12   6   2    3.83    1.58
  12  -6  -2    1.08    1.79
 -12   7   2    3.03    1.55
  12  -7  -2   -0.85    1.81
 -11  -2   2    3.16    1.41
  11   2  -2    0.63    1.92
 -11  -1   2    1.42    1.25
  11   1  -2    3.80    1.98
 -11   0   2    2.79    1.32
  11   0  -2    1.68    1.89
 -11   1   2   57.11    3.08
  11  -1  -2   62.72    3.87
 -11   2   2   17.49    2.03
  11  -2  -2   15.34    2.35
 -11   3   2   46.01    2.70
  11  -3  -2   38.18    3.24
 -11   4   2    9.77    1.70
  11  -4  -2    4.36    1.80
 -11   5   2    4.72    1.45
  11  -5  -2    1.88    1.70
 -11   6   2   -0.06    1.22
  11  -6  -2    1.72    1.71
 -11   7   2   18.07    2.35
  11  -7  -2   25.74    3.07
 -11   8   2   11.80    2.19
  11  -8  -2    9.78    2.31
 -11   9   2   16.05    2.41
  11  -9  -2   19.12    2.80
 -10  -3   2   18.55    2.40
  10   3  -2   11.31    2.29
 -10  -2   2   90.83    3.83
  10   2  -2   86.79    4.16
 -10  -1   2    2.11    1.17
  10   1  -2    4.10    1.76
 -10   0   2    2.14    1.24
  10   0  -2    1.97    1.67
 -10   1   2    9.31    1.58
  10  -1  -2   11.12    2.07
 -10   2   2    2.12    1.05
  10  -2  -2    1.45    1.43
 -10   3   2   76.27    3.23
  10  -3  -2   74.79    3.71
 -10   4   2   76.59    3.28
  10  -4  -2   78.55    3.75
 -10   5   2   64.89    3.23
  10  -5  -2   60.07    3.45
 -10   6   2    6.36    1.49
  10  -6  -2    6.58    1.79
 -10   7   2   -0.21    1.26
  10  -7  -2    1.05    1.53
 -10   8   2   11.27    1.96
  10  -8  -2   17.67    2.59
 -10   9   2   29.39    2.88
  10  -9  -2   28.05    3.09
   9   5  -2   10.46    2.41
   9   4  -2   29.07    2.97
   9   3  -2    7.84    1.86
  -9  -2   2   49.37    2.92
   9   2  -2   44.46    3.05
  -9  -1   2   -1.20    0.77
   9   1  -2    0.92    1.45
  -9   0   2   47.39    2.55
   9   0  -2   53.43    3.21
  -9   1   2    1.58    0.92
   9  -1  -2   -0.38    1.23
  -9   2   2   71.40    2.91
   9  -2  -2   77.13    3.51
  -9   3   2    0.08    0.82
   9  -3  -2    0.02    1.22
  -9   4   2   28.58    2.12
   9  -4  -2   28.60    2.47
  -9   5   2   12.50    1.73
   9  -5  -2   12.85    1.88
  -9   6   2   24.48    2.31
   9  -6  -2   29.93    2.63
  -9   7   2   27.35    2.55
   9  -7  -2   33.14    2.87
  -9   8   2    3.00    1.48
   9  -8  -2    2.65    1.54
  -9   9   2    9.83    1.86
   9  -9  -2    9.28    2.02
  -9  10   2   -0.33    1.47
   9 -10  -2    0.58    1.66
   8   6  -2    0.48    1.75
   8   5  -2    1.20    1.66
   8   4  -2   18.59    2.44
   8   4  -2   13.65    2.14
   8   3  -2   20.78    2.38
   8   3  -2   27.30    2.46
   8   2  -2   71.27    3.40
   8   2  -2   68.89    3.32
  -8  -1   2  202.52    4.91
   8   1  -2  198.71    5.16
  -8   0   2   87.20    3.10
   8   0  -2   91.44    3.56
  -8   1   2    6.23    1.19
   8  -1  -2    6.88    1.54
  -8   2   2    1.70    0.84
   8  -2  -2    0.18    1.11
  -8   3   2   16.01    1.70
   8  -3  -2   16.82    1.96
  -8   4   2  136.60    3.94
   8  -4  -2  141.65    4.19
  -8   5   2   73.98    3.06
   8  -5  -2   74.75    3.24
  -8   6   2  191.17    4.87
   8  -6  -2  182.46    4.99
  -8   7   2   -0.04    0.99
   8  -7  -2    1.29    1.29
  -8   8   2    1.11    1.18
   8  -8  -2    3.99    1.48
  -8   9   2    5.37    1.58
   8  -9  -2    3.14    1.63
  -8  10   2   10.39    1.95
   8 -10  -2   13.51    2.18
   7   7  -2   10.10    2.18
   7   6  -2    7.57    1.85
   7   5  -2   74.50    3.50
   7   4  -2    5.42    1.41
   7   4  -2    2.89    1.44
   7   3  -2   49.74    2.74
   7   3  -2   50.24    2.88
   7   2  -2    8.16    1.61
   7   2  -2    9.94    1.62
   7   1  -2   44.32    2.54
   7   1  -2   44.83    2.65
  -7   0   2   15.19    1.53
   7   0  -2   17.67    1.89
  -7   1   2  220.64    4.62
   7  -1  -2  216.65    4.89
  -7   2   2   84.42    2.75
   7  -2  -2   83.59    3.00
  -7   3   2   21.00    1.65
   7  -3  -2   23.23    1.92
  -7   4   2    0.47    0.78
   7  -4  -2    1.38    0.96
  -7   5   2    7.45    1.29
   7  -5  -2    7.00    1.48
  -7   6   2   78.41    3.04
   7  -6  -2   79.08    3.30
  -7   7   2   47.27    2.59
   7  -7  -2   50.67    2.86
  -7   8   2  169.39    4.63
   7  -8  -2  168.49    4.88
  -7   9   2    2.91    1.24
   7  -9  -2   -0.80    1.24
  -7  10   2    4.56    1.52
   6   7  -2   24.71    2.65
   6   6  -2   99.92    3.92
   6   5  -2   22.44    2.26
   6   4  -2    1.19    1.10
   6   4  -2    1.76    1.20
   6   3  -2    0.03    1.08
   6   3  -2   -0.12    1.06
   6   2  -2    1.08    1.00
   6   2  -2    1.02    1.03
   6   1  -2  154.09    3.80
   6   1  -2  152.86    3.93
  -6   0   2   72.17    2.46
   6   0  -2   73.62    2.64
  -6   1   2  285.00    5.10
   6  -1  -2  290.02    5.30
  -6   2   2    3.24    0.81
   6  -2  -2    2.91    0.92
  -6   3   2   67.11    2.38
   6  -3  -2   66.95    2.56
  -6   4   2    1.06    0.76
   6  -4  -2    2.65    0.99
  -6   5   2   84.57    2.83
   6  -5  -2   80.42    2.92
  -6   6   2   22.63    1.85
   6  -6  -2   22.55    2.05
  -6   7   2   58.88    2.62
   6  -7  -2   52.71    2.67
  -6   8   2   20.46    1.97
   6  -8  -2   25.64    2.27
  -6   9   2    2.98    1.24
   6  -9  -2    4.40    1.52
  -6  10   2   24.43    2.41
   5   8  -2    6.05    1.71
   5   7  -2   26.40    2.52
   5   6  -2   26.78    2.38
   5   5  -2   17.72    1.85
   5   4  -2  268.52    5.43
   5   4  -2  265.77    4.80
   5   3  -2   45.55    2.29
   5   3  -2   45.44    2.16
   5   2  -2   23.07    1.60
   5   2  -2   25.39    1.75
   5   1  -2   40.60    1.95
   5   1  -2   46.50    2.16
  -5   0   2   13.36    1.25
   5   0  -2   10.40    1.17
  -5   1   2  128.22    3.00
   5  -1  -2  123.31    3.08
  -5   2   2  325.07    5.24
   5  -2  -2  320.37    5.42
  -5   3   2  454.97    6.55
   5  -3  -2  431.77    6.77
  -5   4   2    6.87    1.08
   5  -4  -2    7.28    1.17
  -5   5   2   11.55    1.27
   5  -5  -2   11.14    1.41
  -5   6   2   91.02    2.86
   5  -6  -2   88.90    3.02
  -5   7   2   26.32    1.90
   5  -7  -2   30.34    2.16
  -5   8   2   37.77    2.27
   5  -8  -2   34.22    2.36
  -5   9   2  164.46    4.45
   5  -9  -2  160.49    4.64
  -5  10   2   29.53    2.46
   4   9  -2    2.91    1.52
   4   8  -2    0.78    1.34
   4   7  -2    5.46    1.49
   4   6  -2   41.64    2.44
  -4  -5   2    1.07    0.58
   4   5  -2   -0.42    0.96
   4   4  -2  100.20    2.49
   4   4  -2   99.92    3.00
   4   3  -2    1.42    0.74
   4   3  -2    0.39    0.68
   4   2  -2  177.59    3.45
   4   2  -2  186.88    3.70
   4   1  -2    0.48    0.74
   4   1  -2    1.96    0.73
   4   0  -2  209.29    3.81
  -4   1   2   14.62    1.23
   4  -1  -2   11.44    1.19
  -4   2   2   90.85    2.31
   4  -2  -2   89.44    2.47
  -4   3   2   18.60    0.95
  -4   3   2   20.29    1.29
   4  -3  -2   18.11    1.49
  -4   4   2   82.33    2.09
  -4   4   2   85.23    2.34
   4  -4  -2   82.45    2.55
  -4   5   2   89.76    2.55
   4  -5  -2   86.95    2.75
  -4   6   2   35.73    1.90
   4  -6  -2   36.19    2.05
  -4   7   2   42.14    2.15
   4  -7  -2   40.98    2.25
  -4   8   2    9.89    1.45
   4  -8  -2    7.27    1.45
  -4   9   2   22.08    2.01
  -4  10   2    1.38    1.22
   3  10  -2    4.07    1.70
   3   8  -2    5.02    1.41
   3   7  -2    1.42    1.04
   3   6  -2   67.23    2.68
  -3  -5   2    1.38    0.43
   3   5  -2   -0.51    0.71
   3   4  -2   34.94    1.78
   3   4  -2   35.84    1.32
   3   3  -2  264.24    4.47
   3   3  -2  262.50    3.96
   3   2  -2  422.26    5.80
   3   2  -2  422.55    5.58
   3   1  -2    3.43    0.68
   3   1  -2    1.88    0.73
   3   0  -2    0.18    0.66
   3   0  -2    1.41    0.57
  -3   1   2  189.64    3.18
   3  -1  -2  190.72    3.33
  -3   2   2   49.02    1.28
  -3   2   2   49.10    1.54
   3  -2  -2   50.65    1.83
  -3   3   2   49.17    1.60
  -3   3   2   50.04    1.60
   3  -3  -2   45.46    1.86
  -3   4   2  555.50    7.10
  -3   4   2  566.12    7.70
   3  -4  -2  564.25    7.75
  -3   5   2   30.53    1.57
  -3   5   2   33.60    1.85
   3  -5  -2   30.47    1.77
  -3   6   2   14.78    1.35
  -3   6   2   15.03    1.60
   3  -6  -2   16.31    1.53
  -3   7   2   14.04    1.49
   3  -7  -2   16.06    1.68
  -3   8   2    4.12    1.11
   3  -8  -2    2.40    1.23
  -3   9   2   25.45    2.16
  -3  10   2   22.34    2.23
   2  10  -2    1.90    1.45
   2   9  -2    3.76    1.28
   2   8  -2    1.33    1.07
   2   7  -2  141.12    3.70
   2   6  -2    2.29    0.90
   2   5  -2   90.29    2.57
   2   4  -2   89.97    2.41
   2   3  -2   19.25    1.30
   2   3  -2   18.89    0.91
   2   2  -2   15.41    1.14
   2   2  -2   18.97    0.93
   2   1  -2  418.06    5.16
   2   1  -2  418.89    5.10
  -2   0   2  239.78    3.16
   2   0  -2  244.79    3.46
   2   0  -2  250.29    3.53
  -2   1   2  107.37    1.94
  -2   1   2  111.18    2.00
   2  -1  -2  109.61    2.23
  -2   2   2    0.98    0.54
  -2   2   2    2.16    0.48
   2  -2  -2    2.31    0.69
  -2   3   2  118.95    2.31
  -2   3   2  118.01    2.76
   2  -3  -2  121.25    2.68
  -2   4   2   20.96    1.14
  -2   4   2   19.15    1.51
   2  -4  -2   18.29    1.37
  -2   5   2   18.22    1.27
  -2   5   2   19.03    1.66
   2  -5  -2   16.27    1.46
  -2   6   2  315.10    6.32
  -2   6   2  315.95    5.18
   2  -6  -2  329.24    5.62
  -2   7   2   23.39    2.29
  -2   7   2   20.53    1.72
   2  -7  -2   20.32    1.79
  -2   8   2   25.99    2.00
  -2   9   2   26.39    2.19
  -2  10   2    0.02    1.18
   1  11  -2   20.53    2.33
   1  10  -2    5.27    1.45
   1   9  -2    3.57    1.27
   1   8  -2   75.91    2.84
   1   7  -2   33.79    1.99
   1   6  -2   11.27    1.32
   1   5  -2    0.77    0.66
   1   4  -2   55.73    1.86
   1   3  -2   96.81    2.13
   1   2  -2    2.53    0.35
   1   2  -2    2.84    0.52
  -1  -1   2  498.63    5.99
   1   1  -2  510.32    5.67
   1   1  -2  510.08    5.49
  -1   0   2   21.61    0.74
  -1   0   2   23.56    0.99
   1   0  -2   23.22    0.99
  -1   1   2  128.78    1.83
  -1   1   2  128.59    2.46
   1  -1  -2  130.89    2.37
  -1   2   2    9.49    0.69
  -1   2   2   10.59    1.05
   1  -2  -2    9.45    0.92
  -1   3   2   61.86    1.54
  -1   3   2   60.33    2.23
   1  -3  -2   58.73    1.88
  -1   4   2    3.91    1.01
  -1   4   2    3.92    0.69
   1  -4  -2    4.18    0.80
  -1   5   2   28.13    2.03
  -1   5   2   28.23    1.51
   1  -5  -2   24.50    1.53
  -1   6   2   17.97    1.53
  -1   6   2   18.81    2.06
   1  -6  -2   21.01    1.69
  -1   7   2    2.66    1.38
  -1   7   2    4.32    1.06
   1  -7  -2    2.32    1.04
  -1   8   2   32.17    2.09
  -1   9   2    2.00    1.23
  -1  10   2   22.40    2.19
   0  11  -2   12.61    1.96
   0  10  -2   16.24    1.97
   0   9  -2   51.54    2.70
   0   8  -2    2.16    1.00
   0   7  -2    6.17    1.12
   0   6  -2  297.90    4.95
   0   5  -2  124.98    2.82
   0   4  -2  109.60    2.37
   0   3  -2  158.92    2.64
   0  -2   2  275.20    4.04
   0   2  -2  283.26    3.44
   0   2  -2  283.12    3.23
   0  -1   2   11.65    0.76
   0   1  -2    9.87    0.56
   0   1  -2   10.76    0.63
   0   0   2  170.26    2.90
   0   0  -2  172.50    2.64
   0   1   2  869.17   10.57
   0   1   2  890.90    8.54
   0  -1  -2  879.05    9.90
   0   2   2    5.06    0.96
   0   2   2    5.16    0.56
   0  -2  -2    5.15    0.72
   0   3   2   66.75    1.69
   0   3   2   60.24    2.48
   0  -3  -2   64.34    1.95
   0   4   2  205.34    3.45
   0   4   2  205.21    4.82
   0  -4  -2  204.70    3.85
   0   5   2   -0.05    0.66
   0   5   2    1.29    1.05
   0  -5  -2    1.14    0.76
   0   6   2    1.33    0.82
   0   6   2    1.58    1.20
   0  -6  -2    1.83    0.94
   0   7   2  129.01    3.44
   0   7   2  125.31    4.71
   0  -7  -2  128.42    3.93
   0   8   2   38.67    2.30
   0   9   2   13.83    1.81
  -1  11  -2    8.52    1.78
  -1  10  -2    1.92    1.18
  -1   9  -2    2.58    1.06
  -1   8  -2   27.34    1.96
  -1   7  -2    0.74    0.77
  -1   6  -2   40.80    1.84
  -1   5  -2   18.07    1.26
   1  -4   2  192.40    2.62
  -1   4  -2  197.77    3.25
   1  -3   2    6.97    0.59
   1  -3   2    4.83    0.64
  -1   3  -2    5.82    0.64
   1  -2   2  419.69    5.01
   1  -2   2  417.95    5.36
  -1   2  -2  415.60    4.73
   1  -1   2  129.72    2.42
   1  -1   2  135.47    2.32
  -1   1  -2  137.92    1.66
   1   0   2    3.62    0.71
  -1   0  -2    4.85    0.63
   1   1   2   12.23    1.18
   1   1   2   11.32    0.64
  -1  -1  -2   10.42    0.90
   1   2   2   43.33    2.08
   1   2   2   43.60    1.27
  -1  -2  -2   45.94    1.60
   1   3   2   86.17    1.96
   1   3   2   89.39    3.07
  -1  -3  -2   84.64    2.32
   1   4   2   38.78    2.41
   1   4   2   37.95    1.58
  -1  -4  -2   38.65    1.70
   1   5   2   45.59    2.78
   1   5   2   46.84    1.94
  -1  -5  -2   45.58    2.00
   1   6   2   26.69    1.84
   1   6   2   24.15    2.53
  -1  -6  -2   32.86    1.94
   1   7   2    4.96    1.82
   1   7   2    6.81    1.30
   1   8   2    1.63    1.14
   1   9   2   39.97    2.94
  -2  12  -2    0.40    1.44
  -2  11  -2  110.26    4.00
  -2  10  -2   30.52    2.33
  -2   9  -2   37.37    2.33
  -2   8  -2   45.31    2.27
  -2   7  -2   15.06    1.44
   2  -6   2    0.68    0.49
  -2   6  -2    1.14    0.69
   2  -5   2  129.68    2.43
  -2   5  -2  130.99    2.79
   2  -4   2  432.55    5.50
  -2   4  -2  422.17    5.48
   2  -3   2   34.51    1.38
   2  -3   2   33.12    1.32
  -2   3  -2   33.11    1.22
   2  -2   2   19.11    1.01
   2  -2   2   19.74    1.14
  -2   2  -2   17.15    0.84
   2  -1   2  230.31    3.74
   2  -1   2  228.01    3.69
  -2   1  -2  231.21    2.94
   2   0   2   11.41    1.12
   2   0   2   12.97    1.11
   2   0   2   11.90    0.81
   2   1   2    9.15    0.78
   2   1   2    8.83    1.19
  -2  -1  -2    9.62    0.98
   2   2   2  377.20    4.85
   2   2   2  379.94    6.59
  -2  -2  -2  365.78    5.60
   2   3   2   22.12    1.95
   2   3   2   24.22    1.25
  -2  -3  -2   22.17    1.40
   2   4   2   32.71    2.52
   2   4   2   33.21    1.72
  -2  -4  -2   34.88    1.75
   2   5   2    5.29    1.14
   2   5   2    4.43    1.46
  -2  -5  -2    5.15    1.03
   2   6   2    2.34    1.01
   2   6   2   -0.98    1.32
  -2  -6  -2    2.33    0.94
   2   7   2    5.05    2.02
   2   7   2    6.16    1.34
   2   8   2    2.71    1.29
  -3  12  -2    0.01    1.35
  -3  11  -2    0.38    1.24
  -3  10  -2    0.13    1.02
  -3   9  -2  118.46    3.61
   3  -8   2   20.65    1.36
  -3   8  -2   24.17    1.86
   3  -7   2  153.28    3.13
  -3   7  -2  155.63    3.62
   3  -6   2   27.03    1.41
  -3   6  -2   25.03    1.54
   3  -5   2    0.61    0.53
   3  -5   2   -0.12    0.54
  -3   5  -2    1.27    0.65
   3  -4   2   61.91    1.80
   3  -4   2   60.68    1.98
  -3   4  -2   62.17    1.87
   3  -3   2  182.30    3.09
   3  -3   2  184.61    3.58
  -3   3  -2  181.85    3.08
   3  -2   2  192.70    3.72
   3  -2   2  201.09    3.38
  -3   2  -2  194.58    3.07
   3  -1   2  243.39    4.14
   3  -1   2  234.77    4.25
  -3   1  -2  239.21    3.47
   3   0   2   22.85    1.59
   3   0   2   27.32    1.64
   3   1   2   84.98    2.10
   3   1   2   88.74    2.61
   3   1   2   83.16    2.88
   3   2   2    2.26    1.00
   3   2   2    3.79    0.81
  -3  -2  -2    6.29    0.96
   3   3   2    3.96    1.36
   3   3   2    4.93    1.03
  -3  -3  -2    3.49    0.86
   3   4   2  218.87    5.82
   3   4   2  212.31    4.16
  -3  -4  -2  211.49    4.46
   3   5   2   30.18    1.96
   3   5   2   21.81    2.44
  -3  -5  -2   26.38    1.81
   3   6   2   58.67    2.64
   3   6   2   62.64    4.00
   3   7   2   20.11    2.00
  -4  12  -2    6.87    1.73
  -4  11  -2    0.12    1.20
  -4  10  -2   36.44    2.48
  -4   9  -2   57.03    2.70
   4  -8   2   29.66    1.73
  -4   8  -2   32.05    2.06
   4  -7   2   26.23    1.64
  -4   7  -2   23.30    1.72
   4  -6   2   15.39    1.26
   4  -6   2   15.63    1.35
  -4   6  -2   13.71    1.34
   4  -5   2   47.47    1.95
   4  -5   2   45.83    1.67
  -4   5  -2   46.03    1.87
   4  -4   2   -0.31    0.65
   4  -4   2   -0.94    0.49
  -4   4  -2    0.87    0.62
   4  -3   2  211.34    4.27
   4  -3   2  213.62    3.57
  -4   3  -2  215.05    3.70
   4  -2   2    3.66    0.97
   4  -2   2    3.63    0.72
  -4   2  -2    1.87    0.61
   4  -1   2  108.64    2.78
   4  -1   2  109.53    3.09
  -4   1  -2  107.19    2.39
   4   0   2    0.43    0.83
   4   0   2   -0.04    0.68
  -4   0  -2    1.03    0.49
   4   1   2   60.65    2.58
   4   1   2   56.37    2.36
   4   1   2   53.26    1.96
   4   2   2   11.32    1.27
   4   2   2    8.82    1.59
  -4  -2  -2    9.01    1.25
   4   3   2   17.74    1.59
   4   3   2   13.40    1.99
  -4  -3  -2   17.02    1.64
   4   4   2    8.07    1.38
   4   4   2    5.19    1.60
  -4  -4  -2    6.85    1.23
   4   5   2    0.15    1.03
   4   5   2   -1.31    1.23
  -4  -5  -2    0.62    0.89
   4   6   2   20.61    2.84
   4   6   2   21.53    2.01
  -5  12  -2   37.05    3.15
  -5  11  -2   12.07    2.01
  -5  10  -2    4.28    1.35
   5  -9   2   11.50    1.50
  -5   9  -2   14.15    1.72
   5  -8   2  115.46    3.30
   5  -8   2  120.33    3.17
  -5   8  -2  116.41    3.57
   5  -7   2  107.18    2.82
   5  -7   2  112.33    3.21
  -5   7  -2  115.18    3.30
   5  -6   2  203.77    3.78
   5  -6   2  204.13    4.37
  -5   6  -2  203.24    4.28
   5  -5   2    6.35    1.17
   5  -5   2    4.32    0.80
  -5   5  -2    3.71    0.91
   5  -4   2   42.62    2.19
   5  -4   2   40.86    1.53
  -5   4  -2   41.95    1.84
   5  -3   2    3.30    0.73
   5  -3   2    2.54    1.02
  -5   3  -2    4.71    0.88
   5  -2   2    5.24    0.89
   5  -2   2    3.59    1.03
  -5   2  -2    4.52    0.83
   5  -1   2  353.96    6.39
   5  -1   2  366.66    5.92
  -5   1  -2  363.35    5.41
   5   0   2   92.78    2.98
   5   0   2   92.05    3.15
  -5   0  -2   89.05    2.34
   5   1   2  134.12    4.00
   5   1   2  135.67    3.89
   5   1   2  137.30    3.42
   5   2   2   44.15    2.29
   5   2   2   47.61    2.90
   5   3   2    0.31    1.24
   5   3   2    0.04    0.98
  -5  -3  -2    0.00    0.82
   5   4   2    3.72    1.65
  -5  -4  -2    3.26    1.05
   5   5   2   63.95    4.05
   5   5   2   68.12    3.00
  -5  -5  -2   60.60    3.21
   6 -12   2   12.55    1.78
  -6  12  -2    9.84    2.00
   6 -11   2   10.39    1.54
  -6  11  -2   10.54    1.96
   6 -10   2   31.76    2.28
  -6  10  -2   32.02    2.54
   6  -9   2    1.34    0.81
   6  -9   2   -0.37    0.98
  -6   9  -2    0.33    1.00
   6  -8   2   34.35    1.84
   6  -8   2   33.15    2.26
  -6   8  -2   29.98    2.19
   6  -7   2    4.28    0.94
   6  -7   2    2.98    1.15
  -6   7  -2    5.97    1.24
   6  -6   2  110.03    3.52
   6  -6   2  107.16    2.65
  -6   6  -2  106.95    3.20
   6  -5   2   19.74    1.85
   6  -5   2   15.30    1.21
  -6   5  -2   17.78    1.61
   6  -4   2  211.51    4.88
   6  -4   2  216.14    3.70
  -6   4  -2  206.05    4.29
   6  -3   2    5.95    0.90
   6  -3   2    3.61    1.18
  -6   3  -2    5.72    1.00
   6  -2   2   15.45    1.74
   6  -2   2   17.94    1.44
  -6   2  -2   14.89    1.38
   6  -1   2    1.08    0.90
   6  -1   2    0.75    1.12
  -6   1  -2    1.80    0.71
   6   0   2    5.65    1.47
   6   0   2    5.38    1.26
  -6   0  -2    3.79    0.85
   6   1   2   61.34    3.10
   6   1   2   58.77    2.97
  -6  -1  -2   58.97    2.33
   6   2   2   62.34    2.81
   6   2   2   70.30    3.44
   6   3   2   78.96    3.79
   6   3   2   75.44    3.10
  -6  -3  -2   72.04    3.14
   6   4   2   -1.30    1.52
   6   4   2    1.01    1.32
  -6  -4  -2    1.55    1.12
   6   5   2    0.65    2.02
  -7  12  -2   25.31    2.80
  -7  11  -2   55.74    3.36
  -7  10  -2   -0.91    1.11
   7  -9   2   -0.22    0.83
   7  -9   2    2.37    1.32
  -7   9  -2    0.75    1.15
   7  -8   2    1.11    0.85
   7  -8   2   -1.03    1.06
  -7   8  -2    0.73    1.07
   7  -7   2   19.33    1.51
   7  -7   2   25.43    2.34
  -7   7  -2   22.72    2.05
   7  -6   2  171.60    4.61
   7  -6   2  177.28    3.33
  -7   6  -2  165.29    4.32
   7  -5   2   55.70    2.86
  -7   5  -2   53.30    2.49
   7  -4   2  102.05    2.51
   7  -4   2  100.30    3.71
  -7   4  -2  101.87    3.18
   7  -3   2   14.47    1.88
   7  -3   2   18.82    1.43
  -7   3  -2   14.33    1.53
   7  -2   2   13.33    1.82
   7  -2   2   16.89    1.54
  -7   2  -2   14.92    1.50
   7  -1   2    1.91    1.13
   7  -1   2    1.93    1.46
  -7   1  -2    4.27    0.97
   7   0   2  113.97    4.11
   7   0   2  119.76    3.77
  -7   0  -2  114.04    3.17
   7   1   2   24.66    2.40
   7   1   2   25.07    2.53
  -7  -1  -2   27.59    1.75
   7   2   2   47.21    3.14
  -7  -2  -2   44.13    2.27
   7   3   2    4.69    1.76
  -7  -3  -2    4.67    1.42
   7   4   2    3.57    1.93
  -8  11  -2   38.33    3.19
   8 -10   2   22.93    2.42
  -8  10  -2   23.36    2.49
   8  -9   2  108.43    4.07
  -8   9  -2  115.60    4.21
   8  -8   2   -0.55    1.27
  -8   8  -2   -0.33    1.11
   8  -7   2    5.25    1.52
  -8   7  -2    2.44    1.20
   8  -6   2   20.66    2.29
  -8   6  -2   24.55    2.16
   8  -5   2   33.22    2.76
  -8   5  -2   31.71    2.21
   8  -4   2   74.04    3.53
  -8   4  -2   77.12    2.95
   8  -3   2  121.97    4.27
   8  -3   2  126.53    3.12
  -8   3  -2  122.68    3.53
   8  -2   2   70.53    2.69
   8  -2   2   70.68    3.49
  -8   2  -2   73.39    2.70
   8  -1   2    0.19    1.09
   8  -1   2    1.13    1.48
  -8   1  -2    0.51    0.72
   8   0   2   -2.06    1.05
   8   0   2    2.16    1.53
  -8   0  -2    1.60    0.86
   8   1   2    5.35    1.87
   8   1   2    0.29    1.38
  -8  -1  -2    1.88    0.88
   8   2   2   56.79    3.53
  -8  -2  -2   57.41    2.63
  -8  -2  -2   53.01    3.10
   8   3   2   17.59    2.71
  -8  -3  -2   22.99    2.40
  -9  11  -2   13.48    2.29
   9 -10   2   10.45    2.09
  -9  10  -2   10.64    2.15
   9  -9   2   20.07    2.55
  -9   9  -2   16.22    2.20
   9  -8   2    1.74    1.42
  -9   8  -2   -1.17    1.19
   9  -7   2   31.43    2.96
  -9   7  -2   32.07    2.63
   9  -6   2   -0.89    1.41
  -9   6  -2   -0.68    1.04
   9  -5   2   50.62    3.23
  -9   5  -2   47.60    2.74
   9  -4   2    0.33    1.29
  -9   4  -2    0.30    0.88
   9  -3   2   51.52    3.22
  -9   3  -2   50.82    2.54
   9  -2   2    2.09    1.64
  -9   2  -2    3.11    0.97
   9  -1   2   38.25    3.23
  -9   1  -2   38.33    2.19
   9   0   2   15.23    2.44
  -9   0  -2   14.36    1.61
   9   1   2    6.96    2.20
   9   1   2    6.94    2.34
  -9  -1  -2    9.04    1.43
   9   2   2    7.42    2.09
  -9  -2  -2   10.77    1.91
  10 -10   2   14.92    2.46
 -10  10  -2   13.11    2.27
  10  -9   2   27.65    3.04
 -10   9  -2   27.99    2.81
  10  -8   2   76.83    4.16
 -10   8  -2   79.16    3.79
  10  -7   2   10.97    2.19
 -10   7  -2   12.80    2.02
  10  -6   2    0.84    1.52
 -10   6  -2    1.35    1.22
  10  -5   2    2.65    1.68
 -10   5  -2    1.02    1.17
  10  -4   2   -0.62    1.51
 -10   4  -2    1.54    1.11
  10  -3   2   54.03    3.68
 -10   3  -2   55.07    2.70
  10  -2   2   30.87    3.23
 -10   2  -2   28.92    2.16
  10  -1   2   84.04    4.49
 -10   1  -2   80.70    3.13
  10   0   2    0.79    1.94
 -10   0  -2    1.66    1.06
  10   1   2    2.93    2.28
  11  -9   2    5.61    2.15
 -11   9  -2    3.55    1.76
  11  -8   2    9.17    2.24
 -11   8  -2   15.00    2.29
  11  -7   2    6.36    2.09
 -11   7  -2    4.59    1.55
  11  -6   2   51.43    3.92
 -11   6  -2   62.69    3.38
  11  -5   2   12.53    2.54
 -11   5  -2    9.27    1.76
  11  -4   2   11.46    2.56
 -11   4  -2    6.58    1.48
  11  -3   2    0.79    1.88
 -11   3  -2    0.13    1.04
  11  -2   2    0.11    1.91
 -11   2  -2    0.70    0.99
  11  -1   2    5.63    2.31
 -11   1  -2    6.96    1.37
  12  -7   2    6.63    2.34
 -12   7  -2    7.31    1.81
  12  -6   2   24.59    3.23
 -12   6  -2   17.94    2.20
  12  -5   2   -0.08    2.02
 -12   5  -2    1.12    1.33
  12  -4   2    0.80    2.21
 -12   4  -2    4.85    1.49
 -12   0   3   30.35    2.95
  12   0  -3   28.57    3.33
 -12   1   3   14.01    2.06
  12  -1  -3   16.03    2.72
 -12   2   3    2.73    1.28
  12  -2  -3    2.78    1.85
 -12   3   3    4.65    1.39
  12  -3  -3    0.31    1.75
 -12   4   3    1.71    1.18
  12  -4  -3   -0.61    1.64
 -12   5   3   31.02    2.88
  12  -5  -3   32.71    3.32
 -12   6   3   14.37    2.11
  12  -6  -3   15.42    2.68
 -12   7   3   61.26    3.73
  12  -7  -3   68.21    4.39
 -11  -2   3   62.96    3.58
  11   2  -3   51.53    3.75
 -11  -1   3   28.20    2.77
  11   1  -3   27.06    3.13
 -11   0   3   59.88    3.28
  11   0  -3   59.02    3.84
 -11   1   3    2.10    1.17
  11  -1  -3    1.14    1.66
 -11   2   3    3.65    1.29
  11  -2  -3    0.79    1.57
 -11   3   3    0.08    0.93
  11  -3  -3   -0.07    1.53
 -11   4   3   34.57    2.62
  11  -4  -3   33.25    3.14
 -11   5   3   44.17    2.98
  11  -5  -3   43.06    3.38
 -11   6   3   21.21    2.45
  11  -6  -3   27.56    2.96
 -11   7   3   13.71    2.12
  11  -7  -3   16.78    2.60
 -11   8   3    2.01    1.59
  11  -8  -3   -0.44    1.72
 -10  -3   3    3.80    1.46
  10   3  -3    1.93    1.66
 -10  -2   3   -0.98    1.13
  10   2  -3    2.37    1.65
 -10  -1   3    1.53    1.17
  10   1  -3   -0.76    1.46
 -10   0   3   62.41    3.06
  10   0  -3   64.85    3.57
 -10   1   3   80.86    3.37
  10  -1  -3   81.34    3.72
 -10   2   3  124.70    4.02
  10  -2  -3  127.32    4.52
 -10   3   3    2.16    1.04
  10  -3  -3   -0.22    1.23
 -10   4   3    0.71    1.03
  10  -4  -3    1.42    1.35
 -10   5   3   20.24    2.19
  10  -5  -3   27.21    2.74
 -10   6   3   39.40    2.82
  10  -6  -3   33.04    3.01
 -10   7   3   44.63    3.09
  10  -7  -3   39.94    3.25
 -10   8   3   88.72    4.07
  10  -8  -3   89.53    4.29
 -10   9   3   13.51    2.25
  10  -9  -3   19.61    2.72
   9   5  -3   34.93    3.30
   9   4  -3    0.69    1.71
   9   3  -3   18.41    2.42
   9   3  -3   17.07    2.17
  -9  -2   3    1.36    1.12
   9   2  -3    1.17    1.40
  -9  -1   3   50.97    2.77
   9   1  -3   55.79    3.21
  -9   0   3   11.04    1.57
   9   0  -3   11.57    1.88
  -9   1   3   34.83    2.26
   9  -1  -3   37.07    2.77
  -9   2   3   24.30    1.95
   9  -2  -3   27.25    2.32
  -9   3   3   11.65    1.51
   9  -3  -3   10.80    1.71
  -9   4   3   43.15    2.51
   9  -4  -3   38.19    2.70
  -9   5   3    2.08    1.12
   9  -5  -3    4.55    1.48
  -9   6   3   39.14    2.63
   9  -6  -3   34.43    2.85
  -9   7   3   -1.74    1.00
   9  -7  -3    0.46    1.43
  -9   8   3   40.69    2.93
   9  -8  -3   34.63    3.12
  -9   9   3    2.48    1.50
   9  -9  -3    3.69    1.88
   8   6  -3    0.82    1.61
   8   5  -3   25.25    2.75
   8   4  -3   79.44    3.36
   8   4  -3   72.07    3.68
   8   3  -3  103.12    3.76
   8   3  -3  103.22    4.07
   8   2  -3    2.80    1.37
   8   2  -3    4.33    1.46
  -8  -1   3   -0.29    0.77
   8   1  -3   -0.04    1.23
  -8   0   3   33.19    2.07
   8   0  -3   30.97    2.54
  -8   1   3   69.17    2.77
   8  -1  -3   68.97    3.02
  -8   2   3   52.11    2.41
   8  -2  -3   47.57    2.70
  -8   3   3  244.56    5.27
   8  -3  -3  263.59    5.72
  -8   4   3   17.09    1.78
   8  -4  -3   15.39    1.88
  -8   5   3    0.36    0.91
   8  -5  -3    1.64    1.26
  -8   6   3    9.84    1.53
   8  -6  -3   11.52    1.91
  -8   7   3    2.86    1.22
   8  -7  -3    3.69    1.48
  -8   8   3   66.50    3.27
   8  -8  -3   64.96    3.56
  -8   9   3   41.78    3.01
   8  -9  -3   38.58    3.13
  -8  10   3   47.96    3.27
   8 -10  -3   45.39    4.18
   7   7  -3    2.64    1.70
   7   6  -3   17.72    2.36
   7   5  -3    6.85    1.70
   7   4  -3    8.26    1.48
   7   4  -3    9.48    1.73
   7   3  -3   13.25    1.88
   7   3  -3   14.37    1.78
   7   2  -3   82.71    3.21
   7   2  -3   83.19    3.32
   7   1  -3   60.86    2.82
  -7   0   3    4.20    0.99
   7   0  -3    3.62    1.13
  -7   1   3    9.84    1.30
   7  -1  -3    8.93    1.41
  -7   2   3   21.43    1.65
   7  -2  -3   29.19    2.04
  -7   3   3   48.19    2.25
   7  -3  -3   51.72    2.51
  -7   4   3   29.00    1.88
   7  -4  -3   28.38    2.14
  -7   5   3  250.70    5.27
   7  -5  -3  255.70    5.62
  -7   6   3   18.01    1.81
   7  -6  -3   16.22    1.89
  -7   7   3   12.93    1.72
   7  -7  -3   15.41    1.99
  -7   8   3   21.63    2.15
   7  -8  -3   20.14    2.26
  -7   9   3    1.38    1.27
   7  -9  -3    0.83    1.51
  -7  10   3   11.77    1.86
   6   8  -3   18.38    2.41
   6   7  -3    3.62    1.52
   6   6  -3    0.24    1.29
   6   5  -3    8.64    1.72
   6   4  -3   68.31    3.07
   6   4  -3   72.76    2.69
   6   3  -3   11.82    1.61
   6   3  -3   11.93    1.50
   6   2  -3  210.84    4.75
   6   2  -3  213.63    4.57
   6   1  -3    0.25    0.95
   6   1  -3    1.30    0.85
  -6   0   3   13.68    1.36
   6   0  -3   15.23    1.49
  -6   1   3   22.03    1.51
   6  -1  -3   23.39    1.73
  -6   2   3   22.06    1.53
   6  -2  -3   22.07    1.69
  -6   3   3   72.30    2.48
   6  -3  -3   70.72    2.68
  -6   4   3   63.51    2.42
   6  -4  -3   56.49    2.61
  -6   5   3   60.57    2.43
   6  -5  -3   60.66    2.72
  -6   6   3    0.91    0.91
   6  -6  -3   -0.76    0.94
  -6   7   3   22.89    1.96
   6  -7  -3   25.07    2.25
  -6   8   3    1.76    1.08
   6  -8  -3    1.73    1.34
  -6   9   3   36.96    2.50
   6  -9  -3   37.48    2.83
  -6  10   3    1.27    1.30
   5   9  -3    4.69    1.77
   5   8  -3    3.04    1.48
   5   7  -3   90.94    3.74
   5   6  -3   32.42    2.44
   5   5  -3   11.58    1.65
   5   5  -3   11.26    1.29
   5   4  -3   17.79    1.58
   5   4  -3   21.84    1.94
   5   3  -3   63.86    2.56
   5   3  -3   60.63    2.24
   5   2  -3   26.11    1.63
   5   2  -3   28.68    1.81
   5   1  -3   77.30    2.45
   5   1  -3   79.42    2.67
  -5   0   3  561.94    7.75
   5   0  -3  566.56    7.90
  -5   1   3   13.13    1.27
   5  -1  -3   12.42    1.31
  -5   2   3   13.53    1.26
   5  -2  -3   12.12    1.36
  -5   3   3  208.81    4.05
   5  -3  -3  208.06    4.39
  -5   4   3    4.23    0.85
  -5   4   3    3.79    0.67
   5  -4  -3    2.69    0.97
  -5   5   3   26.10    1.66
  -5   5   3   26.74    1.51
   5  -5  -3   26.15    2.00
  -5   6   3  172.26    3.98
   5  -6  -3  181.29    4.44
  -5   7   3   74.84    2.75
   5  -7  -3   76.56    3.12
  -5   8   3    4.73    1.23
   5  -8  -3    4.57    1.50
  -5   9   3    2.70    1.23
   5  -9  -3   -0.47    1.61
  -5  10   3   10.23    1.79
   4   9  -3   20.32    2.41
   4   8  -3    2.08    1.31
   4   7  -3   45.14    2.68
   4   6  -3    5.32    1.29
   4   5  -3   32.02    2.15
   4   5  -3   31.00    1.41
   4   4  -3    2.60    0.97
   4   4  -3    2.27    0.72
   4   3  -3   96.71    2.76
   4   3  -3   93.30    2.42
   4   2  -3    0.97    0.69
   4   2  -3    1.34    0.77
  -4  -1   3   12.38    0.93
   4   1  -3   17.09    1.48
   4   1  -3   17.95    1.28
  -4   0   3   20.27    1.25
  -4   0   3   21.51    0.93
   4   0  -3   20.64    1.41
  -4   1   3    7.81    0.96
   4  -1  -3    5.34    0.95
  -4   2   3  162.64    3.19
   4  -2  -3  158.91    3.46
  -4   3   3    0.44    0.48
  -4   3   3    2.43    0.68
   4  -3  -3    1.29    0.83
  -4   4   3   53.85    1.92
  -4   4   3   56.58    1.93
   4  -4  -3   60.93    2.34
  -4   5   3   48.92    2.09
  -4   5   3   47.20    1.95
   4  -5  -3   48.47    2.38
  -4   6   3   40.32    2.23
  -4   6   3   37.34    1.93
   4  -6  -3   38.83    2.30
  -4   7   3   -0.54    0.74
   4  -7  -3   -0.06    1.12
  -4   8   3   79.83    2.97
   4  -8  -3   80.41    3.25
  -4   9   3   13.30    1.79
  -4  10   3   14.69    1.99
   3  10  -3    6.83    1.78
   3   9  -3   18.04    2.10
   3   8  -3   11.65    1.67
   3   7  -3    4.56    1.21
   3   6  -3   95.15    3.05
   3   5  -3  256.99    4.78
   3   4  -3    2.84    0.61
   3   4  -3    2.62    0.80
   3   3  -3    1.26    0.73
   3   3  -3    0.47    0.56
   3   2  -3  193.00    3.50
   3   2  -3  201.52    3.29
  -3  -1   3   15.86    0.96
   3   1  -3   17.69    1.09
   3   1  -3   15.14    1.19
  -3   0   3    6.43    0.65
  -3   0   3    7.73    0.85
   3   0  -3    6.60    0.89
  -3   1   3  634.22    7.61
  -3   1   3  620.61    7.39
   3  -1  -3  627.88    8.07
  -3   2   3   39.24    1.46
  -3   2   3   36.85    1.38
   3  -2  -3   37.60    1.73
  -3   3   3    6.69    0.86
  -3   3   3    7.24    0.84
   3  -3  -3    8.04    1.12
  -3   4   3   17.22    1.18
  -3   4   3   15.92    1.35
   3  -4  -3   15.15    1.45
  -3   5   3   11.21    1.10
  -3   5   3    8.78    1.25
   3  -5  -3    9.08    1.36
  -3   6   3   30.19    2.21
  -3   6   3   28.75    1.71
   3  -6  -3   29.06    2.11
  -3   7   3   14.00    1.44
  -3   7   3   16.61    1.92
   3  -7  -3   14.48    1.75
  -3   8   3   86.24    3.01
   3  -8  -3   76.16    3.26
  -3   9   3    2.13    1.15
  -3  10   3    6.39    1.56
   2  10  -3   35.46    2.77
   2   9  -3    2.85    1.28
   2   8  -3   54.18    2.63
   2   7  -3    7.98    1.28
   2   6  -3    1.00    0.80
   2   5  -3    0.31    0.64
   2   4  -3  117.22    2.76
   2   3  -3  202.31    3.54
   2   3  -3  207.58    2.92
  -2  -2   3   39.03    1.40
   2   2  -3   41.12    1.47
   2   2  -3   38.08    1.20
  -2  -1   3   23.32    1.04
   2   1  -3   23.68    1.07
   2   1  -3   23.34    1.08
  -2   0   3  371.22    4.59
  -2   0   3  359.17    4.88
   2   0  -3  359.23    4.99
  -2   1   3    5.60    0.82
  -2   1   3    3.87    0.56
   2  -1  -3    6.05    0.87
  -2   2   3    0.24    0.59
  -2   2   3    0.37    0.39
   2  -2  -3    0.91    0.68
  -2   3   3  559.76    8.12
  -2   3   3  570.85    6.74
   2  -3  -3  583.63    7.89
  -2   4   3   36.65    2.01
  -2   4   3   36.93    1.46
   2  -4  -3   34.86    1.86
  -2   5   3   58.80    1.99
  -2   5   3   60.54    2.75
   2  -5  -3   68.68    2.51
  -2   6   3   42.60    2.67
  -2   6   3   43.43    1.94
   2  -6  -3   42.89    2.35
  -2   7   3    7.37    1.71
  -2   7   3    7.13    1.17
   2  -7  -3    8.22    1.44
  -2   8   3   -0.24    0.94
  -2   9   3   18.94    1.94
   1  11  -3   34.10    2.78
   1  10  -3   41.27    2.69
   1   9  -3    4.64    1.34
   1   8  -3    5.61    1.22
   1   7  -3   23.92    1.77
   1   6  -3   48.28    2.06
   1   5  -3    2.42    0.78
   1   4  -3  300.04    4.54
   1   3  -3   15.77    1.03
   1   3  -3   14.55    0.66
  -1  -2   3   38.33    1.38
   1   2  -3   39.48    1.06
   1   2  -3   40.57    1.21
  -1  -1   3   51.14    1.48
   1   1  -3   51.12    1.39
   1   1  -3   52.46    1.21
  -1   0   3   37.44    1.41
  -1   0   3   35.54    0.89
   1   0  -3   35.43    1.29
  -1   1   3   32.61    1.54
  -1   1   3   31.52    0.86
   1  -1  -3   31.52    1.40
  -1   2   3   44.04    1.20
  -1   2   3   43.62    2.00
   1  -2  -3   44.26    1.72
  -1   3   3   74.34    2.65
  -1   3   3   74.97    1.73
   1  -3  -3   72.70    2.25
  -1   4   3    0.77    0.53
  -1   4   3    0.48    0.85
   1  -4  -3    0.70    0.75
  -1   5   3   39.96    2.63
  -1   5   3   40.93    1.74
   1  -5  -3   41.37    2.10
  -1   6   3    6.36    1.08
  -1   6   3    6.21    1.51
   1  -6  -3    6.18    1.34
  -1   7   3   52.55    3.37
  -1   7   3   54.82    2.34
   1  -7  -3   51.06    2.59
  -1   8   3   -1.53    0.91
  -1   9   3   13.01    1.78
   0  11  -3    3.43    1.37
   0  10  -3    0.23    1.04
   0   9  -3  106.50    3.61
   0   8  -3  107.54    3.28
   0   7  -3   72.23    2.58
   0   6  -3   -0.34    0.59
   0   5  -3  110.32    2.60
   0   4  -3    0.12    0.51
   0  -3   3    5.96    0.80
   0   3  -3    6.00    0.51
   0   3  -3    7.71    0.75
   0  -2   3  950.81   11.22
   0   2  -3  986.15    9.82
   0   2  -3  989.18   10.49
   0  -1   3  196.34    3.34
   0   1  -3  200.13    3.11
   0   1  -3  200.32    2.27
   0   0   3  199.81    3.68
   0   0  -3  200.57    3.33
   0   1   3  209.90    4.12
   0  -1  -3  210.39    3.64
   0   2   3   20.22    1.68
   0   2   3   22.39    0.91
   0  -2  -3   21.38    1.34
   0   3   3    3.48    0.61
   0   3   3    1.98    1.00
   0  -3  -3    3.06    0.82
   0   4   3  170.64    4.65
   0   4   3  172.26    3.10
   0  -4  -3  170.56    3.81
   0   5   3  140.78    3.06
   0   5   3  147.55    4.70
   0  -5  -3  138.84    3.59
   0   6   3   30.11    1.84
   0   6   3   24.55    2.52
   0  -6  -3   31.47    2.01
   0   7   3   -0.05    0.91
   0   7   3   -0.67    1.26
   0  -7  -3    0.77    1.24
   0   8   3   25.37    2.10
  -1  12  -3    1.38    1.42
  -1  11  -3   28.73    2.71
  -1  10  -3    1.50    1.07
  -1   9  -3   60.34    2.70
  -1   8  -3   -0.01    0.85
  -1   7  -3  103.21    2.96
  -1   6  -3    2.01    0.74
  -1   5  -3  148.16    3.05
   1  -4   3    9.78    0.74
   1  -4   3    7.48    0.95
  -1   4  -3    8.51    0.87
   1  -3   3   37.05    1.55
  -1   3  -3   38.45    1.23
   1  -2   3   34.49    1.42
  -1   2  -3   36.78    1.26
  -1   2  -3   36.70    0.98
   1  -1   3    9.21    0.98
  -1   1  -3    9.15    0.88
   1   0   3  175.97    3.68
  -1   0  -3  178.68    3.32
   1   1   3   51.09    2.22
  -1  -1  -3   52.59    1.85
   1   2   3  162.85    4.16
   1   2   3  167.46    2.50
  -1  -2  -3  159.47    3.43
   1   3   3   23.71    1.15
   1   3   3   23.66    2.00
  -1  -3  -3   24.63    1.51
   1   4   3   13.51    1.14
   1   4   3   12.60    1.81
  -1  -4  -3   12.21    1.38
   1   5   3   11.89    1.93
   1   5   3   13.05    1.30
  -1  -5  -3   11.10    1.42
   1   6   3   77.91    2.56
   1   6   3   86.42    4.09
  -1  -6  -3   76.69    2.94
   1   7   3   25.48    2.93
   1   7   3   25.18    1.97
  -2  12  -3   36.92    3.02
  -2  11  -3    1.30    1.24
  -2  10  -3    2.84    1.20
  -2   9  -3   -0.30    0.90
  -2   8  -3   34.54    2.09
  -2   7  -3  297.64    5.19
   2  -6   3   71.89    1.72
  -2   6  -3   73.08    2.29
   2  -5   3  145.32    3.27
   2  -5   3  150.72    2.69
  -2   5  -3  147.33    2.98
   2  -4   3   83.13    2.27
   2  -4   3   82.24    2.02
  -2   4  -3   82.88    2.04
   2  -3   3    4.22    0.75
   2  -3   3    3.78    0.73
  -2   3  -3    3.35    0.60
   2  -2   3    1.21    0.65
   2  -2   3    2.95    0.75
  -2   2  -3    2.12    0.45
   2  -1   3  477.00    6.81
   2  -1   3  460.28    6.43
   2   0   3  188.96    4.04
  -2   0  -3  188.48    3.67
   2   1   3   63.95    1.47
   2   1   3   61.55    2.59
  -2  -1  -3   62.46    2.12
   2   2   3    3.18    0.65
   2   2   3    2.51    1.02
  -2  -2  -3    2.65    0.81
   2   3   3    4.45    0.84
   2   3   3    5.65    1.44
  -2  -3  -3    4.57    0.97
   2   4   3   18.66    1.58
   2   4   3   15.89    2.14
  -2  -4  -3   22.19    1.69
   2   5   3   12.56    1.34
   2   5   3    9.91    1.87
  -2  -5  -3   10.00    1.42
   2   6   3   84.62    2.85
   2   6   3   90.81    4.52
  -2  -6  -3   84.31    3.08
   2   7   3    2.89    1.92
  -3  12  -3   38.60    2.93
  -3  11  -3   15.36    2.08
  -3  10  -3   95.32    3.45
  -3   9  -3    0.25    0.85
   3  -8   3    4.86    0.84
  -3   8  -3    5.56    1.22
   3  -7   3    3.21    0.82
  -3   7  -3    5.20    1.06
   3  -6   3   80.27    2.46
   3  -6   3   75.37    2.19
  -3   6  -3   76.68    2.40
   3  -5   3  231.21    4.09
   3  -5   3  223.71    4.12
  -3   5  -3  236.73    4.03
   3  -4   3  180.80    3.58
   3  -4   3  184.90    3.51
  -3   4  -3  181.65    3.26
   3  -3   3  225.62    3.93
   3  -3   3  228.33    4.20
  -3   3  -3  232.24    3.51
   3  -2   3   81.02    2.47
   3  -2   3   81.54    2.32
  -3   2  -3   79.69    1.80
   3  -1   3    0.98    0.78
   3  -1   3    0.76    0.72
  -3   1  -3    1.06    0.44
   3   0   3    9.71    1.34
  -3   0  -3   10.82    0.77
   3   1   3  357.83    4.76
   3   1   3  341.62    6.46
  -3  -1  -3  342.39    5.86
   3   2   3   87.93    2.22
   3   2   3   91.30    3.52
  -3  -2  -3   89.05    2.82
   3   3   3  174.58    5.19
   3   3   3  177.47    3.43
  -3  -3  -3  175.85    4.18
   3   4   3    0.98    1.31
   3   4   3   -0.44    0.82
  -3  -4  -3    0.40    0.87
   3   5   3    2.26    1.56
  -3  -5  -3    3.78    1.08
   3   6   3    2.62    1.82
   3   7   3    0.93    2.03
  -4  12  -3   37.69    2.98
  -4  11  -3   16.89    2.20
  -4  10  -3   18.31    2.02
  -4   9  -3    1.75    1.01
   4  -8   3   40.07    2.09
   4  -8   3   36.35    1.92
  -4   8  -3   37.48    2.16
   4  -7   3    0.53    0.76
   4  -7   3    0.84    0.73
  -4   7  -3    0.90    0.79
   4  -6   3  190.75    4.00
   4  -6   3  186.14    3.84
  -4   6  -3  199.13    4.02
   4  -5   3   18.33    1.57
   4  -5   3   18.87    1.38
  -4   5  -3   17.08    1.32
   4  -4   3  109.31    3.06
   4  -4   3  110.48    2.63
  -4   4  -3  110.11    2.61
   4  -3   3    3.70    0.81
   4  -3   3    3.00    0.98
  -4   3  -3    3.57    0.72
   4  -2   3   57.78    2.13
   4  -2   3   62.33    2.45
  -4   2  -3   54.35    1.69
   4  -1   3   47.98    2.11
   4  -1   3   42.48    2.17
  -4   1  -3   44.30    1.46
   4   0   3   16.05    1.65
   4   0   3   17.84    1.66
  -4   0  -3   18.38    1.07
   4   1   3   85.20    3.35
   4   1   3   86.14    2.46
  -4  -1  -3   87.37    2.99
   4   2   3    1.91    1.29
   4   2   3    2.63    0.97
  -4  -2  -3    5.00    1.13
   4   3   3   59.98    2.29
   4   3   3   56.51    3.30
  -4  -3  -3   63.86    2.69
   4   4   3   -0.60    0.92
   4   4   3    0.29    1.36
  -4  -4  -3    1.96    0.91
   4   5   3   53.77    3.78
  -4  -5  -3   50.92    2.65
   4   6   3   -0.10    1.85
   5 -12   3   10.83    1.82
  -5  12  -3    6.19    1.76
   5 -11   3   34.88    2.50
  -5  11  -3   29.26    2.64
   5 -10   3   92.51    3.46
  -5  10  -3   80.16    3.42
   5  -9   3  112.43    3.35
   5  -9   3  117.26    3.48
  -5   9  -3  112.89    3.69
   5  -8   3   21.63    1.75
   5  -8   3   23.01    1.94
  -5   8  -3   20.82    1.92
   5  -7   3   24.21    1.66
   5  -7   3   25.70    1.97
  -5   7  -3   24.47    1.87
   5  -6   3    3.22    0.85
   5  -6   3    1.76    0.93
  -5   6  -3    2.91    0.91
   5  -5   3    1.43    0.95
   5  -5   3    0.83    0.70
  -5   5  -3    2.55    0.81
   5  -4   3  373.91    5.74
   5  -4   3  373.05    6.59
  -5   4  -3  371.53    5.68
   5  -3   3  119.16    3.53
   5  -3   3  117.79    2.98
  -5   3  -3  117.17    2.81
   5  -2   3  270.02    4.99
   5  -2   3  271.46    5.57
  -5   2  -3  275.80    4.38
   5  -1   3    6.12    1.36
   5  -1   3   10.09    1.35
  -5   1  -3    9.68    1.01
   5   0   3    2.73    1.23
   5   0   3    1.08    1.19
  -5   0  -3    1.36    0.57
   5   1   3    9.61    1.67
  -5  -1  -3   10.38    1.55
   5   2   3   43.75    3.01
   5   2   3   47.89    2.33
  -5  -2  -3   45.13    2.53
   5   3   3  103.73    3.17
   5   3   3   96.85    4.33
  -5  -3  -3   95.05    3.49
   5   4   3   59.29    3.85
  -5  -4  -3   56.19    2.82
   5   5   3   22.41    3.01
   5   6   3    4.85    2.41
   6 -12   3    3.94    1.35
  -6  12  -3    1.45    1.51
   6 -11   3   25.47    2.18
  -6  11  -3   18.95    2.28
   6 -10   3    1.97    1.03
  -6  10  -3    2.20    1.29
   6  -9   3   31.90    2.33
   6  -9   3   30.79    2.05
  -6   9  -3   36.29    2.46
   6  -8   3    6.34    1.44
   6  -8   3    7.33    1.16
  -6   8  -3    6.83    1.42
   6  -7   3   97.62    3.50
   6  -7   3   94.94    2.81
  -6   7  -3   94.25    3.22
   6  -6   3   17.69    1.92
   6  -6   3   14.05    1.28
  -6   6  -3   12.14    1.49
   6  -5   3   14.66    1.79
   6  -5   3   13.66    1.25
  -6   5  -3   14.47    1.48
   6  -4   3    1.59    1.10
   6  -4   3    2.53    0.80
  -6   4  -3    1.84    0.90
   6  -3   3    2.83    0.88
   6  -3   3    2.93    1.24
  -6   3  -3    3.98    0.87
   6  -2   3   85.67    2.85
   6  -2   3   84.13    3.45
  -6   2  -3   80.53    2.42
   6  -1   3   40.29    2.68
   6  -1   3   42.23    2.35
  -6   1  -3   40.09    1.75
   6   0   3  140.07    4.23
   6   0   3  132.51    4.31
  -6   0  -3  134.94    3.13
   6   1   3    0.68    1.21
  -6  -1  -3    1.57    0.68
   6   2   3   13.92    2.12
  -6  -2  -3   14.83    1.86
   6   3   3    7.19    1.93
  -6  -3  -3    6.33    1.46
   6   4   3   23.15    3.08
  -6  -4  -3   27.20    2.37
   6   5   3   13.94    2.82
  -7  12  -3    2.11    1.59
  -7  11  -3    3.39    1.50
   7 -10   3    1.10    1.16
   7 -10   3    0.81    1.46
  -7  10  -3   -0.05    1.13
   7  -9   3   80.11    2.86
   7  -9   3   83.08    3.50
  -7   9  -3   77.53    3.39
   7  -8   3   35.15    2.08
   7  -8   3   41.49    2.73
  -7   8  -3   31.40    2.40
   7  -7   3   88.43    3.58
   7  -7   3   88.23    2.72
  -7   7  -3   87.54    3.30
   7  -6   3    7.54    1.10
   7  -6   3    6.35    1.57
  -7   6  -3    6.52    1.34
   7  -5   3    1.33    1.22
   7  -5   3    2.68    0.90
  -7   5  -3    2.68    1.04
   7  -4   3    8.29    1.17
   7  -4   3    7.08    1.57
  -7   4  -3    7.93    1.28
   7  -3   3   81.41    2.77
   7  -3   3   87.14    3.66
  -7   3  -3   85.50    2.80
   7  -2   3   43.64    2.93
   7  -2   3   48.79    2.45
  -7   2  -3   46.67    2.05
   7  -1   3   50.14    3.14
   7  -1   3   56.03    2.85
  -7   1  -3   54.41    2.15
   7   0   3   10.26    1.93
   7   0   3   11.82    1.79
  -7   0  -3   12.61    1.27
   7   1   3   -0.93    1.16
  -7  -1  -3   -0.09    0.67
   7   2   3   11.15    2.08
  -7  -2  -3   10.54    1.81
   7   3   3   -0.79    1.45
  -7  -3  -3    1.71    1.32
   7   4   3   41.67    3.86
  -7  -4  -3   33.13    3.86
  -8  12  -3   48.17    3.62
  -8  11  -3   -0.12    1.53
   8 -10   3    1.31    1.38
  -8  10  -3    2.33    1.51
   8  -9   3   12.53    2.05
  -8   9  -3   10.24    1.81
   8  -8   3    0.54    1.40
  -8   8  -3    3.18    1.27
   8  -7   3   32.06    2.80
  -8   7  -3   31.71    2.44
   8  -6   3   66.50    3.48
  -8   6  -3   75.85    3.19
   8  -5   3  104.99    4.12
  -8   5  -3  106.43    3.50
   8  -4   3    1.67    1.49
   8  -4   3    1.18    0.90
  -8   4  -3    3.72    1.10
   8  -3   3    2.14    0.99
   8  -3   3   -1.01    1.23
  -8   3  -3    1.66    0.88
   8  -2   3   25.22    2.64
   8  -2   3   22.84    2.13
  -8   2  -3   26.06    1.74
   8  -1   3   51.37    3.44
   8  -1   3   52.99    2.97
  -8   1  -3   47.32    2.22
   8   0   3   28.84    2.99
   8   0   3   24.61    2.48
  -8   0  -3   27.41    1.84
   8   1   3  107.49    4.38
  -8  -1  -3   99.63    4.15
   8   2   3    2.15    1.70
  -8  -2  -3    5.06    1.66
   8   3   3   -2.51    1.76
  -8  -3  -3    2.46    1.40
  -9  11  -3    0.24    1.52
   9 -10   3    2.87    1.67
  -9  10  -3   10.91    2.08
   9  -9   3    1.13    1.59
  -9   9  -3   -0.01    1.35
   9  -8   3   35.08    3.17
  -9   8  -3   34.57    2.85
   9  -7   3    1.04    1.50
  -9   7  -3    3.05    1.36
   9  -6   3   11.81    2.15
  -9   6  -3   15.52    1.89
   9  -5   3    1.42    1.47
  -9   5  -3    1.15    1.10
   9  -4   3   10.21    2.00
  -9   4  -3   10.53    1.57
   9  -3   3   21.39    2.77
  -9   3  -3   19.23    1.84
   9  -2   3    1.51    1.74
  -9   2  -3    5.35    1.10
   9  -1   3   12.33    2.43
  -9   1  -3   13.93    1.53
   9   0   3    0.80    1.74
   9   0   3    1.17    1.85
   9   1   3    8.83    1.97
  -9  -1  -3   10.07    2.09
  10 -10   3   21.58    2.79
 -10  10  -3   19.79    2.62
  10  -9   3   -0.51    1.70
 -10   9  -3    0.20    1.41
  10  -8   3    2.54    1.73
 -10   8  -3    5.87    1.73
  10  -7   3   25.94    3.01
 -10   7  -3   25.64    2.53
  10  -6   3   36.54    3.30
 -10   6  -3   25.75    2.41
  10  -5   3   16.78    2.57
 -10   5  -3   15.68    1.88
  10  -4   3   81.58    4.34
 -10   4  -3   77.90    3.25
  10  -3   3    0.90    1.69
 -10   3  -3    1.99    0.99
  10  -2   3    0.37    1.95
 -10   2  -3    0.76    0.84
  10  -1   3   11.31    2.62
  10   0   3    2.03    2.29
  11  -9   3   16.26    2.70
 -11   9  -3   21.84    2.72
  11  -8   3    8.94    2.41
 -11   8  -3    7.48    1.94
  11  -7   3    5.82    2.12
 -11   7  -3    5.21    1.65
  11  -6   3   -0.21    1.84
 -11   6  -3    0.86    1.31
  11  -5   3    3.45    2.12
 -11   5  -3    5.44    1.56
  11  -4   3    3.53    2.15
 -11   4  -3    4.60    1.30
  11  -3   3    3.54    2.21
 -11   3  -3    6.47    1.38
  11  -2   3   37.11    3.75
 -12   0   4    8.24    1.81
  12   0  -4    5.11    2.03
 -12   1   4    1.41    1.21
  12  -1  -4   -0.06    1.62
 -12   2   4   23.95    2.43
  12  -2  -4   24.67    2.87
 -12   3   4   12.86    1.92
  12  -3  -4    9.03    2.38
  12  -4  -4   54.30    3.89
 -12   5   4    4.77    1.59
  12  -5  -4    5.01    1.98
 -12   6   4    5.02    1.57
  12  -6  -4    5.00    2.11
 -11  -2   4   -1.54    1.14
  11   2  -4   -0.78    1.66
 -11  -1   4    2.00    1.14
  11   1  -4   -0.76    1.62
 -11   0   4    3.87    1.45
  11   0  -4    5.81    1.93
 -11   1   4    9.48    1.66
  11  -1  -4    2.96    1.70
 -11   2   4   46.87    2.87
  11  -2  -4   47.95    3.33
 -11   3   4   26.83    2.44
  11  -3  -4   38.27    3.20
 -11   4   4   36.04    2.68
  11  -4  -4   34.74    3.18
 -11   5   4    0.75    1.26
  11  -5  -4    1.24    1.61
 -11   6   4    4.95    1.58
  11  -6  -4    4.28    1.93
 -11   7   4   -0.23    1.33
  11  -7  -4    3.53    1.89
 -11   8   4   29.30    2.85
  11  -8  -4   26.80    3.07
 -10  -3   4   19.75    2.46
  10   3  -4   23.87    2.65
 -10  -2   4   17.12    2.22
  10   2  -4   20.48    2.63
 -10  -1   4  109.39    4.05
  10   1  -4  107.79    4.32
 -10   0   4   -0.79    0.89
  10   0  -4    0.95    1.43
 -10   1   4    2.00    1.10
  10  -1  -4    2.41    1.45
 -10   2   4   32.28    2.39
  10  -2  -4   29.83    2.78
 -10   3   4   13.74    1.76
  10  -3  -4   13.37    2.08
 -10   4   4   29.16    2.36
  10  -4  -4   40.10    2.95
 -10   5   4   86.52    3.66
  10  -5  -4   90.70    3.99
 -10   6   4   43.29    2.92
  10  -6  -4   45.45    3.38
 -10   7   4    1.92    1.36
  10  -7  -4    2.17    1.75
 -10   8   4    0.56    1.46
  10  -8  -4    0.79    1.76
   9   5  -4    6.78    2.04
   9   4  -4   14.39    2.42
   9   3  -4    3.27    1.66
   9   3  -4    7.02    1.67
  -9  -2   4   19.76    2.19
   9   2  -4   17.42    2.17
  -9  -1   4   10.84    1.58
   9   1  -4   10.44    1.84
  -9   0   4    0.74    0.85
   9   0  -4    0.04    1.17
  -9   1   4   37.35    2.30
   9  -1  -4   34.27    2.60
  -9   2   4    0.24    0.82
   9  -2  -4    0.12    1.13
  -9   3   4   28.82    2.08
   9  -3  -4   26.79    2.39
  -9   4   4    1.80    1.00
   9  -4  -4    1.75    1.25
  -9   5   4   33.72    2.44
   9  -5  -4   34.31    2.75
  -9   6   4   -0.92    1.03
   9  -6  -4    1.00    1.51
  -9   7   4   43.95    2.87
   9  -7  -4   38.67    3.29
  -9   8   4   15.18    2.10
   9  -8  -4   17.21    2.60
  -9   9   4    6.77    1.76
   9  -9  -4    6.27    2.22
   8   6  -4   57.69    3.70
   8   5  -4   -0.12    1.51
   8   4  -4    0.96    1.19
   8   4  -4    0.56    1.44
   8   3  -4   58.73    3.00
   8   3  -4   60.06    3.25
   8   2  -4   24.69    2.31
   8   2  -4   23.40    2.35
  -8  -1   4   30.11    2.10
   8   1  -4   25.92    2.34
  -8   0   4  204.13    4.76
   8   0  -4  196.56    4.84
  -8   1   4   15.67    1.66
   8  -1  -4   12.94    1.73
  -8   2   4    0.76    0.80
   8  -2  -4    2.24    1.14
  -8   3   4   18.29    1.81
   8  -3  -4   20.49    2.12
  -8   4   4   13.36    1.65
   8  -4  -4   12.74    1.78
  -8   5   4   63.96    2.84
   8  -5  -4   60.61    3.16
  -8   6   4   40.70    2.52
   8  -6  -4   42.69    2.91
  -8   7   4   91.90    3.62
   8  -7  -4   89.97    3.88
  -8   8   4    0.40    1.19
   8  -8  -4   -0.87    1.46
  -8   9   4    1.46    1.41
   8  -9  -4    2.18    1.81
   7   7  -4    0.58    1.62
   7   6  -4   -0.26    1.37
   7   5  -4   19.46    2.26
   7   4  -4   41.73    2.69
   7   4  -4   39.97    2.41
   7   3  -4   10.02    1.75
   7   3  -4   11.13    1.62
   7   2  -4    7.34    1.51
   7   2  -4    5.58    1.44
  -7  -1   4   49.17    1.79
   7   1  -4   53.73    2.53
  -7   0   4   11.78    1.37
   7   0  -4   14.01    1.61
  -7   1   4    4.48    1.00
   7  -1  -4    5.28    1.22
  -7   2   4  213.98    4.64
   7  -2  -4  206.41    4.78
  -7   3   4   19.69    1.65
   7  -3  -4   20.05    1.95
  -7   4   4   16.59    1.73
   7  -4  -4   19.89    2.08
  -7   5   4   27.56    1.98
   7  -5  -4   29.66    2.47
  -7   6   4    2.50    1.13
   7  -6  -4    3.30    1.38
  -7   7   4    9.08    1.48
   7  -7  -4   15.37    2.10
  -7   8   4   28.58    2.42
   7  -8  -4   27.83    2.75
  -7   9   4   61.00    3.18
   7  -9  -4   55.95    3.54
   6   8  -4   15.03    2.34
   6   7  -4   27.28    2.69
   6   6  -4    8.93    1.81
   6   5  -4  135.70    4.26
   6   4  -4    3.29    1.22
   6   4  -4    2.18    1.06
   6   3  -4    2.68    1.05
   6   3  -4    1.23    1.07
   6   2  -4   34.49    2.23
   6   2  -4   33.93    1.94
  -6  -1   4    1.49    0.61
   6   1  -4    1.17    1.04
   6   1  -4    1.56    0.86
  -6   0   4   43.16    1.99
   6   0  -4   42.24    2.07
  -6   1   4   44.35    2.03
   6  -1  -4   42.46    2.11
  -6   2   4  101.39    2.94
   6  -2  -4  101.64    3.17
  -6   3   4    1.24    0.71
   6  -3  -4    3.11    1.14
  -6   4   4   26.06    1.73
   6  -4  -4   30.19    2.24
  -6   5   4   19.85    1.70
  -6   5   4   20.64    1.44
   6  -5  -4   23.03    2.17
  -6   6   4   35.57    2.12
   6  -6  -4   35.21    2.47
  -6   7   4    1.82    1.01
   6  -7  -4   -0.90    1.14
  -6   8   4   32.85    2.39
   6  -8  -4   34.03    2.87
  -6   9   4    0.60    1.21
   6  -9  -4    0.18    1.41
   5   9  -4   34.34    3.07
   5   8  -4    9.51    1.95
   5   7  -4    0.46    1.23
   5   6  -4   26.48    2.36
   5   5  -4    4.62    0.94
   5   5  -4    4.70    1.20
   5   4  -4   15.92    1.75
   5   4  -4   13.25    1.34
   5   3  -4  340.87    5.43
   5   3  -4  338.64    5.90
  -5  -2   4   29.34    1.47
   5   2  -4   31.50    1.69
   5   2  -4   31.60    1.85
  -5  -1   4   20.95    1.19
   5   1  -4   24.02    1.53
   5   1  -4   20.93    1.81
  -5   0   4  160.28    3.50
  -5   0   4  157.72    2.72
   5   0  -4  161.00    3.57
  -5   1   4    0.72    0.59
   5  -1  -4    2.31    0.86
  -5   2   4    7.35    0.99
   5  -2  -4    5.76    1.13
  -5   3   4  200.96    3.48
  -5   3   4  198.04    3.95
   5  -3  -4  205.72    4.50
  -5   4   4  162.34    3.59
  -5   4   4  167.58    3.46
   5  -4  -4  165.23    4.21
  -5   5   4   12.64    1.31
  -5   5   4   14.67    1.46
   5  -5  -4   15.66    1.83
  -5   6   4    3.89    1.11
  -5   6   4    8.73    1.30
   5  -6  -4    5.61    1.37
  -5   7   4   59.10    2.56
   5  -7  -4   53.49    2.98
  -5   8   4   11.96    1.55
   5  -8  -4   10.14    1.79
  -5   9   4    7.72    1.51
   4  10  -4   38.02    3.15
   4   9  -4    0.07    1.31
   4   8  -4   28.77    2.56
   4   7  -4    2.43    1.12
   4   6  -4   27.33    2.18
   4   5  -4    8.63    1.37
   4   5  -4   11.15    1.03
   4   4  -4   20.92    1.74
   4   4  -4   21.04    1.34
   4   3  -4   40.62    1.68
   4   3  -4   40.42    1.95
  -4  -2   4    5.23    0.82
   4   2  -4    5.32    0.90
   4   2  -4    3.71    0.91
  -4  -1   4  128.74    2.63
   4   1  -4  131.89    3.14
   4   1  -4  129.17    2.93
  -4   0   4    1.56    0.60
  -4   0   4    1.34    0.48
   4   0  -4    2.31    0.79
  -4   1   4   84.30    2.29
  -4   1   4   85.79    2.06
   4  -1  -4   92.44    2.63
  -4   2   4   13.68    1.04
  -4   2   4   15.28    1.10
   4  -2  -4   17.69    1.57
  -4   3   4   40.15    1.70
  -4   3   4   39.95    1.62
   4  -3  -4   41.06    2.09
  -4   4   4   10.25    1.08
  -4   4   4   10.93    1.22
   4  -4  -4   11.13    1.47
  -4   5   4   77.73    2.41
  -4   5   4   79.56    2.88
   4  -5  -4   76.39    3.02
  -4   6   4   41.21    1.98
  -4   6   4   39.55    2.41
   4  -6  -4   36.19    2.45
  -4   7   4   30.97    2.50
  -4   7   4   28.46    1.96
   4  -7  -4   33.43    2.41
  -4   8   4    0.21    0.93
   4  -8  -4   -0.83    1.19
  -4   9   4    3.16    1.26
   3  10  -4    5.70    1.73
   3   9  -4   21.53    2.22
   3   8  -4  153.05    4.26
   3   7  -4   15.15    1.77
   3   6  -4   28.95    1.94
   3   5  -4  104.87    3.02
   3   4  -4    7.61    0.78
   3   4  -4    9.03    1.19
   3   3  -4    5.02    0.92
   3   3  -4    5.97    0.77
  -3  -2   4  494.90    6.80
   3   2  -4  502.68    6.46
   3   2  -4  501.60    6.64
  -3  -1   4  211.01    3.56
   3   1  -4  213.98    3.70
   3   1  -4  217.24    3.72
  -3   0   4   68.02    1.84
  -3   0   4   66.35    1.87
   3   0  -4   65.92    2.08
  -3   1   4   23.71    1.16
  -3   1   4   24.49    1.39
   3  -1  -4   24.29    1.67
  -3   2   4   94.72    2.54
  -3   2   4   91.33    2.10
   3  -2  -4   95.24    2.70
  -3   3   4   28.98    1.65
  -3   3   4   26.68    1.27
   3  -3  -4   27.83    1.74
  -3   4   4   66.92    2.02
  -3   4   4   66.54    2.63
   3  -4  -4   71.24    2.71
  -3   5   4  218.04    5.12
  -3   5   4  213.20    3.93
   3  -5  -4  221.98    4.93
  -3   6   4    1.71    0.82
  -3   6   4    3.06    1.23
   3  -6  -4    3.93    1.37
  -3   7   4   15.30    1.51
  -3   7   4   14.27    2.09
   3  -7  -4   19.90    2.06
  -3   8   4   13.95    1.60
  -3   8   4   13.51    2.17
   3  -8  -4   11.29    1.81
  -3   9   4    6.14    1.44
   2  11  -4   32.05    2.89
   2  10  -4   -0.71    1.18
   2   9  -4    3.14    1.27
   2   8  -4    1.61    0.95
   2   7  -4   40.70    2.16
   2   6  -4  130.63    3.32
   2   5  -4   58.17    2.15
   2   4  -4  145.76    2.30
   2   4  -4  145.17    3.15
  -2  -3   4   86.90    2.44
   2   3  -4   90.92    2.28
   2   3  -4   85.45    1.83
  -2  -2   4   15.24    1.22
   2   2  -4   13.42    1.07
   2   2  -4   14.91    0.99
  -2  -1   4   10.42    0.95
   2   1  -4    9.93    0.91
   2   1  -4    7.94    0.90
  -2   0   4  495.12    5.72
  -2   0   4  476.00    6.64
   2   0  -4  476.95    6.53
  -2   1   4  187.27    3.77
  -2   1   4  184.43    2.74
   2  -1  -4  181.46    3.61
  -2   2   4  231.64    3.30
  -2   2   4  233.02    4.54
   2  -2  -4  232.47    4.38
  -2   3   4    9.03    0.82
  -2   3   4    8.72    1.25
   2  -3  -4    8.23    1.21
  -2   4   4   24.85    2.04
  -2   4   4   22.06    1.20
   2  -4  -4   23.00    1.80
  -2   5   4    1.49    0.67
  -2   5   4    0.52    1.02
   2  -5  -4   -0.73    0.99
  -2   6   4   27.42    2.56
  -2   6   4   24.79    1.68
   2  -6  -4   27.80    2.22
  -2   7   4  123.14    3.25
  -2   7   4  128.10    4.74
   2  -7  -4  122.23    3.97
  -2   8   4   22.17    1.89
  -2   8   4   15.21    2.43
   1  11  -4    6.76    1.68
   1  10  -4   12.17    1.81
   1   9  -4   28.98    2.24
   1   8  -4    1.21    0.89
   1   7  -4  230.53    4.64
   1   6  -4   43.21    1.95
   1   5  -4   87.68    2.43
  -1  -4   4   12.15    1.20
   1   4  -4   10.98    0.69
   1   4  -4   13.25    1.12
  -1  -3   4   16.05    1.28
   1   3  -4   16.63    1.04
   1   3  -4   13.92    0.83
  -1  -2   4   55.85    1.87
   1   2  -4   55.61    1.45
   1   2  -4   55.43    1.53
  -1  -1   4   66.18    1.97
   1   1  -4   66.05    1.83
   1   1  -4   63.99    1.41
  -1   0   4  341.61    5.48
   1   0  -4  351.29    5.20
  -1   1   4   12.99    1.35
   1  -1  -4   13.99    1.21
  -1   2   4  126.53    2.05
  -1   2   4  125.70    3.50
   1  -2  -4  126.81    3.11
  -1   3   4    2.31    0.99
  -1   3   4    4.34    0.59
   1  -3  -4    3.93    1.01
  -1   4   4   71.82    3.20
  -1   4   4   77.76    2.05
   1  -4  -4   79.80    2.87
  -1   5   4    0.66    1.17
  -1   5   4    0.99    0.70
   1  -5  -4    1.35    1.03
  -1   6   4   44.44    3.16
  -1   6   4   48.26    2.05
   1  -6  -4   49.27    2.60
  -1   7   4    0.36    0.90
  -1   7   4    2.83    1.58
   1  -7  -4    1.85    1.23
  -1   8   4   12.33    2.33
   0  12  -4   27.26    2.66
   0  11  -4   48.52    2.96
   0  10  -4   51.72    2.82
   0   9  -4   19.16    1.98
   0   8  -4   20.64    1.86
   0   7  -4    0.35    0.71
   0   6  -4    2.03    0.77
   0  -5   4  594.76    8.48
   0   5  -4  588.39    7.53
   0  -4   4  163.36    3.50
   0   4  -4  159.41    2.45
   0   4  -4  163.36    3.00
   0  -3   4  281.02    4.73
   0   3  -4  287.94    3.91
   0   3  -4  289.17    3.97
   0  -2   4   55.66    1.90
   0   2  -4   56.18    1.62
   0   2  -4   57.86    1.27
   0  -1   4    1.03    0.68
   0   1  -4   -0.64    0.47
   0   0   4    2.31    0.84
   0   0  -4    0.81    0.59
   0   1   4  181.97    4.18
   0  -1  -4  190.81    3.82
   0   2   4  368.32    6.78
   0  -2  -4  367.85    6.00
   0   3   4  103.05    3.70
   0   3   4  105.58    2.08
   0  -3  -4  106.78    3.06
   0   4   4   33.57    2.75
   0   4   4   35.20    1.55
   0  -4  -4   32.93    2.04
   0   5   4   43.68    1.86
   0   5   4   42.42    3.07
   0  -5  -4   44.23    2.34
   0   6   4    4.13    1.64
   0   6   4    7.45    1.16
   0  -6  -4    4.88    1.26
   0   7   4    0.05    1.67
   0   8   4   80.68    4.81
  -1  12  -4   37.96    2.96
  -1  11  -4    1.88    1.36
  -1  10  -4   33.75    2.34
  -1   9  -4    0.56    0.87
  -1   8  -4   61.63    2.53
  -1   7  -4   19.98    1.58
   1  -6   4   18.53    1.52
  -1   6  -4   17.38    1.39
   1  -5   4   19.43    1.44
  -1   5  -4   22.28    1.30
  -1   5  -4   19.08    0.84
   1  -4   4   26.15    1.60
  -1   4  -4   26.64    1.09
  -1   4  -4   25.95    1.28
   1  -3   4  338.03    5.38
  -1   3  -4  338.15    4.82
  -1   3  -4  336.81    4.27
   1  -2   4   45.10    1.81
  -1   2  -4   46.38    1.59
  -1   2  -4   47.23    1.04
   1  -1   4  285.66    5.03
  -1   1  -4  292.51    4.66
   1   0   4    7.78    1.18
  -1   0  -4    9.04    1.09
   1   1   4   65.68    2.72
  -1  -1  -4   69.26    2.31
   1   2   4   13.61    1.68
  -1  -2  -4   11.14    1.27
   1   3   4  100.92    2.12
   1   3   4   97.59    3.77
  -1  -3  -4   99.16    3.07
   1   4   4   61.09    1.94
   1   4   4   61.34    3.42
  -1  -4  -4   57.53    2.63
   1   5   4   82.93    2.42
   1   5   4   89.24    4.20
  -1  -5  -4   83.92    3.15
   1   6   4   16.26    2.40
  -1  -6  -4   19.25    1.93
   1   7   4    0.46    1.83
   1   8   4   -2.15    1.83
  -2  12  -4    2.17    1.36
  -2  11  -4    5.05    1.53
  -2  10  -4  153.37    4.30
  -2   9  -4   44.72    2.40
  -2   8  -4   71.78    2.68
   2  -7   4   43.93    2.13
  -2   7  -4   42.98    2.06
   2  -6   4    5.04    0.73
   2  -6   4    3.79    0.87
  -2   6  -4    3.85    0.81
   2  -5   4    0.80    0.56
   2  -5   4    0.54    0.67
  -2   5  -4   -0.01    0.55
   2  -4   4  308.27    4.69
   2  -4   4  301.14    5.10
  -2   4  -4  309.11    4.38
   2  -3   4  210.66    3.80
   2  -3   4  205.56    3.97
  -2   3  -4  210.07    3.07
   2  -2   4  204.48    4.08
  -2   2  -4  204.64    2.71
  -2   2  -4  203.35    3.94
   2  -1   4   18.96    1.57
  -2   1  -4   16.94    1.34
   2   0   4   19.72    1.78
  -2   0  -4   17.29    1.37
   2   1   4   16.82    1.77
  -2  -1  -4   18.42    1.50
   2   2   4   16.43    1.98
  -2  -2  -4   16.24    1.56
   2   3   4  202.98    5.64
   2   3   4  204.25    3.43
  -2  -3  -4  201.95    4.65
   2   4   4   21.37    1.50
   2   4   4   16.48    2.26
  -2  -4  -4   19.03    1.84
   2   5   4   53.28    3.70
  -2  -5  -4   66.24    2.87
   2   6   4    1.27    1.50
  -2  -6  -4    1.78    1.05
   2   7   4    3.63    2.17
  -3  12  -4    2.74    1.50
  -3  11  -4    1.29    1.27
  -3  10  -4    3.86    1.20
   3  -9   4    3.92    1.17
  -3   9  -4    5.09    1.24
   3  -8   4  104.87    3.41
   3  -8   4  102.63    2.43
  -3   8  -4  102.87    3.13
   3  -7   4   79.34    2.73
   3  -7   4   85.73    2.29
  -3   7  -4   84.86    2.71
   3  -6   4  179.63    3.51
   3  -6   4  179.97    3.94
  -3   6  -4  174.46    3.62
   3  -5   4   23.85    1.60
   3  -5   4   22.45    1.49
  -3   5  -4   22.56    1.37
   3  -4   4    0.35    0.74
   3  -4   4    0.64    0.68
  -3   4  -4    1.52    0.61
   3  -3   4   42.99    1.93
   3  -3   4   38.86    1.92
  -3   3  -4   40.32    1.36
   3  -2   4  224.99    4.47
   3  -2   4  219.61    4.40
  -3   2  -4  217.00    3.07
   3  -1   4  123.78    3.49
  -3   1  -4  131.73    3.46
   3   0   4  353.78    6.57
  -3   0  -4  338.52    6.10
   3   1   4    3.73    1.30
  -3  -1  -4    6.22    1.11
   3   2   4    3.26    1.44
   3   2   4    2.69    0.77
  -3  -2  -4    3.82    1.14
   3   3   4    0.21    1.33
   3   3   4    1.66    0.86
  -3  -3  -4    1.18    0.92
   3   4   4    2.46    1.53
  -3  -4  -4    4.46    1.20
   3   5   4   87.92    4.57
  -3  -5  -4   87.95    3.39
   3   6   4   26.18    3.36
   4 -12   4    9.70    1.83
  -4  12  -4    5.29    1.66
   4 -11   4    9.85    1.76
  -4  11  -4    8.39    1.63
   4 -10   4    3.64    1.21
  -4  10  -4    2.03    1.12
   4  -9   4   82.60    3.10
  -4   9  -4   77.31    3.03
   4  -8   4   24.69    1.73
   4  -8   4   22.97    1.88
  -4   8  -4   25.02    2.06
   4  -7   4   56.10    2.32
   4  -7   4   56.53    2.32
  -4   7  -4   56.56    2.35
   4  -6   4    0.77    0.80
   4  -6   4    0.23    0.83
  -4   6  -4    0.45    0.66
   4  -5   4    4.73    1.10
   4  -5   4    5.04    1.01
  -4   5  -4    3.52    0.84
   4  -4   4   14.92    1.54
   4  -4   4   15.42    1.44
  -4   4  -4   14.83    1.21
   4  -3   4   15.72    1.46
   4  -3   4   12.46    1.54
  -4   3  -4   15.90    1.09
   4  -2   4  109.84    3.20
   4  -2   4  108.62    3.27
  -4   2  -4  109.12    2.27
   4  -1   4    5.95    1.26
   4  -1   4    3.45    1.04
  -4   1  -4    5.40    0.68
   4   0   4   66.44    3.09
  -4   0  -4   68.48    2.71
  -4   0  -4   68.29    1.77
   4   1   4   -0.79    1.08
  -4  -1  -4    1.00    0.54
  -4  -1  -4    0.18    0.83
   4   2   4   70.89    2.36
   4   2   4   69.76    3.52
  -4  -2  -4   74.91    3.01
   4   3   4    1.73    1.36
  -4  -3  -4    0.08    0.95
   4   4   4   28.62    3.12
  -4  -4  -4   24.95    2.26
   4   5   4    0.41    1.66
  -4  -5  -4    2.44    1.24
   4   6   4    4.31    2.38
   5 -12   4   38.18    2.93
  -5  12  -4   30.17    2.88
   5 -11   4   35.41    2.49
  -5  11  -4   27.57    2.50
   5 -10   4    9.46    1.56
  -5  10  -4    7.80    1.52
   5  -9   4    4.91    1.19
   5  -9   4    3.69    1.14
  -5   9  -4    3.79    1.21
   5  -8   4   35.17    2.16
   5  -8   4   39.09    2.23
  -5   8  -4   32.67    2.18
   5  -7   4  134.85    3.68
   5  -7   4  131.55    3.48
  -5   7  -4  131.09    3.54
   5  -6   4   67.87    2.84
   5  -6   4   75.77    2.58
  -5   6  -4   76.01    2.56
   5  -5   4  213.60    4.26
   5  -5   4  220.56    4.93
  -5   5  -4  220.46    4.19
   5  -4   4    1.81    0.84
   5  -4   4    0.07    1.01
  -5   4  -4    0.91    0.75
   5  -3   4    6.42    1.12
   5  -3   4    9.33    1.52
  -5   3  -4    5.82    0.91
   5  -2   4   31.36    2.27
   5  -2   4   31.12    2.06
  -5   2  -4   33.60    1.49
   5  -1   4   16.90    1.92
   5  -1   4   17.94    1.89
  -5   1  -4   19.52    1.20
   5   0   4  143.67    4.40
  -5   0  -4  132.73    4.12
  -5   0  -4  135.63    2.84
   5   1   4   64.95    3.43
  -5  -1  -4   72.15    3.13
  -5  -1  -4   65.58    2.00
   5   2   4   37.33    3.06
  -5  -2  -4   37.40    2.54
   5   3   4    8.98    2.04
  -5  -3  -4   12.18    1.81
   5   4   4    5.01    2.02
  -5  -4  -4    4.99    1.40
   5   5   4   -3.00    1.94
   6 -12   4   13.25    1.95
  -6  12  -4   13.10    2.10
   6 -11   4    1.87    1.19
  -6  11  -4   -1.30    1.16
   6 -10   4   20.56    1.96
  -6  10  -4   21.64    2.21
   6  -9   4    8.80    1.54
   6  -9   4    7.86    1.38
  -6   9  -4    6.11    1.40
   6  -8   4    3.20    1.08
   6  -8   4    3.93    1.32
  -6   8  -4    4.10    1.14
   6  -7   4    0.79    0.87
   6  -7   4    1.54    1.18
  -6   7  -4    0.16    0.99
   6  -6   4    3.84    0.98
   6  -6   4    3.48    1.38
  -6   6  -4    3.59    1.14
   6  -5   4   44.56    2.21
   6  -5   4   39.58    2.57
  -6   5  -4   42.97    2.11
   6  -4   4   10.08    1.76
   6  -4   4    9.55    1.35
  -6   4  -4    8.68    1.18
   6  -3   4  135.06    3.67
   6  -3   4  137.37    4.30
  -6   3  -4  135.18    3.21
   6  -2   4    0.02    1.11
   6  -2   4   -0.04    1.00
  -6   2  -4   -0.02    0.62
   6  -1   4    7.40    1.69
   6  -1   4    7.26    1.48
  -6   1  -4    6.02    0.86
   6   0   4   30.32    2.55
  -6   0  -4   28.80    2.44
  -6   0  -4   27.39    1.53
   6   1   4   10.30    1.88
  -6  -1  -4    9.40    1.65
   6   2   4   19.09    2.49
  -6  -2  -4   17.19    2.10
   6   3   4   50.08    3.85
  -6  -3  -4   49.03    3.11
   6   4   4   15.42    2.67
  -6  -4  -4   16.23    2.10
  -7  12  -4   28.43    2.88
   7 -11   4   17.38    2.78
  -7  11  -4   18.47    2.40
   7 -10   4   55.93    2.82
   7 -10   4   51.31    3.35
  -7  10  -4   55.70    3.18
   7  -9   4    6.15    1.64
   7  -9   4    7.26    1.38
  -7   9  -4    7.09    1.52
   7  -8   4   -1.21    1.10
   7  -8   4    0.29    0.88
  -7   8  -4    0.03    1.07
   7  -7   4   20.73    1.86
   7  -7   4   18.93    2.15
  -7   7  -4   24.06    2.14
   7  -6   4   24.11    2.42
   7  -6   4   27.03    2.00
  -7   6  -4   24.93    1.98
   7  -5   4   39.60    2.83
   7  -5   4   40.51    2.25
  -7   5  -4   41.33    2.23
   7  -4   4   48.78    2.38
   7  -4   4   43.78    2.98
  -7   4  -4   49.31    2.28
   7  -3   4   10.04    1.52
   7  -3   4   11.60    1.94
  -7   3  -4   14.49    1.45
   7  -2   4    6.42    1.72
   7  -2   4    9.45    1.58
  -7   2  -4   14.55    1.39
   7  -1   4    0.09    1.13
   7  -1   4    0.81    1.41
  -7   1  -4    2.26    0.74
   7   0   4    1.23    1.29
  -7   0  -4    1.52    1.32
   7   1   4   46.54    3.26
  -7  -1  -4   39.15    2.85
   7   2   4    2.09    1.68
  -7  -2  -4    3.44    1.42
   7   3   4   20.61    2.88
  -7  -3  -4   24.71    2.55
  -8  12  -4    6.48    1.99
  -8  11  -4    2.12    1.49
   8 -10   4   12.28    1.97
  -8  10  -4    9.03    1.88
   8  -9   4   20.03    2.37
  -8   9  -4   23.36    2.44
   8  -8   4   79.68    3.71
  -8   8  -4   83.17    3.52
   8  -7   4    2.37    1.54
  -8   7  -4    0.42    1.07
   8  -6   4    1.26    1.40
   8  -6   4   -1.84    1.50
  -8   6  -4    0.79    1.08
   8  -5   4   53.37    3.25
   8  -5   4   54.59    2.46
  -8   5  -4   54.66    2.65
   8  -4   4    9.63    1.43
   8  -4   4   13.43    2.11
  -8   4  -4   12.77    1.52
   8  -3   4    8.80    1.49
   8  -3   4    8.13    1.94
  -8   3  -4   10.94    1.40
   8  -2   4  103.46    3.69
   8  -2   4  103.91    4.49
  -8   2  -4  101.77    3.04
   8  -1   4   10.59    1.82
   8  -1   4   14.81    2.43
   8   0   4   -0.05    1.37
  -8   0  -4    1.79    1.40
   8   1   4    6.13    1.96
  -8  -1  -4    2.31    1.40
   8   2   4    2.26    1.88
  -8  -2  -4    6.02    1.60
  -9  11  -4   15.09    2.38
   9 -10   4    0.39    1.52
  -9  10  -4    2.48    1.60
   9  -9   4   12.19    2.24
  -9   9  -4   12.33    2.11
   9  -8   4   -1.09    1.46
  -9   8  -4    4.21    1.48
   9  -7   4    1.24    1.61
  -9   7  -4    3.71    1.39
   9  -6   4    3.87    1.85
  -9   6  -4    4.49    1.37
   9  -5   4    1.41    1.69
  -9   5  -4    0.27    0.93
   9  -4   4   14.51    2.43
  -9   4  -4   14.93    1.71
   9  -3   4    5.19    1.97
  -9   3  -4    2.38    1.02
   9  -2   4    8.80    2.26
   9  -1   4    0.28    1.91
   9  -1   4    1.79    2.54
   9   0   4   18.70    2.45
  -9   0  -4   16.01    2.37
   9   1   4    1.43    1.73
  -9  -1  -4    2.40    1.56
  10 -10   4   13.81    2.56
 -10  10  -4   19.54    2.67
  10  -9   4   16.05    2.71
 -10   9  -4   12.01    2.16
  10  -8   4    6.55    2.08
 -10   8  -4    7.13    1.79
  10  -7   4   60.24    3.84
 -10   7  -4   60.05    3.29
  10  -6   4    1.41    1.71
 -10   6  -4    5.19    1.54
  10  -5   4   -0.86    1.66
 -10   5  -4    2.41    1.10
  10  -4   4   14.85    2.61
 -10   4  -4   16.27    1.79
  10  -3   4    4.09    2.00
  10  -2   4   10.31    2.61
  11  -9   4    0.77    1.88
 -11   9  -4   -1.45    1.46
  11  -8   4    2.86    1.95
 -11   8  -4    2.22    1.56
  11  -7   4   12.21    2.65
 -11   7  -4    5.87    1.64
  11  -6   4    1.72    2.05
 -11   6  -4    2.70    1.38
  11  -5   4   34.45    3.60
 -11   5  -4   41.27    2.80
  11  -4   4    4.60    2.37
 -12   0   5    0.70    1.28
  12   0  -5    0.15    1.74
 -12   1   5   29.41    2.78
  12  -1  -5   23.29    2.79
 -12   2   5    4.50    1.43
  12  -2  -5    0.43    1.75
 -12   3   5    2.49    1.36
  12  -3  -5    5.12    2.02
 -12   4   5    2.27    1.28
  12  -4  -5    4.06    1.90
 -12   5   5    0.57    1.32
  12  -5  -5   -0.39    1.74
 -12   6   5   15.74    2.31
  12  -6  -5   20.61    2.87
 -11  -3   5    5.07    1.63
 -11  -2   5    0.54    1.20
  11   2  -5   -0.01    1.69
 -11  -1   5   29.14    2.80
  11   1  -5   28.74    2.95
 -11   0   5   24.13    2.44
  11   0  -5   19.13    2.55
 -11   1   5   42.52    2.78
  11  -1  -5   36.47    3.23
 -11   2   5    6.87    1.47
  11  -2  -5    5.44    1.77
 -11   3   5    2.27    1.20
  11  -3  -5    3.42    1.74
 -11   4   5    4.13    1.38
  11  -4  -5    0.05    1.58
 -11   5   5   26.37    2.53
  11  -5  -5   25.02    2.99
 -11   6   5    6.06    1.63
  11  -6  -5    2.25    1.94
 -11   7   5   21.79    2.59
  11  -7  -5   18.16    2.84
 -10  -3   5    4.34    1.57
  10   3  -5    1.78    1.59
 -10  -2   5    1.48    1.22
  10   2  -5    0.03    1.48
 -10  -1   5   35.46    2.59
  10   1  -5   34.68    2.97
 -10   0   5    1.03    1.03
  10   0  -5   -1.67    1.29
 -10   1   5   21.07    2.13
  10  -1  -5   21.16    2.40
 -10   2   5   79.34    3.34
  10  -2  -5   76.63    3.63
 -10   3   5   57.06    2.93
  10  -3  -5   55.50    3.26
 -10   4   5    1.55    1.08
  10  -4  -5    0.22    1.45
 -10   5   5    3.68    1.33
  10  -5  -5    3.30    1.65
 -10   6   5   32.83    2.73
  10  -6  -5   33.72    3.27
 -10   7   5   18.44    2.23
  10  -7  -5   12.89    2.48
 -10   8   5   11.05    2.02
  10  -8  -5   11.25    2.50
   9   5  -5    4.01    1.97
   9   4  -5   13.84    2.35
   9   3  -5    1.63    1.38
   9   3  -5   -0.27    1.38
  -9  -2   5   21.60    2.24
   9   2  -5   23.47    2.43
  -9  -1   5   -0.13    0.83
   9   1  -5    0.00    1.19
  -9   0   5   27.87    2.13
   9   0  -5   28.35    2.42
  -9   1   5    1.33    0.86
   9  -1  -5   -0.84    1.06
  -9   2   5   28.50    2.14
   9  -2  -5   28.58    2.39
  -9   3   5    0.07    0.82
   9  -3  -5   -0.04    1.18
  -9   4   5   21.91    2.16
   9  -4  -5   20.48    2.33
  -9   5   5    9.75    1.55
   9  -5  -5    6.68    1.77
  -9   6   5    5.57    1.43
   9  -6  -5    7.65    1.99
  -9   7   5    6.57    1.55
   9  -7  -5    1.66    1.82
  -9   8   5    0.81    1.32
   9  -8  -5    1.01    1.74
   8   7  -5    4.67    1.79
   8   6  -5   27.52    2.92
   8   5  -5    2.52    1.61
   8   4  -5   17.45    2.25
   8   4  -5   18.48    2.04
  -8  -3   5  109.34    3.32
   8   3  -5  116.84    4.27
   8   3  -5  116.38    3.85
   8   2  -5   55.90    3.14
   8   2  -5   66.66    3.04
  -8  -1   5    2.65    0.95
   8   1  -5    1.56    1.14
  -8   0   5    6.26    1.17
   8   0  -5    7.49    1.44
  -8   1   5   65.91    2.73
   8  -1  -5   63.40    2.94
  -8   2   5   32.52    2.10
   8  -2  -5   29.18    2.29
  -8   3   5   38.99    2.27
   8  -3  -5   37.47    2.60
  -8   4   5  181.38    4.63
   8  -4  -5  187.81    5.13
  -8   5   5    0.41    0.92
   8  -5  -5    0.43    1.30
  -8   6   5    4.05    1.25
   8  -6  -5    2.89    1.60
  -8   7   5   29.85    2.43
   8  -7  -5   32.67    3.12
  -8   8   5    4.86    1.52
   8  -8  -5    2.34    1.75
  -8   9   5   11.82    1.97
   8  -9  -5    7.35    2.12
   7   7  -5   24.95    2.77
   7   6  -5    3.72    1.63
   7   5  -5   24.22    2.46
   7   4  -5   13.27    1.68
   7   4  -5   13.40    1.91
  -7  -3   5   31.14    1.95
   7   3  -5   30.25    2.23
   7   3  -5   29.51    2.43
  -7  -2   5    0.33    0.68
   7   2  -5    2.55    1.27
   7   2  -5    0.00    1.00
  -7  -1   5  105.31    2.58
  -7  -1   5  108.15    3.36
   7   1  -5  106.85    3.32
  -7   0   5   35.77    2.01
   7   0  -5   35.49    2.23
  -7   1   5   45.19    2.22
   7  -1  -5   47.60    2.48
  -7   2   5    7.51    1.21
   7  -2  -5    7.32    1.39
  -7   3   5   12.58    1.46
   7  -3  -5   15.35    1.86
  -7   4   5   11.77    1.49
   7  -4  -5   12.40    1.84
  -7   5   5   23.93    1.90
   7  -5  -5   29.25    2.61
  -7   6   5  133.20    3.88
   7  -6  -5  125.73    4.51
  -7   7   5   11.45    1.63
   7  -7  -5    7.50    1.84
  -7   8   5    6.88    1.51
   7  -8  -5    6.29    1.87
  -7   9   5   29.47    2.46
   7  -9  -5   27.52    2.98
   6   8  -5   76.21    3.87
   6   7  -5   18.93    2.36
   6   6  -5    9.26    1.76
   6   5  -5    0.08    1.15
   6   4  -5    2.91    1.12
   6   4  -5    1.96    1.18
  -6  -3   5   45.92    2.21
   6   3  -5   39.21    2.32
   6   3  -5   40.83    2.10
  -6  -2   5   39.51    1.87
   6   2  -5   41.16    2.39
   6   2  -5   36.78    2.05
  -6  -1   5  248.95    4.26
   6   1  -5  256.15    5.36
   6   1  -5  258.15    4.97
  -6   0   5    0.16    0.60
   6   0  -5    2.24    0.93
  -6   1   5   42.05    1.98
   6  -1  -5   38.37    2.15
  -6   2   5   21.19    1.50
   6  -2  -5   18.74    1.86
  -6   3   5   42.31    2.02
   6  -3  -5   48.23    2.55
  -6   4   5    6.43    1.15
  -6   4   5    9.12    1.07
   6  -4  -5    6.63    1.47
  -6   5   5   67.04    2.59
  -6   5   5   67.97    2.46
   6  -5  -5   65.90    3.20
  -6   6   5   11.51    1.46
  -6   6   5   10.87    1.44
   6  -6  -5   15.77    2.02
  -6   7   5    4.98    1.29
   6  -7  -5    3.31    1.52
  -6   8   5    5.91    1.37
   6  -8  -5    2.60    1.65
  -6   9   5    0.74    1.30
   6  -9  -5   -3.70    1.45
   5   9  -5    2.98    1.57
   5   8  -5    7.29    1.68
   5   7  -5    5.73    1.46
   5   6  -5  189.64    4.91
   5   5  -5   37.14    2.41
   5   5  -5   39.02    1.78
   5   4  -5   72.32    2.33
   5   4  -5   68.56    2.82
  -5  -3   5   42.51    2.00
   5   3  -5   39.03    2.21
   5   3  -5   40.13    1.92
  -5  -2   5    7.29    0.98
   5   2  -5    8.24    1.14
   5   2  -5    7.66    1.24
  -5  -1   5   11.45    1.07
   5   1  -5   13.57    1.37
   5   1  -5   13.04    1.49
  -5   0   5  215.88    4.18
  -5   0   5  211.73    3.68
   5   0  -5  210.50    4.38
  -5   1   5  420.84    6.29
  -5   1   5  413.44    5.89
   5  -1  -5  407.66    6.78
  -5   2   5   42.73    1.78
  -5   2   5   41.16    1.64
   5  -2  -5   46.80    2.28
  -5   3   5   13.33    1.20
  -5   3   5   12.71    1.27
   5  -3  -5   11.88    1.58
  -5   4   5  104.62    3.00
  -5   4   5   99.88    2.82
   5  -4  -5  108.27    3.63
  -5   5   5    7.40    1.13
  -5   5   5    4.59    1.12
   5  -5  -5    9.74    1.69
  -5   6   5    6.69    1.28
  -5   6   5    8.20    1.25
   5  -6  -5    7.32    1.65
  -5   7   5  162.89    4.07
  -5   7   5  171.63    4.78
   5  -7  -5  161.41    4.93
  -5   8   5   28.92    2.29
   5  -8  -5   30.63    2.81
  -5   9   5   10.38    2.14
   4  10  -5    0.64    1.45
   4   9  -5   12.40    1.95
   4   8  -5   24.66    2.38
   4   7  -5   13.73    1.78
   4   6  -5   48.06    2.59
   4   5  -5    2.61    1.08
   4   5  -5    1.14    0.70
  -4  -4   5  116.12    3.29
   4   4  -5  119.89    2.67
   4   4  -5  113.84    3.27
  -4  -3   5    3.67    0.84
   4   3  -5    3.10    0.93
   4   3  -5    4.20    0.86
  -4  -2   5  181.76    3.59
   4   2  -5  170.80    3.70
   4   2  -5  180.42    3.53
  -4  -1   5    2.79    0.68
   4   1  -5    2.00    0.87
   4   1  -5    2.85    0.84
  -4   0   5  101.46    2.53
  -4   0   5   99.92    2.50
   4   0  -5   99.97    2.85
  -4   1   5    1.16    0.55
  -4   1   5    1.10    0.65
   4  -1  -5    1.39    0.79
  -4   2   5   95.51    2.38
  -4   2   5   98.06    2.68
   4  -2  -5   94.28    3.03
  -4   3   5   76.25    2.18
  -4   3   5   78.71    2.64
   4  -3  -5   74.35    2.88
  -4   4   5   38.83    2.16
  -4   4   5   37.31    1.71
   4  -4  -5   35.63    2.33
  -4   5   5   34.68    2.29
  -4   5   5   34.01    1.82
   4  -5  -5   33.87    2.43
  -4   6   5    2.08    1.15
  -4   6   5    2.87    0.92
   4  -6  -5   -0.11    1.25
  -4   7   5   16.75    1.63
  -4   7   5   16.75    2.11
   4  -7  -5   15.71    2.13
  -4   8   5    0.13    1.07
  -4   8   5    0.05    1.40
   4  -8  -5   -2.16    1.38
   3  10  -5   24.89    2.60
   3   9  -5   24.18    2.32
   3   8  -5   32.26    2.32
   3   7  -5    2.27    1.06
   3   6  -5    7.28    1.28
   3   5  -5  250.29    4.83
   3   5  -5  246.56    3.60
  -3  -4   5  256.94    5.06
   3   4  -5  251.94    4.71
   3   4  -5  262.06    3.96
  -3  -3   5   95.54    2.75
   3   3  -5  101.20    2.66
   3   3  -5   99.29    2.33
  -3  -2   5   10.43    1.10
   3   2  -5   13.05    1.20
   3   2  -5   10.96    1.10
  -3  -1   5   88.40    2.39
   3   1  -5   91.39    2.52
   3   1  -5   90.97    2.41
  -3   0   5   49.82    1.86
  -3   0   5   52.35    1.61
   3   0  -5   51.79    2.02
  -3   1   5   25.04    1.13
  -3   1   5   23.85    1.54
   3  -1  -5   23.11    1.59
  -3   2   5  466.02    7.27
  -3   2   5  467.43    5.87
   3  -2  -5  457.76    7.25
  -3   3   5   34.87    1.41
  -3   3   5   37.18    2.12
   3  -3  -5   38.11    2.19
  -3   4   5  107.08    3.54
  -3   4   5  107.44    2.58
   3  -4  -5  104.32    3.43
  -3   5   5   13.12    1.78
  -3   5   5   13.12    1.21
   3  -5  -5   13.94    1.75
  -3   6   5    2.32    1.25
  -3   6   5    3.51    0.94
   3  -6  -5    3.63    1.42
  -3   7   5    8.68    1.31
  -3   7   5    8.87    1.95
   3  -7  -5    7.44    1.74
  -3   8   5   35.04    3.18
   3  -8  -5   32.67    2.88
   2  11  -5    2.22    1.62
   2  10  -5    1.90    1.24
   2   9  -5   69.22    3.06
   2   8  -5   29.44    2.11
   2   7  -5   91.32    3.05
   2   6  -5   14.99    1.51
  -2  -5   5   19.43    1.59
   2   5  -5   18.75    1.51
  -2  -4   5    0.56    0.67
   2   4  -5    0.61    0.48
   2   4  -5    0.58    0.62
  -2  -3   5  262.74    4.79
   2   3  -5  265.39    4.25
   2   3  -5  270.96    4.09
  -2  -2   5  192.12    3.82
   2   2  -5  188.17    3.28
   2   2  -5  194.19    3.47
  -2  -1   5  275.00    4.74
   2   1  -5  277.45    4.59
   2   1  -5  272.33    4.02
  -2   0   5    2.97    0.78
  -2   0   5    2.12    0.46
   2   0  -5    2.56    0.81
  -2   1   5   18.78    0.88
  -2   1   5   18.80    1.57
   2  -1  -5   18.91    1.48
  -2   2   5   15.74    1.68
  -2   2   5   14.16    0.86
   2  -2  -5   16.27    1.48
  -2   3   5   16.40    1.79
  -2   3   5   14.14    0.98
   2  -3  -5   15.47    1.59
  -2   4   5  263.70    6.01
  -2   4   5  258.64    4.03
   2  -4  -5  259.81    5.48
  -2   5   5   55.45    2.01
  -2   5   5   57.31    3.20
   2  -5  -5   53.72    2.84
  -2   6   5   84.40    2.57
  -2   6   5   81.73    3.96
   2  -6  -5   80.68    3.45
  -2   7   5   13.74    2.37
   2  -7  -5   14.19    1.99
  -2   8   5   -0.41    1.60
   1  11  -5   -0.02    1.25
   1  10  -5   79.63    3.38
   1   9  -5   35.29    2.38
   1   8  -5   29.72    2.01
   1   7  -5    3.93    0.97
  -1  -6   5    3.98    1.01
   1   6  -5    3.58    0.90
  -1  -5   5   32.67    1.89
   1   5  -5   34.28    1.69
  -1  -4   5   22.02    1.57
   1   4  -5   22.79    0.99
   1   4  -5   19.93    1.27
  -1  -3   5  355.59    5.81
   1   3  -5  362.09    5.02
   1   3  -5  363.35    4.89
  -1  -2   5    8.51    1.06
   1   2  -5    6.81    0.74
   1   2  -5    6.46    0.87
  -1  -1   5  183.53    3.90
   1   1  -5  179.88    3.55
   1   1  -5  178.58    2.66
  -1   0   5    1.59    0.78
   1   0  -5    0.42    0.68
  -1   1   5  117.65    3.40
   1  -1  -5  116.13    3.07
  -1   2   5    1.22    0.96
  -1   2   5    1.78    0.42
   1  -2  -5    5.24    1.03
  -1   3   5  111.82    3.96
  -1   3   5  113.98    2.19
   1  -3  -5  113.24    3.45
  -1   4   5   20.57    1.27
  -1   4   5   20.31    2.21
   1  -4  -5   18.08    1.88
  -1   5   5   10.93    1.85
  -1   5   5   15.05    1.27
   1  -5  -5   13.52    1.77
  -1   6   5   21.35    2.57
   1  -6  -5   21.21    2.12
  -1   7   5    6.90    2.03
   1  -7  -5    3.61    1.50
  -1   8   5   35.91    3.63
   0  12  -5   13.02    2.10
   0  11  -5    7.67    1.61
   0  10  -5    0.05    1.06
   0   9  -5    6.49    1.37
   0   8  -5  170.95    4.23
   0  -7   5   86.45    3.14
   0   7  -5   86.39    2.78
   0  -6   5  178.07    4.26
   0   6  -5  181.06    3.71
   0  -5   5    6.83    1.07
   0   5  -5    6.61    0.64
   0   5  -5    5.53    0.86
   0  -4   5   47.24    2.03
   0   4  -5   51.82    1.55
   0   4  -5   52.47    1.71
   0  -3   5    9.99    1.21
   0   3  -5    9.14    0.81
   0   3  -5    7.69    0.87
   0  -2   5   98.18    2.72
   0   2  -5  103.19    2.45
   0   2  -5   99.63    1.70
   0  -1   5  531.30    7.94
   0   1  -5  540.20    7.45
   0   0   5  168.88    4.07
   0   0  -5  166.65    3.75
   0   1   5  110.19    3.51
   0  -1  -5  107.24    3.03
   0   2   5   75.95    3.20
   0  -2  -5   80.82    2.83
   0   3   5    0.35    1.16
   0  -3  -5    0.56    0.89
   0   4   5    0.55    0.64
   0   4   5    0.88    1.19
   0  -4  -5    0.38    1.01
   0   5   5  170.49    5.62
   0  -5  -5  160.91    4.52
   0   6   5   45.13    3.57
   0  -6  -5   49.33    2.80
   0   7   5   34.32    3.65
  -1  12  -5    0.27    1.24
  -1  11  -5    4.62    1.52
  -1  10  -5   11.07    1.70
  -1   9  -5   -0.51    0.88
   1  -8   5   26.12    2.04
  -1   8  -5   29.06    1.91
   1  -7   5    1.22    0.89
  -1   7  -5    2.64    0.89
   1  -6   5   87.26    2.89
  -1   6  -5   87.74    1.81
  -1   6  -5   88.06    2.47
   1  -5   5    0.53    0.75
  -1   5  -5    0.16    0.39
  -1   5  -5    1.27    0.63
   1  -4   5  241.72    4.63
  -1   4  -5  233.95    3.87
  -1   4  -5  236.44    3.64
   1  -3   5    0.44    0.72
  -1   3  -5    0.10    0.41
  -1   3  -5    0.04    0.48
   1  -2   5   52.53    2.20
  -1   2  -5   49.14    1.89
   1  -1   5   13.83    1.47
  -1   1  -5   12.82    1.24
   1   0   5   37.51    2.19
  -1   0  -5   34.61    1.80
   1   1   5   67.58    2.96
  -1  -1  -5   68.11    2.53
   1   2   5   86.16    3.58
  -1  -2  -5   87.70    3.11
   1   3   5   59.62    3.40
  -1  -3  -5   56.89    2.67
   1   4   5    0.66    1.34
  -1  -4  -5    2.53    1.14
   1   5   5    5.84    1.85
  -1  -5  -5    5.71    1.45
   1   6   5    4.67    1.91
  -1  -6  -5    3.83    1.37
   1   7   5   49.56    4.28
   2 -12   5   21.40    2.58
  -2  12  -5   18.04    2.33
   2 -11   5   55.82    3.39
   2 -10   5   20.90    2.20
  -2  10  -5   16.56    1.93
   2  -9   5    3.57    1.22
  -2   9  -5    1.77    1.01
   2  -8   5   16.72    1.76
  -2   8  -5   21.62    1.82
   2  -7   5   56.22    2.52
  -2   7  -5   57.44    1.62
  -2   7  -5   58.25    2.35
   2  -6   5  185.37    4.21
  -2   6  -5  188.09    3.75
  -2   6  -5  186.75    3.31
   2  -5   5  114.57    3.19
  -2   5  -5  115.79    2.62
  -2   5  -5  115.99    2.59
   2  -4   5   39.20    2.00
  -2   4  -5   43.09    1.48
  -2   4  -5   40.65    1.70
   2  -3   5   99.57    2.93
  -2   3  -5  108.96    1.99
  -2   3  -5  108.48    2.85
   2  -2   5    0.74    0.75
  -2   2  -5    0.39    0.61
   2  -1   5    2.38    0.94
  -2   1  -5    1.23    0.77
   2   0   5  230.15    5.18
  -2   0  -5  227.08    4.81
   2   1   5   27.52    2.30
  -2  -1  -5   28.79    1.91
   2   2   5   81.20    3.77
  -2  -2  -5   84.31    3.11
   2   3   5    3.79    1.46
  -2  -3  -5    2.57    1.20
   2   4   5    1.71    1.51
  -2  -4  -5    4.22    1.23
   2   5   5    0.23    1.63
  -2  -5  -5    0.53    1.09
   2   6   5   12.77    2.59
  -2  -6  -5   13.33    2.22
   3 -12   5    2.23    1.50
  -3  12  -5    0.56    1.28
   3 -11   5   27.16    2.68
  -3  11  -5   26.29    2.38
   3 -10   5    8.44    1.55
  -3  10  -5   10.36    1.67
   3  -9   5   79.98    3.15
  -3   9  -5   81.70    3.12
   3  -8   5    8.23    1.40
  -3   8  -5    5.81    1.20
   3  -7   5    3.66    0.91
   3  -7   5    2.13    0.96
  -3   7  -5    3.39    0.97
   3  -6   5   71.49    2.37
   3  -6   5   71.07    2.64
  -3   6  -5   73.34    2.36
   3  -5   5   41.48    1.94
   3  -5   5   42.96    2.06
  -3   5  -5   44.62    1.69
   3  -4   5   67.64    2.45
   3  -4   5   69.76    2.49
  -3   4  -5   66.29    1.87
   3  -3   5  217.67    4.67
  -3   3  -5  220.14    3.29
  -3   3  -5  232.53    4.77
   3  -2   5   22.65    1.88
  -3   2  -5   25.22    1.70
   3  -1   5   28.10    2.06
  -3   1  -5   29.34    1.89
   3   0   5    2.00    1.22
  -3   0  -5    2.56    0.96
   3   1   5    7.62    1.70
  -3  -1  -5   10.20    1.50
   3   2   5  109.22    4.42
  -3  -2  -5  101.43    3.55
   3   3   5   40.28    3.20
  -3  -3  -5   35.54    2.44
   3   4   5   95.73    4.68
  -3  -4  -5   89.80    3.56
   3   5   5    3.55    1.96
  -3  -5  -5    5.90    1.45
   3   6   5   -0.79    1.86
   4 -12   5   31.03    2.88
  -4  12  -5   18.91    2.30
   4 -11   5   17.91    2.17
  -4  11  -5    9.74    1.75
   4 -10   5   30.55    2.46
  -4  10  -5   24.39    2.27
   4  -9   5    2.13    1.15
  -4   9  -5    2.16    1.03
   4  -8   5    2.76    1.10
   4  -8   5    3.11    1.00
  -4   8  -5    2.62    1.03
   4  -7   5    3.28    1.12
   4  -7   5    3.51    1.06
  -4   7  -5    2.81    0.97
   4  -6   5    1.47    0.95
   4  -6   5    1.16    0.97
  -4   6  -5    0.72    0.81
   4  -5   5   96.24    3.03
   4  -5   5   99.83    3.19
  -4   5  -5   98.41    2.63
   4  -4   5    0.31    0.90
   4  -4   5    2.01    0.88
  -4   4  -5    1.45    0.68
   4  -3   5   72.34    2.85
   4  -3   5   74.21    2.79
  -4   3  -5   75.02    1.91
   4  -2   5    5.57    1.17
  -4   2  -5    6.42    1.26
   4  -1   5   38.77    2.53
  -4   1  -5   34.34    2.20
   4   0   5   -0.36    1.13
  -4   0  -5    1.68    0.99
   4   1   5   25.76    2.61
  -4  -1  -5   24.81    2.11
   4   2   5    5.84    1.70
  -4  -2  -5    4.88    1.32
   4   3   5    1.67    1.61
  -4  -3  -5    0.74    1.06
   4   4   5    3.11    1.80
  -4  -4  -5    4.78    1.43
   4   5   5    1.58    1.97
  -4  -5  -5    3.47    1.41
   5 -12   5    2.74    1.42
  -5  12  -5   -1.02    1.28
   5 -11   5   26.08    2.48
  -5  11  -5   20.72    2.29
   5 -10   5   40.25    2.61
  -5  10  -5   29.94    2.44
   5  -9   5   30.07    2.35
   5  -9   5   28.58    2.12
  -5   9  -5   29.67    2.27
   5  -8   5  118.37    3.57
   5  -8   5  114.09    3.51
  -5   8  -5  111.87    3.44
   5  -7   5   -0.55    0.97
   5  -7   5    2.02    0.98
  -5   7  -5    0.92    0.88
   5  -6   5   14.78    1.80
   5  -6   5   10.89    1.42
  -5   6  -5   10.20    1.33
   5  -5   5   38.48    2.54
   5  -5   5   33.55    2.14
  -5   5  -5   36.37    1.82
   5  -4   5    1.90    0.99
   5  -4   5    2.48    1.22
  -5   4  -5    1.69    0.76
   5  -3   5   96.81    3.38
   5  -3   5   93.58    3.53
  -5   3  -5   97.62    2.38
   5  -2   5   52.58    2.73
   5  -2   5   53.03    2.86
  -5   2  -5   50.63    1.71
   5  -1   5  117.68    4.07
  -5   1  -5  131.41    2.76
  -5   1  -5  119.62    4.03
   5   0   5   18.86    2.16
  -5   0  -5   17.31    2.08
   5   1   5    2.09    1.48
  -5  -1  -5    2.16    1.18
   5   2   5   22.06    2.71
  -5  -2  -5   22.76    2.32
   5   3   5   29.00    3.06
  -5  -3  -5   32.26    2.67
   5   4   5   14.19    2.59
  -5  -4  -5   18.80    2.21
   6 -12   5    8.99    1.86
  -6  12  -5    8.10    1.92
   6 -11   5    2.18    1.36
  -6  11  -5    1.56    1.31
   6 -10   5    4.92    1.39
  -6  10  -5    5.42    1.57
   6  -9   5    3.33    1.21
   6  -9   5    3.89    1.35
  -6   9  -5    3.86    1.29
   6  -8   5   22.48    2.07
   6  -8   5   23.31    2.22
  -6   8  -5   26.10    2.21
   6  -7   5    1.93    1.25
   6  -7   5    1.00    0.98
  -6   7  -5    1.99    1.07
   6  -6   5   90.71    3.64
   6  -6   5   87.73    3.05
  -6   6  -5   86.71    2.93
   6  -5   5   -0.91    0.87
   6  -5   5    0.27    1.24
  -6   5  -5    0.31    0.85
   6  -4   5   18.55    1.81
   6  -4   5   18.71    2.22
  -6   4  -5   13.55    1.32
   6  -3   5   15.94    1.77
   6  -3   5   13.25    2.00
  -6   3  -5   15.67    1.36
   6  -2   5    2.10    1.40
   6  -2   5    2.75    1.26
  -6   2  -5    2.06    0.74
   6  -1   5    4.01    1.41
  -6   1  -5    4.04    1.42
   6   0   5   21.54    2.42
  -6   0  -5   28.08    2.51
   6   1   5   37.69    3.16
  -6  -1  -5   40.77    2.87
   6   2   5   -3.24    1.40
  -6  -2  -5   -0.44    1.19
   6   3   5    3.36    1.96
  -6  -3  -5    1.96    1.41
  -7  12  -5   -0.40    1.42
   7 -11   5   -0.30    1.29
  -7  11  -5   -1.98    1.23
   7 -10   5    9.42    1.92
   7 -10   5    7.69    1.61
  -7  10  -5   10.16    1.80
   7  -9   5    0.25    1.12
   7  -9   5    0.39    1.25
  -7   9  -5    3.41    1.34
   7  -8   5   42.20    2.45
   7  -8   5   39.11    2.83
  -7   8  -5   37.97    2.59
   7  -7   5   41.19    2.94
   7  -7   5   46.37    2.53
  -7   7  -5   43.70    2.53
   7  -6   5   39.26    2.33
   7  -6   5   41.84    2.95
  -7   6  -5   37.03    2.29
   7  -5   5    5.71    1.27
   7  -5   5    5.39    1.68
  -7   5  -5    6.12    1.20
   7  -4   5    0.19    1.02
   7  -4   5    2.08    1.40
  -7   4  -5    3.00    0.91
   7  -3   5   11.52    1.66
  -7   3  -5    9.50    1.22
   7  -2   5   36.98    3.06
   7  -2   5   43.23    2.81
   7  -1   5    5.69    1.58
  -7   1  -5    4.72    1.54
   7   0   5   36.77    3.11
  -7   0  -5   37.20    2.86
   7   1   5    0.09    1.46
  -7  -1  -5    0.31    1.28
   7   2   5    0.54    1.84
  -7  -2  -5    0.66    1.44
  -8  12  -5    3.97    1.79
  -8  11  -5   59.49    3.57
   8 -10   5    1.56    1.48
  -8  10  -5    0.14    1.39
   8  -9   5    5.60    1.74
  -8   9  -5    7.73    1.70
   8  -8   5   24.91    2.72
  -8   8  -5   22.21    2.23
   8  -7   5    1.03    1.48
   8  -7   5    2.40    1.53
  -8   7  -5   -0.07    1.05
   8  -6   5   15.34    2.29
   8  -6   5   11.87    1.64
  -8   6  -5    9.86    1.56
   8  -5   5   80.60    3.11
   8  -5   5   83.63    4.04
  -8   5  -5   79.66    2.95
   8  -4   5   34.83    3.02
   8  -4   5   31.60    2.45
  -8   4  -5   34.38    2.07
   8  -3   5    0.30    1.48
   8  -3   5    0.44    1.16
   8  -2   5    4.30    1.51
   8  -2   5    4.93    2.03
   8  -1   5   11.42    1.97
  -8   1  -5   10.32    1.96
   8   0   5   13.18    2.20
  -8   0  -5   16.03    2.28
   8   1   5    8.28    2.22
  -8  -1  -5   11.36    2.09
  -9  11  -5    4.41    1.87
   9 -10   5    1.04    1.71
  -9  10  -5   -1.21    1.42
   9  -9   5    5.84    1.95
  -9   9  -5    7.52    1.88
   9  -8   5    1.13    1.76
  -9   8  -5   -2.12    1.17
   9  -7   5   30.91    3.10
  -9   7  -5   24.06    2.31
   9  -6   5    1.45    1.65
  -9   6  -5    0.12    1.06
   9  -5   5   15.00    2.56
  -9   5  -5   20.42    1.92
   9  -4   5    2.64    1.88
   9  -3   5   18.39    2.80
   9  -1   5   10.51    2.20
  -9   1  -5   10.92    2.17
  10 -10   5   63.64    4.11
 -10  10  -5   60.07    3.81
  10  -9   5   16.96    2.75
 -10   9  -5   12.50    2.14
  10  -8   5    1.65    1.85
 -10   8  -5    0.97    1.46
  10  -7   5    4.96    2.05
 -10   7  -5    3.21    1.43
  10  -6   5    2.52    1.95
 -10   6  -5    3.07    1.32
  10  -5   5   17.61    2.77
  10  -4   5   19.14    3.07
  10  -3   5   58.35    4.50
  11  -7   5    5.64    2.25
 -11   7  -5    6.17    1.74
  11  -6   5   16.52    2.99
 -12   0   6    5.50    1.62
  12   0  -6    4.71    2.02
 -12   1   6   -0.39    1.19
  12  -1  -6    0.63    1.74
 -12   2   6    1.20    1.17
  12  -2  -6   -0.09    1.61
 -12   3   6    8.93    1.72
  12  -3  -6   11.44    2.37
 -12   4   6    6.38    1.59
  12  -4  -6    9.83    2.34
 -12   5   6   46.48    3.26
  12  -5  -6   43.47    3.72
 -11  -3   6   22.41    2.61
 -11  -2   6   46.98    3.21
  11   2  -6   51.75    3.53
 -11  -1   6    0.11    1.20
  11   1  -6    0.01    1.60
 -11   0   6    1.01    1.11
  11   0  -6   -1.25    1.48
 -11   1   6    8.81    1.59
  11  -1  -6    6.22    1.76
 -11   2   6   12.02    1.83
  11  -2  -6    9.61    2.02
 -11   3   6   24.83    2.46
  11  -3  -6   19.74    2.64
 -11   4   6   39.70    2.87
  11  -4  -6   37.72    3.42
 -11   5   6   15.03    2.13
  11  -5  -6    6.92    2.20
 -11   6   6    0.04    1.21
  11  -6  -6   -0.62    1.80
 -10  -3   6    3.28    1.48
  10   3  -6    3.97    1.69
 -10  -2   6    7.32    1.56
  10   2  -6   12.42    2.17
 -10  -1   6   45.37    2.79
  10   1  -6   44.19    3.07
 -10   0   6   92.04    3.70
  10   0  -6   86.03    3.75
 -10   1   6    1.98    1.10
  10  -1  -6    2.93    1.63
 -10   2   6    2.63    1.14
  10  -2  -6    1.92    1.45
 -10   3   6   37.71    2.59
  10  -3  -6   38.16    3.27
 -10   4   6    7.14    1.51
  10  -4  -6    5.83    1.87
 -10   5   6   10.75    1.76
  10  -5  -6   19.04    2.67
 -10   6   6  102.22    4.02
  10  -6  -6   95.24    4.68
 -10   7   6   17.88    2.18
  10  -7  -6   17.91    2.80
   9   6  -6   -1.61    1.62
   9   5  -6   13.70    2.48
   9   4  -6   -0.40    1.44
   9   3  -6   36.47    2.73
   9   3  -6   37.15    3.17
  -9  -2   6    5.01    1.35
   9   2  -6    4.74    1.50
  -9  -1   6   47.09    2.65
   9   1  -6   43.25    2.72
  -9   0   6    7.40    1.38
   9   0  -6    6.69    1.60
  -9   1   6   20.19    2.02
   9  -1  -6   20.16    2.24
  -9   2   6   16.59    1.85
   9  -2  -6   13.92    1.97
  -9   3   6    6.54    1.34
   9  -3  -6    5.54    1.55
  -9   4   6   24.25    2.25
   9  -4  -6   27.06    2.72
  -9   5   6    2.52    1.22
   9  -5  -6   -0.05    1.45
  -9   6   6   17.53    2.04
   9  -6  -6   17.95    2.60
  -9   7   6    3.64    1.37
   9  -7  -6    1.48    1.82
   9  -8  -6   38.73    3.68
   8   7  -6    8.28    2.02
  -8  -6   6   67.62    3.44
   8   6  -6   77.28    4.05
  -8  -5   6   74.52    3.33
   8   5  -6   79.86    3.86
  -8  -4   6    6.35    1.27
   8   4  -6    8.99    1.61
   8   4  -6    9.83    1.91
  -8  -3   6    1.64    1.15
   8   3  -6   -1.44    1.14
   8   3  -6    0.43    1.20
   8   2  -6   26.28    2.21
  -8  -1   6   33.25    2.19
   8   1  -6   37.35    2.38
  -8   0   6   25.10    1.94
   8   0  -6   28.52    2.32
  -8   1   6  227.47    5.17
   8  -1  -6  226.46    5.39
  -8   2   6   21.43    1.92
   8  -2  -6   22.58    2.28
  -8   3   6   14.08    1.66
   8  -3  -6   16.52    2.12
  -8   4   6   19.74    1.93
   8  -4  -6   18.41    2.26
  -8   5   6    0.93    1.03
   8  -5  -6   -0.22    1.31
  -8   6   6   27.51    2.26
   8  -6  -6   28.52    2.88
  -8   7   6   43.67    2.77
   8  -7  -6   40.35    3.45
  -8   8   6   54.64    3.20
   8  -8  -6   58.82    3.93
   7   8  -6   28.47    2.91
   7   7  -6    0.23    1.46
   7   6  -6   12.76    2.11
  -7  -5   6    2.78    1.15
   7   5  -6    3.57    1.48
  -7  -4   6   90.89    3.21
   7   4  -6   87.49    3.64
   7   4  -6   89.66    3.18
  -7  -3   6   52.28    2.41
   7   3  -6   51.13    2.50
   7   3  -6   47.41    2.85
  -7  -2   6   54.26    2.24
   7   2  -6   57.63    3.01
   7   2  -6   56.51    2.65
  -7  -1   6    1.36    0.81
  -7  -1   6   -0.37    0.62
   7   1  -6   -0.57    0.95
  -7   0   6    3.67    0.97
   7   0  -6    4.68    1.27
  -7   1   6   21.50    1.74
   7  -1  -6   21.55    2.09
  -7   2   6   23.76    1.78
   7  -2  -6   23.38    2.23
  -7   3   6  220.08    4.75
   7  -3  -6  218.03    5.41
  -7   4   6   32.51    2.05
   7  -4  -6   28.99    2.58
  -7   5   6   37.94    2.26
   7  -5  -6   30.93    2.70
  -7   6   6   14.51    1.74
   7  -6  -6   12.73    2.11
  -7   7   6    3.67    1.26
   7  -7  -6    1.44    1.62
  -7   8   6    0.30    1.15
   7  -8  -6    1.27    1.77
   6   8  -6   -0.71    1.33
   6   7  -6    1.59    1.47
   6   6  -6   32.85    2.63
  -6  -5   6   35.75    2.35
   6   5  -6   31.54    2.42
  -6  -4   6  174.46    4.38
   6   4  -6  181.16    4.01
   6   4  -6  176.34    4.62
  -6  -3   6    3.76    1.07
   6   3  -6    5.73    1.23
   6   3  -6    6.66    1.41
  -6  -2   6   39.69    1.97
   6   2  -6   37.80    2.43
   6   2  -6   36.57    2.16
  -6  -1   6    6.04    0.91
  -6  -1   6    6.06    1.05
   6   1  -6    5.41    1.19
  -6   0   6   30.22    1.77
  -6   0   6   31.43    1.55
   6   0  -6   32.92    2.11
  -6   1   6   23.45    1.36
  -6   1   6   19.75    1.53
   6  -1  -6   22.49    2.00
  -6   2   6  119.86    2.78
  -6   2   6  117.64    3.17
   6  -2  -6  116.71    3.71
  -6   3   6   75.80    2.60
  -6   3   6   73.60    2.35
   6  -3  -6   75.94    3.24
  -6   4   6   13.39    1.38
  -6   4   6   13.50    1.44
   6  -4  -6   14.86    1.93
  -6   5   6   23.44    1.84
   6  -5  -6   26.80    2.54
  -6   6   6    0.60    0.95
  -6   6   6    1.50    1.00
   6  -6  -6   -0.23    1.30
  -6   7   6   38.94    4.49
  -6   7   6   37.16    2.34
   6  -7  -6   32.30    2.94
  -6   8   6    0.95    1.17
   6  -8  -6    2.96    1.76
   5   9  -6   74.83    3.83
   5   8  -6   30.82    2.74
   5   7  -6   59.35    3.10
   5   6  -6    5.20    1.42
  -5  -5   6   13.98    1.67
   5   5  -6   14.04    1.35
   5   5  -6   17.25    1.87
  -5  -4   6    2.95    0.98
   5   4  -6    2.58    1.14
   5   4  -6    2.22    0.92
  -5  -3   6   97.40    2.97
   5   3  -6   98.10    2.83
   5   3  -6   93.83    3.08
  -5  -2   6  332.70    5.63
   5   2  -6  330.51    5.93
   5   2  -6  335.57    5.70
  -5  -1   6   90.20    2.55
   5   1  -6   90.23    2.83
  -5   0   6   68.99    2.22
  -5   0   6   67.61    2.28
   5   0  -6   65.49    2.57
  -5   1   6   69.14    2.27
  -5   1   6   71.60    2.33
   5  -1  -6   72.33    2.85
  -5   2   6    2.79    0.74
  -5   2   6    1.72    0.76
   5  -2  -6    3.41    1.17
  -5   3   6    4.19    0.89
  -5   3   6    2.39    0.92
   5  -3  -6    4.92    1.34
  -5   4   6  253.03    5.24
  -5   4   6  244.89    4.53
   5  -4  -6  246.68    5.80
  -5   5   6   90.10    2.78
  -5   5   6   95.04    3.38
   5  -5  -6   89.86    3.68
  -5   6   6   41.49    2.75
  -5   6   6   37.20    2.16
   5  -6  -6   44.36    3.06
  -5   7   6   -1.49    1.17
  -5   7   6    1.30    0.97
   5  -7  -6    2.71    1.68
  -5   8   6    1.63    1.59
   5  -8  -6    1.35    1.69
   4  10  -6    7.14    1.89
   4   9  -6   41.34    2.96
   4   8  -6    0.47    1.07
   4   7  -6   28.46    2.33
  -4  -6   6    1.52    0.99
   4   6  -6    0.55    1.03
  -4  -5   6   80.94    3.10
   4   5  -6   83.60    3.06
   4   5  -6   85.20    2.30
  -4  -4   6    0.94    0.85
   4   4  -6    1.98    0.78
   4   4  -6    2.79    0.99
  -4  -3   6   58.50    2.30
   4   3  -6   58.77    2.09
   4   3  -6   66.61    2.41
  -4  -2   6   20.02    1.52
   4   2  -6   20.61    1.56
   4   2  -6   18.25    1.42
  -4  -1   6   44.98    1.86
   4   1  -6   42.12    1.97
  -4   0   6   71.26    2.13
  -4   0   6   68.17    2.29
   4   0  -6   72.58    2.60
  -4   1   6   45.19    1.63
  -4   1   6   42.44    1.99
   4  -1  -6   44.32    2.24
  -4   2   6   72.55    2.65
  -4   2   6   74.79    2.12
   4  -2  -6   76.77    2.97
  -4   3   6    0.86    0.65
  -4   3   6    0.86    0.88
   4  -3  -6    0.86    1.09
  -4   4   6   18.62    1.86
  -4   4   6   20.26    1.43
   4  -4  -6   17.25    2.09
  -4   5   6    0.30    0.98
  -4   5   6    1.20    0.77
   4  -5  -6    0.57    1.20
  -4   6   6  104.89    4.13
  -4   6   6  103.18    2.95
   4  -6  -6  106.34    4.14
  -4   7   6   15.67    2.25
   4  -7  -6   18.31    2.30
  -4   8   6   34.58    3.19
   4  -8  -6   27.33    2.77
   3  10  -6    0.77    1.33
   3   9  -6    3.13    1.31
   3   8  -6   45.75    2.59
  -3  -7   6  138.44    4.31
   3   7  -6  135.26    3.87
  -3  -6   6   42.49    2.46
   3   6  -6   44.74    2.32
  -3  -5   6   23.49    1.88
   3   5  -6   19.73    1.23
   3   5  -6   21.25    1.71
  -3  -4   6   93.57    3.00
   3   4  -6   92.36    2.76
   3   4  -6   91.24    2.31
  -3  -3   6    6.21    1.04
   3   3  -6    4.76    0.88
   3   3  -6    5.22    0.94
  -3  -2   6    3.25    0.85
   3   2  -6    3.36    0.83
   3   2  -6    3.56    0.82
  -3  -1   6  468.23    7.17
   3   1  -6  477.67    7.09
  -3   0   6  101.61    2.27
  -3   0   6  104.54    3.01
   3   0  -6  107.74    3.09
  -3   1   6   73.08    2.69
  -3   1   6   77.34    1.87
   3  -1  -6   77.70    2.76
  -3   2   6   22.76    1.87
  -3   2   6   23.45    1.14
   3  -2  -6   22.49    1.91
  -3   3   6    0.62    0.57
  -3   3   6    0.76    0.95
   3  -3  -6    0.07    1.04
  -3   4   6   14.73    1.21
  -3   4   6   15.79    1.95
   3  -4  -6   16.22    1.93
  -3   5   6   40.93    2.87
  -3   5   6   43.12    1.85
   3  -5  -6   39.86    2.78
  -3   6   6   83.27    4.02
   3  -6  -6   79.23    3.73
  -3   7   6    9.07    2.01
   3  -7  -6   13.50    2.15
  -3   8   6   12.83    2.55
   2  11  -6    2.52    1.53
   2  10  -6   30.67    2.75
   2   9  -6    2.45    1.19
   2   8  -6    7.76    1.39
  -2  -7   6    8.71    1.46
   2   7  -6    9.80    1.39
  -2  -6   6   62.20    2.77
   2   6  -6   63.30    2.47
  -2  -5   6   72.79    2.75
   2   5  -6   68.33    1.79
   2   5  -6   71.54    2.42
  -2  -4   6  153.37    3.80
   2   4  -6  153.45    3.29
   2   4  -6  146.20    2.91
  -2  -3   6   23.68    1.66
   2   3  -6   24.99    1.37
   2   3  -6   24.11    1.39
  -2  -2   6   48.67    2.07
   2   2  -6   44.41    1.60
   2   2  -6   45.88    1.80
  -2  -1   6    1.65    0.81
   2   1  -6    1.70    0.78
  -2   0   6    1.56    0.87
  -2   0   6    1.56    0.39
   2   0  -6    2.06    0.86
  -2   1   6  305.92    3.84
  -2   1   6  305.83    5.93
   2  -1  -6  305.26    5.74
  -2   2   6  116.05    3.74
  -2   2   6  110.94    2.05
   2  -2  -6  105.54    3.39
  -2   3   6  112.53    2.21
  -2   3   6  110.44    3.99
   2  -3  -6  108.56    3.62
  -2   4   6   14.31    1.12
  -2   4   6    9.46    1.73
   2  -4  -6   11.85    1.66
  -2   5   6    4.06    1.57
   2  -5  -6    1.07    1.19
  -2   6   6    2.73    1.67
   2  -6  -6    2.66    1.46
  -2   7   6   26.14    3.02
   2  -7  -6   22.91    2.55
   1  11  -6   12.34    1.90
   1  10  -6    2.07    1.18
  -1  -9   6   14.70    2.00
   1   9  -6   12.45    1.68
  -1  -8   6    3.29    1.17
   1   8  -6    3.27    1.13
  -1  -7   6    1.38    1.05
   1   7  -6    1.11    0.89
  -1  -6   6  192.42    4.63
   1   6  -6  192.47    4.00
  -1  -5   6    2.74    0.88
   1   5  -6    3.87    0.83
   1   5  -6    2.58    0.57
  -1  -4   6   72.71    2.62
   1   4  -6   68.83    2.03
   1   4  -6   70.07    1.93
  -1  -3   6   29.50    1.81
   1   3  -6   32.58    1.32
   1   3  -6   31.80    1.46
  -1  -2   6   17.34    1.60
   1   2  -6   16.12    0.94
   1   2  -6   15.29    1.24
  -1  -1   6    1.45    0.81
   1   1  -6    1.93    0.76
  -1   0   6   76.60    2.88
   1   0  -6   73.54    2.57
  -1   1   6   52.14    2.65
   1  -1  -6   51.35    2.33
  -1   2   6    4.35    1.31
   1  -2  -6    5.62    1.22
  -1   3   6   34.87    2.84
   1  -3  -6   33.52    2.35
  -1   4   6    1.23    1.27
   1  -4  -6    0.39    1.07
  -1   5   6   32.47    3.03
   1  -5  -6   35.01    2.60
  -1   6   6    0.52    1.50
   1  -6  -6    1.04    1.29
  -1   7   6   21.12    2.90
   1  -7  -6   21.41    2.50
   0 -12   6    8.10    1.90
   0  12  -6    6.01    1.68
   0 -11   6   38.11    3.15
   0  11  -6   38.36    2.73
   0 -10   6   29.22    2.77
   0  10  -6   26.65    2.37
   0  -9   6   86.68    3.61
   0   9  -6   88.27    3.27
   0  -8   6    0.21    0.98
   0   8  -6    1.90    0.95
   0  -7   6   28.55    2.14
   0   7  -6   31.43    1.97
   0  -6   6   33.03    2.10
   0   6  -6   31.09    1.77
   0   6  -6   33.28    1.16
   0  -5   6    4.78    1.06
   0   5  -6    2.33    0.72
   0   5  -6    3.11    0.60
   0  -4   6  231.95    4.81
   0   4  -6  229.08    3.93
   0   4  -6  227.89    3.64
   0  -3   6  106.73    3.15
   0   3  -6  108.89    2.10
   0   3  -6  108.27    2.73
   0  -2   6  182.20    4.20
   0   2  -6  187.95    3.87
   0  -1   6   79.83    2.87
   0   1  -6   76.56    2.59
   0   0   6   11.58    1.55
   0   0  -6   11.02    1.32
   0   1   6   33.15    2.41
   0  -1  -6   33.62    2.07
   0   2   6  102.94    3.97
   0  -2  -6  101.64    3.40
   0   3   6   89.80    3.98
   0  -3  -6   81.67    3.26
   0   4   6   68.56    3.88
   0  -4  -6   63.75    3.10
   0   5   6    1.24    1.51
   0  -5  -6    1.30    1.32
   0   6   6    7.95    2.25
   0  -6  -6    6.63    1.69
   0   7   6    0.23    1.87
   1 -12   6    3.38    1.58
  -1  12  -6    3.09    1.42
   1 -11   6   23.48    2.61
  -1  11  -6   18.69    2.19
   1 -10   6    0.87    1.20
  -1  10  -6    0.75    1.02
   1  -9   6   23.69    2.29
  -1   9  -6   25.85    2.03
   1  -8   6    1.04    1.01
  -1   8  -6   -0.46    0.82
   1  -7   6   68.91    2.90
  -1   7  -6   67.65    1.67
  -1   7  -6   69.95    2.50
   1  -6   6    4.84    1.10
  -1   6  -6    5.62    0.96
  -1   6  -6    5.69    0.75
   1  -5   6   19.70    1.81
  -1   5  -6   18.69    1.29
  -1   5  -6   18.91    1.17
   1  -4   6    1.12    0.79
  -1   4  -6    0.54    0.53
  -1   4  -6    0.66    0.49
   1  -3   6    9.10    1.25
  -1   3  -6   10.62    1.13
  -1   3  -6   11.39    0.78
   1  -2   6   31.03    1.97
  -1   2  -6   24.16    1.57
   1  -1   6   26.30    1.96
  -1   1  -6   24.33    1.68
   1   0   6   69.95    3.00
  -1   0  -6   66.73    2.59
   1   1   6    6.56    1.56
  -1  -1  -6    7.91    1.33
   1   2   6    5.59    1.60
  -1  -2  -6    5.87    1.29
   1   3   6   17.64    2.37
  -1  -3  -6   20.69    2.11
   1   4   6   41.03    3.41
  -1  -4  -6   39.10    2.68
   1   5   6    6.77    1.94
  -1  -5  -6    9.33    1.78
   1   6   6   46.40    4.13
   2 -12   6    2.82    1.58
  -2  12  -6    0.17    1.31
   2 -11   6    9.43    1.88
  -2  11  -6    4.85    1.42
   2 -10   6   11.17    1.75
  -2  10  -6    8.75    1.55
   2  -9   6   69.90    3.23
  -2   9  -6   70.87    2.94
   2  -8   6   43.81    2.54
  -2   8  -6   48.65    2.32
   2  -7   6   43.81    2.42
  -2   7  -6   42.16    1.58
  -2   7  -6   47.33    2.16
   2  -6   6   27.75    2.03
  -2   6  -6   31.92    1.66
  -2   6  -6   29.57    1.46
   2  -5   6    0.40    0.86
  -2   5  -6    1.71    0.66
  -2   5  -6    0.51    0.57
   2  -4   6   32.57    2.03
  -2   4  -6   34.07    1.31
  -2   4  -6   34.40    1.72
   2  -3   6  145.96    3.92
  -2   3  -6  149.57    3.67
   2  -2   6   37.58    2.23
  -2   2  -6   37.20    2.02
   2  -1   6  103.18    3.50
  -2   1  -6  104.95    3.30
   2   0   6    4.79    1.32
  -2   0  -6    3.73    1.05
   2   1   6   -0.03    1.19
  -2  -1  -6    3.77    1.14
   2   2   6    0.74    1.27
  -2  -2  -6    1.08    1.02
   2   3   6    2.16    1.60
  -2  -3  -6    6.06    1.47
   2   4   6   39.52    3.54
  -2  -4  -6   45.51    2.93
   2   5   6    5.97    2.09
  -2  -5  -6    7.14    1.65
   2   6   6    9.48    2.51
   3 -12   6   48.98    3.41
  -3  12  -6   40.31    3.03
   3 -11   6    1.19    1.33
  -3  11  -6   -0.38    1.10
   3 -10   6    3.74    1.39
  -3  10  -6    2.27    1.18
   3  -9   6   15.09    1.87
  -3   9  -6   17.79    1.83
   3  -8   6   14.35    1.68
  -3   8  -6   13.06    1.12
  -3   8  -6   12.44    1.53
   3  -7   6   36.57    2.34
  -3   7  -6   36.45    1.98
  -3   7  -6   37.41    1.70
   3  -6   6  117.64    3.58
  -3   6  -6  113.96    2.90
  -3   6  -6  113.66    3.06
   3  -5   6   55.65    2.53
  -3   5  -6   50.70    2.13
  -3   5  -6   55.65    1.94
   3  -4   6    8.13    1.32
  -3   4  -6   11.25    1.36
  -3   4  -6   11.36    0.96
   3  -3   6    6.06    1.19
  -3   3  -6    8.14    1.30
   3  -2   6   36.99    2.39
  -3   2  -6   38.35    2.17
   3  -1   6   71.07    3.19
  -3   1  -6   80.93    3.08
   3   0   6   41.23    2.84
  -3   0  -6   38.51    2.44
   3   1   6  137.07    4.83
  -3  -1  -6  136.19    4.25
   3   2   6    0.55    1.42
  -3  -2  -6    1.17    1.13
   3   3   6   -2.19    1.32
  -3  -3  -6    3.04    1.31
   3   4   6   19.94    2.91
  -3  -4  -6   23.06    2.37
   3   5   6    0.91    1.94
  -3  -5  -6    2.15    1.36
   4 -12   6    7.97    1.88
  -4  12  -6    7.43    1.79
   4 -11   6    2.26    1.43
  -4  11  -6    3.15    1.37
   4 -10   6    6.80    1.57
  -4  10  -6    3.46    1.33
   4  -9   6    1.34    1.18
  -4   9  -6   -0.20    0.92
   4  -8   6   79.33    3.18
  -4   8  -6   77.04    2.87
   4  -7   6    3.68    1.20
   4  -7   6    1.70    1.18
  -4   7  -6    2.27    1.01
   4  -6   6   54.59    2.59
   4  -6   6   54.83    2.62
  -4   6  -6   55.17    2.16
   4  -5   6    2.58    1.11
  -4   5  -6    2.84    0.80
   4  -4   6   16.83    1.75
  -4   4  -6   17.00    1.21
  -4   4  -6   12.94    1.64
   4  -3   6    1.37    1.06
  -4   3  -6   -1.06    0.73
   4  -2   6   24.92    2.27
  -4   2  -6   22.81    2.06
   4  -1   6   11.94    1.82
  -4   1  -6   10.04    1.54
   4   0   6    3.87    1.46
  -4   0  -6    2.33    1.14
   4   1   6   18.07    2.44
  -4  -1  -6   12.46    1.89
   4   2   6   -1.52    1.34
  -4  -2  -6   -1.41    1.05
   4   3   6   16.81    2.56
  -4  -3  -6   19.18    2.24
   4   4   6    2.72    2.01
  -4  -4  -6    3.55    1.48
   5 -12   6   16.56    2.34
  -5  12  -6    8.43    1.84
   5 -11   6   94.47    3.91
  -5  11  -6   89.53    3.81
   5 -10   6   15.03    1.97
  -5  10  -6   15.69    1.89
   5  -9   6    1.78    1.24
   5  -9   6    1.94    1.16
  -5   9  -6    2.24    1.21
   5  -8   6   14.04    1.80
   5  -8   6   15.03    1.80
  -5   8  -6   10.89    1.52
   5  -7   6    6.53    1.49
   5  -7   6    7.08    1.39
  -5   7  -6    6.79    1.22
   5  -6   6   72.56    3.24
   5  -6   6   77.84    3.09
  -5   6  -6   74.96    2.60
   5  -5   6   66.51    3.13
   5  -5   6   66.08    3.03
  -5   5  -6   70.44    2.35
   5  -4   6  171.11    4.76
   5  -4   6  172.35    4.52
  -5   4  -6  163.84    3.24
   5  -3   6    1.45    1.19
  -5   3  -6    2.19    0.67
  -5   3  -6    1.98    1.17
   5  -2   6   -0.75    1.10
  -5   2  -6   -0.13    0.92
   5  -1   6   20.05    2.24
  -5   1  -6   21.07    2.25
   5   0   6   13.49    2.11
  -5   0  -6   16.50    2.05
   5   1   6   24.12    2.78
  -5  -1  -6   23.11    2.50
   5   2   6   45.01    3.66
  -5  -2  -6   50.32    3.18
   5   3   6   11.64    2.46
  -5  -3  -6   13.05    2.14
   6 -12   6    0.75    1.51
  -6  12  -6    0.30    1.42
   6 -11   6   17.74    2.22
  -6  11  -6   16.77    2.20
   6 -10   6    0.09    1.21
  -6  10  -6    1.89    1.21
   6  -9   6   59.68    3.08
   6  -9   6   65.50    3.06
  -6   9  -6   60.81    2.96
   6  -8   6    5.70    1.59
   6  -8   6    4.38    1.30
  -6   8  -6    3.23    1.24
   6  -7   6   21.33    2.00
   6  -7   6   22.48    2.38
  -6   7  -6   21.62    1.86
   6  -6   6    0.27    1.03
   6  -6   6   -0.75    1.24
  -6   6  -6    0.06    0.94
   6  -5   6    0.75    1.05
   6  -5   6   -0.44    1.28
  -6   5  -6    1.32    0.84
   6  -4   6   11.44    1.96
   6  -4   6   17.22    1.91
  -6   4  -6   12.15    1.23
   6  -3   6   27.88    2.35
  -6   3  -6   32.49    2.59
   6  -2   6   72.53    3.43
  -6   2  -6   64.41    3.25
   6  -1   6    0.87    1.41
  -6   1  -6    0.35    1.24
   6   0   6    3.11    1.69
  -6   0  -6    4.50    1.54
   6   1   6    6.59    2.02
  -6  -1  -6    9.21    1.91
   6   2   6    7.81    2.17
  -6  -2  -6    9.48    1.96
  -7  12  -6   -0.12    1.37
   7 -11   6   23.54    2.40
  -7  11  -6   23.24    2.57
   7 -10   6   34.40    2.66
   7 -10   6   32.82    2.95
  -7  10  -6   31.30    2.65
   7  -9   6   52.66    2.94
   7  -9   6   55.22    3.32
  -7   9  -6   54.85    3.04
   7  -8   6    0.03    1.11
   7  -8   6    1.28    1.40
  -7   8  -6    0.97    1.17
   7  -7   6   -0.38    1.29
   7  -7   6    3.59    1.30
  -7   7  -6    2.82    1.24
   7  -6   6   10.03    2.02
   7  -6   6    8.12    1.48
  -7   6  -6    9.24    1.36
   7  -5   6   45.74    3.29
  -7   5  -6   47.91    2.27
   7  -4   6   17.02    2.39
   7  -4   6   18.93    2.06
   7  -3   6   53.04    3.04
   7  -2   6    1.57    1.39
  -7   2  -6    4.42    1.51
   7  -1   6    1.45    1.56
  -7   1  -6    1.50    1.40
   7   0   6    2.63    1.55
  -7   0  -6    1.14    1.39
   7   1   6    1.42    1.89
  -7  -1  -6    2.57    1.54
  -8  11  -6    5.83    1.77
   8 -10   6   -0.19    1.51
  -8  10  -6    0.18    1.37
   8  -9   6    6.52    1.89
  -8   9  -6    5.32    1.52
   8  -8   6   59.67    3.73
  -8   8  -6   60.05    3.17
   8  -7   6   58.46    2.91
   8  -7   6   63.59    3.76
  -8   7  -6   59.01    2.95
   8  -6   6    3.81    1.78
   8  -6   6    4.33    1.34
  -8   6  -6    5.89    1.33
   8  -5   6   -2.14    1.45
   8  -5   6    0.29    1.16
   8  -4   6   12.19    1.83
   8  -4   6   11.34    2.30
   8  -3   6   15.46    2.01
   8  -2   6    9.75    2.03
  -8   2  -6    8.55    1.90
   8  -1   6   87.15    4.26
  -8   1  -6   80.90    4.22
   8   0   6    9.49    2.29
  -8   0  -6   10.22    2.03
   9 -10   6   17.61    2.59
  -9  10  -6   19.71    2.42
   9  -9   6    4.33    1.95
  -9   9  -6    2.29    1.47
   9  -8   6   23.95    3.01
  -9   8  -6   25.98    2.44
   9  -7   6   -0.34    1.59
  -9   7  -6    0.76    1.24
   9  -6   6   10.83    2.45
   9  -5   6    1.84    1.99
   9  -4   6   13.71    2.72
  -9   3  -6   10.50    2.16
   9  -2   6    1.64    2.12
  -9   2  -6    3.05    1.68
  10  -9   6    5.52    2.17
 -10   9  -6    3.57    1.73
  10  -8   6    8.44    2.30
 -10   8  -6    3.50    1.62
  10  -7   6   10.40    2.52
  10  -6   6   75.45    4.69
  10  -5   6    6.14    2.44
  10  -4   6    2.24    2.39
 -12   0   7   12.33    1.98
  12   0  -7   10.03    2.28
 -12   1   7    2.98    1.39
  12  -1  -7    3.34    1.86
 -12   2   7   65.77    3.47
  12  -2  -7   58.65    3.81
 -12   3   7    4.17    1.49
  12  -3  -7    2.32    2.09
 -11  -2   7    6.60    1.71
  11   2  -7    3.00    1.85
 -11  -1   7    9.49    1.85
  11   1  -7    9.54    2.13
 -11   0   7   21.58    2.30
  11   0  -7   20.65    2.61
 -11   1   7   41.75    2.83
  11  -1  -7   45.08    3.37
 -11   2   7   29.15    2.47
  11  -2  -7   25.07    2.86
 -11   3   7    2.58    1.24
  11  -3  -7    1.59    1.70
 -11   4   7    5.54    1.56
  11  -4  -7    4.26    2.08
  11  -5  -7    0.91    1.93
 -10  -3   7   99.27    4.18
  10   3  -7   99.07    4.11
 -10  -2   7    7.58    1.61
  10   2  -7   10.23    1.92
 -10  -1   7   11.47    1.79
  10   1  -7    9.25    1.89
 -10   0   7   22.63    2.27
  10   0  -7   21.86    2.59
 -10   1   7   14.45    1.88
  10  -1  -7   15.51    2.21
 -10   2   7   15.36    1.83
  10  -2  -7   16.46    2.42
 -10   3   7  107.23    3.93
  10  -3  -7  109.19    4.53
 -10   4   7   46.33    2.90
  10  -4  -7   38.42    3.40
 -10   5   7    9.96    1.68
  10  -5  -7    8.09    2.27
 -10   6   7    1.97    1.37
  10  -6  -7    2.11    1.98
   9   6  -7   22.67    2.84
   9   5  -7    5.66    2.01
   9   4  -7   28.71    2.90
   9   3  -7   14.25    2.02
  -9  -2   7   14.73    1.95
   9   2  -7   13.82    1.98
  -9  -1   7   20.24    2.05
   9   1  -7   21.67    2.20
  -9   0   7    6.23    1.33
   9   0  -7    5.92    1.65
  -9   1   7   34.93    2.30
   9  -1  -7   34.68    2.69
  -9   2   7    2.89    1.11
   9  -2  -7    0.16    1.36
  -9   3   7   33.05    2.35
   9  -3  -7   32.22    2.91
  -9   4   7    0.75    1.11
   9  -4  -7    2.98    1.64
  -9   5   7   52.67    2.88
   9  -5  -7   48.87    3.62
  -9   6   7   10.03    1.72
   9  -6  -7    9.37    2.34
  -9   7   7   24.58    2.34
   9  -7  -7   24.92    3.20
  -8  -7   7    2.92    1.42
   8   7  -7    5.23    1.82
  -8  -6   7    8.29    1.62
   8   6  -7    5.23    1.77
  -8  -5   7   28.20    2.42
   8   5  -7   24.50    2.74
  -8  -4   7   10.65    1.59
   8   4  -7   11.32    1.74
   8   4  -7    8.99    1.91
   8   3  -7   13.00    1.78
   8   3  -7   10.61    1.98
   8   2  -7  197.75    4.87
  -8  -1   7   52.35    2.63
   8   1  -7   53.44    2.85
  -8   0   7   19.90    1.96
   8   0  -7   20.45    2.21
  -8   1   7   18.19    1.80
   8  -1  -7   16.73    2.09
  -8   2   7    4.19    1.09
   8  -2  -7    3.25    1.42
  -8   3   7   31.02    2.18
   8  -3  -7   32.85    2.79
  -8   4   7   58.68    2.69
   8  -4  -7   57.87    3.55
  -8   5   7  122.89    3.84
   8  -5  -7  131.90    4.91
  -8   6   7   11.22    1.68
   8  -6  -7   10.32    2.24
  -8   7   7    9.08    1.70
   8  -7  -7    5.41    2.20
  -7  -8   7    3.22    1.53
   7   8  -7    1.07    1.55
  -7  -7   7   22.12    2.44
   7   7  -7   25.28    2.77
  -7  -6   7   16.45    2.01
   7   6  -7   21.28    2.51
  -7  -5   7   19.34    2.02
   7   5  -7   19.99    2.28
  -7  -4   7   25.69    2.14
   7   4  -7   22.81    2.38
   7   4  -7   22.42    1.99
  -7  -3   7    2.79    1.04
   7   3  -7    4.06    1.46
   7   3  -7    3.21    1.21
  -7  -2   7    9.72    1.26
   7   2  -7    8.49    1.50
   7   2  -7    8.99    1.72
  -7  -1   7    0.44    0.75
  -7  -1   7    0.24    0.68
   7   1  -7   -1.03    0.92
  -7   0   7  190.42    4.53
  -7   0   7  191.76    4.03
   7   0  -7  192.12    4.94
  -7   1   7   46.16    2.30
   7  -1  -7   40.05    2.57
  -7   2   7   68.43    2.63
   7  -2  -7   68.15    3.20
  -7   3   7   12.40    1.48
   7  -3  -7   12.14    2.01
  -7   4   7    1.34    0.88
   7  -4  -7    1.21    1.45
  -7   5   7    1.39    0.96
   7  -5  -7   -0.46    1.49
  -7   6   7   57.22    2.76
   7  -6  -7   45.30    3.51
  -7   7   7   65.59    3.04
   7  -7  -7   63.83    4.00
  -6  -9   7    6.83    1.67
   6   9  -7    6.64    1.89
  -6  -8   7    3.57    1.46
   6   8  -7    0.97    1.46
  -6  -7   7   99.70    4.23
   6   7  -7  101.35    4.06
  -6  -6   7    6.68    1.46
   6   6  -7   10.00    1.87
  -6  -5   7   23.37    2.17
   6   5  -7   23.54    2.32
   6   5  -7   24.76    3.09
  -6  -4   7   24.15    2.09
   6   4  -7   27.57    2.28
   6   4  -7   22.87    1.94
  -6  -3   7   -0.81    0.80
   6   3  -7   -0.56    0.89
   6   3  -7   -0.16    0.98
  -6  -2   7   21.05    1.73
   6   2  -7   19.08    1.99
   6   2  -7   22.44    1.88
  -6  -1   7   74.66    2.67
  -6  -1   7   74.20    2.50
   6   1  -7   73.85    2.90
  -6   0   7   90.55    2.71
  -6   0   7   98.03    3.04
   6   0  -7   96.37    3.33
  -6   1   7    9.07    1.15
  -6   1   7    7.82    1.16
   6  -1  -7    6.12    1.44
  -6   2   7   28.78    1.74
  -6   2   7   31.76    1.80
   6  -2  -7   28.84    2.31
  -6   3   7    6.71    1.16
  -6   3   7    6.48    1.09
   6  -3  -7    7.27    1.61
  -6   4   7   40.45    2.26
  -6   4   7   38.54    2.01
   6  -4  -7   35.68    2.70
  -6   5   7    3.35    1.06
  -6   5   7    3.15    1.17
   6  -5  -7    2.91    1.66
  -6   6   7   45.31    3.65
  -6   6   7   42.54    2.43
   6  -6  -7   45.27    3.42
   6  -7  -7    0.90    1.64
  -5  -9   7    1.16    1.27
   5   9  -7    1.22    1.39
  -5  -8   7    9.49    1.84
   5   8  -7    8.08    1.73
  -5  -7   7    1.31    1.26
   5   7  -7    1.15    1.21
  -5  -6   7    2.08    1.13
   5   6  -7    2.33    1.16
  -5  -5   7  169.29    4.61
   5   5  -7  169.45    3.64
   5   5  -7  175.10    4.55
  -5  -4   7   40.06    2.43
   5   4  -7   37.27    2.37
   5   4  -7   40.10    2.05
  -5  -3   7   78.04    2.85
   5   3  -7   74.52    2.59
   5   3  -7   76.75    2.91
  -5  -2   7  100.90    3.00
   5   2  -7  104.23    3.31
   5   2  -7  100.99    3.05
  -5  -1   7    1.04    0.76
  -5  -1   7    0.62    0.63
   5   1  -7    0.43    0.90
  -5   0   7    1.79    0.84
  -5   0   7    1.72    0.74
   5   0  -7    0.96    1.03
  -5   1   7  167.43    3.51
  -5   1   7  169.04    4.01
   5  -1  -7  175.24    4.50
  -5   2   7  141.37    3.21
  -5   2   7  140.27    3.70
   5  -2  -7  136.73    4.15
  -5   3   7   59.94    2.69
  -5   3   7   61.54    2.15
   5  -3  -7   59.33    3.06
  -5   4   7    1.09    0.94
  -5   4   7    0.48    0.75
   5  -4  -7   -0.89    1.16
  -5   5   7   29.89    2.46
  -5   5   7   31.79    1.96
   5  -5  -7   30.88    2.95
  -5   6   7    5.06    1.53
   5  -6  -7    2.00    1.67
  -5   7   7    8.09    1.97
   5  -7  -7    7.91    2.02
  -4 -10   7    7.47    1.78
   4  10  -7    9.03    1.94
  -4  -9   7    2.33    1.33
   4   9  -7    2.78    1.37
  -4  -8   7   15.66    2.17
   4   8  -7   15.02    2.00
  -4  -7   7    2.29    1.20
   4   7  -7   -0.35    1.01
  -4  -6   7   22.09    2.13
   4   6  -7   19.41    1.95
  -4  -5   7    4.85    1.24
   4   5  -7    5.54    1.29
   4   5  -7    9.43    1.15
  -4  -4   7    7.63    1.34
   4   4  -7    5.41    1.08
   4   4  -7    6.24    1.25
  -4  -3   7   32.20    2.03
   4   3  -7   33.29    1.82
   4   3  -7   33.52    1.93
  -4  -2   7    9.88    1.30
   4   2  -7    5.98    1.07
   4   2  -7    6.37    1.15
  -4  -1   7   58.38    2.40
  -4  -1   7   60.99    2.06
   4   1  -7   60.25    2.51
  -4   0   7    8.78    1.24
  -4   0   7    7.09    0.90
   4   0  -7    7.69    1.34
  -4   1   7   32.56    1.44
  -4   1   7   30.76    1.99
   4  -1  -7   34.41    2.17
  -4   2   7    7.90    0.92
  -4   2   7    8.64    1.41
   4  -2  -7    6.62    1.39
  -4   3   7   61.76    2.88
  -4   3   7   64.12    2.03
   4  -3  -7   62.04    3.05
  -4   4   7   14.30    1.25
  -4   4   7   15.21    1.89
   4  -4  -7   14.63    2.02
  -4   5   7   44.76    3.03
   4  -5  -7   46.70    3.16
  -4   6   7    4.16    1.65
   4  -6  -7    4.67    1.75
  -4   7   7    2.85    1.60
   4  -7  -7   -1.08    1.56
  -3 -11   7    6.58    1.92
   3  11  -7    6.38    1.83
  -3 -10   7   65.13    3.68
   3  10  -7   67.12    3.46
  -3  -9   7   10.29    1.88
   3   9  -7   10.38    1.77
  -3  -8   7   16.88    2.24
   3   8  -7   15.77    1.86
  -3  -7   7   50.02    2.86
   3   7  -7   52.89    2.62
  -3  -6   7    1.05    1.01
   3   6  -7   -0.26    0.84
  -3  -5   7    8.06    1.38
   3   5  -7   11.04    1.45
   3   5  -7    9.40    1.08
  -3  -4   7  223.43    4.92
   3   4  -7  214.68    4.32
   3   4  -7  223.36    4.07
  -3  -3   7   72.17    2.69
   3   3  -7   70.11    2.35
   3   3  -7   68.09    2.27
  -3  -2   7   87.66    2.87
   3   2  -7   97.37    2.82
   3   2  -7   90.70    2.54
  -3  -1   7   15.32    1.04
  -3  -1   7   17.73    1.66
   3   1  -7   16.73    1.62
  -3   0   7   33.89    2.15
  -3   0   7   37.65    1.37
   3   0  -7   34.84    2.06
  -3   1   7    1.24    0.48
  -3   1   7    1.82    0.95
   3  -1  -7   -0.51    0.89
  -3   2   7    9.98    1.55
  -3   2   7    9.92    0.87
   3  -2  -7    8.90    1.55
  -3   3   7  158.85    4.70
  -3   3   7  161.73    2.91
   3  -3  -7  161.45    4.71
  -3   4   7   14.51    1.93
   3  -4  -7   15.12    2.05
  -3   5   7   24.61    2.53
   3  -5  -7   21.55    2.45
  -3   6   7   19.13    2.59
   3  -6  -7   17.01    2.42
  -3   7   7    2.19    1.84
   3  -7  -7    2.25    1.76
  -2 -11   7    0.33    1.36
   2  11  -7    1.27    1.40
  -2 -10   7    1.55    1.39
   2  10  -7    2.25    1.40
  -2  -9   7   12.99    2.03
   2   9  -7    9.31    1.59
  -2  -8   7   26.22    2.44
   2   8  -7   27.12    2.19
  -2  -7   7   34.87    2.50
   2   7  -7   34.23    2.20
  -2  -6   7   36.54    2.40
   2   6  -7   34.45    2.00
   2   6  -7   32.38    1.41
  -2  -5   7   21.58    1.96
   2   5  -7   18.76    1.55
   2   5  -7   19.57    1.29
  -2  -4   7    0.74    0.85
   2   4  -7    0.35    0.67
   2   4  -7    1.48    0.72
  -2  -3   7   23.23    1.79
   2   3  -7   27.27    1.44
   2   3  -7   24.80    1.51
  -2  -2   7  154.46    3.89
   2   2  -7  149.26    2.93
   2   2  -7  151.23    3.58
  -2  -1   7   39.00    1.24
  -2  -1   7   36.88    2.17
   2   1  -7   36.76    1.98
   2   0  -7  148.06    3.97
  -2   1   7    7.11    1.42
   2  -1  -7    6.55    1.35
  -2   2   7    1.16    1.08
   2  -2  -7    0.46    1.04
  -2   3   7   25.68    2.60
   2  -3  -7   22.37    2.20
  -2   4   7    6.63    1.64
   2  -4  -7    7.22    1.57
  -2   5   7   69.83    4.01
   2  -5  -7   65.72    3.53
  -2   6   7   24.57    2.95
   2  -6  -7   25.85    2.67
  -2   7   7   17.38    2.84
   2  -7  -7   11.27    2.20
  -1 -11   7    4.19    1.69
   1  11  -7    4.46    1.57
  -1 -10   7    0.83    1.26
   1  10  -7    2.43    1.17
  -1  -9   7   85.75    3.78
   1   9  -7   85.28    3.24
  -1  -8   7   10.23    1.63
   1   8  -7   10.46    1.47
  -1  -7   7   49.75    2.80
   1   7  -7   51.64    2.35
  -1  -6   7    8.49    1.45
   1   6  -7   10.08    0.94
   1   6  -7   10.32    1.26
  -1  -5   7    0.16    0.84
   1   5  -7    1.02    0.61
   1   5  -7    0.77    0.67
  -1  -4   7    1.93    0.91
   1   4  -7    1.90    0.67
   1   4  -7    1.42    0.61
  -1  -3   7   19.00    1.77
   1   3  -7   16.50    1.08
   1   3  -7   15.26    1.31
  -1  -2   7   65.98    2.71
   1   2  -7   68.00    2.43
  -1  -1   7   10.15    1.45
   1   1  -7    9.94    1.33
  -1   0   7   46.50    2.60
   1   0  -7   52.35    2.40
  -1   1   7   15.66    1.91
   1  -1  -7   16.14    1.78
  -1   2   7   29.35    2.63
   1  -2  -7   29.63    2.27
  -1   3   7    0.36    1.28
   1  -3  -7   -0.47    1.08
  -1   4   7   44.20    3.30
   1  -4  -7   38.47    2.84
  -1   5   7    1.37    1.53
   1  -5  -7    2.02    1.45
  -1   6   7   11.70    2.44
   1  -6  -7   12.67    2.08
   0 -12   7   35.32    3.42
   0  12  -7   32.75    2.89
   0 -11   7    6.22    1.76
   0  11  -7    9.77    1.78
   0 -10   7    6.47    1.65
   0  10  -7    6.67    1.42
   0  -9   7    5.01    1.49
   0   9  -7    2.79    1.14
   0  -8   7    5.89    1.41
   0   8  -7    8.02    1.33
   0  -7   7  136.04    4.12
   0   7  -7  133.11    3.45
   0   7  -7  139.32    2.55
   0  -6   7   65.50    2.86
   0   6  -7   65.01    2.27
   0   6  -7   64.55    1.89
   0  -5   7  171.76    4.38
   0   5  -7  171.98    3.37
   0   5  -7  168.69    3.37
   0  -4   7   37.09    2.16
   0   4  -7   36.06    1.41
   0   4  -7   37.08    1.68
   0  -3   7    6.90    1.25
   0   3  -7    6.76    1.09
   0   3  -7    6.57    0.68
   0  -2   7   44.44    2.36
   0   2  -7   43.69    2.05
   0  -1   7   60.77    2.87
   0   1  -7   60.57    2.50
   0   0   7   99.35    3.65
   0   0  -7   95.64    3.27
   0   1   7  121.42    4.29
   0  -1  -7  115.84    3.83
   0   2   7    5.17    1.56
   0  -2  -7    7.98    1.53
   0   3   7   24.48    2.74
   0  -3  -7   26.63    2.34
   0   4   7    1.52    1.43
   0  -4  -7    4.36    1.53
   0   5   7    0.33    1.56
   0  -5  -7   -1.21    1.25
   0   6   7   35.17    3.62
   0  -6  -7   49.41    3.33
   1 -12   7   17.47    2.51
  -1  12  -7   15.63    2.13
   1 -11   7   -0.57    1.29
  -1  11  -7    1.51    1.25
   1 -10   7   30.27    2.81
  -1  10  -7   29.95    2.47
   1  -9   7    1.57    1.26
  -1   9  -7    1.26    1.08
   1  -8   7   15.97    1.91
  -1   8  -7   16.47    1.71
   1  -7   7    3.79    1.19
  -1   7  -7    5.25    1.07
  -1   7  -7    5.07    0.76
   1  -6   7    1.76    1.02
  -1   6  -7    1.41    0.73
  -1   6  -7    1.15    0.60
   1  -5   7   50.34    2.60
  -1   5  -7   50.89    1.87
  -1   5  -7   50.94    1.98
   1  -4   7   18.93    1.80
  -1   4  -7   17.56    1.41
  -1   4  -7   17.39    1.05
   1  -3   7  118.21    3.71
  -1   3  -7  124.49    3.36
   1  -2   7    2.31    1.00
  -1   2  -7    4.47    1.02
   1  -1   7   12.12    1.68
  -1   1  -7   16.95    1.69
   1   0   7   26.96    2.42
  -1   0  -7   28.55    2.11
   1   1   7   31.47    2.79
  -1  -1  -7   33.93    2.38
   1   2   7    7.93    1.87
  -1  -2  -7    9.05    1.60
   1   3   7   60.93    3.85
  -1  -3  -7   60.75    3.18
   1   4   7    4.76    1.85
  -1  -4  -7    4.99    1.53
   1   5   7    0.36    1.75
  -1  -5  -7    5.01    1.60
   2 -12   7   54.99    3.71
  -2  12  -7   45.99    3.20
   2 -11   7   39.67    3.14
  -2  11  -7   28.32    2.54
   2 -10   7   65.38    3.45
  -2  10  -7   59.24    2.99
   2  -9   7   12.70    1.77
  -2   9  -7   12.24    1.65
   2  -8   7   -0.05    1.08
  -2   8  -7   -0.13    0.85
  -2   8  -7    1.15    0.56
   2  -7   7   29.82    2.32
  -2   7  -7   28.70    1.55
  -2   7  -7   25.11    1.84
   2  -6   7  131.80    4.00
  -2   6  -7  138.49    3.33
  -2   6  -7  132.83    3.13
   2  -5   7   73.64    3.03
  -2   5  -7   80.40    2.17
  -2   5  -7   77.95    2.64
   2  -4   7  136.23    4.02
  -2   4  -7  134.38    2.48
  -2   4  -7  132.68    3.59
   2  -3   7    4.35    1.17
  -2   3  -7    3.70    1.02
   2  -2   7    6.09    1.37
  -2   2  -7    5.40    1.18
   2  -1   7    1.94    1.19
  -2   1  -7    0.58    0.89
   2   0   7    1.94    1.37
  -2   0  -7    0.72    0.97
   2   1   7   75.60    3.81
  -2  -1  -7   76.88    3.33
   2   2   7   12.28    2.31
  -2  -2  -7   13.94    1.94
   2   3   7   42.88    3.53
  -2  -3  -7   45.27    3.02
   2   4   7    1.95    1.78
  -2  -4  -7    5.43    1.61
   2   5   7    2.09    2.00
  -2  -5  -7    7.42    1.85
   3 -12   7    2.12    1.60
  -3  12  -7    0.60    1.36
   3 -11   7    4.90    1.65
  -3  11  -7    2.06    1.27
   3 -10   7   15.78    2.12
  -3  10  -7   17.54    2.05
   3  -9   7   54.82    3.04
  -3   9  -7   56.72    2.73
   3  -8   7  106.82    3.82
  -3   8  -7  109.01    3.26
  -3   8  -7  108.59    2.92
   3  -7   7    0.18    1.07
  -3   7  -7    0.50    0.81
  -3   7  -7    0.90    0.77
   3  -6   7    0.39    0.95
  -3   6  -7    0.58    0.78
  -3   6  -7   -0.42    0.72
   3  -5   7   40.14    2.49
  -3   5  -7   41.58    2.20
  -3   5  -7   39.58    1.68
   3  -4   7   71.41    3.14
  -3   4  -7   79.22    2.97
   3  -3   7   43.23    2.61
  -3   3  -7   39.85    2.37
   3  -2   7  191.56    5.22
  -3   2  -7  195.71    4.95
   3  -1   7    7.47    1.61
  -3   1  -7    9.46    1.67
   3   0   7    3.05    1.53
  -3   0  -7   -0.03    1.03
   3   1   7    6.22    1.82
  -3  -1  -7   10.26    1.79
   3   2   7   -3.18    1.49
  -3  -2  -7    0.38    1.12
   3   3   7   26.55    3.02
  -3  -3  -7   33.88    2.88
   3   4   7   24.96    3.18
  -3  -4  -7   33.66    2.93
   4 -12   7    3.09    1.71
  -4  12  -7    1.79    1.42
   4 -11   7   50.44    3.30
  -4  11  -7   38.62    2.86
   4 -10   7   12.97    2.00
  -4  10  -7   13.69    1.80
   4  -9   7   60.58    3.23
  -4   9  -7   62.04    2.99
  -4   9  -7   61.28    2.84
   4  -8   7   -0.85    1.12
  -4   8  -7    1.12    0.81
  -4   8  -7   -0.19    0.88
   4  -7   7    9.81    1.58
  -4   7  -7   12.69    1.42
  -4   7  -7   10.85    1.41
   4  -6   7    3.19    1.23
  -4   6  -7    2.40    0.86
  -4   6  -7    1.60    0.98
   4  -5   7   13.66    1.85
  -4   5  -7   11.68    1.61
  -4   5  -7   13.22    1.19
   4  -4   7   46.61    2.76
  -4   4  -7   43.86    2.57
   4  -3   7    8.14    1.56
  -4   3  -7    9.17    1.61
   4  -2   7   54.65    3.05
  -4   2  -7   51.94    2.89
   4  -1   7    0.40    1.28
  -4   1  -7    0.04    0.97
   4   0   7   44.91    3.31
  -4   0  -7   46.46    2.93
   4   1   7    1.27    1.69
  -4  -1  -7    2.09    1.46
   4   2   7   24.10    2.90
  -4  -2  -7   26.41    2.66
   4   3   7    0.69    1.76
  -4  -3  -7    2.75    1.60
   5 -12   7   -0.19    1.42
  -5  12  -7   -0.72    1.34
   5 -11   7    1.95    1.49
  -5  11  -7    2.57    1.34
   5 -10   7    9.45    1.82
  -5  10  -7    8.25    1.62
   5  -9   7   39.54    2.76
  -5   9  -7   37.59    2.41
  -5   9  -7   38.49    2.24
   5  -8   7   35.23    2.60
  -5   8  -7   31.82    2.20
   5  -7   7  174.35    4.66
  -5   7  -7  164.83    3.91
  -5   7  -7  161.13    4.48
   5  -6   7    3.65    1.35
  -5   6  -7    2.65    1.20
  -5   6  -7    3.06    0.98
   5  -5   7    3.95    1.33
  -5   5  -7    3.29    0.89
  -5   5  -7    1.10    1.02
   5  -4   7   24.74    2.27
  -5   4  -7   23.43    2.34
   5  -3   7    9.30    1.73
  -5   3  -7    7.62    1.66
   5  -2   7   43.27    2.98
  -5   2  -7   45.05    2.91
   5  -1   7   99.20    4.19
  -5   1  -7   94.38    4.06
   5   0   7   39.78    3.38
  -5   0  -7   42.69    3.07
   5   1   7    3.47    1.88
  -5  -1  -7    3.74    1.56
   5   2   7   -0.28    1.68
  -5  -2  -7   -0.47    1.34
   6 -12   7   19.93    2.56
  -6  12  -7   18.41    2.40
   6 -11   7    3.17    1.63
  -6  11  -7    4.01    1.60
   6 -10   7    6.87    1.71
  -6  10  -7    5.52    1.49
   6  -9   7    2.90    1.54
   6  -9   7    1.82    1.37
  -6   9  -7    1.72    1.16
   6  -8   7    1.06    1.17
   6  -8   7    0.47    1.41
  -6   8  -7    0.59    1.04
   6  -7   7   15.08    1.98
   6  -7   7   13.99    2.25
  -6   7  -7   13.82    1.54
   6  -6   7    9.62    1.67
  -6   6  -7    8.55    1.24
   6  -5   7   85.70    3.64
  -6   5  -7   82.73    3.68
   6  -4   7    6.23    1.56
  -6   4  -7    3.50    1.43
   6  -3   7   30.37    2.62
  -6   3  -7   25.01    2.55
   6  -2   7    8.29    1.78
  -6   2  -7   10.48    1.99
   6  -1   7    6.90    1.82
  -6   1  -7    7.01    1.77
   6   0   7    3.00    1.80
  -6   0  -7    4.30    1.62
   6   1   7   50.64    3.99
  -6  -1  -7   52.45    3.59
   7 -12   7   39.45    3.57
  -7  12  -7   37.85    3.16
   7 -11   7    0.40    1.45
  -7  11  -7   -1.06    1.26
   7 -10   7   -0.79    1.32
   7 -10   7   -1.96    1.43
  -7  10  -7    0.40    1.28
   7  -9   7   11.78    2.13
   7  -9   7   16.43    2.03
  -7   9  -7   12.70    1.78
   7  -8   7   18.08    2.52
   7  -8   7   13.82    1.97
  -7   8  -7   11.19    1.63
   7  -7   7   25.74    2.39
   7  -7   7   15.34    2.38
  -7   7  -7   17.70    1.81
   7  -6   7   69.64    3.49
   7  -6   7   70.73    4.02
   7  -5   7   15.95    2.05
  -7   5  -7   11.36    1.91
   7  -4   7    1.53    1.40
  -7   4  -7    2.44    1.33
   7  -3   7    0.99    1.33
  -7   3  -7   -0.55    1.20
   7  -2   7   -1.04    1.35
  -7   2  -7   -0.13    1.20
   7  -1   7   23.87    2.75
  -7   1  -7   24.40    2.79
   7   0   7    9.08    2.13
  -7   0  -7    8.74    2.07
  -8  11  -7   12.08    2.14
   8 -10   7   44.48    3.47
  -8  10  -7   56.27    3.19
   8  -9   7    4.14    1.94
  -8   9  -7    4.04    1.47
   8  -8   7    1.39    1.81
   8  -8   7   -0.08    1.24
  -8   8  -7    2.21    1.23
   8  -7   7   19.88    2.86
   8  -7   7   15.38    1.92
   8  -6   7    2.26    1.97
   8  -6   7    6.96    1.61
   8  -5   7    0.96    1.41
   8  -4   7   68.67    3.51
  -8   4  -7   70.23    3.86
   8  -3   7   11.43    2.16
  -8   3  -7   16.27    2.31
   8  -2   7    9.24    2.07
  -8   2  -7    8.48    2.04
   8  -1   7    4.63    1.86
  -8   1  -7    6.58    2.01
   9 -10   7    2.70    1.99
  -9  10  -7    1.94    1.48
   9  -9   7    0.13    1.87
  -9   9  -7    4.99    1.57
   9  -8   7    0.86    1.93
   9  -7   7   -0.14    1.95
   9  -6   7   11.75    2.75
  -9   5  -7    1.90    1.50
  -9   4  -7   11.69    2.16
  -9   3  -7   -0.49    1.43
 -11  -2   8   34.40    2.87
  11   2  -8   34.35    3.17
 -11  -1   8   35.22    2.86
  11   1  -8   37.45    3.19
 -11   0   8    2.52    1.26
  11   0  -8    1.05    1.67
 -11   1   8    4.00    1.40
  11  -1  -8    2.26    1.73
 -11   2   8    4.21    1.32
  11  -2  -8    1.77    1.86
 -11   3   8   27.38    2.58
  11  -3  -8   28.28    3.33
 -11   4   8   15.47    2.11
  11  -4  -8   19.86    3.11
 -10  -3   8   18.34    2.32
  10   3  -8   18.22    2.39
 -10  -2   8   -1.30    0.93
  10   2  -8   -0.80    1.39
 -10  -1   8    6.21    1.47
  10   1  -8    5.76    1.75
 -10   0   8   66.96    3.35
  10   0  -8   69.15    3.73
 -10   1   8   92.15    3.71
  10  -1  -8   90.20    4.16
 -10   2   8   12.76    1.79
  10  -2  -8   12.89    2.23
 -10   3   8   -0.51    1.02
  10  -3  -8    2.68    1.81
 -10   4   8   23.82    2.36
  10  -4  -8   22.44    2.92
 -10   5   8    9.77    1.76
  10  -5  -8   14.33    2.82
   9   5  -8    2.27    1.77
   9   4  -8    8.11    2.01
  -9  -3   8   -0.24    0.96
   9   3  -8   -2.44    1.10
  -9  -2   8   20.79    2.21
   9   2  -8   24.85    2.39
  -9  -1   8    0.80    1.06
   9   1  -8    0.93    1.34
  -9   0   8   35.90    2.44
   9   0  -8   33.36    2.83
  -9   1   8    0.61    0.89
   9  -1  -8   -1.30    1.27
  -9   2   8   24.06    2.17
   9  -2  -8   26.99    2.77
  -9   3   8    8.46    1.48
   9  -3  -8    6.00    1.88
  -9   4   8   17.63    1.97
   9  -4  -8   20.22    2.72
  -9   5   8    4.11    1.30
   9  -5  -8    2.46    1.97
  -9   6   8    0.87    1.26
   9  -6  -8    2.94    1.98
  -8  -7   8    0.75    1.35
   8   7  -8    1.49    1.69
  -8  -6   8    1.10    1.33
   8   6  -8    0.86    1.46
  -8  -5   8   75.76    3.75
   8   5  -8   75.94    3.90
   8   4  -8   41.81    2.62
   8   4  -8   40.87    3.07
   8   3  -8   18.36    1.99
   8   3  -8   14.17    2.07
  -8  -2   8    6.74    1.38
   8   2  -8    5.79    1.55
  -8  -1   8   30.27    2.14
   8   1  -8   34.22    2.60
  -8   0   8    6.78    1.32
   8   0  -8    7.09    1.57
  -8   1   8   21.71    1.99
   8  -1  -8   22.77    2.50
  -8   2   8  148.08    4.11
   8  -2  -8  151.90    4.96
  -8   3   8   11.42    1.55
   8  -3  -8   10.69    2.10
  -8   4   8   11.50    1.58
   8  -4  -8   12.17    2.20
  -8   5   8   14.91    1.74
   8  -5  -8   15.19    2.53
  -8   6   8    2.10    1.43
   8  -6  -8   -0.01    1.73
  -7  -8   8    7.98    1.91
   7   8  -8    7.25    2.03
  -7  -7   8    7.23    1.80
   7   7  -8    7.46    1.85
  -7  -6   8    5.06    1.48
   7   6  -8    3.80    1.61
  -7  -5   8    5.65    1.49
   7   5  -8    3.97    1.53
  -7  -4   8   -0.36    1.00
   7   4  -8    0.00    1.26
   7   4  -8    1.60    1.08
  -7  -3   8   67.82    2.83
   7   3  -8   65.45    3.30
   7   3  -8   66.01    2.92
  -7  -2   8   11.97    1.64
  -7  -2   8   12.88    1.51
   7   2  -8   15.09    1.82
  -7  -1   8   45.49    2.21
  -7  -1   8   40.80    2.27
   7   1  -8   47.23    2.72
  -7   0   8    8.21    1.66
  -7   0   8    7.10    1.27
   7   0  -8    9.85    1.67
  -7   1   8    1.82    0.88
   7  -1  -8    0.63    1.23
  -7   2   8    1.58    0.80
   7  -2  -8   -1.21    1.16
  -7   3   8   17.85    1.69
   7  -3  -8   16.56    2.29
  -7   4   8   80.23    2.91
   7  -4  -8   81.95    4.03
  -7   5   8   19.74    1.81
   7  -5  -8   17.84    2.67
   7  -6  -8   15.46    2.58
  -6  -9   8    8.81    2.05
   6   9  -8    6.31    1.87
  -6  -8   8    8.18    1.83
   6   8  -8    9.24    1.94
  -6  -7   8    5.81    1.65
   6   7  -8    6.24    1.75
  -6  -6   8    2.20    1.29
   6   6  -8    3.15    1.34
  -6  -5   8    2.12    1.24
   6   5  -8    0.68    1.15
   6   5  -8    2.08    1.18
  -6  -4   8   15.25    1.82
   6   4  -8   19.88    2.09
   6   4  -8   18.32    1.78
  -6  -3   8   62.25    2.73
   6   3  -8   64.73    3.05
   6   3  -8   64.43    2.76
  -6  -2   8    5.99    1.19
   6   2  -8    6.55    1.35
  -6  -1   8   19.97    1.77
  -6  -1   8   17.33    1.63
   6   1  -8   19.15    1.96
  -6   0   8   27.77    1.89
  -6   0   8   29.36    1.85
   6   0  -8   26.17    2.31
  -6   1   8   10.91    1.25
  -6   1   8   11.33    1.37
   6  -1  -8    9.69    1.69
  -6   2   8    1.04    0.70
  -6   2   8    1.37    0.84
   6  -2  -8    0.85    1.30
  -6   3   8   61.43    2.31
  -6   3   8   55.40    2.65
   6  -3  -8   57.13    3.32
  -6   4   8    6.36    1.13
  -6   4   8    7.54    1.41
   6  -4  -8    5.27    1.77
  -6   5   8    6.86    1.94
   6  -5  -8    9.52    2.07
   6  -6  -8   -0.72    1.73
  -5  -9   8    0.10    1.34
   5   9  -8    1.81    1.48
  -5  -8   8   69.90    3.76
   5   8  -8   75.02    3.56
  -5  -7   8   20.30    2.38
   5   7  -8   23.70    2.30
  -5  -6   8   39.29    2.88
   5   6  -8   41.30    2.72
  -5  -5   8   33.43    2.51
   5   5  -8   35.93    2.42
   5   5  -8   36.76    2.04
  -5  -4   8    6.83    1.39
   5   4  -8    5.25    1.17
   5   4  -8    8.85    1.50
  -5  -3   8    8.10    1.41
   5   3  -8    9.07    1.45
   5   3  -8    9.05    1.34
  -5  -2   8   48.19    2.38
   5   2  -8   44.94    2.35
  -5  -1   8  140.01    3.45
  -5  -1   8  140.75    3.87
   5   1  -8  134.38    3.95
  -5   0   8   79.65    2.46
  -5   0   8   72.41    2.88
   5   0  -8   81.43    3.15
  -5   1   8    4.49    0.87
  -5   1   8    3.85    1.12
   5  -1  -8    6.46    1.44
  -5   2   8   64.29    2.88
  -5   2   8   69.66    2.20
   5  -2  -8   66.72    3.21
  -5   3   8    1.01    0.70
  -5   3   8    1.74    1.08
   5  -3  -8    3.29    1.39
  -5   4   8    0.56    1.09
   5  -4  -8   -0.07    1.40
  -5   5   8  103.22    4.12
   5  -5  -8   96.54    4.43
  -5   6   8   21.98    2.53
   5  -6  -8   25.99    2.94
  -4 -10   8    2.92    1.55
   4  10  -8    0.63    1.41
  -4  -9   8   10.80    1.96
   4   9  -8   13.77    2.04
  -4  -8   8   10.01    1.85
   4   8  -8   10.59    1.80
  -4  -7   8    0.01    1.12
   4   7  -8   -0.83    0.99
  -4  -6   8   21.34    2.17
   4   6  -8   22.72    2.09
  -4  -5   8    1.29    1.09
   4   5  -8    0.84    0.90
   4   5  -8   -0.45    0.75
  -4  -4   8   30.92    2.29
   4   4  -8   33.46    1.90
   4   4  -8   31.85    2.08
  -4  -3   8    0.63    0.88
   4   3  -8    0.14    0.85
   4   3  -8    1.20    0.85
  -4  -2   8   35.20    2.16
   4   2  -8   39.54    2.14
   4   2  -8   36.01    2.17
  -4  -1   8    4.27    1.09
  -4  -1   8    5.52    0.88
   4   1  -8    6.01    1.26
  -4   0   8   28.77    1.42
  -4   0   8   25.83    2.00
   4   0  -8   30.54    2.28
  -4   1   8   15.75    1.84
  -4   1   8   14.53    1.13
   4  -1  -8   16.04    1.93
  -4   2   8   34.39    1.50
  -4   2   8   35.29    2.49
   4  -2  -8   34.58    2.56
  -4   3   8    6.37    1.47
   4  -3  -8    5.58    1.55
  -4   4   8    0.82    1.21
   4  -4  -8    2.85    1.57
  -4   5   8    1.38    1.42
   4  -5  -8    0.37    1.58
  -4   6   8   -0.92    1.45
   4  -6  -8   -1.19    1.68
  -3 -11   8   22.84    2.84
   3  11  -8   18.37    2.43
  -3 -10   8   15.99    2.38
   3  10  -8   16.39    2.21
  -3  -9   8    0.57    1.38
   3   9  -8    2.06    1.26
  -3  -8   8    5.31    1.60
   3   8  -8    6.55    1.47
  -3  -7   8   87.24    3.67
   3   7  -8   78.65    3.14
  -3  -6   8   79.06    3.42
   3   6  -8   86.25    3.11
   3   6  -8   89.50    2.43
  -3  -5   8   87.48    3.44
   3   5  -8   86.36    2.59
   3   5  -8   83.11    2.92
  -3  -4   8    1.71    1.02
   3   4  -8    1.42    0.85
   3   4  -8    0.20    0.82
  -3  -3   8   64.55    2.79
   3   3  -8   59.17    2.16
   3   3  -8   57.99    2.37
  -3  -2   8    0.41    0.86
   3   2  -8    0.66    0.91
  -3  -1   8    2.77    0.64
  -3  -1   8    0.82    0.90
   3   1  -8    1.27    0.94
  -3   0   8  170.60    4.63
  -3   0   8  176.73    2.95
   3   0  -8  171.91    4.52
  -3   1   8   20.75    2.06
   3  -1  -8   19.64    2.00
  -3   2   8   50.40    2.95
   3  -2  -8   49.02    2.93
  -3   3   8   16.79    2.12
   3  -3  -8   14.99    2.03
  -3   4   8   -0.86    1.20
   3  -4  -8    2.59    1.52
  -3   5   8    1.26    1.57
   3  -5  -8    2.39    1.64
  -3   6   8   21.19    2.78
   3  -6  -8   14.73    2.51
  -2 -11   8    8.97    1.95
   2  11  -8    9.53    1.76
  -2 -10   8   18.86    2.49
   2  10  -8   16.00    2.11
  -2  -9   8   42.35    3.10
   2   9  -8   45.49    2.77
  -2  -8   8    1.51    1.20
   2   8  -8   -0.29    1.00
  -2  -7   8    2.06    1.18
   2   7  -8    3.06    1.08
  -2  -6   8   19.16    2.10
   2   6  -8   16.78    1.34
   2   6  -8   17.74    1.68
  -2  -5   8   82.48    3.32
   2   5  -8   84.93    2.54
   2   5  -8   80.75    2.65
  -2  -4   8   50.68    2.67
   2   4  -8   48.65    1.94
   2   4  -8   48.90    2.05
  -2  -3   8  154.66    4.20
   2   3  -8  165.39    3.22
   2   3  -8  158.54    3.79
  -2  -2   8    0.39    0.92
   2   2  -8    1.07    0.89
  -2  -1   8    6.37    1.32
   2   1  -8    7.97    1.35
  -2   0   8   10.06    1.64
   2   0  -8    7.43    1.44
  -2   1   8    4.04    1.30
   2  -1  -8    2.26    1.18
  -2   2   8   99.74    4.05
   2  -2  -8   94.69    3.71
  -2   3   8   39.96    3.19
   2  -3  -8   46.25    2.95
  -2   4   8   45.03    3.46
   2  -4  -8   45.14    3.18
  -2   5   8    3.36    1.83
   2  -5  -8    2.93    1.71
  -2   6   8    1.70    1.94
   2  -6  -8    0.88    1.64
  -1 -11   8   25.99    2.95
   1  11  -8   20.58    2.39
  -1 -10   8   37.50    3.08
   1  10  -8   37.09    2.67
  -1  -9   8   -0.60    1.18
   1   9  -8    1.31    1.05
  -1  -8   8    1.21    1.15
   1   8  -8   -0.52    0.88
  -1  -7   8    3.45    1.23
   1   7  -8    1.20    0.92
  -1  -6   8   18.12    2.04
   1   6  -8   15.86    1.56
   1   6  -8   16.62    1.27
  -1  -5   8  108.59    3.75
   1   5  -8  103.13    2.77
   1   5  -8  109.66    2.84
  -1  -4   8   11.29    1.61
   1   4  -8   11.94    1.33
   1   4  -8   11.36    1.11
  -1  -3   8   66.45    2.96
   1   3  -8   69.94    2.57
   1   3  -8   68.05    1.87
  -1  -2   8    6.18    1.32
   1   2  -8    5.59    1.16
  -1  -1   8   42.28    2.67
   1   1  -8   40.46    2.33
  -1   0   8    1.05    1.12
   1   0  -8   -1.33    0.85
  -1   1   8   52.45    3.20
   1  -1  -8   49.62    2.77
  -1   2   8    5.80    1.62
   1  -2  -8    6.63    1.50
  -1   3   8   12.40    2.18
   1  -3  -8   13.09    2.03
  -1   4   8    6.42    1.82
   1  -4  -8    4.04    1.58
  -1   5   8    4.94    1.98
   1  -5  -8    4.16    1.76
   0 -12   8    0.49    1.62
   0  12  -8    0.08    1.29
   0 -11   8    4.23    1.67
   0  11  -8    5.43    1.61
   0 -10   8   55.53    3.52
   0  10  -8   55.73    2.96
   0  -9   8   52.24    3.15
   0   9  -8   48.40    2.65
   0  -8   8  142.76    4.53
   0   8  -8  136.86    3.81
   0  -7   8    2.20    1.15
   0   7  -8    0.16    0.84
   0   7  -8    2.31    0.68
   0  -6   8   -0.07    0.96
   0   6  -8    1.13    0.70
   0   6  -8    0.70    0.75
   0  -5   8   33.19    2.41
   0   5  -8   29.92    1.73
   0   5  -8   32.63    1.59
   0  -4   8   26.85    2.16
   0   4  -8   23.51    1.26
   0   4  -8   24.55    1.69
   0  -3   8  145.86    4.38
   0   3  -8  156.04    3.91
   0  -2   8  170.29    4.71
   0   2  -8  175.69    4.36
   0  -1   8   74.30    3.40
   0   1  -8   77.94    3.07
   0   0   8   17.19    2.07
   0   0  -8   18.88    1.98
   0   1   8   -0.48    1.15
   0  -1  -8   -0.35    0.99
   0   2   8    7.61    1.94
   0  -2  -8   10.00    1.77
   0   3   8   68.48    4.12
   0  -3  -8   66.45    3.58
   0   4   8   27.22    3.09
   0  -4  -8   36.18    3.13
   0   5   8   50.28    4.17
   0  -5  -8   48.78    3.46
   1 -12   8    7.48    2.07
  -1  12  -8    2.34    1.32
   1 -11   8    9.88    2.14
  -1  11  -8   10.71    1.81
   1 -10   8   11.81    1.96
  -1  10  -8   10.54    1.72
   1  -9   8    2.91    1.34
  -1   9  -8    2.70    1.12
   1  -8   8   34.21    2.61
  -1   8  -8   31.93    2.13
   1  -7   8    5.05    1.39
  -1   7  -8    8.44    1.28
  -1   7  -8    9.42    1.09
   1  -6   8   76.25    3.31
  -1   6  -8   77.73    2.40
  -1   6  -8   71.63    2.41
   1  -5   8    5.15    1.33
  -1   5  -8    3.80    0.95
  -1   5  -8    3.22    0.76
   1  -4   8   65.34    3.07
  -1   4  -8   61.08    1.62
  -1   4  -8   60.48    2.51
   1  -3   8    4.66    1.27
  -1   3  -8    2.31    0.94
   1  -2   8   28.71    2.48
  -1   2  -8   25.24    1.99
   1  -1   8   21.64    2.29
  -1   1  -8   16.49    1.93
   1   0   8   61.32    3.31
  -1   0  -8   67.04    3.08
   1   1   8   31.17    2.88
  -1  -1  -8   36.94    2.62
   1   2   8    0.80    1.54
  -1  -2  -8    5.55    1.56
   1   3   8    2.22    1.64
  -1  -3  -8    3.85    1.46
   1   4   8    0.55    1.68
   2 -12   8   -0.29    1.56
  -2  12  -8    0.87    1.33
   2 -11   8   -1.47    1.28
  -2  11  -8   -1.84    1.11
   2 -10   8   12.79    2.09
  -2  10  -8   12.98    1.78
   2  -9   8   25.29    2.47
  -2   9  -8   25.26    2.09
   2  -8   8   50.48    2.99
  -2   8  -8   52.03    2.00
  -2   8  -8   53.08    2.46
   2  -7   8  138.72    4.37
  -2   7  -8  132.71    3.36
  -2   7  -8  134.51    3.41
   2  -6   8   47.20    2.75
  -2   6  -8   47.94    1.94
  -2   6  -8   44.75    2.20
   2  -5   8    4.31    1.36
  -2   5  -8    4.14    1.11
  -2   5  -8    3.05    0.77
   2  -4   8    1.70    1.17
  -2   4  -8    0.14    0.84
   2  -3   8    1.76    1.15
  -2   3  -8   -0.47    0.82
   2  -2   8  107.90    4.07
  -2   2  -8  103.69    3.67
   2  -1   8   31.13    2.68
  -2   1  -8   35.44    2.42
   2   0   8   99.15    4.27
  -2   0  -8   91.95    3.69
   2   1   8    1.22    1.56
  -2  -1  -8   -0.30    1.16
   2   2   8    8.78    2.22
  -2  -2  -8    4.15    1.56
   2   3   8    1.08    1.62
  -2  -3  -8    2.60    1.46
   2   4   8   14.24    2.71
  -2  -4  -8   20.21    2.58
  -3  12  -8    8.40    1.78
   3 -11   8   51.21    3.57
  -3  11  -8   48.98    2.98
   3 -10   8    1.55    1.37
  -3  10  -8    3.08    1.25
   3  -9   8    7.35    1.71
  -3   9  -8    4.50    1.29
   3  -8   8   10.59    1.80
  -3   8  -8   15.06    1.60
  -3   8  -8   15.67    1.54
   3  -7   8   17.94    2.07
  -3   7  -8   21.39    1.70
  -3   7  -8   19.67    1.65
   3  -6   8   21.12    2.22
  -3   6  -8   24.07    1.91
  -3   6  -8   24.13    1.59
   3  -5   8  166.94    4.83
  -3   5  -8  158.19    3.02
  -3   5  -8  157.83    4.35
   3  -4   8   28.68    2.46
  -3   4  -8   32.48    2.36
   3  -3   8    5.57    1.49
  -3   3  -8    3.26    1.26
   3  -2   8    5.95    1.59
  -3   2  -8    5.82    1.39
   3  -1   8    2.49    1.44
  -3   1  -8    1.94    1.21
   3   0   8   40.01    3.23
  -3   0  -8   35.19    2.78
   3   1   8   44.73    3.56
  -3  -1  -8   45.81    3.10
   3   2   8   86.77    4.81
  -3  -2  -8   85.23    4.02
   3   3   8    1.25    1.90
  -3  -3  -8    4.36    1.75
   4 -12   8   25.80    2.91
  -4  12  -8   32.51    2.93
   4 -11   8    2.65    1.66
  -4  11  -8    2.11    1.38
   4 -10   8    2.57    1.51
  -4  10  -8    2.05    1.22
   4  -9   8    3.55    1.47
  -4   9  -8    0.97    1.05
  -4   9  -8    1.17    0.90
   4  -8   8    0.92    1.25
  -4   8  -8    1.05    0.97
  -4   8  -8    0.73    0.87
   4  -7   8   43.54    2.81
  -4   7  -8   40.62    2.13
  -4   7  -8   42.31    2.42
   4  -6   8    5.90    1.54
  -4   6  -8    7.41    1.39
  -4   6  -8    5.97    1.05
   4  -5   8   45.48    2.88
  -4   5  -8   43.99    2.62
   4  -4   8    0.58    1.18
  -4   4  -8    0.26    1.03
   4  -3   8   26.31    2.55
  -4   3  -8   26.70    2.39
   4  -2   8   -0.11    1.23
  -4   2  -8    2.75    1.36
   4  -1   8   34.84    3.08
  -4   1  -8   33.76    2.78
   4   0   8    3.84    1.74
  -4   0  -8    4.66    1.64
   4   1   8    8.33    2.30
  -4  -1  -8   11.71    2.08
   4   2   8    5.51    2.00
  -4  -2  -8    5.45    1.77
   5 -12   8    8.13    2.12
  -5  12  -8   10.72    1.92
   5 -11   8    9.56    2.08
  -5  11  -8   10.12    1.80
   5 -10   8   83.62    3.90
  -5  10  -8   76.06    3.32
   5  -9   8    4.46    1.53
  -5   9  -8    9.17    1.49
  -5   9  -8    4.13    1.29
   5  -8   8    1.39    1.26
  -5   8  -8    0.13    0.93
  -5   8  -8   -0.05    0.93
   5  -7   8   18.00    2.12
  -5   7  -8   17.06    1.98
  -5   7  -8   19.29    1.64
   5  -6   8   -1.56    1.09
  -5   6  -8    1.44    1.17
   5  -5   8   23.42    2.44
  -5   5  -8   27.48    2.39
   5  -4   8   65.50    3.52
  -5   4  -8   64.66    3.35
   5  -3   8   71.00    3.64
  -5   3  -8   74.39    3.70
   5  -2   8   -1.20    1.46
  -5   2  -8   -0.67    1.11
   5  -1   8   -1.86    1.41
  -5   1  -8    1.26    1.34
   5   0   8   11.63    2.42
  -5   0  -8   11.22    2.15
   5   1   8    9.38    2.31
  -5  -1  -8    8.11    2.00
   6 -12   8    1.40    1.70
  -6  12  -8    1.29    1.42
   6 -11   8    0.15    1.46
  -6  11  -8   -0.29    1.22
   6 -10   8    4.90    1.70
  -6  10  -8    4.48    1.44
   6  -9   8    1.11    1.34
  -6   9  -8    2.95    1.24
  -6   9  -8    0.41    0.90
   6  -8   8   47.06    3.02
  -6   8  -8   34.74    2.39
  -6   8  -8   36.07    2.28
   6  -7   8    1.92    1.36
  -6   7  -8    0.13    1.02
   6  -6   8   18.69    2.22
  -6   6  -8   15.98    2.07
   6  -5   8    6.00    1.63
  -6   5  -8    6.14    1.57
   6  -4   8    0.50    1.31
  -6   4  -8    1.69    1.34
   6  -3   8    2.44    1.56
  -6   3  -8    3.35    1.48
   6  -2   8   21.24    2.63
  -6   2  -8   22.27    2.62
   6  -1   8   15.62    2.44
  -6   1  -8   15.09    2.40
   6   0   8    5.13    2.03
  -6   0  -8    5.07    1.93
   7 -11   8   -1.08    1.41
  -7  11  -8    0.09    1.29
   7 -10   8    3.42    1.59
  -7  10  -8    3.68    1.43
  -7  10  -8    6.87    1.53
   7  -9   8   30.46    2.77
  -7   9  -8   31.69    2.55
  -7   9  -8   26.41    2.30
   7  -8   8   16.22    2.21
  -7   8  -8   17.37    2.20
   7  -7   8    0.14    1.37
  -7   7  -8    0.48    1.17
   7  -6   8    0.26    1.35
  -7   6  -8    0.38    1.14
   7  -5   8    4.17    1.60
  -7   5  -8    5.20    1.62
   7  -4   8   10.11    1.95
  -7   4  -8    9.69    2.04
   7  -3   8    1.57    1.57
  -7   3  -8    3.44    1.64
   7  -2   8   29.82    2.99
  -7   2  -8   30.65    3.16
   7  -1   8    0.47    1.75
  -7   1  -8    0.51    1.52
  -8  10  -8   13.73    2.05
  -8  10  -8   12.66    1.95
   8  -9   8   -2.28    1.93
  -8   9  -8    1.31    1.21
   8  -8   8   -1.86    1.31
  -8   8  -8   -0.25    1.15
   8  -7   8   41.04    3.14
  -8   7  -8   33.67    2.94
   8  -6   8   11.70    2.03
  -8   6  -8   14.67    2.15
   8  -5   8    3.57    1.63
  -8   5  -8    1.39    1.44
   8  -4   8   -0.60    1.49
  -8   4  -8    1.50    1.52
   8  -3   8    9.29    2.07
  -8   3  -8    6.92    1.90
  -9   8  -8    1.79    1.48
  -9   7  -8    5.74    1.83
  -9   6  -8    2.67    1.60
 -11  -1   9   10.79    1.83
  11   1  -9    8.32    2.18
 -11   0   9    7.96    1.55
  11   0  -9    4.04    1.85
 -11   1   9    2.23    1.22
  11  -1  -9    1.94    1.93
 -11   2   9   44.17    2.96
  11  -2  -9   44.63    3.86
 -10  -4   9   -1.13    1.14
 -10  -3   9   16.55    2.21
  10   3  -9   24.47    2.55
 -10  -2   9   48.27    2.99
  10   2  -9   43.38    3.25
 -10  -1   9    6.71    1.56
  10   1  -9    7.35    1.96
 -10   0   9    1.14    1.17
  10   0  -9    0.83    1.67
 -10   1   9   17.40    1.99
  10  -1  -9   17.39    2.50
 -10   2   9    0.78    1.06
  10  -2  -9    0.92    1.78
 -10   3   9    1.83    1.24
  10  -3  -9    0.31    1.82
 -10   4   9   78.69    3.53
  10  -4  -9   66.64    4.39
   9   5  -9   10.03    2.25
  -9  -3   9   24.38    2.46
   9   3  -9   25.89    2.54
  -9  -2   9    1.23    1.06
   9   2  -9   -1.40    1.25
  -9  -1   9   15.80    1.93
   9   1  -9   18.74    2.40
  -9   0   9    1.86    1.02
   9   0  -9    3.15    1.64
  -9   1   9    5.62    1.27
   9  -1  -9    1.92    1.54
  -9   2   9    3.06    1.14
   9  -2  -9    1.18    1.68
  -9   3   9    1.33    1.08
   9  -3  -9    0.99    1.80
  -9   4   9    6.34    1.38
   9  -4  -9    4.97    2.22
   9  -5  -9    0.25    1.96
   8   6  -9   10.15    2.09
   8   5  -9    1.09    1.57
   8   4  -9   29.99    2.45
   8   4  -9   34.50    3.11
   8   3  -9    0.66    1.23
  -8  -2   9    5.14    1.26
   8   2  -9    5.62    1.57
  -8  -1   9  114.79    3.80
   8   1  -9  109.06    4.06
  -8   0   9   17.07    1.85
   8   0  -9   15.78    2.26
  -8   1   9   14.01    1.65
   8  -1  -9   13.85    2.16
  -8   2   9   28.46    2.08
   8  -2  -9   29.35    2.96
  -8   3   9    0.57    0.89
   8  -3  -9   -0.43    1.66
  -8   4   9    3.02    1.10
   8  -4  -9    2.24    1.77
   8  -5  -9   38.03    3.64
  -7  -8   9    5.73    1.90
   7   8  -9    8.67    2.11
  -7  -7   9    3.33    1.62
   7   7  -9    4.57    1.68
  -7  -6   9   28.20    2.72
   7   6  -9   22.64    2.47
  -7  -5   9   11.90    1.82
   7   5  -9   13.59    2.12
  -7  -4   9   46.27    2.77
   7   4  -9   49.60    2.68
   7   4  -9   52.31    3.14
  -7  -3   9    0.29    0.99
   7   3  -9   -0.73    1.07
   7   3  -9    1.26    1.31
  -7  -2   9    4.42    1.20
  -7  -2   9    5.44    1.24
   7   2  -9    6.51    1.53
  -7  -1   9    0.54    0.83
  -7  -1   9    0.86    0.92
   7   1  -9    0.13    1.21
  -7   0   9    5.01    1.07
   7   0  -9    2.60    1.46
  -7   1   9   74.94    2.78
   7  -1  -9   88.82    3.83
  -7   2   9   18.46    1.65
   7  -2  -9   21.44    2.61
  -7   3   9   30.46    2.00
   7  -3  -9   34.06    3.15
   7  -4  -9   15.97    2.57
   7  -5  -9   -0.87    1.82
  -6  -8   9    0.59    1.50
   6   8  -9    1.20    1.47
  -6  -7   9   12.32    2.08
   6   7  -9   10.87    1.97
  -6  -6   9   88.46    3.97
   6   6  -9   87.68    3.79
  -6  -5   9    3.97    1.47
   6   5  -9    4.75    1.28
   6   5  -9    4.51    1.45
  -6  -4   9   14.56    1.88
   6   4  -9   18.39    2.10
   6   4  -9   19.36    1.91
  -6  -3   9   21.46    2.04
   6   3  -9   22.51    2.22
   6   3  -9   23.97    2.14
  -6  -2   9    9.33    1.38
  -6  -2   9    8.73    1.42
   6   2  -9   10.05    1.68
  -6  -1   9   -0.52    0.83
  -6  -1   9    0.74    0.74
   6   1  -9    0.24    1.10
  -6   0   9   52.36    2.61
  -6   0   9   56.37    2.33
   6   0  -9   58.00    3.02
  -6   1   9   23.86    1.62
  -6   1   9   22.01    1.99
   6  -1  -9   25.43    2.60
  -6   2   9   16.36    1.45
  -6   2   9   13.95    1.68
   6  -2  -9   15.97    2.28
  -6   3   9    2.00    1.12
   6  -3  -9    1.36    1.56
  -6   4   9    0.69    1.21
   6  -4  -9    1.24    1.75
   6  -5  -9    5.23    2.05
  -5  -9   9   48.13    3.78
   5   9  -9   47.82    3.21
  -5  -8   9    1.44    1.59
   5   8  -9   -0.40    1.15
  -5  -7   9    2.68    1.49
   5   7  -9    1.10    1.21
  -5  -6   9    6.77    1.61
   5   6  -9    7.38    1.54
  -5  -5   9   24.77    2.40
   5   5  -9   22.24    1.92
   5   5  -9   25.39    2.34
  -5  -4   9  130.80    4.12
   5   4  -9  128.07    3.83
   5   4  -9  124.89    3.56
  -5  -3   9   73.65    3.11
   5   3  -9   70.00    2.82
   5   3  -9   70.55    2.97
  -5  -2   9   43.55    2.54
  -5  -2   9   45.35    2.14
   5   2  -9   44.55    2.60
  -5  -1   9   39.86    2.40
  -5  -1   9   39.50    1.95
   5   1  -9   39.37    2.51
  -5   0   9    1.05    0.66
  -5   0   9   -0.39    0.81
   5   0  -9   -0.13    1.07
  -5   1   9    5.61    1.35
  -5   1   9    8.10    1.00
   5  -1  -9    5.31    1.45
  -5   2   9  115.80    3.96
   5  -2  -9  117.89    4.42
  -5   3   9   46.75    2.92
   5  -3  -9   49.17    3.45
  -5   4   9   36.98    2.86
   5  -4  -9   43.92    3.57
  -5   5   9    0.88    1.39
   5  -5  -9   -1.63    1.71
  -4 -10   9    3.93    1.85
   4  10  -9   -0.22    1.28
  -4  -9   9   17.50    2.52
   4   9  -9   12.96    2.03
  -4  -8   9    0.95    1.39
   4   8  -9    0.70    1.19
  -4  -7   9   29.93    2.76
   4   7  -9   31.74    2.48
  -4  -6   9   -1.01    1.07
   4   6  -9    1.83    1.10
  -4  -5   9   54.85    3.04
   4   5  -9   53.18    2.36
   4   5  -9   48.30    2.54
  -4  -4   9    0.12    0.99
   4   4  -9   -0.16    0.84
   4   4  -9   -0.68    0.80
  -4  -3   9   43.94    2.57
   4   3  -9   44.80    2.29
   4   3  -9   40.99    2.32
  -4  -2   9   16.53    1.37
  -4  -2   9   17.23    1.97
   4   2  -9   14.27    1.73
  -4  -1   9   41.75    1.73
  -4  -1   9   40.27    2.56
   4   1  -9   36.14    2.40
  -4   0   9   23.69    1.28
  -4   0   9   20.28    2.10
   4   0  -9   19.96    2.14
  -4   1   9    3.78    1.26
   4  -1  -9    1.22    1.17
  -4   2   9    2.91    1.34
   4  -2  -9    3.25    1.60
  -4   3   9    0.84    1.33
   4  -3  -9   -0.53    1.37
  -4   4   9   47.20    3.33
   4  -4  -9   42.12    3.56
  -4   5   9   10.78    2.17
   4  -5  -9    6.81    2.10
  -3 -10   9   24.41    2.97
   3  10  -9   23.58    2.54
  -3  -9   9   48.25    3.50
   3   9  -9   46.07    2.90
  -3  -8   9   65.46    3.63
   3   8  -9   60.12    3.06
  -3  -7   9   25.62    2.59
   3   7  -9   25.61    2.30
  -3  -6   9   16.73    2.05
   3   6  -9   19.36    1.56
   3   6  -9   19.69    1.95
  -3  -5   9   -0.45    1.07
   3   5  -9   -0.51    0.83
   3   5  -9   -0.90    0.81
  -3  -4   9    0.62    1.04
   3   4  -9    0.35    0.87
   3   4  -9    0.13    0.78
  -3  -3   9  191.72    4.96
   3   3  -9  189.71    3.95
   3   3  -9  188.91    4.59
  -3  -2   9   51.49    2.87
  -3  -2   9   61.00    1.92
   3   2  -9   57.76    2.73
  -3  -1   9  119.25    2.45
  -3  -1   9  116.86    4.00
   3   1  -9  115.05    3.82
  -3   0   9    7.25    1.55
   3   0  -9    6.47    1.45
  -3   1   9    0.57    1.12
   3  -1  -9    0.89    1.13
  -3   2   9   -0.56    1.08
   3  -2  -9    1.60    1.36
  -3   3   9   33.83    3.14
   3  -3  -9   32.19    3.02
  -3   4   9   53.64    3.69
   3  -4  -9   59.31    3.81
  -3   5   9   14.10    2.44
   3  -5  -9   12.14    2.34
  -2 -11   9   -1.13    1.50
   2  11  -9   -0.60    1.21
  -2 -10   9   10.75    2.13
   2  10  -9   10.66    1.82
  -2  -9   9    2.51    1.42
   2   9  -9    2.81    1.26
  -2  -8   9   32.92    2.81
   2   8  -9   33.72    2.37
  -2  -7   9   28.66    2.62
   2   7  -9   26.38    2.16
  -2  -6   9  141.10    4.51
   2   6  -9  130.90    3.61
   2   6  -9  132.26    3.23
  -2  -5   9   17.48    2.07
   2   5  -9   17.39    1.57
   2   5  -9   17.36    1.58
  -2  -4   9    0.75    1.09
   2   4  -9    1.73    0.95
   2   4  -9    2.15    0.80
  -2  -3   9    2.17    1.13
   2   3  -9    0.45    0.73
   2   3  -9    0.97    0.95
  -2  -2   9    0.32    1.08
   2   2  -9    1.48    1.04
  -2  -1   9   82.90    3.51
   2   1  -9   77.31    3.26
  -2   0   9   68.21    3.41
   2   0  -9   60.57    3.05
  -2   1   9  135.46    4.77
   2  -1  -9  136.65    4.51
  -2   2   9    2.29    1.40
   2  -2  -9   -0.82    1.06
  -2   3   9    2.47    1.70
   2  -3  -9    0.71    1.44
  -2   4   9   11.59    2.27
   2  -4  -9   10.64    2.25
  -2   5   9   17.52    2.81
   2  -5  -9   20.81    2.90
  -1 -11   9   -0.56    1.52
   1  11  -9    0.09    1.25
  -1 -10   9   -0.68    1.30
   1  10  -9    0.48    1.13
  -1  -9   9    3.88    1.51
   1   9  -9    3.89    1.25
  -1  -8   9   94.52    3.94
   1   8  -9   85.71    3.26
  -1  -7   9   17.52    2.20
   1   7  -9   18.77    1.96
   1   7  -9   19.29    1.80
  -1  -6   9   69.43    3.40
   1   6  -9   76.27    2.51
   1   6  -9   69.70    2.54
  -1  -5   9    2.99    1.21
   1   5  -9    1.41    0.78
   1   5  -9    3.95    0.98
  -1  -4   9   12.56    1.78
   1   4  -9   13.32    1.18
   1   4  -9   13.36    1.56
  -1  -3   9    0.98    1.13
   1   3  -9    1.53    0.94
  -1  -2   9   67.46    3.26
   1   2  -9   70.51    2.99
  -1  -1   9   38.70    2.81
   1   1  -9   36.91    2.44
  -1   0   9   31.18    2.71
   1   0  -9   33.16    2.50
  -1   1   9   12.49    2.11
   1  -1  -9    8.25    1.71
  -1   2   9    3.59    1.71
   1  -2  -9    3.82    1.51
  -1   3   9   25.41    2.91
   1  -3  -9   25.87    2.81
  -1   4   9    2.15    1.76
   1  -4  -9    4.48    1.82
   0 -12   9    8.63    2.33
   0  12  -9    8.79    1.87
   0 -11   9   78.10    4.29
   0  11  -9   73.44    3.47
   0 -10   9    3.77    1.64
   0  10  -9    5.64    1.46
   0  -9   9   -0.16    1.21
   0   9  -9    2.42    1.12
   0  -8   9   12.88    1.97
   0   8  -9   14.03    1.67
   0  -7   9    1.44    1.15
   0   7  -9   -0.77    0.73
   0   7  -9    1.94    0.80
   0  -6   9   78.30    3.53
   0   6  -9   78.63    2.64
   0   6  -9   79.55    2.59
   0  -5   9  105.01    3.90
   0   5  -9   96.09    3.03
   0   5  -9  100.49    2.59
   0  -4   9  144.30    4.55
   0   4  -9  141.41    3.97
   0  -3   9    3.06    1.25
   0   3  -9    3.02    1.10
   0  -2   9   -0.11    1.08
   0   2  -9   -0.01    0.99
   0  -1   9   28.18    2.61
   0   1  -9   23.45    2.22
   0   0   9   59.79    3.45
   0   0  -9   63.65    3.27
   0   1   9   43.56    3.35
   0  -1  -9   45.79    3.03
   0   2   9   96.82    4.68
   0  -2  -9   94.61    4.11
   0   3   9    2.16    1.98
   0  -3  -9    8.86    2.02
   0   4   9    4.47    2.02
   0  -4  -9    0.21    1.63
   1 -12   9   -0.84    1.62
  -1  12  -9    1.03    1.34
   1 -11   9   14.23    2.33
  -1  11  -9   16.36    2.04
   1 -10   9   -1.06    1.32
  -1  10  -9    1.51    1.10
   1  -9   9   35.00    3.01
  -1   9  -9   34.69    2.30
   1  -8   9   -0.08    1.12
  -1   8  -9   -1.90    0.75
   1  -7   9   30.85    2.70
  -1   7  -9   32.60    1.84
   1  -6   9    1.58    1.20
  -1   6  -9    1.51    0.75
  -1   6  -9   -0.27    0.74
   1  -5   9   15.06    1.97
  -1   5  -9   16.01    1.21
  -1   5  -9   12.62    1.61
   1  -4   9   15.50    1.98
  -1   4  -9   12.75    1.71
   1  -3   9   44.11    2.86
  -1   3  -9   37.58    2.49
   1  -2   9   39.12    2.80
  -1   2  -9   38.55    2.55
   1  -1   9    1.52    1.30
  -1   1  -9    4.45    1.34
   1   0   9    4.10    1.71
  -1   0  -9    4.55    1.46
   1   1   9    1.45    1.65
  -1  -1  -9    2.26    1.37
   1   2   9   23.01    3.01
  -1  -2  -9   19.80    2.37
   1   3   9    6.95    2.10
  -1  -3  -9   10.05    2.07
   2 -12   9    2.18    1.79
  -2  12  -9    3.98    1.53
   2 -11   9   20.15    2.68
  -2  11  -9   17.47    2.21
   2 -10   9   51.71    3.50
  -2  10  -9   52.40    2.92
   2  -9   9   35.06    3.03
  -2   9  -9   35.00    2.43
   2  -8   9    6.26    1.67
  -2   8  -9    9.12    1.43
  -2   8  -9    8.45    1.19
   2  -7   9   -1.82    1.00
  -2   7  -9   -0.60    0.78
  -2   7  -9   -0.95    0.72
   2  -6   9    9.09    1.70
  -2   6  -9   11.41    1.55
  -2   6  -9   12.84    1.22
   2  -5   9   67.92    3.44
  -2   5  -9   67.82    2.96
   2  -4   9   15.94    2.08
  -2   4  -9   18.26    1.98
   2  -3   9  103.49    4.19
  -2   3  -9   98.70    3.70
   2  -2   9    1.38    1.29
  -2   2  -9   -1.18    0.82
   2  -1   9    2.15    1.41
  -2   1  -9    1.40    1.18
   2   0   9    0.87    1.48
  -2   0  -9    1.16    1.26
   2   1   9    5.70    2.08
  -2  -1  -9    5.35    1.67
   2   2   9   26.12    3.27
  -2  -2  -9   18.17    2.46
   2   3   9   12.93    2.53
  -2  -3  -9   22.31    2.73
   3 -12   9    5.56    2.02
  -3  12  -9    4.49    1.62
   3 -11   9   14.70    2.44
  -3  11  -9   17.12    2.07
   3 -10   9    1.50    1.60
  -3  10  -9    1.76    1.21
   3  -9   9    2.75    1.46
  -3   9  -9    0.92    1.03
   3  -8   9   79.37    3.73
  -3   8  -9   82.22    2.95
  -3   8  -9   79.38    2.87
   3  -7   9   22.79    2.40
  -3   7  -9   20.58    2.01
  -3   7  -9   19.67    1.63
   3  -6   9    1.20    1.32
  -3   6  -9   -0.03    0.96
   3  -5   9    2.30    1.35
  -3   5  -9    3.08    1.23
   3  -4   9   12.34    1.92
  -3   4  -9   14.85    1.98
   3  -3   9   13.10    2.10
  -3   3  -9   15.47    2.01
   3  -2   9   16.26    2.31
  -3   2  -9   14.67    2.00
   3  -1   9   90.64    4.41
  -3   1  -9   94.02    4.15
   3   0   9    0.78    1.69
  -3   0  -9    3.19    1.51
   3   1   9    2.58    2.00
  -3  -1  -9    3.39    1.61
   3   2   9   10.07    2.39
  -3  -2  -9    6.55    1.89
   4 -12   9   -0.20    1.66
  -4  12  -9   -0.22    1.28
   4 -11   9   -2.05    1.60
  -4  11  -9    1.19    1.31
   4 -10   9   28.04    2.89
  -4  10  -9   23.73    2.23
   4  -9   9    0.20    1.33
  -4   9  -9    2.37    1.05
  -4   9  -9    0.52    1.08
   4  -8   9   29.40    2.71
  -4   8  -9   29.71    2.20
  -4   8  -9   30.19    2.05
   4  -7   9    1.27    1.44
  -4   7  -9    1.01    1.06
   4  -6   9   10.84    2.03
  -4   6  -9   11.02    1.71
   4  -5   9    3.01    1.43
  -4   5  -9    4.84    1.46
   4  -4   9   16.30    2.17
  -4   4  -9   15.64    2.18
   4  -3   9    5.34    1.74
  -4   3  -9    2.21    1.34
   4  -2   9    5.20    1.72
  -4   2  -9    3.23    1.45
   4  -1   9    3.87    1.86
  -4   1  -9    5.51    1.69
   4   0   9    2.38    1.89
  -4   0  -9    2.33    1.53
   4   1   9   10.59    2.58
  -4  -1  -9   10.70    2.24
   5 -12   9    5.44    2.11
  -5  12  -9    4.84    1.60
   5 -11   9   -0.30    1.54
  -5  11  -9   -0.45    1.17
   5 -10   9   14.41    2.28
  -5  10  -9   13.34    1.84
   5  -9   9    4.84    1.65
  -5   9  -9    5.07    1.31
  -5   9  -9    8.86    1.53
   5  -8   9    2.67    1.56
  -5   8  -9    2.04    1.13
   5  -7   9   26.70    2.72
  -5   7  -9   28.27    2.38
   5  -6   9   74.88    3.78
  -5   6  -9   73.17    3.53
   5  -5   9    1.08    1.46
  -5   5  -9    0.77    1.15
   5  -4   9   -1.25    1.36
  -5   4  -9   -1.13    1.04
   5  -3   9   24.93    2.78
  -5   3  -9   29.53    3.01
   5  -2   9    4.58    1.90
  -5   2  -9    4.88    1.77
   5  -1   9    4.67    1.98
  -5   1  -9    5.92    1.85
   5   0   9   31.47    3.43
  -5   0  -9   40.98    3.48
   6 -11   9    8.52    2.12
  -6  11  -9   11.15    1.92
   6 -10   9   -2.22    1.35
  -6  10  -9    1.12    1.22
   6  -9   9   12.50    2.11
  -6   9  -9   12.18    1.80
   6  -8   9    1.08    1.50
  -6   8  -9    3.38    1.36
   6  -7   9    0.17    1.38
  -6   7  -9    0.01    1.11
   6  -6   9   -2.39    1.20
  -6   6  -9    1.00    1.18
   6  -5   9   10.18    2.10
  -6   5  -9   10.54    1.98
   6  -4   9   17.46    2.43
  -6   4  -9   15.34    2.34
   6  -3   9    4.35    1.87
  -6   3  -9    3.07    1.75
   6  -2   9    0.30    1.74
  -6   2  -9    1.42    1.56
   6  -1   9    7.74    2.28
  -6   1  -9    8.12    2.02
   7 -10   9    0.46    1.55
  -7  10  -9   -0.38    1.11
   7  -9   9   -0.74    1.45
  -7   9  -9    0.16    1.16
   7  -8   9    9.38    1.99
  -7   8  -9    9.13    1.92
   7  -7   9    8.32    2.02
  -7   7  -9    7.70    1.77
   7  -6   9   -2.03    1.44
  -7   6  -9    3.80    1.64
   7  -5   9   25.85    2.78
  -7   5  -9   26.19    2.83
   7  -4   9   -0.41    1.56
  -7   4  -9   -1.53    1.33
   7  -3   9    1.34    1.76
  -7   3  -9    1.87    1.70
   8  -9   9   18.32    3.26
  -8   9  -9   10.73    1.94
   8  -8   9    5.70    1.76
  -8   8  -9    4.14    1.48
   8  -7   9    1.20    1.60
  -8   7  -9    1.00    1.36
   8  -6   9    7.82    1.97
  -8   6  -9    7.05    1.84
   8  -5   9   -2.38    1.48
  -8   5  -9    2.36    1.50
 -10  -3  10    3.56    1.47
  10   3 -10    3.99    1.81
 -10  -2  10   15.60    2.05
  10   2 -10   16.34    2.46
 -10  -1  10    0.17    1.09
  10   1 -10   -1.18    1.52
 -10   0  10    1.99    1.23
  10   0 -10   -2.06    1.53
 -10   1  10   67.93    3.28
  10  -1 -10   66.83    4.15
 -10   2  10   36.50    2.66
  10  -2 -10   35.00    3.65
   9   5 -10    2.23    1.84
  -9  -4  10    9.76    1.86
  -9  -3  10    2.63    1.25
   9   3 -10    1.70    1.53
  -9  -2  10    3.00    1.25
   9   2 -10    4.28    1.63
  -9  -1  10   16.34    1.99
   9   1 -10   17.33    2.43
  -9   0  10    0.94    1.04
   9   0 -10    0.08    1.55
  -9   1  10   12.73    1.74
   9  -1 -10   10.39    2.25
  -9   2  10    1.67    1.02
   9  -2 -10   -0.49    1.74
  -9   3  10   34.70    2.62
   9  -3 -10   32.29    3.58
   8   6 -10   -2.62    1.25
   8   5 -10    1.39    1.56
   8   4 -10   99.93    3.83
  -8  -3  10   45.90    2.75
   8   3 -10   43.90    2.96
  -8  -2  10   26.81    2.19
   8   2 -10   29.42    2.69
  -8  -1  10   15.09    1.83
   8   1 -10   15.04    2.27
   8   0 -10    5.61    1.79
  -8   1  10    3.33    1.09
   8  -1 -10    3.60    1.73
  -8   2  10   29.48    2.14
   8  -2 -10   27.03    3.07
   8  -3 -10   71.72    4.37
   8  -4 -10   15.21    2.73
  -7  -7  10   22.50    2.70
   7   7 -10   26.39    2.79
  -7  -6  10    9.40    1.98
   7   6 -10    6.57    1.78
  -7  -5  10    0.70    1.28
   7   5 -10   -0.21    1.30
  -7  -4  10    2.49    1.28
   7   4 -10    2.77    1.38
   7   4 -10    3.81    1.57
  -7  -3  10    3.65    1.16
  -7  -3  10    1.20    1.12
   7   3 -10   -0.15    1.27
  -7  -2  10   75.02    3.06
  -7  -2  10   72.04    3.22
   7   2 -10   77.58    3.48
  -7  -1  10   30.02    2.09
   7   1 -10   25.06    2.64
  -7   0  10   58.93    2.57
   7   0 -10   66.02    3.51
  -7   1  10    4.86    1.03
   7  -1 -10    2.08    1.65
   7  -2 -10    1.68    1.70
   7  -3 -10    0.58    1.82
   7  -4 -10   23.72    3.18
  -6  -8  10   12.54    2.43
   6   8 -10   13.51    2.14
  -6  -7  10   26.76    2.89
   6   7 -10   25.12    2.65
  -6  -6  10   -2.25    1.23
   6   6 -10    1.39    1.27
  -6  -5  10   -0.88    1.15
   6   5 -10   -0.53    1.04
   6   5 -10    0.25    1.18
  -6  -4  10    0.98    1.14
   6   4 -10    0.93    1.23
   6   4 -10    1.93    1.18
  -6  -3  10   45.49    2.75
   6   3 -10   46.25    2.68
  -6  -2  10   58.40    2.58
  -6  -2  10   65.26    3.12
   6   2 -10   58.03    3.07
  -6  -1  10   34.32    2.04
  -6  -1  10   37.35    2.46
   6   1 -10   34.03    2.71
  -6   0  10    9.49    1.55
  -6   0  10   11.28    1.28
   6   0 -10    9.92    1.97
  -6   1  10   -0.23    0.94
   6  -1 -10    2.29    1.61
  -6   2  10   15.66    1.93
   6  -2 -10   16.27    2.53
  -6   3  10    3.67    1.51
   6  -3 -10    3.59    2.01
   6  -4 -10   42.47    3.81
  -5  -9  10    0.76    1.72
   5   9 -10   -0.68    1.27
  -5  -8  10    1.98    1.73
   5   8 -10    3.96    1.59
  -5  -7  10   71.95    3.92
   5   7 -10   69.35    3.46
  -5  -6  10   33.94    2.95
   5   6 -10   43.26    2.76
  -5  -5  10   67.57    3.45
   5   5 -10   73.54    3.14
   5   5 -10   73.06    2.89
  -5  -4  10    7.51    1.65
   5   4 -10    7.07    1.47
   5   4 -10    4.56    1.29
  -5  -3  10    0.17    1.06
   5   3 -10    0.78    1.14
  -5  -2  10    6.75    1.50
  -5  -2  10    7.98    1.15
   5   2 -10    8.26    1.57
  -5  -1  10   85.17    3.60
  -5  -1  10   95.00    2.67
   5   1 -10   84.29    3.62
  -5   0  10   96.73    3.77
   5   0 -10   99.95    3.99
  -5   1  10   85.55    3.62
   5  -1 -10   88.34    3.98
  -5   2  10    3.70    1.37
   5  -2 -10    1.62    1.59
  -5   3  10    6.29    1.63
   5  -3 -10    4.36    1.90
  -5   4  10    0.49    1.34
   5  -4 -10    0.46    1.86
  -4 -10  10   15.68    2.66
   4  10 -10   13.33    2.22
  -4  -9  10   -1.42    1.44
   4   9 -10   -0.40    1.20
  -4  -8  10   21.19    2.61
   4   8 -10   23.30    2.52
  -4  -7  10    4.67    1.73
   4   7 -10    4.60    1.37
  -4  -6  10   18.46    2.29
   4   6 -10   20.05    2.09
  -4  -5  10   12.05    1.93
   4   5 -10   14.42    1.70
   4   5 -10   14.04    1.71
  -4  -4  10   10.56    1.74
   4   4 -10   12.43    1.56
   4   4 -10   13.13    1.66
  -4  -3  10   42.91    2.78
   4   3 -10   39.62    2.51
  -4  -2  10    6.25    0.97
  -4  -2  10    6.85    1.53
   4   2 -10    3.99    1.33
  -4  -1  10   18.07    2.14
   4   1 -10   20.39    2.25
  -4   0  10   -0.35    1.10
   4   0 -10    0.13    1.16
  -4   1  10   47.13    3.04
   4  -1 -10   47.65    3.19
  -4   2  10    5.82    1.64
   4  -2 -10    8.76    1.96
  -4   3  10   51.77    3.58
   4  -3 -10   48.21    3.57
  -4   4  10    3.93    1.75
   4  -4 -10    3.46    2.01
  -3 -10  10   20.81    2.85
   3  10 -10   17.09    2.31
  -3  -9  10   12.39    2.37
   3   9 -10    6.58    1.65
  -3  -8  10    0.56    1.42
   3   8 -10   -0.56    1.06
  -3  -7  10    5.41    1.82
   3   7 -10    7.34    1.44
  -3  -6  10   86.92    3.95
   3   6 -10   89.21    3.22
   3   6 -10   90.20    2.91
  -3  -5  10   66.39    3.35
   3   5 -10   64.24    2.64
   3   5 -10   63.98    2.64
  -3  -4  10   98.79    3.83
   3   4 -10   98.96    3.35
   3   4 -10   95.07    2.91
  -3  -3  10   -0.13    1.17
   3   3 -10    1.75    1.12
  -3  -2  10    1.33    1.16
   3   2 -10    2.08    1.15
  -3  -1  10    0.80    1.17
   3   1 -10    1.58    1.18
  -3   0  10    8.65    1.77
   3   0 -10    3.90    1.48
  -3   1  10   72.77    3.79
   3  -1 -10   77.67    3.78
  -3   2  10   45.37    3.40
   3  -2 -10   37.89    3.12
  -3   3  10   36.12    3.46
   3  -3 -10   30.19    3.12
  -3   4  10    4.24    1.83
   3  -4 -10    4.42    1.99
  -2 -11  10    3.97    2.07
   2  11 -10    6.79    1.76
  -2 -10  10    8.43    2.04
   2  10 -10    6.83    1.61
  -2  -9  10   41.07    3.32
   2   9 -10   39.72    2.76
  -2  -8  10   20.66    2.51
   2   8 -10   18.85    2.00
  -2  -7  10    2.20    1.49
   2   7 -10    0.04    0.94
  -2  -6  10   -0.37    1.19
   2   6 -10   -0.20    0.83
   2   6 -10    0.98    0.87
  -2  -5  10    8.77    1.81
   2   5 -10    8.05    1.22
   2   5 -10   11.05    1.53
  -2  -4  10   60.93    3.34
   2   4 -10   61.48    2.71
   2   4 -10   60.30    2.17
  -2  -3  10   27.92    2.61
   2   3 -10   31.68    2.23
  -2  -2  10  107.09    4.16
   2   2 -10  111.19    3.88
  -2  -1  10    0.88    1.28
   2   1 -10    0.07    1.08
  -2   0  10    3.32    1.46
   2   0 -10    2.51    1.28
  -2   1  10    7.62    1.93
   2  -1 -10    9.00    1.75
  -2   2  10    4.13    1.89
   2  -2 -10    8.61    1.95
  -2   3  10   25.38    2.99
   2  -3 -10   25.84    2.90
  -2   4  10   41.12    3.82
   2  -4 -10   45.09    3.82
  -1 -11  10   31.15    3.31
   1  11 -10   30.25    2.78
  -1 -10  10    7.07    2.01
   1  10 -10    8.28    1.72
  -1  -9  10   26.36    2.86
   1   9 -10   29.19    2.39
  -1  -8  10    1.58    1.39
   1   8 -10    0.46    0.95
  -1  -7  10    0.04    1.28
   1   7 -10    1.21    1.00
   1   7 -10    3.21    0.89
  -1  -6  10    0.98    1.38
   1   6 -10    1.73    0.92
   1   6 -10    2.71    0.97
  -1  -5  10   17.29    2.13
   1   5 -10   14.68    1.36
   1   5 -10   20.62    1.84
  -1  -4  10   23.71    2.45
   1   4 -10   25.93    2.05
  -1  -3  10   18.35    2.23
   1   3 -10   17.94    1.96
  -1  -2  10   28.06    2.71
   1   2 -10   28.07    2.28
  -1  -1  10    0.82    1.25
   1   1 -10    0.90    1.15
  -1   0  10   13.27    2.13
   1   0 -10   16.00    2.14
  -1   1  10    1.44    1.47
   1  -1 -10    1.50    1.37
  -1   2  10   25.90    3.02
   1  -2 -10   21.66    2.66
  -1   3  10   -0.43    1.86
   1  -3 -10    1.73    1.60
   0 -11  10    5.96    2.03
   0  11 -10    4.82    1.60
   0 -10  10    0.91    1.53
   0  10 -10    1.96    1.32
   0  -9  10   24.47    2.75
   0   9 -10   20.96    2.07
   0  -8  10   33.11    3.02
   0   8 -10   32.56    2.22
   0  -7  10   95.17    4.06
   0   7 -10   87.63    2.88
   0   7 -10   91.75    2.93
   0  -6  10    2.45    1.36
   0   6 -10    4.29    0.93
   0   6 -10    5.01    1.15
   0  -5  10   -0.85    1.17
   0   5 -10    1.56    0.95
   0  -4  10   46.63    3.14
   0   4 -10   43.20    2.51
   0  -3  10   19.86    2.33
   0   3 -10   16.79    1.92
   0  -2  10   37.21    2.93
   0   2 -10   32.23    2.53
   0  -1  10   80.80    4.04
   0   1 -10   86.10    3.73
   0   0  10   15.22    2.47
   0   0 -10   13.05    2.02
   0   1  10    4.17    1.76
   0  -1 -10    3.80    1.60
   0   2  10   -1.17    1.86
   0  -2 -10    4.35    1.73
   0   3  10   -1.32    1.68
   0  -3 -10    3.04    1.96
   1 -11  10   -1.39    1.56
  -1  11 -10    1.58    1.35
   1 -10  10    5.46    1.92
  -1  10 -10    8.98    1.65
   1  -9  10   -0.04    1.49
  -1   9 -10   -1.08    0.89
   1  -8  10    0.70    1.42
  -1   8 -10    1.49    0.94
   1  -7  10   -0.05    1.27
  -1   7 -10   -0.31    0.80
  -1   7 -10    2.57    1.04
   1  -6  10    7.56    1.76
  -1   6 -10    7.85    1.35
   1  -5  10   33.79    2.92
  -1   5 -10   32.04    2.25
   1  -4  10   -0.45    1.18
  -1   4 -10    1.69    1.14
   1  -3  10    6.63    1.75
  -1   3 -10    6.40    1.47
   1  -2  10   12.22    2.07
  -1   2 -10   11.53    1.82
   1  -1  10    9.35    1.99
  -1   1 -10    9.73    1.89
   1   0  10    0.51    1.50
  -1   0 -10    1.16    1.31
   1   1  10   31.90    3.41
  -1  -1 -10   36.48    3.22
   1   2  10    6.24    2.36
  -1  -2 -10    9.79    2.18
   2 -12  10   23.23    3.08
  -2  12 -10   22.28    2.41
   2 -11  10    0.95    1.74
  -2  11 -10    1.13    1.23
   2 -10  10    0.95    1.68
  -2  10 -10    2.26    1.20
   2  -9  10   27.95    2.97
  -2   9 -10   26.04    2.12
   2  -8  10   15.76    2.30
  -2   8 -10   17.13    1.73
  -2   8 -10   13.62    1.55
   2  -7  10   15.34    2.21
  -2   7 -10   19.12    1.89
   2  -6  10   72.73    3.78
  -2   6 -10   73.32    3.16
   2  -5  10   -0.36    1.21
  -2   5 -10    3.81    1.21
   2  -4  10    1.54    1.38
  -2   4 -10    1.97    1.18
   2  -3  10    7.11    1.81
  -2   3 -10    8.20    1.66
   2  -2  10   -1.67    1.27
  -2   2 -10    1.57    1.31
   2  -1  10   16.97    2.55
  -2   1 -10   20.88    2.55
   2   0  10   12.20    2.39
  -2   0 -10   11.41    2.08
   2   1  10   16.41    2.91
  -2  -1 -10   20.70    2.72
   3 -11  10   14.37    2.61
  -3  11 -10   10.56    1.85
   3 -10  10   27.56    2.93
  -3  10 -10   23.38    2.26
   3  -9  10    5.22    1.75
  -3   9 -10    1.96    1.16
   3  -8  10   -0.45    1.31
  -3   8 -10    0.37    0.90
   3  -7  10   25.80    2.85
  -3   7 -10   23.17    2.27
   3  -6  10    0.42    1.46
  -3   6 -10    2.52    1.20
   3  -5  10    3.45    1.67
  -3   5 -10    6.30    1.48
   3  -4  10   75.02    3.90
  -3   4 -10   70.82    3.53
   3  -3  10    2.89    1.69
  -3   3 -10    7.76    1.68
   3  -2  10    0.34    1.59
  -3   2 -10    4.54    1.55
   3  -1  10   21.03    2.84
  -3   1 -10   18.81    2.60
   3   0  10    0.02    1.86
  -3   0 -10    2.12    1.50
   3   1  10    2.49    2.30
  -3  -1 -10    7.12    1.94
   4 -11  10   25.67    3.00
  -4  11 -10   23.46    2.34
   4 -10  10    1.85    1.65
  -4  10 -10   -0.63    1.04
   4  -9  10    1.45    1.53
  -4   9 -10    1.30    1.05
   4  -8  10   -1.60    1.37
  -4   8 -10    2.65    1.20
   4  -7  10    2.54    1.57
  -4   7 -10    3.62    1.28
   4  -6  10    7.93    1.87
  -4   6 -10    6.89    1.66
   4  -5  10    2.40    1.67
  -4   5 -10    4.99    1.53
   4  -4  10    6.60    1.90
  -4   4 -10    5.92    1.68
   4  -3  10    0.50    1.51
  -4   3 -10    1.14    1.40
   4  -2  10    5.91    2.15
  -4   2 -10    8.72    2.12
   4  -1  10   -1.98    1.63
  -4   1 -10    2.91    1.70
   4   0  10    8.71    2.56
  -4   0 -10   13.65    2.37
   5 -11  10    1.70    1.83
  -5  11 -10   -0.76    1.26
   5 -10  10    7.43    2.02
   5  -9  10   64.66    3.98
  -5   9 -10   62.54    3.22
   5  -8  10    1.46    1.65
  -5   8 -10    2.11    1.25
   5  -7  10   -0.28    1.49
  -5   7 -10    2.76    1.32
   5  -6  10   24.47    2.79
  -5   6 -10   20.08    2.52
   5  -5  10   -1.07    1.56
  -5   5 -10    2.04    1.42
   5  -4  10    5.79    2.01
  -5   4 -10    6.74    1.73
   5  -3  10   32.95    3.31
  -5   3 -10   26.08    2.95
   5  -2  10   16.57    2.74
  -5   2 -10   10.52    2.30
   6 -10  10   -2.76    1.58
   6  -9  10    0.78    1.60
  -6   9 -10    0.86    1.19
   6  -8  10    1.85    1.65
  -6   8 -10    3.19    1.36
   6  -7  10   19.70    2.57
  -6   7 -10   20.40    2.51
   6  -6  10    2.98    1.86
  -6   6 -10    4.65    1.75
   6  -5  10    9.47    2.21
  -6   5 -10    9.43    2.03
   6  -4  10    1.26    1.70
  -6   4 -10    3.64    1.67
   6  -3  10    1.22    1.84
  -6   3 -10    0.89    1.60
   7  -9  10    1.33    1.70
  -7   9 -10    4.03    1.56
   7  -8  10   32.23    3.20
  -7   8 -10   26.37    2.83
   7  -7  10    8.70    2.18
  -7   7 -10    6.86    1.82
   7  -6  10    1.49    1.75
  -7   6 -10    2.82    1.66
   7  -5  10    0.18    1.63
  -7   5 -10   -1.00    1.30
  -9  -4  11   16.68    2.18
  -9  -3  11    6.08    1.53
   9   3 -11    6.15    1.91
  -9  -2  11   26.87    2.51
   9   2 -11   31.29    3.11
  -9  -1  11    4.24    1.34
   9   1 -11    4.10    1.85
  -9   0  11   22.78    2.13
   9   0 -11   25.14    3.08
  -9   1  11    4.54    1.35
   9  -1 -11    0.54    1.89
   9  -2 -11   24.98    3.23
   8   5 -11   34.64    3.29
  -8  -4  11    1.20    1.13
   8   4 -11   -0.06    1.40
  -8  -3  11    2.84    1.17
   8   3 -11    2.03    1.57
  -8  -2  11    1.14    1.03
   8   2 -11    0.06    1.49
  -8  -1  11   13.50    1.65
   8   1 -11   18.16    2.44
  -8   0  11   80.17    3.14
   8   0 -11   84.97    4.25
   8  -1 -11   35.58    3.48
   8  -2 -11   19.17    2.92
  -7  -7  11    1.29    1.78
   7   7 -11    2.64    1.63
  -7  -6  11    0.53    1.47
   7   6 -11   -1.42    1.31
  -7  -5  11   38.28    3.02
   7   5 -11   40.82    3.24
  -7  -4  11   16.60    2.09
   7   4 -11   15.55    2.07
  -7  -3  11   42.83    2.96
  -7  -3  11   44.76    2.53
   7   3 -11   47.77    2.98
  -7  -2  11    1.19    1.01
   7   2 -11   -0.81    1.31
  -7  -1  11    1.70    0.94
   7   1 -11    1.43    1.54
   7   0 -11    0.94    1.65
   7  -1 -11   16.64    2.58
   7  -2 -11   43.68    3.67
   7  -3 -11   37.33    3.70
  -6  -8  11   -2.00    1.62
   6   8 -11    0.15    1.41
  -6  -7  11   -1.77    1.48
   6   7 -11   -0.96    1.15
  -6  -6  11   24.53    2.69
   6   6 -11   25.95    2.65
  -6  -5  11   31.99    2.89
   6   5 -11   28.72    2.43
   6   5 -11   31.23    2.78
  -6  -4  11   15.64    2.09
   6   4 -11   22.33    2.24
  -6  -3  11   14.81    2.05
  -6  -3  11   16.06    1.73
   6   3 -11   15.18    2.13
  -6  -2  11    4.36    1.08
  -6  -2  11    2.84    1.30
   6   2 -11    3.36    1.50
  -6  -1  11    6.32    1.51
   6   1 -11    9.03    1.94
  -6   0  11    0.36    1.17
   6   0 -11    3.39    1.69
  -6   1  11   47.17    2.96
   6  -1 -11   45.60    3.54
  -6   2  11    7.52    2.15
   6  -2 -11    9.22    2.37
   6  -3 -11   21.07    3.15
  -5  -9  11   17.47    2.78
   5   9 -11   15.61    2.31
  -5  -8  11   39.89    3.70
   5   8 -11   34.86    2.95
  -5  -7  11    4.33    1.91
   5   7 -11    5.23    1.53
  -5  -6  11    1.76    1.55
   5   6 -11   -0.45    1.14
  -5  -5  11   12.43    2.13
   5   5 -11   10.62    1.76
   5   5 -11   12.58    1.80
  -5  -4  11   27.69    2.69
   5   4 -11   26.50    2.41
   5   4 -11   33.79    2.45
  -5  -3  11   61.07    2.52
  -5  -3  11   58.85    3.37
   5   3 -11   60.24    3.11
  -5  -2  11   78.45    3.68
   5   2 -11   74.42    3.54
  -5  -1  11   13.45    1.94
   5   1 -11   14.84    2.14
  -5   0  11    8.66    1.75
   5   0 -11    6.47    1.92
  -5   1  11    1.93    1.39
   5  -1 -11    2.16    1.72
  -5   2  11    1.86    1.48
   5  -2 -11    2.42    1.83
  -5   3  11   44.19    3.42
   5  -3 -11   49.02    4.22
  -4  -9  11    2.00    1.90
   4   9 -11    0.37    1.29
  -4  -8  11    1.46    1.70
   4   8 -11    1.87    1.42
  -4  -7  11    1.61    1.62
   4   7 -11   -0.39    1.09
  -4  -6  11   15.91    2.37
   4   6 -11   14.84    1.95
  -4  -5  11    0.39    1.32
   4   5 -11    0.92    0.99
   4   5 -11    0.38    1.07
  -4  -4  11   21.67    2.51
   4   4 -11   22.22    2.03
   4   4 -11   23.15    2.26
  -4  -3  11   -0.43    1.21
   4   3 -11    1.41    1.24
  -4  -2  11   25.47    2.60
   4   2 -11   26.70    2.54
  -4  -1  11    0.86    1.25
   4   1 -11    1.45    1.37
  -4   0  11   37.16    3.00
   4   0 -11   29.87    2.95
  -4   1  11    1.14    1.48
   4  -1 -11    4.30    1.77
  -4   2  11    2.75    1.60
   4  -2 -11    0.33    1.74
  -4   3  11    0.70    1.50
   4  -3 -11   -0.80    1.76
  -3 -10  11   10.44    2.47
   3  10 -11    9.47    1.95
  -3  -9  11   14.86    2.60
   3   9 -11   15.68    2.15
  -3  -8  11   29.60    3.12
   3   8 -11   25.87    2.48
  -3  -7  11   63.46    3.83
   3   7 -11   57.80    2.96
  -3  -6  11    0.02    1.42
   3   6 -11    1.70    1.01
   3   6 -11    0.41    1.00
  -3  -5  11    7.88    1.76
   3   5 -11    5.73    1.18
   3   5 -11    6.59    1.40
  -3  -4  11   10.54    1.91
   3   4 -11    8.79    1.66
  -3  -3  11    0.80    1.30
   3   3 -11   -0.81    1.10
  -3  -2  11   47.09    3.25
   3   2 -11   52.71    3.01
  -3  -1  11   33.17    3.05
   3   1 -11   32.21    2.81
  -3   0  11   32.86    3.05
   3   0 -11   35.31    2.98
  -3   1  11    6.11    1.84
   3  -1 -11    6.00    1.89
  -3   2  11    4.73    1.87
   3  -2 -11   -0.79    1.65
  -3   3  11    1.44    1.71
   3  -3 -11    4.52    2.01
  -2 -10  11   -1.30    1.57
   2  10 -11   -1.27    1.21
  -2  -9  11    0.15    1.63
   2   9 -11   -0.03    1.22
  -2  -8  11   10.57    2.21
   2   8 -11   11.66    1.76
  -2  -7  11   16.76    2.39
   2   7 -11   13.03    1.68
  -2  -6  11   10.63    2.05
   2   6 -11    7.81    1.37
   2   6 -11    8.10    1.38
  -2  -5  11   69.97    3.70
   2   5 -11   64.73    2.84
  -2  -4  11    1.36    1.39
   2   4 -11    2.03    1.09
  -2  -3  11   -0.20    1.22
   2   3 -11    1.80    1.20
  -2  -2  11   23.22    2.57
   2   2 -11   22.16    2.29
  -2  -1  11   -0.82    1.28
   2   1 -11    2.52    1.40
  -2   0  11   20.84    2.58
   2   0 -11   16.15    2.18
  -2   1  11   37.96    3.43
   2  -1 -11   38.83    3.26
  -2   2  11   21.96    2.93
   2  -2 -11   28.79    3.08
  -1 -11  11    3.31    1.94
   1  11 -11    0.99    1.31
  -1 -10  11   -1.06    1.62
   1  10 -11   -0.41    1.13
  -1  -9  11    4.11    1.89
   1   9 -11    0.90    1.24
  -1  -8  11    4.16    1.81
   1   8 -11    2.26    1.12
  -1  -7  11   17.38    2.39
   1   7 -11   17.26    1.76
   1   7 -11   16.22    1.68
  -1  -6  11   13.28    2.12
   1   6 -11   13.81    1.71
  -1  -5  11   13.75    2.21
   1   5 -11   12.07    1.71
  -1  -4  11    5.85    1.73
   1   4 -11    6.76    1.45
  -1  -3  11    3.79    1.56
   1   3 -11    0.72    1.13
  -1  -2  11    0.30    1.34
   1   2 -11    2.55    1.31
  -1  -1  11   18.78    2.50
   1   1 -11   16.47    2.27
  -1   0  11   -0.35    1.56
   1   0 -11    0.52    1.40
  -1   1  11    8.85    2.27
   1  -1 -11   10.01    2.17
  -1   2  11    5.37    2.21
   1  -2 -11   -0.22    1.60
   0 -11  11    7.96    2.34
   0  11 -11    6.28    1.68
   0 -10  11   60.15    4.20
   0  10 -11   59.02    3.20
   0  -9  11   -0.35    1.58
   0   9 -11    1.63    1.15
   0  -8  11   -0.86    1.41
   0   8 -11   -0.04    0.95
   0  -7  11   36.28    3.28
   0   7 -11   41.60    2.31
   0  -6  11   -1.89    1.26
   0   6 -11    0.20    0.91
   0  -5  11   17.39    2.55
   0   5 -11   19.27    2.03
   0  -4  11   79.85    4.03
   0   4 -11   73.63    3.35
   0  -3  11   32.13    3.12
   0   3 -11   33.86    2.64
   0  -2  11    3.87    1.67
   0   2 -11    2.36    1.31
   0  -1  11    3.08    1.73
   0   1 -11    6.45    1.72
   0   0  11    9.47    2.32
   0   0 -11    8.50    1.90
   0   1  11   15.18    2.70
   0  -1 -11   10.17    2.21
   1 -11  11    0.52    1.88
  -1  11 -11    6.09    1.60
   1 -10  11    1.58    1.86
  -1  10 -11    4.02    1.36
   1  -9  11   -1.03    1.45
  -1   9 -11   -0.18    1.04
   1  -8  11   14.06    2.32
  -1   8 -11   16.64    2.47
   1  -7  11   -0.49    1.37
  -1   7 -11    1.85    0.99
   1  -6  11   15.43    2.35
  -1   6 -11   14.05    1.86
   1  -5  11    3.97    1.67
  -1   5 -11    5.07    1.42
   1  -4  11    8.20    1.92
  -1   4 -11    7.15    1.66
   1  -3  11    0.43    1.44
  -1   3 -11    1.80    1.27
   1  -2  11   20.07    2.68
  -1   2 -11   22.53    2.62
   1  -1  11    6.74    2.13
  -1   1 -11    6.93    1.81
   1   0  11    3.18    1.96
  -1   0 -11    5.22    1.77
   1   1  11   -1.50    1.93
  -1  -1 -11    1.61    1.67
  -2  11 -11    4.18    1.42
   2 -10  11    4.84    2.04
  -2  10 -11    6.03    1.46
   2  -9  11   57.88    3.97
   2  -8  11   10.86    2.14
  -2   8 -11   11.14    1.58
   2  -7  11   -2.22    1.39
  -2   7 -11    2.47    1.15
   2  -6  11    0.98    1.56
  -2   6 -11    2.34    1.30
   2  -5  11    2.49    1.70
  -2   5 -11    6.23    1.55
   2  -4  11   16.79    2.53
  -2   4 -11   14.88    2.15
   2  -3  11   13.47    2.39
  -2   3 -11   12.80    2.08
   2  -2  11   40.03    3.61
  -2   2 -11   34.13    3.05
   2  -1  11   -0.44    1.66
  -2   1 -11    0.66    1.60
   2   0  11    2.07    2.13
  -2   0 -11    3.20    1.75
   3 -11  11    0.19    1.77
  -3  11 -11    1.65    1.26
   3 -10  11    2.78    2.02
   3  -9  11    3.46    1.79
   3  -8  11    4.20    1.83
  -3   8 -11    2.85    1.19
   3  -7  11   54.50    3.96
  -3   7 -11   54.03    3.05
   3  -6  11    7.49    1.97
  -3   6 -11   12.29    1.97
   3  -5  11   15.07    2.56
  -3   5 -11   10.47    1.85
   3  -4  11    5.33    1.98
  -3   4 -11    6.56    1.72
   3  -3  11    2.33    1.81
  -3   3 -11    3.26    1.60
   3  -2  11    5.76    2.13
  -3   2 -11    4.09    1.70
   3  -1  11   17.07    2.82
   4 -10  11   -0.68    1.74
   4  -9  11    7.97    2.15
  -4   9 -11   10.45    1.86
   4  -8  11    9.02    2.34
  -4   8 -11    5.85    1.54
   4  -7  11   14.71    2.55
  -4   7 -11   17.40    2.25
   4  -6  11   -0.62    1.60
  -4   6 -11    0.54    1.34
   4  -5  11    8.72    2.13
  -4   5 -11   11.05    2.12
   4  -4  11    0.61    1.74
  -4   4 -11    2.29    1.51
   4  -3  11   17.28    2.81
  -4   3 -11   18.56    2.67
   4  -2  11    1.02    1.87
  -4   2 -11    0.11    1.57
   5 -10  11    6.10    2.25
   5  -9  11   13.98    2.55
  -5   9 -11    9.70    1.81
   5  -8  11   -1.03    1.67
  -5   8 -11    2.43    1.40
   5  -7  11   -1.57    1.77
  -5   7 -11    5.96    1.72
   5  -6  11   34.62    3.35
  -5   6 -11   43.38    3.35
   5  -5  11   28.17    3.18
  -5   5 -11   32.94    3.29
   5  -4  11    4.98    2.04
  -5   4 -11    4.02    1.81
   6  -8  11   19.80    2.80
  -6   8 -11   11.92    2.05
   6  -7  11   -1.44    1.50
  -6   7 -11    1.20    1.43
   6  -6  11    1.03    1.74
  -6   6 -11    2.95    1.68
  -8  -4  12    5.15    1.44
   8   4 -12    0.37    1.58
  -8  -3  12   58.65    3.07
   8   3 -12   53.73    3.58
  -8  -2  12   23.52    2.25
   8   2 -12   20.28    2.72
   8   1 -12   21.96    2.83
   8   0 -12    3.78    2.03
  -7  -6  12   20.25    2.60
  -7  -5  12   -0.87    1.40
  -7  -4  12    0.15    0.95
  -7  -4  12   -3.02    1.13
   7   4 -12   -0.02    1.42
  -7  -3  12    3.12    1.16
   7   3 -12    3.59    1.68
   7   2 -12    0.30    1.53
   7   1 -12   31.22    3.28
   7   0 -12   15.85    2.57
   7  -1 -12   25.94    3.07
  -6  -7  12    8.29    2.34
   6   7 -12    9.12    2.03
  -6  -6  12   13.05    2.34
   6   6 -12   11.82    2.01
  -6  -5  12   13.06    2.27
   6   5 -12    8.95    1.77
   6   5 -12   10.56    1.96
  -6  -4  12    0.54    0.94
  -6  -4  12    0.49    1.45
   6   4 -12   -0.96    1.23
  -6  -3  12    2.60    1.49
   6   3 -12    1.05    1.40
  -6  -2  12   31.01    2.91
   6   2 -12   32.51    3.04
  -6  -1  12    5.88    1.65
   6   1 -12   10.93    2.27
  -6   0  12   17.46    2.24
   6   0 -12   22.42    2.88
  -6   1  12    1.24    2.16
   6  -1 -12   -0.53    1.77
  -5  -8  12   10.76    2.47
   5   8 -12   10.58    2.05
  -5  -7  12   -1.15    1.60
   5   7 -12    0.12    1.14
  -5  -6  12   23.61    2.85
   5   6 -12   23.07    2.44
  -5  -5  12   39.34    3.33
   5   5 -12   38.21    2.63
   5   5 -12   41.80    2.86
  -5  -4  12   20.85    2.65
   5   4 -12   24.70    2.58
  -5  -3  12   10.09    1.95
   5   3 -12    8.28    1.85
  -5  -2  12    6.74    1.78
   5   2 -12    2.98    1.59
  -5  -1  12    9.28    1.90
   5   1 -12    9.34    2.03
   5   0 -12   33.36    3.33
  -5   1  12   20.53    2.61
   5  -1 -12   18.52    2.83
   5  -2 -12   46.60    4.15
  -4  -9  12    4.52    2.24
   4   9 -12    2.85    1.58
  -4  -8  12   -0.09    1.70
   4   8 -12    0.99    1.34
  -4  -7  12   19.74    2.75
   4   7 -12   19.72    2.31
  -4  -6  12   -1.65    1.43
   4   6 -12    0.00    1.08
  -4  -5  12   10.32    2.15
   4   5 -12    7.45    1.65
  -4  -4  12    1.09    1.48
   4   4 -12    1.15    1.27
  -4  -3  12   13.17    2.17
   4   3 -12   16.99    2.22
  -4  -2  12    5.16    1.66
   4   2 -12    5.17    1.67
  -4  -1  12    0.53    1.43
   4   1 -12    1.78    1.50
  -4   0  12   -0.22    1.35
   4   0 -12   -0.57    1.53
  -4   1  12   -0.31    1.52
   4  -1 -12   -0.21    1.72
  -3  -9  12    7.20    2.27
   3   9 -12    5.36    1.59
  -3  -8  12    6.87    2.21
   3   8 -12    4.84    1.53
  -3  -7  12    2.69    1.84
   3   7 -12    3.36    1.31
  -3  -6  12    4.68    1.80
   3   6 -12    4.88    1.43
  -3  -5  12   41.80    3.52
   3   5 -12   34.31    2.50
  -3  -4  12   21.39    2.76
   3   4 -12   17.85    2.17
  -3  -3  12   47.15    3.52
   3   3 -12   43.01    3.02
  -3  -2  12    0.06    1.47
   3   2 -12    1.84    1.51
  -3  -1  12    1.24    1.58
   3   1 -12    2.40    1.57
  -3   0  12    9.29    2.16
   3   0 -12    7.56    2.12
  -3   1  12    8.21    2.20
   3  -1 -12    6.26    2.09
  -2 -10  12   10.54    2.67
   2  10 -12    4.52    1.55
  -2  -9  12   -0.46    1.70
   2   9 -12    2.99    1.44
  -2  -8  12   45.18    3.76
   2   8 -12   43.61    2.70
  -2  -7  12    1.79    1.76
  -2  -6  12    0.11    1.54
   2   6 -12    2.57    1.21
  -2  -5  12   10.09    2.15
   2   5 -12    5.68    1.34
  -2  -4  12    0.80    1.46
   2   4 -12    1.21    1.28
  -2  -3  12   14.12    2.33
   2   3 -12   10.91    1.88
  -2  -2  12   10.01    2.26
   2   2 -12   11.78    2.01
  -2  -1  12   56.98    3.84
   2   1 -12   52.85    3.55
  -2   0  12    0.28    1.70
   2   0 -12    3.41    1.81
  -2   1  12    3.12    1.90
   2  -1 -12   -1.00    1.62
  -1 -10  12   15.57    2.72
   1  10 -12   15.29    2.14
  -1  -9  12   12.08    2.58
   1   9 -12    7.35    1.65
  -1  -8  12   31.69    3.40
  -1  -7  12    2.26    1.69
   1   7 -12    0.41    1.04
  -1  -6  12    2.57    1.78
   1   6 -12    2.16    1.21
  -1  -5  12    4.85    1.91
   1   5 -12    4.06    1.40
  -1  -4  12   17.69    2.58
   1   4 -12   13.84    2.04
  -1  -3  12    5.53    1.87
   1   3 -12    5.44    1.62
  -1  -2  12   21.45    2.85
   1   2 -12   20.35    2.45
  -1  -1  12    2.84    1.76
   1   1 -12    2.27    1.70
  -1   0  12    0.66    1.73
   1   0 -12    1.90    1.79
   0 -10  12    4.61    2.20
   0  10 -12    5.90    1.65
   0  -9  12    1.05    1.69
   0  -8  12    6.39    2.07
   0  -7  12   53.45    3.84
   0   7 -12   44.51    2.62
   0  -6  12   54.64    4.07
   0   6 -12   55.32    2.95
   0  -5  12   -1.57    1.50
   0   5 -12    2.64    1.29
   0  -4  12    0.45    1.59
   0   4 -12   -1.14    1.21
   0  -3  12   19.26    2.73
   0   3 -12   15.79    2.22
   0  -2  12   10.56    2.41
   0   2 -12    9.88    1.97
   0  -1  12    5.29    2.09
   0   1 -12   10.75    2.25
   0   0  12   52.00    4.17
   1 -10  12    1.85    1.88
   1  -9  12   18.35    2.78
   1  -8  12    2.58    1.71
   1  -7  12    8.69    2.28
  -1   7 -12    8.60    1.61
   1  -6  12   -0.75    1.65
  -1   6 -12    0.34    1.10
   1  -5  12   21.97    2.98
  -1   5 -12   22.07    2.45
   1  -4  12    8.16    2.26
  -1   4 -12   10.87    1.99
   1  -3  12    9.37    2.29
  -1   3 -12    7.42    1.92
   1  -2  12    0.26    1.80
  -1   2 -12    3.03    1.64
   1  -1  12   -1.17    1.87
  -1   1 -12    2.42    1.78
   2 -10  12    0.24    1.85
   2  -9  12    2.85    1.87
   2  -8  12    2.78    2.03
  -2   8 -12    3.76    1.31
   2  -7  12   14.03    2.64
  -2   7 -12   15.47    2.06
   2  -6  12   10.82    2.46
  -2   6 -12   13.93    2.06
   2  -5  12   51.00    4.05
  -2   5 -12   56.36    3.49
   2  -4  12   -2.02    1.75
  -2   4 -12    0.89    1.49
   2  -3  12    3.26    2.18
  -2   3 -12    6.40    1.96
   2  -2  12    3.03    2.03
  -2   2 -12    5.19    1.94
   3 -10  12   33.46    3.43
   3  -9  12   19.68    2.90
   3  -8  12   21.34    3.13
  -3   8 -12   11.30    1.86
   3  -7  12   -2.20    1.63
  -3   7 -12    0.53    1.37
   3  -6  12    1.63    1.91
  -3   6 -12    5.43    1.80
   3  -5  12    1.28    1.98
  -3   5 -12    3.76    1.64
   3  -4  12    8.05    2.42
  -3   4 -12   10.07    2.14
   3  -3  12   50.29    4.24
  -3   3 -12   48.97    3.89
   4  -9  12   -2.19    1.92
  -4   9 -12    0.10    1.62
   4  -8  12    3.96    2.10
  -4   8 -12    5.75    1.63
   4  -7  12   -1.91    1.67
  -4   7 -12    1.68    1.39
   4  -6  12   11.44    2.49
  -4   6 -12   12.06    2.10
   4  -5  12    4.03    2.18
  -4   5 -12    3.96    1.75
  -4   4 -12    4.35    1.85
   7   4 -13    9.38    2.08
   7   3 -13    4.81    1.93
   7   2 -13   22.76    2.83
  -6  -6  13    1.25    1.82
   6   6 -13    0.13    3.10
  -6  -5  13   10.73    2.27
   6   5 -13   12.91    2.45
  -6  -4  13    8.56    2.04
   6   4 -13   12.94    2.24
  -6  -3  13   20.47    2.65
   6   3 -13   20.55    2.59
  -6  -2  13    1.60    1.52
   6   2 -13    1.39    1.75
  -6  -1  13    0.98    1.52
   6   1 -13    0.46    1.78
  -5  -7  13   20.50    3.00
   5   7 -13   15.08    2.88
  -5  -6  13    1.02    1.84
  -5  -5  13    0.72    1.69
   5   5 -13    1.96    1.52
  -5  -4  13   12.67    2.35
   5   4 -13   14.94    2.33
  -5  -3  13   16.56    2.51
   5   3 -13   15.17    2.40
  -5  -2  13   23.83    2.86
   5   2 -13   23.65    2.92
  -5  -1  13   40.14    3.47
   5   1 -13   46.50    3.67
  -5   0  13    2.37    1.81
   5   0 -13    3.61    2.12
  -4  -8  13    7.29    2.29
   4   8 -13   11.35    2.62
  -4  -7  13    1.39    1.89
  -4  -6  13    5.98    2.10
  -4  -5  13    7.26    2.22
   4   5 -13   10.22    1.97
  -4  -4  13    4.65    1.89
   4   4 -13    3.52    1.64
  -4  -3  13    6.43    2.01
   4   3 -13    4.32    1.66
  -4  -2  13    1.40    1.68
   4   2 -13   -2.62    1.43
  -4  -1  13    9.16    2.04
   4   1 -13   10.02    2.32
  -4   0  13   -0.12    1.65
   4   0 -13    2.36    2.00
  -3  -8  13   18.12    2.95
  -3  -7  13   22.12    2.99
  -3  -6  13   52.07    4.07
   3   6 -13   53.75    3.08
  -3  -5  13   -0.68    1.64
   3   5 -13    3.29    1.42
  -3  -4  13   -1.61    1.49
   3   4 -13    0.47    1.36
  -3  -3  13    9.37    2.30
   3   3 -13    8.75    2.01
  -3  -2  13    0.94    1.69
   3   2 -13    2.20    1.74
  -3  -1  13   18.38    2.71
   3   1 -13   15.33    2.48
  -2  -9  13    4.37    2.19
  -2  -8  13   -0.53    1.85
  -2  -7  13    3.93    1.98
  -2  -6  13    5.48    2.15
   2   6 -13    8.78    1.73
  -2  -5  13   10.62    2.40
   2   5 -13   12.28    1.95
  -2  -4  13   50.83    3.96
   2   4 -13   51.04    3.30
  -2  -3  13    5.87    2.10
   2   3 -13    3.53    1.65
  -2  -2  13    3.62    1.87
   2   2 -13    0.52    1.53
  -2  -1  13    6.02    2.06
  -1  -9  13   -1.07    1.80
  -1  -8  13    1.81    1.95
  -1  -7  13   10.54    2.59
   1   7 -13   14.17    1.88
  -1  -6  13   13.76    2.71
   1   6 -13    9.48    1.72
  -1  -5  13   30.04    3.47
   1   5 -13   19.99    2.39
  -1  -4  13    7.23    2.35
   1   4 -13    3.64    1.64
  -1  -3  13    3.27    2.05
   1   3 -13    3.40    1.75
  -1  -2  13    9.10    2.40
   1   2 -13    6.49    1.92
  -1  -1  13    1.62    1.88
   1   1 -13    2.86    1.84
   0  -9  13   44.74    4.07
   0  -8  13    2.25    1.98
   0  -7  13   -0.73    1.94
   0   7 -13    3.08    1.31
   0  -6  13   17.00    2.99
   0   6 -13   12.26    1.92
   0  -5  13    2.61    2.21
   0   5 -13    6.22    1.63
   0  -4  13   16.40    2.78
   0   4 -13   20.39    2.55
   0  -3  13   55.19    4.34
   0   3 -13   51.81    3.65
   0  -2  13   13.98    2.67
   0   2 -13   11.04    2.21
   1  -9  13    0.42    1.92
   1  -8  13    8.32    2.46
   1  -7  13   14.54    2.85
  -1   7 -13   13.43    1.97
   1  -6  13    5.96    2.39
  -1   6 -13   10.45    1.86
   1  -5  13    8.13    2.57
  -1   5 -13    6.85    1.69
   1  -4  13    0.39    1.99
  -1   4 -13    1.55    1.53
   1  -3  13    5.10    2.29
  -1   3 -13    4.10    1.79
   2  -8  13   54.63    4.55
  -2   8 -13   48.35    3.14
   2  -7  13    7.47    2.57
  -2   7 -13    6.88    1.63
   2  -6  13    1.71    2.33
  -2   6 -13    3.93    1.66
   2  -5  13    0.76    2.01
  -2   5 -13    2.44    1.60
   2  -4  13    2.12    2.22
  -2   4 -13    1.78    1.62
  -4  -5  14   -2.76    1.65
   4   5 -14   -1.29    1.48
  -4  -4  14   12.37    2.64
   4   4 -14   13.42    2.32
  -3  -6  14    6.40    2.36
   3   6 -14    4.73    1.73
  -3  -5  14   -2.63    1.60
   3   5 -14   -0.16    1.47
  -3  -4  14   15.00    2.82
   3   4 -14   17.54    2.43
  -2  -7  14   35.93    3.97
  -2  -6  14    3.98    2.32
   2   6 -14    5.05    1.68
  -2  -5  14    1.34    2.06
   2   5 -14    4.53    1.71
  -2  -4  14    0.46    2.13
   2   4 -14    6.77    1.92
  -1  -7  14    8.54    2.74
   1   7 -14   11.95    2.48
  -1  -6  14   -1.94    1.96
   1   6 -14    3.94    1.52
  -1  -5  14    4.47    2.30
   1   5 -14    1.49    1.45
   0   0   0    0.00    0.00
;
_shelx_hkl_checksum              81065
loop_
_space_group_symop_operation_xyz
'x, y, z'
'-x, -y, -z'
loop_
_atom_site_label
_atom_site_type_symbol
_atom_site_fract_x
_atom_site_fract_y
_atom_site_fract_z
_atom_site_U_iso_or_equiv
_atom_site_adp_type
_atom_site_occupancy
_atom_site_site_symmetry_order
_atom_site_calc_flag
_atom_site_refinement_flags_posn
_atom_site_refinement_flags_adp
_atom_site_refinement_flags_occupancy
Pt1 Pt 0.0000 0.0000 0.0000 0.01630(9) Uani 1 2 d S . P
Cl1 Cl 0.06451(18) -0.0093(2) 0.22976(17) 0.0194(3) Uani 1 1 d . . .
C3 C 0.7092(9) 0.3363(9) -0.0462(8) 0.0252(15) Uani 1 1 d . . .
H3A H 0.7808 0.2910 -0.0966 0.030 Uiso 1 1 calc R U .
H3B H 0.6301 0.3428 -0.1230 0.030 Uiso 1 1 calc R U .
C1 C 0.3686(8) 0.1967(8) 0.0633(7) 0.0165(12) Uani 1 1 d . . .
N1 N 0.2342(7) 0.1207(7) 0.0377(6) 0.0213(11) Uani 1 1 d . . .
C6 C 0.6211(8) 0.4623(9) 0.2315(8) 0.0275(15) Uani 1 1 d . . .
H6A H 0.7000 0.4549 0.3077 0.033 Uiso 1 1 calc R U .
H6B H 0.5473 0.5044 0.2806 0.033 Uiso 1 1 calc R U .
N2 N 0.5247(7) 0.2879(7) 0.0932(6) 0.0228(12) Uani 1 1 d . . .
C2 C 0.6164(8) 0.2109(8) 0.0025(8) 0.0214(13) Uani 1 1 d . . .
H2A H 0.5395 0.0975 -0.0903 0.026 Uiso 1 1 calc R U .
H2B H 0.6944 0.1888 0.0658 0.026 Uiso 1 1 calc R U .
C5 C 0.7130(8) 0.5893(8) 0.1826(8) 0.0246(14) Uani 1 1 d . . .
H5A H 0.7853 0.7041 0.2759 0.030 Uiso 1 1 calc R U .
H5B H 0.6331 0.6077 0.1174 0.030 Uiso 1 1 calc R U .
C4 C 0.8151(8) 0.5223(9) 0.0935(8) 0.0270(15) Uani 1 1 d . . .
H4A H 0.9048 0.5191 0.1629 0.032 Uiso 1 1 calc R U .
H4B H 0.8652 0.6033 0.0563 0.032 Uiso 1 1 calc R U .
I1S I 0.45241(5) 0.16210(5) 0.42195(5) 0.01864(10) Uani 1 1 d . . .
I3S I 0.81828(5) 0.54256(5) 0.67274(5) 0.02335(11) Uani 1 1 d . . .
I2S I 0.83619(5) 0.14707(5) 0.41690(5) 0.02144(11) Uani 1 1 d . . .
C1S C 0.7064(8) 0.2587(8) 0.5537(7) 0.0191(13) Uani 1 1 d . . .
H1SA H 0.7103 0.2221 0.6350 0.023 Uiso 1 1 calc R U .
loop_
_atom_site_aniso_label
_atom_site_aniso_U_11
_atom_site_aniso_U_22
_atom_site_aniso_U_33
_atom_site_aniso_U_23
_atom_site_aniso_U_13
_atom_site_aniso_U_12
Pt1 0.01440(17) 0.01169(17) 0.01870(18) 0.00326(13) 0.00833(13) 0.00471(13)
Cl1 0.0157(7) 0.0191(7) 0.0196(7) 0.0067(6) 0.0076(6) 0.0057(6)
C3 0.027(4) 0.025(4) 0.028(4) 0.013(3) 0.019(3) 0.011(3)
C1 0.021(3) 0.014(3) 0.016(3) 0.007(2) 0.010(2) 0.007(3)
N1 0.020(3) 0.018(3) 0.018(3) 0.003(2) 0.008(2) 0.005(2)
C6 0.020(3) 0.021(3) 0.022(4) -0.002(3) 0.006(3) 0.002(3)
N2 0.016(3) 0.013(3) 0.024(3) -0.002(2) 0.012(2) -0.001(2)
C2 0.019(3) 0.014(3) 0.026(3) 0.004(3) 0.013(3) 0.007(3)
C5 0.027(4) 0.015(3) 0.026(4) 0.008(3) 0.006(3) 0.007(3)
C4 0.021(3) 0.029(4) 0.031(4) 0.016(3) 0.012(3) 0.006(3)
I1S 0.0191(2) 0.0167(2) 0.0201(2) 0.00790(16) 0.00893(16) 0.00773(16)
I3S 0.0219(2) 0.0155(2) 0.0278(2) 0.00710(17) 0.00869(18) 0.00667(17)
I2S 0.0225(2) 0.0215(2) 0.0235(2) 0.01011(18) 0.01330(18) 0.01131(18)
C1S 0.022(3) 0.019(3) 0.022(3) 0.012(3) 0.014(3) 0.010(3)
loop_
_atom_type_symbol
_atom_type_description
_atom_type_scat_dispersion_real
_atom_type_scat_dispersion_imag
_atom_type_scat_source
C C 0.0033 0.0016 'International Tables Vol C Tables 4.2.6.8 and 6.1.1.4'
H H 0.0000 0.0000 'International Tables Vol C Tables 4.2.6.8 and 6.1.1.4'
N N 0.0061 0.0033 'International Tables Vol C Tables 4.2.6.8 and 6.1.1.4'
Cl Cl 0.1484 0.1585 'International Tables Vol C Tables 4.2.6.8 and 6.1.1.4'
I I -0.4742 1.8119 'International Tables Vol C Tables 4.2.6.8 and 6.1.1.4'
Pt Pt -1.7033 8.3905 'International Tables Vol C Tables 4.2.6.8 and 6.1.1.4'
loop_
_geom_angle_atom_site_label_1
_geom_angle_atom_site_label_2
_geom_angle_atom_site_label_3
_geom_angle
_geom_angle_site_symmetry_1
_geom_angle_site_symmetry_3
N1 Pt1 N1 180.0 . 2
N1 Pt1 Cl1 89.15(16) . 2
N1 Pt1 Cl1 90.85(16) 2 2
N1 Pt1 Cl1 90.85(16) . .
N1 Pt1 Cl1 89.15(16) 2 .
Cl1 Pt1 Cl1 180.0 2 .
C4 C3 C2 111.6(5) . .
C4 C3 H3A 109.3 . .
C2 C3 H3A 109.3 . .
C4 C3 H3B 109.3 . .
C2 C3 H3B 109.3 . .
H3A C3 H3B 108.0 . .
N1 C1 N2 178.9(7) . .
C1 N1 Pt1 177.0(5) . .
N2 C6 C5 108.8(5) . .
N2 C6 H6A 109.9 . .
C5 C6 H6A 109.9 . .
N2 C6 H6B 109.9 . .
C5 C6 H6B 109.9 . .
H6A C6 H6B 108.3 . .
C1 N2 C2 121.5(5) . .
C1 N2 C6 121.5(5) . .
C2 N2 C6 116.5(5) . .
N2 C2 C3 109.3(5) . .
N2 C2 H2A 109.8 . .
C3 C2 H2A 109.8 . .
N2 C2 H2B 109.8 . .
C3 C2 H2B 109.8 . .
H2A C2 H2B 108.3 . .
C6 C5 C4 111.9(6) . .
C6 C5 H5A 109.2 . .
C4 C5 H5A 109.2 . .
C6 C5 H5B 109.2 . .
C4 C5 H5B 109.2 . .
H5A C5 H5B 107.9 . .
C5 C4 C3 111.0(6) . .
C5 C4 H4A 109.4 . .
C3 C4 H4A 109.4 . .
C5 C4 H4B 109.4 . .
C3 C4 H4B 109.4 . .
H4A C4 H4B 108.0 . .
I2S C1S I1S 112.6(3) . .
I2S C1S I3S 112.9(3) . .
I1S C1S I3S 109.8(3) . .
I2S C1S H1SA 107.1 . .
I1S C1S H1SA 107.1 . .
I3S C1S H1SA 107.1 . .
loop_
_geom_bond_atom_site_label_1
_geom_bond_atom_site_label_2
_geom_bond_distance
_geom_bond_site_symmetry_2
Pt1 N1 1.967(5) .
Pt1 N1 1.967(5) 2
Pt1 Cl1 2.3214(15) 2
Pt1 Cl1 2.3215(15) .
C3 C4 1.546(9) .
C3 C2 1.514(9) .
C3 H3A 0.9900 .
C3 H3B 0.9900 .
C1 N1 1.131(8) .
C1 N2 1.318(8) .
C6 N2 1.474(8) .
C6 C5 1.522(9) .
C6 H6A 0.9900 .
C6 H6B 0.9900 .
N2 C2 1.472(8) .
C2 H2A 0.9900 .
C2 H2B 0.9900 .
C5 C4 1.508(9) .
C5 H5A 0.9900 .
C5 H5B 0.9900 .
C4 H4A 0.9900 .
C4 H4B 0.9900 .
I1S C1S 2.144(6) .
I3S C1S 2.163(6) .
I2S C1S 2.139(6) .
C1S H1SA 1.0000 .
loop_
_geom_torsion_atom_site_label_1
_geom_torsion_atom_site_label_2
_geom_torsion_atom_site_label_3
_geom_torsion_atom_site_label_4
_geom_torsion
C5 C6 N2 C1 -131.5(7)
C5 C6 N2 C2 56.7(8)
C1 N2 C2 C3 131.8(7)
C6 N2 C2 C3 -56.4(8)
C4 C3 C2 N2 52.5(8)
N2 C6 C5 C4 -54.1(8)
C6 C5 C4 C3 54.3(8)
C2 C3 C4 C5 -53.6(8)
