#------------------------------------------------------------------------------
#$Date: 2016-05-31 10:54:22 +0300 (Tue, 31 May 2016) $
#$Revision: 183168 $
#$URL: svn://www.crystallography.net/cod/cif/7/11/89/7118963.cif $
#------------------------------------------------------------------------------
#
# This file is available in the Crystallography Open Database (COD),
# http://www.crystallography.net/
#
# All data on this site have been placed in the public domain by the
# contributors.
#
data_7118963
loop_
_publ_author_name
'Dhananjay Dey'
'Subhrajyoti Bhandary'
'Abhishek Sirohiwal'
'Venkatesha R. Hathwar'
'Deepak Chopra'
_publ_section_title
;
 'Conformational lock' via unusual intramolecular C-F^...^O[double bond,
 length as m-dash]C and C-H^...^Cl-C parallel dipoles observed in in situ
 cryocrystallized liquids
;
_journal_name_full               Chem.Commun.
_journal_page_first              7225
_journal_volume                  52
_journal_year                    2016
_chemical_formula_sum            'C7 H3 Cl F2 O'
_chemical_formula_weight         176.54
_chemical_melting_point          278.2
_space_group_crystal_system      triclinic
_space_group_IT_number           2
_space_group_name_Hall           '-P 1'
_space_group_name_H-M_alt        'P -1'
_symmetry_space_group_name_Hall  '-P 1'
_symmetry_space_group_name_H-M   'P -1'
_atom_sites_solution_hydrogens   geom
_audit_creation_method           SHELXL-2014/7
_audit_update_record
;
2016-04-14 deposited with the CCDC.
2016-04-18 downloaded from the CCDC.
;
_cell_angle_alpha                100.231(3)
_cell_angle_beta                 95.404(3)
_cell_angle_gamma                91.365(3)
_cell_formula_units_Z            4
_cell_length_a                   7.4814(4)
_cell_length_b                   8.5648(4)
_cell_length_c                   10.7372(6)
_cell_measurement_reflns_used    9912
_cell_measurement_temperature    110(2)
_cell_measurement_theta_max      30.53
_cell_measurement_theta_min      2.42
_cell_volume                     673.48(6)
_computing_cell_refinement       'Bruker SAINT'
_computing_data_collection       'Bruker APEX2'
_computing_data_reduction        'Bruker SAINT'
_computing_molecular_graphics
'PLATON (Spek, 2009) and Mercury (Macrae <i>et al.</i>, 2008)'
_computing_publication_material  'WINGX (Farrugia, 2014) and PLATON'
_computing_structure_refinement  'SHELXL-2014/7 (Sheldrick, 2014)'
_computing_structure_solution    'SIR2014 (Burla <i>et al.</i>, 2014)'
_diffrn_ambient_temperature      110(2)
_diffrn_measured_fraction_theta_full 0.758
_diffrn_measured_fraction_theta_max 0.711
_diffrn_measurement_device_type  'Bruker APEX-II CCD'
_diffrn_measurement_method       '\w scans'
_diffrn_radiation_type           MoK\a
_diffrn_radiation_wavelength     0.71073
_diffrn_reflns_av_R_equivalents  0.0166
_diffrn_reflns_av_unetI/netI     0.0103
_diffrn_reflns_Laue_measured_fraction_full 0.758
_diffrn_reflns_Laue_measured_fraction_max 0.711
_diffrn_reflns_limit_h_max       7
_diffrn_reflns_limit_h_min       -7
_diffrn_reflns_limit_k_max       11
_diffrn_reflns_limit_k_min       -11
_diffrn_reflns_limit_l_max       14
_diffrn_reflns_limit_l_min       -14
_diffrn_reflns_number            16476
_diffrn_reflns_point_group_measured_fraction_full 0.758
_diffrn_reflns_point_group_measured_fraction_max 0.711
_diffrn_reflns_theta_full        25.242
_diffrn_reflns_theta_max         27.877
_diffrn_reflns_theta_min         1.937
_exptl_absorpt_coefficient_mu    0.532
_exptl_absorpt_correction_T_max  0.7467
_exptl_absorpt_correction_T_min  0.7107
_exptl_absorpt_correction_type   multi-scan
_exptl_absorpt_process_details   SADABS
_exptl_crystal_colour            colourless
_exptl_crystal_density_diffrn    1.741
_exptl_crystal_description       block
_exptl_crystal_F_000             352
_exptl_crystal_size_max          0.300
_exptl_crystal_size_mid          0.300
_exptl_crystal_size_min          0.300
_refine_diff_density_max         0.270
_refine_diff_density_min         -0.260
_refine_diff_density_rms         0.057
_refine_ls_extinction_coef       .
_refine_ls_extinction_method     none
_refine_ls_goodness_of_fit_ref   1.099
_refine_ls_hydrogen_treatment    constr
_refine_ls_matrix_type           full
_refine_ls_number_parameters     199
_refine_ls_number_reflns         2284
_refine_ls_number_restraints     0
_refine_ls_restrained_S_all      1.099
_refine_ls_R_factor_all          0.0375
_refine_ls_R_factor_gt           0.0345
_refine_ls_shift/su_max          0.000
_refine_ls_shift/su_mean         0.000
_refine_ls_structure_factor_coef Fsqd
_refine_ls_weighting_details
'w=1/[\s^2^(Fo^2^)+(0.0429P)^2^+0.6610P] where P=(Fo^2^+2Fc^2^)/3'
_refine_ls_weighting_scheme      calc
_refine_ls_wR_factor_gt          0.0964
_refine_ls_wR_factor_ref         0.0992
_reflns_Friedel_coverage         0.000
_reflns_Friedel_fraction_full    .
_reflns_Friedel_fraction_max     .
_reflns_number_gt                2093
_reflns_number_total             2284
_reflns_threshold_expression     'I > 2\s(I)'
_cod_data_source_file            c6cc02535h2.cif
_cod_data_source_block           25dfbc
_cod_database_code               7118963
_shelx_shelxl_version_number     2014/7
_shelx_space_group_comment
;
The symmetry employed for this shelxl refinement is uniquely defined
by the following loop, which should always be used as a source of
symmetry information in preference to the above space-group names.
They are only intended as comments.
;
_shelx_estimated_absorpt_t_min   0.857
_shelx_estimated_absorpt_t_max   0.857
_shelx_res_file
;

    shelx.res created by SHELXL-2014/7


TITL  SIR2014 run in space group P -1
CELL   0.71073    7.4814   8.5648  10.7372 100.231  95.404  91.365
ZERR         4    0.0004   0.0004   0.0006   0.003   0.003   0.003
LATT  1
SFAC C H O F CL
UNIT 28 12 4 8 4
L.S.   12
OMIT 5 6 5
OMIT 0 3 6
OMIT -4 -2 1
OMIT -1 2 2
OMIT -1 3 1
OMIT -3 3 7
OMIT -3 -4 1
ACTA
BOND $H
CONF
TEMP -163
SIZE 0.3 0.3 0.3
FMAP   2
PLAN     5
WGHT    0.042900    0.661000
FVAR       0.14633
CL1   5    1.131415    0.436774    0.861008    11.00000    0.05124    0.03062 =
         0.03649    0.01396   -0.00668    0.01029
F1    4    0.841771    0.598322    0.518419    11.00000    0.03378    0.02666 =
         0.02295    0.00205   -0.00488   -0.00107
F2    4    1.134948    1.042634    0.911277    11.00000    0.04936    0.02711 =
         0.03471   -0.00229   -0.00822   -0.00741
O1    3    0.886001    0.385985    0.672448    11.00000    0.05140    0.02359 =
         0.03661    0.00748   -0.00284   -0.00476
C2    1    0.915177    0.706894    0.617883    11.00000    0.01731    0.02476 =
         0.02165    0.00364    0.00122   -0.00037
C5    1    1.060656    0.930717    0.813447    11.00000    0.02744    0.02383 =
         0.02653   -0.00008   -0.00066   -0.00411
C1    1    0.988175    0.657637    0.727961    11.00000    0.01905    0.02072 =
         0.02222    0.00465    0.00280    0.00260
C3    1    0.914403    0.863518    0.604287    11.00000    0.01916    0.02753 =
         0.02425    0.00946    0.00215    0.00644
AFIX  43
H3    2    0.864816    0.892115    0.527128    11.00000   -1.20000
AFIX   0
C7    1    0.981126    0.487155    0.737721    11.00000    0.03315    0.02601 =
         0.02312    0.00835    0.00386    0.00259
C6    1    1.063916    0.774639    0.828117    11.00000    0.02297    0.02557 =
         0.02252    0.00481   -0.00008    0.00185
AFIX  43
H6    2    1.116556    0.746736    0.904747    11.00000   -1.20000
AFIX   0
C4    1    0.986898    0.979092    0.704607    11.00000    0.02471    0.01992 =
         0.03342    0.00704    0.00515    0.00169
AFIX  43
H4    2    0.985844    1.088411    0.698618    11.00000   -1.20000
AFIX   0
CL1A  5    0.378138   -0.236231    0.129843    11.00000    0.05765    0.02549 =
         0.03649    0.00111   -0.00985   -0.00734
F2A   4    0.351983    0.351713    0.097803    11.00000    0.04493    0.03610 =
         0.03507    0.01927   -0.00171    0.01075
F1A   4    0.664979    0.085492    0.479656    11.00000    0.02939    0.03096 =
         0.02463    0.00809   -0.00521    0.00558
O1A   3    0.602203   -0.195470    0.329955    11.00000    0.05232    0.02525 =
         0.03638    0.00678   -0.00365    0.00967
C1A   1    0.509566    0.049549    0.272539    11.00000    0.01712    0.02122 =
         0.02348    0.00483    0.00340    0.00102
C5A   1    0.432306    0.284274    0.191831    11.00000    0.02178    0.02890 =
         0.02862    0.01370    0.00303    0.00563
C4A   1    0.510836    0.381649    0.300514    11.00000    0.02540    0.01990 =
         0.03614    0.00666    0.00730    0.00369
AFIX  43
H4A   2    0.511832    0.493913    0.308326    11.00000   -1.20000
AFIX   0
C2A   1    0.587084    0.148725    0.382812    11.00000    0.01972    0.02487 =
         0.02158    0.00653   -0.00013    0.00299
C7A   1    0.516968   -0.125166    0.261642    11.00000    0.03363    0.02438 =
         0.02295    0.00366    0.00399   -0.00016
C3A   1    0.588137    0.311263    0.397868    11.00000    0.02402    0.02435 =
         0.02847    0.00160    0.00030   -0.00247
AFIX  43
H3A   2    0.641494    0.374994    0.474498    11.00000   -1.20000
AFIX   0
C6A   1    0.429487    0.121581    0.175036    11.00000    0.02148    0.02614 =
         0.02243    0.00595    0.00119    0.00321
AFIX  43
H6A   2    0.374179    0.058823    0.098594    11.00000   -1.20000
AFIX   0
HKLF   4

REM   SIR2014 run in space group P -1
REM R1 =  0.0345 for    2093 Fo > 4sig(Fo)  and  0.0375 for all    2284 data
REM    199 parameters refined using      0 restraints

END

WGHT      0.0428      0.6472

REM Highest difference peak  0.270,  deepest hole -0.260,  1-sigma level  0.057
Q1    1   1.0200  0.9479  0.7585  11.00000  0.05    0.27
Q2    1   0.5266  0.0962  0.3353  11.00000  0.05    0.25
Q3    1   1.0661  0.8557  0.8245  11.00000  0.05    0.24
Q4    1   1.1410  0.5149  0.9270  11.00000  0.05    0.23
Q5    1   0.9966  0.5798  0.7336  11.00000  0.05    0.23
;
_shelx_res_checksum              78614
_shelx_hkl_file
;
  -1   0   0   -0.13    0.01
   1   0   0   -0.12    0.00
   1   0   0   -0.12    0.01
   2   0   0  138.65    2.32
   3   0   0    0.01    0.01
   0  -1   0    0.28    0.01
   0  -1   0    0.29    0.01
   0  -1   0    0.29    0.01
   0  -1   0    0.28    0.01
   0  -1   0    0.30    0.01
   0  -1   0    0.33    0.01
   0  -1   0    0.28    0.01
   0   1   0    0.31    0.01
   0   1   0    0.33    0.01
   0   1   0    0.31    0.01
   0   1   0    0.29    0.01
   0   1   0    0.32    0.01
   0   1   0    0.33    0.02
  -1  -1   0   34.78    0.57
  -1  -1   0   34.64    0.57
  -1  -1   0   34.38    0.57
  -1  -1   0   34.75    0.57
  -1  -1   0   34.59    0.59
  -1  -1   0   34.02    0.58
  -1  -1   0   34.95    0.58
   1   1   0   34.83    0.57
   1   1   0   34.62    0.57
   1   1   0   34.44    0.57
   1   1   0   33.93    0.59
   1   1   0   34.45    0.57
  -2  -1   0    4.57    0.10
  -2  -1   0    4.48    0.09
  -2  -1   0    4.49    0.09
  -2  -1   0    4.63    0.09
  -2  -1   0    4.44    0.09
  -2  -1   0    4.38    0.09
  -2  -1   0    4.54    0.09
  -2  -1   0    4.58    0.09
   2   1   0    4.36    0.09
   2   1   0    4.56    0.09
   2   1   0    4.59    0.09
   2   1   0    4.48    0.10
   2   1   0    4.60    0.09
  -3  -1   0    6.62    0.12
  -3  -1   0    6.71    0.13
  -3  -1   0    6.54    0.13
  -3  -1   0    6.41    0.12
  -3  -1   0    6.61    0.13
  -3  -1   0    6.69    0.13
  -3  -1   0    6.82    0.15
  -3  -1   0    6.63    0.13
  -3  -1   0    6.56    0.13
   3   1   0    6.60    0.13
   3   1   0    6.50    0.15
   3   1   0    6.67    0.13
   3   1   0    6.76    0.13
   3   1   0    6.81    0.13
  -4  -1   0    9.10    0.17
  -4  -1   0    8.97    0.17
  -4  -1   0    9.40    0.19
  -4  -1   0    8.94    0.18
  -4  -1   0    8.98    0.17
  -4  -1   0    9.02    0.17
  -4  -1   0    8.75    0.17
   4   1   0    8.92    0.19
   4   1   0    8.94    0.17
   4   1   0    8.88    0.17
  -5  -1   0    0.00    0.01
  -5  -1   0    0.00    0.01
  -5  -1   0   -0.01    0.01
  -5  -1   0    0.01    0.01
  -5  -1   0    0.01    0.01
  -5  -1   0   -0.02    0.01
  -5  -1   0   -0.03    0.01
  -5  -1   0    0.01    0.01
  -5  -1   0    0.01    0.02
   5   1   0   -0.02    0.01
   5   1   0   -0.01    0.01
   5   1   0    0.00    0.01
  -6  -1   0    1.12    0.04
  -6  -1   0    1.16    0.04
  -6  -1   0    1.15    0.04
  -6  -1   0    1.11    0.04
   1  -2   0   20.91    0.35
   1  -2   0   21.29    0.36
   1  -2   0   21.05    0.35
   1  -2   0   20.43    0.35
   1  -2   0   20.90    0.35
   1  -2   0   21.06    0.35
   1  -2   0   20.90    0.35
   1  -2   0   20.61    0.35
   1  -2   0   21.10    0.35
   1  -2   0   20.84    0.35
  -1   2   0   21.04    0.35
  -1   2   0   19.88    0.35
  -1   2   0   19.97    0.35
  -1   2   0   20.34    0.36
   0  -2   0    0.05    0.01
   0  -2   0    0.02    0.01
   0  -2   0    0.05    0.01
   0  -2   0    0.05    0.01
   0  -2   0    0.04    0.01
   0  -2   0    0.01    0.01
   0  -2   0    0.03    0.01
   0  -2   0    0.04    0.01
   0  -2   0    0.06    0.01
   0  -2   0    0.05    0.01
   0   2   0    0.03    0.01
   0   2   0    0.04    0.01
   0   2   0    0.04    0.01
   0   2   0    0.02    0.01
   0   2   0    0.04    0.01
  -1  -2   0  156.13    2.63
  -1  -2   0  159.43    2.62
  -1  -2   0  158.30    2.63
  -1  -2   0  157.11    2.70
  -1  -2   0  158.08    2.63
  -1  -2   0  158.36    2.63
  -1  -2   0  154.91    2.63
  -1  -2   0  158.17    2.63
  -1  -2   0  162.05    2.65
   1   2   0  160.60    2.71
   1   2   0  159.03    2.67
   1   2   0  161.68    2.62
   1   2   0  159.95    2.68
   1   2   0  159.33    2.63
   1   2   0  159.02    2.64
  -2  -2   0    0.53    0.03
  -2  -2   0    0.52    0.02
  -2  -2   0    0.54    0.02
  -2  -2   0    0.49    0.03
  -2  -2   0    0.54    0.03
  -2  -2   0    0.51    0.03
  -2  -2   0    0.52    0.04
   2   2   0    0.49    0.03
   2   2   0    0.47    0.03
   2   2   0    0.52    0.02
   2   2   0    0.53    0.03
  -3  -2   0   18.91    0.33
  -3  -2   0   18.43    0.34
  -3  -2   0   18.95    0.33
  -3  -2   0   19.17    0.35
  -3  -2   0   18.98    0.34
  -3  -2   0   18.99    0.34
  -3  -2   0   19.17    0.37
   3   2   0   18.93    0.34
   3   2   0   19.47    0.37
   3   2   0   19.17    0.34
  -4  -2   0   15.26    0.28
  -4  -2   0   15.55    0.28
  -4  -2   0   15.49    0.27
  -4  -2   0   15.10    0.29
  -4  -2   0   15.38    0.31
  -4  -2   0   15.44    0.28
  -4  -2   0   15.68    0.28
   4   2   0   14.64    0.28
   4   2   0   14.64    0.28
   4   2   0   14.35    0.31
  -5  -2   0   26.24    0.46
  -5  -2   0   26.33    0.45
  -5  -2   0   26.35    0.47
  -5  -2   0   26.39    0.46
  -5  -2   0   25.18    0.46
  -5  -2   0   26.65    0.50
  -5  -2   0   26.66    0.46
   5   2   0   25.13    0.47
   5   2   0   25.48    0.46
   5   2   0   25.75    0.50
  -6  -2   0   16.38    0.30
  -6  -2   0   16.08    0.30
  -6  -2   0   15.50    0.31
  -6  -2   0   16.15    0.34
  -6  -2   0   15.91    0.31
  -6  -2   0   16.10    0.30
  -6  -2   0   16.15    0.30
   6   2   0   16.35    0.31
   6   2   0   16.33    0.35
   6   2   0   16.61    0.31
   2  -3   0   12.58    0.22
   2  -3   0   12.46    0.23
   2  -3   0   12.20    0.21
   2  -3   0   12.43    0.21
   2  -3   0   11.93    0.21
   2  -3   0   12.23    0.21
   2  -3   0   12.31    0.22
   2  -3   0   12.37    0.22
   2  -3   0   12.22    0.21
   2  -3   0   12.21    0.22
   2  -3   0   12.51    0.22
   2  -3   0   12.27    0.22
  -2   3   0   10.63    0.23
  -2   3   0   12.55    0.23
  -2   3   0   11.96    0.21
  -2   3   0   12.07    0.21
   1  -3   0   45.02    0.75
   1  -3   0   44.42    0.75
  -1   3   0   43.94    0.75
  -1   3   0   44.99    0.74
  -1   3   0   44.88    0.74
  -1   3   0   43.97    0.75
  -1   3   0   43.76    0.77
   0  -3   0    4.50    0.10
   0  -3   0    4.43    0.10
   0  -3   0    4.51    0.12
   0  -3   0    4.45    0.09
   0  -3   0    4.53    0.10
   0  -3   0    4.56    0.09
   0  -3   0    4.48    0.10
   0   3   0    4.48    0.10
   0   3   0    4.43    0.11
   0   3   0    4.41    0.10
  -1  -3   0    7.23    0.14
  -1  -3   0    7.26    0.14
  -1  -3   0    7.20    0.15
  -1  -3   0    7.23    0.15
  -1  -3   0    7.55    0.15
  -1  -3   0    7.33    0.15
  -1  -3   0    7.36    0.17
   1   3   0    7.16    0.15
   1   3   0    7.12    0.15
   1   3   0    7.30    0.17
  -2  -3   0    6.61    0.14
  -2  -3   0    6.39    0.13
  -2  -3   0    6.47    0.16
  -2  -3   0    6.50    0.14
  -2  -3   0    6.37    0.13
  -2  -3   0    6.48    0.14
  -2  -3   0    6.39    0.13
   2   3   0    6.47    0.14
   2   3   0    6.45    0.14
   2   3   0    6.52    0.16
  -3  -3   0    7.08    0.15
  -3  -3   0    7.11    0.15
  -3  -3   0    6.99    0.18
  -3  -3   0    7.02    0.16
  -3  -3   0    6.88    0.14
  -3  -3   0    7.08    0.15
  -3  -3   0    6.88    0.14
   3   3   0    7.08    0.16
   3   3   0    7.00    0.18
   3   3   0    6.98    0.15
  -4  -3   0    6.95    0.16
  -4  -3   0    7.22    0.16
  -4  -3   0    6.86    0.15
  -4  -3   0    6.82    0.15
  -4  -3   0    7.03    0.15
  -4  -3   0    6.84    0.18
  -4  -3   0    7.06    0.15
   4   3   0    6.94    0.19
   4   3   0    7.09    0.16
   4   3   0    6.70    0.16
  -5  -3   0    4.62    0.12
  -5  -3   0    4.58    0.15
  -5  -3   0    4.41    0.12
  -5  -3   0    4.57    0.11
  -5  -3   0    4.48    0.11
  -5  -3   0    4.49    0.12
  -5  -3   0    4.52    0.11
   5   3   0    4.67    0.12
   5   3   0    4.82    0.15
   5   3   0    4.62    0.12
  -6  -3   0    1.97    0.07
  -6  -3   0    2.09    0.10
  -6  -3   0    2.05    0.08
  -6  -3   0    2.05    0.07
  -6  -3   0    2.07    0.07
  -6  -3   0    2.03    0.08
  -6  -3   0    2.15    0.07
   6   3   0    1.90    0.10
   6   3   0    1.97    0.08
   6   3   0    2.03    0.08
   3  -4   0    3.67    0.08
   3  -4   0    3.90    0.08
   3  -4   0    3.69    0.08
   3  -4   0    3.74    0.08
   3  -4   0    3.65    0.08
   3  -4   0    3.88    0.10
   3  -4   0    3.85    0.08
  -3   4   0    3.65    0.10
  -3   4   0    3.80    0.08
  -3   4   0    3.76    0.08
   2  -4   0    0.79    0.03
   2  -4   0    0.78    0.05
  -2   4   0    0.88    0.05
  -1  -4   0    8.61    0.17
  -1  -4   0    8.45    0.17
  -1  -4   0    8.72    0.18
  -1  -4   0    8.61    0.17
  -1  -4   0    8.60    0.20
  -1  -4   0    8.65    0.18
  -1  -4   0    8.50    0.17
   1   4   0    7.89    0.20
   1   4   0    7.88    0.18
   1   4   0    8.10    0.18
  -2  -4   0    2.46    0.07
  -2  -4   0    2.38    0.08
  -2  -4   0    2.44    0.07
  -2  -4   0    2.44    0.07
  -2  -4   0    2.34    0.07
  -2  -4   0    2.68    0.08
  -2  -4   0    2.37    0.09
   2   4   0    2.09    0.07
   2   4   0    2.00    0.07
   2   4   0    2.62    0.10
  -3  -4   0    6.22    0.14
  -3  -4   0    6.28    0.18
  -3  -4   0    6.15    0.15
  -3  -4   0    6.08    0.14
  -3  -4   0    6.16    0.13
  -3  -4   0    6.15    0.14
  -3  -4   0    6.12    0.15
   3   4   0    6.27    0.15
   3   4   0    6.34    0.15
   3   4   0    6.45    0.18
  -4  -4   0    0.73    0.05
  -4  -4   0    0.71    0.04
  -4  -4   0    0.60    0.04
  -4  -4   0    0.74    0.05
  -4  -4   0    0.61    0.04
  -4  -4   0    0.70    0.05
  -4  -4   0    0.65    0.06
   4   4   0    0.78    0.05
   4   4   0    0.70    0.06
  -5  -4   0    0.81    0.08
  -5  -4   0    0.74    0.05
  -5  -4   0    0.78    0.05
  -5  -4   0    0.70    0.05
  -5  -4   0    0.71    0.05
  -5  -4   0    0.71    0.05
  -5  -4   0    0.72    0.04
   5   4   0    0.86    0.05
   5   4   0    0.82    0.07
   5   4   0    0.97    0.06
  -6  -4   0    2.02    0.08
  -6  -4   0    1.97    0.08
  -6  -4   0    1.99    0.09
  -6  -4   0    2.01    0.07
  -6  -4   0    2.02    0.08
  -6  -4   0    1.99    0.08
   6   4   0    2.18    0.09
   6   4   0    2.03    0.09
  -7  -4   0    0.05    0.03
  -7  -4   0    0.07    0.03
  -7  -4   0    0.03    0.04
  -7  -4   0    0.09    0.04
   7   4   0    0.01    0.02
   7   4   0    0.02    0.02
   3  -5   0    8.03    0.16
   3  -5   0    8.28    0.16
   3  -5   0    8.58    0.17
   3  -5   0    8.54    0.17
   3  -5   0    8.59    0.19
   3  -5   0    8.05    0.17
   3  -5   0    8.11    0.17
   3  -5   0    8.21    0.17
   3  -5   0    8.25    0.16
   3  -5   0    8.36    0.16
  -3   5   0    8.22    0.17
  -3   5   0    8.17    0.17
  -3   5   0    7.68    0.19
   2  -5   0   19.48    0.33
   2  -5   0   20.32    0.34
   2  -5   0   18.59    0.37
   2  -5   0   18.91    0.34
   2  -5   0   18.72    0.33
   2  -5   0   18.89    0.33
   2  -5   0   19.67    0.33
  -2   5   0   15.92    0.36
  -2   5   0   16.66    0.34
  -2   5   0   16.52    0.34
   1  -5   0    1.20    0.05
   1  -5   0    1.09    0.05
   1  -5   0    1.16    0.05
   1  -5   0    1.17    0.05
   1  -5   0    1.19    0.07
   1  -5   0    1.18    0.05
   1  -5   0    1.19    0.04
  -1   5   0    1.21    0.05
  -1   5   0    1.19    0.05
  -1   5   0    1.16    0.06
   0  -5   0    2.23    0.09
   0  -5   0    2.22    0.07
   0  -5   0    2.31    0.08
   0  -5   0    2.48    0.08
   0  -5   0    2.14    0.07
   0  -5   0    2.14    0.06
   0  -5   0    2.33    0.07
   0   5   0    2.08    0.07
   0   5   0    2.06    0.07
   0   5   0    2.09    0.09
  -1  -5   0    3.65    0.10
  -1  -5   0    3.61    0.13
  -1  -5   0    3.82    0.10
  -1  -5   0    3.69    0.09
  -1  -5   0    3.69    0.10
  -1  -5   0    3.64    0.11
  -1  -5   0    3.64    0.10
   1   5   0    3.84    0.11
   1   5   0    3.80    0.11
   1   5   0    3.74    0.13
  -2  -5   0   33.82    0.61
  -2  -5   0   33.14    0.60
  -2  -5   0   34.47    0.61
  -2  -5   0   33.94    0.66
  -2  -5   0   34.19    0.62
  -2  -5   0   33.51    0.60
  -2  -5   0   33.24    0.60
   2   5   0   35.03    0.62
   2   5   0   36.32    0.67
   2   5   0   34.90    0.62
  -3  -5   0    1.60    0.07
  -3  -5   0    1.64    0.08
  -3  -5   0    1.49    0.06
  -3  -5   0    1.57    0.07
  -3  -5   0    1.55    0.07
  -3  -5   0    1.57    0.06
  -3  -5   0    1.70    0.10
   3   5   0    1.50    0.07
   3   5   0    1.56    0.07
   3   5   0    1.55    0.09
  -4  -5   0   -0.02    0.02
  -4  -5   0   -0.04    0.02
  -4  -5   0    0.01    0.02
  -4  -5   0   -0.01    0.02
  -4  -5   0   -0.02    0.02
  -4  -5   0    0.00    0.02
   4   5   0   -0.04    0.03
   4   5   0   -0.01    0.02
   4   5   0    0.02    0.02
  -5  -5   0    0.71    0.05
  -5  -5   0    0.85    0.05
  -5  -5   0    0.77    0.06
  -5  -5   0    0.68    0.05
  -5  -5   0    0.70    0.05
  -5  -5   0    0.78    0.07
   5   5   0    0.76    0.06
   5   5   0    0.74    0.06
  -6  -5   0   12.04    0.26
  -6  -5   0   11.79    0.26
  -6  -5   0   11.65    0.26
  -6  -5   0   11.76    0.25
  -6  -5   0   11.84    0.27
   6   5   0   12.05    0.27
   6   5   0   12.25    0.28
  -7  -5   0    0.66    0.06
  -7  -5   0    0.65    0.06
  -7  -5   0    0.67    0.06
  -7  -5   0    0.59    0.05
  -7  -5   0    0.67    0.06
   7   5   0    0.71    0.06
   7   5   0    0.65    0.06
   3  -6   0    0.12    0.02
   3  -6   0    0.10    0.02
   3  -6   0    0.11    0.02
   3  -6   0    0.12    0.02
   3  -6   0    0.11    0.02
   3  -6   0    0.07    0.02
   3  -6   0    0.08    0.02
   3  -6   0    0.09    0.03
   3  -6   0    0.08    0.03
   3  -6   0    0.06    0.02
  -3   6   0    0.10    0.02
  -3   6   0    0.11    0.03
  -3   6   0    0.09    0.02
   2  -6   0    0.15    0.03
   2  -6   0    0.14    0.02
   2  -6   0    0.17    0.02
   2  -6   0    0.15    0.02
   2  -6   0    0.16    0.04
   2  -6   0    0.13    0.03
   2  -6   0    0.12    0.03
   2  -6   0    0.15    0.02
   2  -6   0    0.13    0.03
   2  -6   0    0.13    0.03
  -2   6   0    0.21    0.03
  -2   6   0    0.17    0.03
  -2   6   0    0.15    0.03
   1  -6   0    1.10    0.05
   1  -6   0    1.15    0.05
   1  -6   0    1.16    0.05
   1  -6   0    1.19    0.06
   1  -6   0    1.16    0.06
   1  -6   0    1.12    0.07
   1  -6   0    1.04    0.05
  -1   6   0    1.12    0.06
  -1   6   0    1.17    0.07
  -1   6   0    1.15    0.05
   0  -6   0    9.52    0.20
   0  -6   0    9.96    0.25
   0  -6   0    9.68    0.20
   0  -6   0    9.67    0.22
   0  -6   0    9.70    0.20
   0  -6   0    9.52    0.21
   0  -6   0    9.64    0.20
   0   6   0    9.69    0.21
   0   6   0    9.76    0.21
   0   6   0   10.00    0.25
  -1  -6   0    0.57    0.05
  -1  -6   0    0.56    0.04
  -1  -6   0    0.54    0.05
  -1  -6   0    0.58    0.04
  -1  -6   0    0.53    0.04
  -1  -6   0    0.49    0.04
  -1  -6   0    0.61    0.08
   1   6   0    0.57    0.06
   1   6   0    0.59    0.05
   1   6   0    0.59    0.05
  -2  -6   0    5.81    0.15
  -2  -6   0    5.87    0.15
  -2  -6   0    5.85    0.14
  -2  -6   0    5.90    0.16
  -2  -6   0    5.81    0.15
  -2  -6   0    5.77    0.14
   2   6   0    4.93    0.20
   2   6   0    5.85    0.16
   2   6   0    5.78    0.15
  -3  -6   0   12.27    0.28
  -3  -6   0   12.21    0.27
  -3  -6   0   11.97    0.25
  -3  -6   0   11.82    0.26
  -3  -6   0   12.23    0.26
  -3  -6   0   12.37    0.25
   3   6   0   11.86    0.27
   3   6   0   12.17    0.27
  -4  -6   0   11.24    0.24
  -4  -6   0   10.98    0.23
  -4  -6   0   10.91    0.25
  -4  -6   0   11.03    0.25
  -4  -6   0   10.88    0.24
   4   6   0   10.92    0.26
   4   6   0   10.66    0.25
  -5  -6   0    4.95    0.14
  -5  -6   0    4.95    0.15
  -5  -6   0    4.57    0.13
  -5  -6   0    4.77    0.14
  -5  -6   0    4.81    0.14
   5   6   0    4.85    0.16
   5   6   0    4.82    0.15
  -6  -6   0    0.98    0.07
  -6  -6   0    1.05    0.07
  -6  -6   0    1.06    0.07
  -6  -6   0    1.00    0.08
  -6  -6   0    1.10    0.07
   6   6   0    1.00    0.08
   6   6   0    0.94    0.08
  -7  -6   0    0.24    0.04
  -7  -6   0    0.25    0.04
  -7  -6   0    0.17    0.04
  -7  -6   0    0.30    0.05
  -7  -6   0    0.23    0.04
   7   6   0    0.34    0.05
   7   6   0    0.31    0.05
   3  -7   0    3.16    0.10
   3  -7   0    3.16    0.09
   3  -7   0    3.15    0.13
   3  -7   0    3.23    0.09
   3  -7   0    3.19    0.10
   3  -7   0    3.32    0.09
   3  -7   0    3.34    0.09
  -3   7   0    3.14    0.10
  -3   7   0    2.92    0.17
  -3   7   0    3.11    0.10
   2  -7   0    0.01    0.01
   2  -7   0    0.02    0.01
   2  -7   0    0.01    0.01
   2  -7   0    0.00    0.01
   2  -7   0    0.00    0.01
   2  -7   0    0.00    0.01
   2  -7   0    0.01    0.01
  -2   7   0    0.13    0.03
  -2   7   0    0.08    0.02
  -2   7   0    0.06    0.03
   1  -7   0   11.72    0.24
   1  -7   0   11.50    0.24
   1  -7   0   11.17    0.25
   1  -7   0   11.44    0.26
   1  -7   0   11.61    0.24
   1  -7   0   11.53    0.24
  -1   7   0   11.77    0.30
  -1   7   0   11.93    0.26
  -1   7   0   12.01    0.26
   0  -7   0    0.60    0.05
   0  -7   0    0.58    0.06
   0  -7   0    0.54    0.05
   0  -7   0    0.56    0.05
   0  -7   0    0.73    0.06
   0  -7   0    0.52    0.05
   0   7   0    0.54    0.05
   0   7   0    0.54    0.05
  -1  -7   0    0.87    0.06
  -1  -7   0    0.92    0.06
  -1  -7   0    0.83    0.05
  -1  -7   0    0.91    0.07
  -1  -7   0    0.83    0.07
  -1  -7   0    0.82    0.06
   1   7   0    1.13    0.07
  -2  -7   0   -0.01    0.02
  -2  -7   0    0.02    0.03
  -2  -7   0    0.01    0.02
  -2  -7   0   -0.01    0.02
  -2  -7   0   -0.02    0.02
   2   7   0    0.01    0.02
   2   7   0    0.02    0.02
  -3  -7   0   18.27    0.36
  -3  -7   0   18.55    0.38
  -3  -7   0   18.12    0.37
  -3  -7   0   17.95    0.37
  -3  -7   0   18.29    0.37
   3   7   0   18.79    0.39
   3   7   0   18.29    0.38
  -4  -7   0    2.47    0.10
  -4  -7   0    2.37    0.11
  -4  -7   0    2.38    0.10
  -4  -7   0    2.40    0.09
  -4  -7   0    2.38    0.10
   4   7   0    2.61    0.11
   4   7   0    2.52    0.11
  -5  -7   0    0.65    0.07
  -5  -7   0    0.72    0.07
  -5  -7   0    0.65    0.06
  -5  -7   0    0.70    0.06
  -5  -7   0    0.71    0.07
   5   7   0    0.85    0.08
   5   7   0    0.79    0.07
  -6  -7   0    2.23    0.10
  -6  -7   0    2.36    0.11
  -6  -7   0    2.43    0.11
  -6  -7   0    2.30    0.10
  -6  -7   0    2.38    0.12
   6   7   0    2.35    0.11
   6   7   0    2.30    0.11
  -7  -7   0    3.57    0.14
  -7  -7   0    3.72    0.15
   7   7   0    3.68    0.15
   7   7   0    3.57    0.14
   3  -8   0    4.78    0.14
   3  -8   0    4.57    0.13
   3  -8   0    4.81    0.12
   3  -8   0    4.75    0.13
   3  -8   0    4.57    0.13
  -3   8   0    4.80    0.14
  -3   8   0    4.77    0.14
   2  -8   0    2.53    0.08
   2  -8   0    2.35    0.09
   2  -8   0    2.31    0.10
   2  -8   0    2.42    0.10
   2  -8   0    2.47    0.09
   2  -8   0    2.53    0.09
  -2   8   0    3.12    0.10
  -2   8   0    3.18    0.11
   1  -8   0    0.06    0.03
   1  -8   0    0.03    0.03
  -1  -8   0    8.44    0.21
  -1  -8   0    7.93    0.21
  -1  -8   0    8.17    0.20
  -1  -8   0    8.20    0.20
  -1  -8   0    8.08    0.19
   1   8   0    8.13    0.21
   1   8   0    8.69    0.22
  -2  -8   0    0.03    0.02
  -2  -8   0    0.03    0.03
  -2  -8   0    0.04    0.02
  -2  -8   0    0.02    0.02
  -2  -8   0    0.00    0.02
   2   8   0    0.02    0.03
   2   8   0    0.00    0.02
  -3  -8   0    0.05    0.03
  -3  -8   0    0.00    0.02
  -3  -8   0    0.07    0.03
  -3  -8   0    0.04    0.03
  -3  -8   0    0.05    0.03
   3   8   0    0.01    0.03
   3   8   0    0.04    0.03
  -4  -8   0    0.01    0.03
  -4  -8   0    0.00    0.02
  -4  -8   0    0.01    0.03
  -4  -8   0    0.01    0.03
  -4  -8   0    0.04    0.03
   4   8   0    0.01    0.03
   4   8   0   -0.01    0.02
  -5  -8   0    1.22    0.08
  -5  -8   0    1.26    0.08
  -5  -8   0    1.21    0.08
  -5  -8   0    1.22    0.09
   5   8   0    1.16    0.09
   5   8   0    1.31    0.09
  -6  -8   0   -0.01    0.04
  -6  -8   0   -0.01    0.03
   6   8   0    0.01    0.03
   6   8   0    0.02    0.03
   2  -9   0    0.04    0.03
   2  -9   0    0.01    0.03
   2  -9   0    0.08    0.03
   2  -9   0    0.04    0.04
   2  -9   0    0.05    0.03
  -2   9   0    0.05    0.03
  -2   9   0    0.07    0.03
   1  -9   0    0.60    0.06
   1  -9   0    0.47    0.06
   1  -9   0    0.43    0.05
   1  -9   0    0.46    0.05
   1  -9   0    0.49    0.05
  -1   9   0    0.47    0.06
  -1   9   0    0.49    0.06
   0  -9   0    0.49    0.05
   0  -9   0    0.63    0.06
   0  -9   0    0.57    0.06
   0  -9   0    0.56    0.06
   0  -9   0    0.73    0.07
   0   9   0    0.55    0.06
   0   9   0    0.63    0.07
  -1  -9   0    0.08    0.03
  -1  -9   0    0.05    0.03
  -1  -9   0    0.06    0.03
  -1  -9   0    0.07    0.03
  -1  -9   0    0.03    0.04
   1   9   0    0.06    0.03
   1   9   0    0.06    0.03
  -2  -9   0    0.15    0.04
  -2  -9   0    0.13    0.04
  -2  -9   0    0.18    0.04
  -2  -9   0    0.12    0.03
  -2  -9   0    0.19    0.04
   2   9   0    0.14    0.04
   2   9   0    0.18    0.04
  -3  -9   0    3.69    0.13
  -3  -9   0    3.44    0.13
  -3  -9   0    3.48    0.14
  -3  -9   0    3.48    0.13
   3   9   0    3.59    0.14
   3   9   0    3.73    0.15
  -4  -9   0    1.76    0.10
  -4  -9   0    1.83    0.11
   4   9   0    1.81    0.11
   4   9   0    1.90    0.11
  -5  -9   0    0.13    0.05
   5   9   0    0.25    0.05
   5   9   0    0.17    0.05
   2 -10   0    2.90    0.12
   2 -10   0    2.87    0.12
   2 -10   0    2.69    0.14
   2 -10   0    2.82    0.11
   2 -10   0    2.81    0.11
  -2  10   0    2.60    0.12
  -2  10   0    2.68    0.12
   1 -10   0    0.12    0.04
   1 -10   0    0.16    0.04
   1 -10   0    0.13    0.04
   1 -10   0    0.19    0.04
   1 -10   0    0.24    0.05
  -1  10   0    0.17    0.04
  -1  10   0    0.14    0.04
   0 -10   0    0.73    0.07
   0 -10   0    0.69    0.06
   0 -10   0    0.76    0.09
   0 -10   0    0.71    0.07
   0  10   0    0.68    0.07
   0  10   0    0.62    0.07
  -1 -10   0    0.07    0.04
  -1 -10   0    0.08    0.05
  -1 -10   0    0.11    0.04
  -1 -10   0    0.09    0.04
   1  10   0    0.12    0.04
   1  10   0    0.14    0.04
  -2 -10   0    3.57    0.14
  -2 -10   0    3.77    0.16
   2  10   0    3.59    0.15
   2  10   0    3.59    0.15
  -3 -10   0    0.11    0.05
   3  10   0    0.07    0.04
   3  10   0    0.09    0.04
   1 -11   0    0.09    0.04
   1 -11   0    0.19    0.05
  -1  11   0    0.11    0.04
  -1  11   0    0.16    0.04
   0 -11   0    2.17    0.12
   0  11   0    1.91    0.11
   0  11   0    2.06    0.11
   1  11  -1    0.00    0.03
   1  11  -1    0.00    0.03
  -1 -11   1   -0.04    0.04
   0  11  -1    0.10    0.04
   0  11  -1    0.08    0.04
   0 -11   1    0.12    0.05
  -1  11  -1    0.00    0.03
  -1  11  -1   -0.01    0.03
   1 -11   1    0.01    0.03
   1 -11   1    0.06    0.05
  -2  11  -1    0.56    0.06
  -2  11  -1    0.51    0.06
   4  10  -1    4.65    0.18
   4  10  -1    4.50    0.18
  -4 -10   1    4.41    0.18
   3  10  -1    1.36    0.10
   3  10  -1    1.49    0.10
  -3 -10   1    1.52    0.11
   2  10  -1    1.35    0.10
   2  10  -1    1.54    0.11
  -2 -10   1    1.39    0.11
  -2 -10   1    1.42    0.10
   1  10  -1    1.70    0.10
   1  10  -1    1.61    0.10
  -1 -10   1    1.66    0.10
  -1 -10   1    1.96    0.09
  -1 -10   1    1.58    0.09
  -1 -10   1    1.52    0.10
   0  10  -1    6.66    0.20
   0  10  -1    6.67    0.20
   0 -10   1    6.97    0.21
   0 -10   1    6.52    0.19
   0 -10   1    6.85    0.22
   0 -10   1    6.64    0.19
   0 -10   1    6.64    0.18
  -1  10  -1    0.19    0.04
  -1  10  -1    0.11    0.04
   1 -10   1    0.14    0.04
   1 -10   1    0.19    0.05
   1 -10   1    0.13    0.04
   1 -10   1    0.27    0.06
   1 -10   1    0.23    0.04
  -2  10  -1    0.03    0.03
  -2  10  -1    0.00    0.03
   2 -10   1    0.01    0.03
   2 -10   1    0.00    0.03
   2 -10   1    0.03    0.04
   2 -10   1    0.00    0.03
   2 -10   1    0.02    0.04
   5   9  -1    0.00    0.03
   5   9  -1   -0.03    0.03
  -5  -9   1   -0.04    0.03
   4   9  -1    0.06    0.04
   4   9  -1    0.07    0.04
  -4  -9   1    0.08    0.04
  -4  -9   1    0.17    0.05
   3   9  -1    0.02    0.03
   3   9  -1    0.10    0.04
  -3  -9   1    0.03    0.04
  -3  -9   1    0.06    0.03
  -3  -9   1    0.12    0.05
  -3  -9   1    0.05    0.03
   2   9  -1    4.33    0.16
   2   9  -1    4.43    0.16
  -2  -9   1    4.54    0.14
  -2  -9   1    4.71    0.16
  -2  -9   1    4.73    0.15
  -2  -9   1    4.38    0.15
  -2  -9   1    4.39    0.14
   1   9  -1    0.12    0.04
   1   9  -1    0.12    0.04
  -1  -9   1    0.06    0.03
  -1  -9   1    0.09    0.03
  -1  -9   1    0.08    0.03
  -1  -9   1    0.15    0.04
  -1  -9   1    0.06    0.03
   0   9  -1    3.72    0.14
   0   9  -1    3.99    0.14
   0  -9   1    4.37    0.14
   0  -9   1    4.77    0.15
   0  -9   1    4.31    0.13
   0  -9   1    4.33    0.14
   0  -9   1    4.26    0.13
  -1   9  -1    0.13    0.03
  -1   9  -1    0.14    0.04
   1  -9   1    0.21    0.04
   1  -9   1    0.14    0.03
   1  -9   1    0.17    0.04
   1  -9   1    0.15    0.03
   1  -9   1    0.12    0.03
  -2   9  -1    6.18    0.17
  -2   9  -1    6.48    0.18
   2  -9   1    6.44    0.16
   2  -9   1    6.31    0.17
   2  -9   1    6.65    0.18
   2  -9   1    6.33    0.17
   2  -9   1    6.64    0.17
   6   8  -1    0.14    0.04
   6   8  -1    0.09    0.04
  -6  -8   1    0.13    0.04
  -6  -8   1    0.08    0.04
   5   8  -1    0.48    0.07
   4   8  -1    0.19    0.04
   4   8  -1    0.14    0.04
  -4  -8   1    0.17    0.04
  -4  -8   1    0.14    0.03
  -4  -8   1    0.18    0.03
  -4  -8   1    0.18    0.04
   3   8  -1    9.78    0.25
   3   8  -1    9.80    0.25
  -3  -8   1    9.62    0.24
  -3  -8   1    9.74    0.24
  -3  -8   1    9.65    0.24
  -3  -8   1    9.57    0.23
  -3  -8   1    9.58    0.22
   2   8  -1    1.51    0.09
   2   8  -1    1.52    0.09
  -2  -8   1    1.69    0.08
  -2  -8   1    1.45    0.09
  -2  -8   1    1.55    0.08
  -2  -8   1    1.51    0.07
  -2  -8   1    1.49    0.08
   0   8  -1    0.53    0.06
   0   8  -1    0.51    0.06
   0  -8   1    0.46    0.04
   0  -8   1    0.61    0.06
   0  -8   1    0.47    0.05
   0  -8   1    0.45    0.05
   0  -8   1    0.40    0.04
  -1   8  -1   34.93    0.63
  -1   8  -1   34.85    0.63
   1  -8   1   33.76    0.62
   1  -8   1   33.68    0.61
   1  -8   1   32.90    0.62
   1  -8   1   33.70    0.61
   1  -8   1   33.95    0.63
  -2   8  -1    0.04    0.02
  -2   8  -1    0.06    0.02
   2  -8   1    0.03    0.02
   2  -8   1    0.00    0.02
   2  -8   1    0.04    0.02
   2  -8   1    0.02    0.02
   2  -8   1    0.00    0.02
   2  -8   1    0.02    0.02
  -3   8  -1    0.02    0.02
  -3   8  -1    0.06    0.02
   3  -8   1    0.04    0.02
   7   7  -1    1.03    0.09
   7   7  -1    0.88    0.09
  -7  -7   1    0.77    0.07
  -7  -7   1    0.84    0.07
  -7  -7   1    0.84    0.08
  -7  -7   1    0.96    0.09
   6   7  -1    0.52    0.06
   6   7  -1    0.58    0.07
  -6  -7   1    0.56    0.06
  -6  -7   1    0.51    0.06
  -6  -7   1    0.42    0.05
  -6  -7   1    0.46    0.06
  -6  -7   1    0.49    0.05
   5   7  -1    6.57    0.19
   5   7  -1    6.72    0.19
  -5  -7   1    6.47    0.19
  -5  -7   1    6.12    0.18
  -5  -7   1    6.17    0.17
  -5  -7   1    6.52    0.18
  -5  -7   1    6.36    0.18
   4   7  -1    3.30    0.13
   4   7  -1    3.25    0.12
  -4  -7   1    3.31    0.11
  -4  -7   1    3.21    0.11
  -4  -7   1    3.12    0.11
  -4  -7   1    3.03    0.11
  -4  -7   1    3.05    0.12
   2   7  -1   -0.03    0.02
   2   7  -1   -0.02    0.02
  -2  -7   1   -0.04    0.02
  -2  -7   1   -0.04    0.02
  -2  -7   1   -0.04    0.02
  -2  -7   1    0.00    0.02
  -2  -7   1   -0.03    0.02
   1   7  -1    8.20    0.21
   1   7  -1    8.56    0.21
  -1  -7   1    8.72    0.20
  -1  -7   1    8.51    0.20
  -1  -7   1    8.18    0.20
  -1  -7   1    8.27    0.19
  -1  -7   1    8.48    0.19
  -1  -7   1    8.12    0.21
   0   7  -1    0.02    0.02
   0   7  -1   -0.01    0.02
   0  -7   1   -0.04    0.02
   0  -7   1   -0.02    0.02
   0  -7   1   -0.02    0.02
   0  -7   1    0.01    0.02
   0  -7   1   -0.02    0.02
   0  -7   1   -0.03    0.02
  -1   7  -1    3.77    0.11
  -1   7  -1    3.53    0.14
  -1   7  -1    3.53    0.11
   1  -7   1    3.56    0.11
   1  -7   1    3.55    0.10
   1  -7   1    3.50    0.11
   1  -7   1    3.64    0.12
   1  -7   1    3.38    0.11
   1  -7   1    3.41    0.10
  -3   7  -1    0.99    0.08
  -3   7  -1    0.95    0.05
  -3   7  -1    1.01    0.06
   3  -7   1    0.98    0.08
   3  -7   1    0.92    0.05
   3  -7   1    0.99    0.05
   3  -7   1    1.00    0.05
   3  -7   1    1.01    0.06
   3  -7   1    0.99    0.06
   3  -7   1    0.93    0.05
   7   6  -1    0.00    0.02
   7   6  -1   -0.03    0.02
  -7  -6   1    0.01    0.03
  -7  -6   1    0.04    0.03
  -7  -6   1   -0.01    0.03
  -7  -6   1    0.02    0.03
  -7  -6   1    0.00    0.03
   6   6  -1   13.27    0.30
   6   6  -1   13.03    0.30
  -6  -6   1   12.93    0.29
  -6  -6   1   12.77    0.28
  -6  -6   1   12.80    0.28
  -6  -6   1   13.04    0.30
  -6  -6   1   13.23    0.29
   5   6  -1    1.67    0.09
   5   6  -1    1.70    0.09
  -5  -6   1    1.81    0.09
  -5  -6   1    1.56    0.08
  -5  -6   1    1.64    0.09
  -5  -6   1    1.69    0.08
  -5  -6   1    1.79    0.09
   4   6  -1   13.54    0.29
   4   6  -1   13.56    0.29
  -4  -6   1   12.82    0.28
  -4  -6   1   12.82    0.28
  -4  -6   1   12.93    0.28
  -4  -6   1   13.04    0.27
  -4  -6   1   12.95    0.27
   2   6  -1    0.85    0.06
   2   6  -1    0.81    0.06
   2   6  -1    0.74    0.07
  -2  -6   1    1.06    0.07
  -2  -6   1    1.12    0.06
  -2  -6   1    1.25    0.06
  -2  -6   1    1.02    0.07
  -2  -6   1    1.17    0.06
  -2  -6   1    1.03    0.06
   1   6  -1    3.17    0.10
   1   6  -1    3.30    0.13
   1   6  -1    3.23    0.10
  -1  -6   1    3.29    0.11
  -1  -6   1    3.17    0.09
  -1  -6   1    3.17    0.10
  -1  -6   1    3.17    0.09
  -1  -6   1    3.31    0.10
  -1  -6   1    3.16    0.13
  -1  -6   1    3.17    0.10
   0   6  -1    1.64    0.07
   0   6  -1    1.59    0.09
   0   6  -1    1.65    0.07
   0  -6   1    1.60    0.09
   0  -6   1    1.45    0.06
   0  -6   1    1.54    0.06
   0  -6   1    1.65    0.07
   0  -6   1    1.46    0.07
   0  -6   1    1.51    0.07
   0  -6   1    1.53    0.06
  -1   6  -1    0.11    0.02
  -1   6  -1    0.10    0.03
  -1   6  -1    0.12    0.02
   1  -6   1    0.15    0.03
   1  -6   1    0.09    0.03
   1  -6   1    0.13    0.04
   1  -6   1    0.08    0.03
   1  -6   1    0.12    0.02
   1  -6   1    0.10    0.02
   1  -6   1    0.12    0.02
   1  -6   1    0.13    0.03
  -2   6  -1    5.38    0.13
  -2   6  -1    5.22    0.15
  -2   6  -1    5.10    0.13
   2  -6   1    4.99    0.12
   2  -6   1    4.88    0.13
   2  -6   1    4.91    0.12
   2  -6   1    5.05    0.13
   2  -6   1    5.04    0.12
   2  -6   1    5.05    0.13
   2  -6   1    4.89    0.13
   2  -6   1    5.09    0.15
   2  -6   1    5.10    0.13
   2  -6   1    5.00    0.12
  -3   6  -1    1.72    0.06
  -3   6  -1    1.62    0.08
  -3   6  -1    1.70    0.06
   3  -6   1    1.65    0.06
   3  -6   1    1.63    0.07
   3  -6   1    1.70    0.06
   3  -6   1    1.62    0.06
   3  -6   1    1.68    0.05
   3  -6   1    1.69    0.06
   3  -6   1    1.58    0.06
   3  -6   1    1.63    0.06
   3  -6   1    1.60    0.07
   3  -6   1    1.67    0.08
   7   5  -1    3.71    0.13
   7   5  -1    3.76    0.13
  -7  -5   1    3.94    0.13
  -7  -5   1    3.98    0.13
  -7  -5   1    3.84    0.12
  -7  -5   1    3.76    0.12
  -7  -5   1    3.83    0.12
   6   5  -1    2.11    0.10
   6   5  -1    2.02    0.09
  -6  -5   1    2.21    0.10
  -6  -5   1    2.16    0.09
  -6  -5   1    2.07    0.09
  -6  -5   1    2.15    0.08
  -6  -5   1    2.21    0.09
   5   5  -1    4.36    0.13
   5   5  -1    4.35    0.13
  -5  -5   1    4.21    0.13
  -5  -5   1    4.43    0.12
  -5  -5   1    4.27    0.14
  -5  -5   1    4.25    0.12
  -5  -5   1    4.31    0.12
  -5  -5   1    4.51    0.13
   4   5  -1    5.18    0.15
   4   5  -1    5.10    0.15
   4   5  -1    5.03    0.18
  -4  -5   1    5.10    0.14
  -4  -5   1    5.67    0.14
  -4  -5   1    5.62    0.14
  -4  -5   1    4.95    0.14
  -4  -5   1    5.11    0.15
  -4  -5   1    5.81    0.13
   3   5  -1    0.99    0.08
   3   5  -1    0.89    0.06
   3   5  -1    0.98    0.06
  -3  -5   1    0.95    0.06
  -3  -5   1    1.13    0.05
  -3  -5   1    1.01    0.06
  -3  -5   1    1.03    0.06
  -3  -5   1    0.99    0.08
  -3  -5   1    1.05    0.05
  -3  -5   1    1.01    0.06
   2   5  -1   13.52    0.33
   2   5  -1   13.38    0.29
   2   5  -1   13.15    0.29
  -2  -5   1   13.96    0.32
  -2  -5   1   15.48    0.28
  -2  -5   1   15.35    0.29
  -2  -5   1   15.73    0.29
  -2  -5   1   15.69    0.31
  -2  -5   1   14.98    0.29
  -2  -5   1   15.54    0.30
  -2  -5   1   15.58    0.34
  -1  -5   1    0.35    0.03
  -1  -5   1    0.33    0.03
  -1  -5   1    0.38    0.05
  -1  -5   1    0.39    0.04
  -1  -5   1    0.40    0.04
  -1  -5   1    0.35    0.03
  -1  -5   1    0.32    0.03
  -1  -5   1    0.40    0.04
   0   5  -1    6.38    0.18
   0   5  -1    6.60    0.15
   0   5  -1    6.42    0.15
   0   5  -1    5.96    0.14
   0  -5   1    6.39    0.15
   0  -5   1    6.80    0.15
   0  -5   1    6.18    0.14
   0  -5   1    6.56    0.14
   0  -5   1    6.67    0.15
   0  -5   1    6.80    0.18
   0  -5   1    7.14    0.15
   0  -5   1    6.65    0.14
   0  -5   1    6.45    0.16
  -1   5  -1    0.01    0.01
  -1   5  -1    0.01    0.02
  -1   5  -1    0.01    0.01
  -1   5  -1    0.01    0.01
   1  -5   1    0.02    0.01
   1  -5   1    0.00    0.01
   1  -5   1    0.01    0.01
   1  -5   1    0.00    0.02
   1  -5   1    0.02    0.01
   1  -5   1    0.02    0.01
  -2   5  -1   28.59    0.51
  -2   5  -1   28.71    0.51
  -2   5  -1   28.61    0.54
   2  -5   1   29.30    0.54
   2  -5   1   28.31    0.51
   2  -5   1   28.56    0.50
   2  -5   1   28.13    0.50
   2  -5   1   30.42    0.51
   2  -5   1   27.80    0.51
   2  -5   1   30.45    0.52
   2  -5   1   27.93    0.50
   2  -5   1   28.40    0.50
  -3   5  -1    3.61    0.09
  -3   5  -1    3.58    0.09
   3  -5   1    3.52    0.11
   3  -5   1    3.76    0.09
   3  -5   1    3.53    0.08
   3  -5   1    3.59    0.09
   3  -5   1    3.42    0.09
   3  -5   1    3.48    0.08
   3  -5   1    3.50    0.09
   3  -5   1    3.52    0.09
   3  -5   1    3.55    0.08
   3  -5   1    3.46    0.09
   7   4  -1    0.03    0.02
   7   4  -1    0.00    0.02
  -7  -4   1    0.02    0.03
  -7  -4   1    0.00    0.02
   6   4  -1    0.28    0.05
   6   4  -1    0.31    0.04
   6   4  -1    0.34    0.04
  -6  -4   1    0.29    0.03
  -6  -4   1    0.35    0.04
  -6  -4   1    0.31    0.04
  -6  -4   1    0.30    0.04
  -6  -4   1    0.29    0.03
  -6  -4   1    0.26    0.04
   5   4  -1    3.58    0.11
   5   4  -1    3.74    0.14
   5   4  -1    3.54    0.11
  -5  -4   1    3.77    0.14
  -5  -4   1    3.92    0.10
  -5  -4   1    3.52    0.11
  -5  -4   1    4.01    0.11
  -5  -4   1    4.07    0.11
  -5  -4   1    3.93    0.11
  -5  -4   1    3.92    0.12
   4   4  -1   14.98    0.33
   4   4  -1   14.65    0.29
   4   4  -1   14.95    0.30
  -4  -4   1   15.29    0.32
  -4  -4   1   14.31    0.28
  -4  -4   1   13.98    0.28
  -4  -4   1   14.70    0.28
  -4  -4   1   14.30    0.27
  -4  -4   1   14.10    0.30
  -4  -4   1   14.30    0.33
  -4  -4   1   14.33    0.29
   3   4  -1    1.98    0.10
  -3  -4   1    2.39    0.11
  -3  -4   1    2.53    0.10
  -3  -4   1    2.43    0.12
  -3  -4   1    2.65    0.09
   2   4  -1    7.11    0.19
   2   4  -1    7.04    0.16
   2   4  -1    6.82    0.15
   2   4  -1    6.95    0.16
  -2  -4   1    6.86    0.16
  -2  -4   1    7.03    0.15
  -2  -4   1    6.90    0.15
  -2  -4   1    6.76    0.16
  -2  -4   1    6.87    0.15
  -2  -4   1    7.07    0.18
  -2  -4   1    7.10    0.15
  -2  -4   1    6.92    0.15
  -2  -4   1    7.13    0.15
   1   4  -1    8.66    0.19
   1   4  -1    9.37    0.19
   1   4  -1    9.49    0.22
   1   4  -1    9.46    0.19
  -1  -4   1    9.20    0.19
  -1  -4   1    9.00    0.19
  -1  -4   1    9.40    0.18
  -1  -4   1    9.30    0.19
  -1  -4   1    9.47    0.22
  -1  -4   1    9.58    0.18
  -1  -4   1    9.38    0.19
  -1  -4   1    9.20    0.19
  -1  -4   1    8.97    0.19
   0   4  -1  184.59    3.04
   0   4  -1  176.01    3.03
   0   4  -1  182.79    3.11
   0   4  -1  174.69    3.04
   0   4  -1  181.77    3.04
   0  -4   1  181.49    2.99
   0  -4   1  180.45    2.96
   0  -4   1  177.99    3.01
   0  -4   1  183.75    3.08
   0  -4   1  175.01    2.97
   0  -4   1  177.61    2.96
   0  -4   1  175.42    2.96
   0  -4   1  179.72    2.99
   0  -4   1  180.55    3.00
  -1   4  -1   12.24    0.25
  -1   4  -1   12.19    0.23
  -1   4  -1   12.15    0.23
  -1   4  -1   11.77    0.23
  -1   4  -1   12.03    0.22
   1  -4   1   12.31    0.23
   1  -4   1   11.95    0.23
   1  -4   1   11.94    0.23
   1  -4   1   12.11    0.22
   1  -4   1   12.08    0.22
   1  -4   1   12.28    0.25
   1  -4   1   11.74    0.23
   1  -4   1   12.30    0.23
   1  -4   1   12.09    0.23
  -2   4  -1    3.86    0.09
  -2   4  -1    3.97    0.09
  -2   4  -1    3.90    0.09
  -2   4  -1    3.90    0.11
  -2   4  -1    4.05    0.09
   2  -4   1    3.73    0.09
   2  -4   1    3.96    0.11
   2  -4   1    3.71    0.09
   2  -4   1    3.61    0.09
   2  -4   1    3.86    0.09
   2  -4   1    3.88    0.09
   2  -4   1    3.93    0.09
   2  -4   1    3.83    0.09
   2  -4   1    3.92    0.08
  -3   4  -1    0.04    0.01
  -3   4  -1    0.04    0.01
   3  -4   1    0.04    0.01
   3  -4   1    0.07    0.01
   3  -4   1    0.04    0.01
   3  -4   1    0.02    0.02
   3  -4   1    0.04    0.01
   3  -4   1    0.05    0.01
  -6  -3   1    0.77    0.04
  -6  -3   1    0.71    0.05
  -6  -3   1    0.78    0.05
  -6  -3   1    0.72    0.06
   5   3  -1   12.44    0.25
   5   3  -1   12.36    0.25
   5   3  -1   12.36    0.28
  -5  -3   1   11.89    0.25
  -5  -3   1   12.11    0.24
  -5  -3   1   12.45    0.26
  -5  -3   1   12.40    0.28
  -5  -3   1   12.03    0.24
  -5  -3   1   12.07    0.25
  -5  -3   1   12.32    0.24
  -5  -3   1   13.21    0.31
  -5  -3   1   12.37    0.24
   4   3  -1    0.51    0.04
   4   3  -1    0.53    0.04
   4   3  -1    0.54    0.05
  -4  -3   1    0.57    0.04
  -4  -3   1    0.74    0.05
  -4  -3   1    0.58    0.04
  -4  -3   1    0.63    0.04
  -4  -3   1    0.70    0.05
  -4  -3   1    0.61    0.04
  -4  -3   1    0.82    0.05
  -4  -3   1    0.61    0.04
  -4  -3   1    0.66    0.06
  -4  -3   1    0.84    0.05
   3   3  -1    5.55    0.14
   3   3  -1    5.61    0.16
   3   3  -1    5.71    0.14
  -3  -3   1    6.10    0.14
  -3  -3   1    6.04    0.13
  -3  -3   1    6.04    0.16
  -3  -3   1    5.96    0.14
  -3  -3   1    6.20    0.13
  -3  -3   1    5.87    0.12
  -3  -3   1    6.11    0.13
  -3  -3   1    6.06    0.13
  -3  -3   1    5.93    0.13
  -3  -3   1    6.09    0.14
   2   3  -1    6.47    0.14
   2   3  -1    6.70    0.15
   2   3  -1    6.52    0.14
   2   3  -1    6.81    0.17
  -2  -3   1    6.90    0.17
  -2  -3   1    6.72    0.14
  -2  -3   1    6.75    0.14
  -2  -3   1    6.71    0.14
  -2  -3   1    6.76    0.14
  -2  -3   1    6.82    0.13
  -2  -3   1    6.72    0.14
  -2  -3   1    6.56    0.15
  -2  -3   1    6.28    0.14
   1   3  -1  118.73    1.92
   1   3  -1  109.42    1.88
   1   3  -1  119.33    1.92
   1   3  -1  109.74    1.88
   1   3  -1  119.35    1.92
   1   3  -1  109.30    1.88
   1   3  -1  111.38    1.89
  -1  -3   1  115.32    1.88
  -1  -3   1  112.32    1.89
  -1  -3   1  110.82    1.89
  -1  -3   1  114.07    1.88
  -1  -3   1  114.71    1.89
  -1  -3   1  114.33    1.88
  -1  -3   1  116.49    1.92
  -1  -3   1  111.65    1.88
  -1  -3   1  114.84    1.88
   0   3  -1    1.03    0.04
   0   3  -1    1.00    0.04
   0   3  -1    1.02    0.03
   0   3  -1    1.04    0.04
   0   3  -1    1.06    0.04
   0   3  -1    1.06    0.03
   0   3  -1    1.04    0.05
   0  -3   1    1.06    0.04
   0  -3   1    1.06    0.03
   0  -3   1    1.00    0.03
   0  -3   1    1.05    0.04
   0  -3   1    1.02    0.05
   0  -3   1    1.02    0.04
   0  -3   1    1.03    0.04
   0  -3   1    1.04    0.04
  -1   3  -1   21.30    0.37
  -1   3  -1   22.25    0.37
  -1   3  -1   21.89    0.39
  -1   3  -1   21.10    0.37
  -1   3  -1   22.03    0.37
  -1   3  -1   21.94    0.37
  -1   3  -1   22.09    0.37
   1  -3   1   20.78    0.38
   1  -3   1   21.00    0.37
   1  -3   1   20.85    0.37
   1  -3   1   21.09    0.38
   1  -3   1   21.10    0.37
  -2   3  -1    2.87    0.07
  -2   3  -1    2.96    0.06
  -2   3  -1    2.94    0.06
  -2   3  -1    2.98    0.06
   2  -3   1    2.89    0.07
   2  -3   1    2.92    0.07
   2  -3   1    2.92    0.06
   2  -3   1    2.98    0.06
   2  -3   1    2.90    0.06
   2  -3   1    2.92    0.07
   2  -3   1    2.94    0.06
   2  -3   1    2.92    0.08
   2  -3   1    2.89    0.06
   2  -3   1    2.87    0.07
   6   2  -1    1.53    0.08
   6   2  -1    1.53    0.06
   6   2  -1    1.59    0.07
  -6  -2   1    1.57    0.08
  -6  -2   1    1.69    0.06
  -6  -2   1    1.63    0.06
  -6  -2   1    1.62    0.06
  -6  -2   1    1.59    0.07
  -6  -2   1    1.61    0.06
  -6  -2   1    1.66    0.06
   5   2  -1   -0.02    0.02
  -5  -2   1   -0.03    0.01
  -5  -2   1   -0.04    0.01
  -5  -2   1   -0.02    0.01
  -5  -2   1   -0.04    0.01
  -5  -2   1   -0.02    0.02
  -5  -2   1   -0.03    0.02
  -5  -2   1   -0.04    0.02
  -5  -2   1   -0.02    0.02
   4   2  -1    3.71    0.12
   4   2  -1    3.77    0.10
   4   2  -1    3.81    0.10
  -4  -2   1    4.60    0.11
  -4  -2   1    4.84    0.13
   3   2  -1   22.76    0.40
   3   2  -1   22.87    0.40
   3   2  -1   22.65    0.43
  -3  -2   1   22.84    0.42
  -3  -2   1   22.70    0.40
  -3  -2   1   22.88    0.39
  -3  -2   1   22.18    0.40
  -3  -2   1   22.74    0.40
  -3  -2   1   22.61    0.41
  -3  -2   1   22.90    0.39
  -3  -2   1   22.95    0.40
  -3  -2   1   22.22    0.40
   2   2  -1    0.27    0.02
   2   2  -1    0.29    0.03
   2   2  -1    0.26    0.02
   2   2  -1    0.27    0.02
   2   2  -1    0.27    0.02
   2   2  -1    0.27    0.02
   2   2  -1    0.28    0.02
  -2  -2   1    0.27    0.02
  -2  -2   1    0.29    0.03
  -2  -2   1    0.26    0.02
  -2  -2   1    0.25    0.02
  -2  -2   1    0.26    0.02
  -2  -2   1    0.26    0.02
  -2  -2   1    0.24    0.02
  -2  -2   1    0.29    0.02
  -2  -2   1    0.25    0.02
   1   2  -1   32.62    0.55
   1   2  -1   32.31    0.55
   1   2  -1   32.20    0.55
   1   2  -1   32.00    0.54
   1   2  -1   32.65    0.57
   1   2  -1   32.48    0.54
   1   2  -1   32.51    0.55
   1   2  -1   32.00    0.55
   1   2  -1   32.50    0.55
  -1  -2   1   32.53    0.55
  -1  -2   1   31.99    0.55
  -1  -2   1   32.42    0.55
  -1  -2   1   31.70    0.55
  -1  -2   1   32.71    0.55
  -1  -2   1   32.73    0.54
  -1  -2   1   32.67    0.57
  -1  -2   1   32.49    0.54
  -1  -2   1   32.51    0.55
  -1  -2   1   32.77    0.55
   0   2  -1    0.06    0.01
   0   2  -1    0.05    0.01
   0   2  -1    0.05    0.01
   0   2  -1    0.05    0.01
   0   2  -1    0.07    0.01
   0   2  -1    0.06    0.01
   0   2  -1    0.05    0.01
   0   2  -1    0.06    0.01
   0  -2   1    0.05    0.01
   0  -2   1    0.05    0.01
   0  -2   1    0.05    0.01
   0  -2   1    0.04    0.01
   0  -2   1    0.05    0.01
   0  -2   1    0.07    0.01
   0  -2   1    0.05    0.01
   0  -2   1    0.06    0.01
   0  -2   1    0.05    0.01
   0  -2   1    0.04    0.01
   0  -2   1    0.05    0.01
  -1   2  -1  172.87    2.78
  -1   2  -1  170.17    2.75
  -1   2  -1  173.53    2.77
  -1   2  -1  172.17    2.75
  -1   2  -1  173.27    2.73
  -1   2  -1  170.76    2.75
  -1   2  -1  175.40    2.73
  -1   2  -1  174.97    2.73
   1  -2   1  154.32    2.73
   1  -2   1  156.34    2.75
   1  -2   1  164.55    2.72
   1  -2   1  154.38    2.78
   1  -2   1  153.87    2.72
   1  -2   1  163.83    2.72
   1  -2   1  156.12    2.75
   1  -2   1  154.39    2.72
   1  -2   1  161.90    2.72
   1  -2   1  156.26    2.73
  -2   2  -1    0.04    0.01
  -2   2  -1    0.05    0.01
  -2   2  -1    0.05    0.01
   2  -2   1    0.05    0.01
   2  -2   1    0.04    0.01
   2  -2   1    0.03    0.01
   2  -2   1    0.03    0.01
   2  -2   1    0.05    0.01
  -6  -1   1    0.46    0.03
  -6  -1   1    0.47    0.03
   5   1  -1    0.02    0.01
   5   1  -1    0.01    0.02
   5   1  -1    0.01    0.01
  -5  -1   1   -0.01    0.01
  -5  -1   1    0.00    0.01
  -5  -1   1    0.00    0.01
  -5  -1   1    0.00    0.01
  -5  -1   1    0.00    0.01
  -5  -1   1    0.00    0.01
  -5  -1   1   -0.01    0.01
   4   1  -1    6.87    0.14
   4   1  -1    6.93    0.14
   4   1  -1    6.78    0.16
  -4  -1   1    6.92    0.13
  -4  -1   1    7.03    0.14
  -4  -1   1    7.03    0.14
  -4  -1   1    6.94    0.13
  -4  -1   1    7.05    0.14
  -4  -1   1    6.93    0.14
  -4  -1   1    7.15    0.16
  -4  -1   1    6.98    0.14
  -4  -1   1    6.78    0.13
  -4  -1   1    7.09    0.14
   3   1  -1    8.47    0.16
   3   1  -1    8.71    0.16
   3   1  -1    8.80    0.16
   3   1  -1    8.72    0.16
   3   1  -1    8.59    0.18
   3   1  -1    8.55    0.16
  -3  -1   1    8.54    0.16
  -3  -1   1    8.73    0.16
  -3  -1   1    8.77    0.16
  -3  -1   1    8.73    0.16
  -3  -1   1    8.91    0.18
  -3  -1   1    8.60    0.16
  -3  -1   1    8.46    0.16
  -3  -1   1    8.58    0.16
  -3  -1   1    8.73    0.16
  -3  -1   1    8.34    0.16
  -3  -1   1    8.64    0.17
   2   1  -1   54.19    0.98
   2   1  -1   54.93    0.98
   2   1  -1   54.34    0.98
   2   1  -1   65.30    1.00
   2   1  -1   54.13    0.98
  -2  -1   1   60.70    1.00
  -2  -1   1   60.65    0.98
  -2  -1   1   59.92    0.98
  -2  -1   1   59.25    0.98
  -2  -1   1   59.41    0.98
  -2  -1   1   61.19    0.98
  -2  -1   1   56.18    0.98
  -2  -1   1   63.04    0.98
  -2  -1   1   60.55    0.98
  -2  -1   1   63.09    0.99
  -2  -1   1   59.38    0.98
   1   1  -1    6.13    0.11
   1   1  -1    6.38    0.12
   1   1  -1    6.20    0.12
   1   1  -1    6.12    0.12
   1   1  -1    6.13    0.11
   1   1  -1    6.19    0.11
   1   1  -1    6.09    0.11
   1   1  -1    6.34    0.13
  -1  -1   1    6.43    0.13
  -1  -1   1    6.25    0.12
  -1  -1   1    6.33    0.11
  -1  -1   1    6.29    0.11
  -1  -1   1    6.21    0.12
  -1  -1   1    6.37    0.11
  -1  -1   1    6.27    0.11
  -1  -1   1    6.26    0.11
  -1  -1   1    6.26    0.11
  -1  -1   1    6.26    0.11
   0   1  -1    5.06    0.09
   0   1  -1    4.93    0.09
   0   1  -1    5.03    0.09
   0   1  -1    5.02    0.09
   0   1  -1    5.12    0.09
   0   1  -1    4.97    0.09
   0   1  -1    5.01    0.09
   0  -1   1    5.04    0.09
   0  -1   1    5.05    0.09
   0  -1   1    5.08    0.09
   0  -1   1    5.09    0.09
   0  -1   1    5.05    0.09
   0  -1   1    5.00    0.10
   0  -1   1    5.04    0.09
   0  -1   1    4.97    0.09
  -1   1  -1   26.33    0.44
  -1   1  -1   26.09    0.44
  -1   1  -1   26.52    0.44
  -1   1  -1   26.12    0.44
  -1   1  -1   26.49    0.44
  -1   1  -1   26.44    0.44
   1  -1   1   26.78    0.44
   1  -1   1   26.81    0.44
   1  -1   1   26.73    0.44
   1  -1   1   26.27    0.44
   1  -1   1   26.67    0.44
   1  -1   1   26.26    0.44
   2  -1   1    1.88    0.04
   2   0  -1   20.59    0.35
   2   0  -1   20.54    0.35
   2   0  -1   20.90    0.35
  -2   0   1   21.30    0.36
  -2   0   1   20.65    0.35
   1   0  -1   -0.82    0.02
   1   0  -1   -0.76    0.02
   1   0  -1   -0.77    0.02
   1   0  -1   -0.78    0.02
   1   0  -1   -0.81    0.02
   1   0  -1   -0.81    0.02
  -1   0   1   -0.76    0.02
  -1   0   1   -0.79    0.02
  -1   0   1   -0.81    0.02
  -1   0   1   -0.83    0.02
  -1   0   1   -0.76    0.02
  -1   0   1   -0.74    0.02
  -1   0   1   -0.80    0.02
   0   0  -1    0.69    0.02
   0   0  -1    0.66    0.02
   0   0  -1    0.69    0.02
   0   0  -1    0.68    0.02
   0   0  -1    0.67    0.02
   0   0  -1    0.66    0.02
   0   0   1    0.66    0.02
   0   0   1    0.67    0.02
   0   0   1    0.67    0.02
   0   0   1    0.66    0.02
   0   0   1    0.67    0.02
   0   0   1    0.68    0.02
   0   0   1    0.65    0.02
   0   0   1    0.68    0.02
  -1   0  -1   -0.10    0.01
  -1   0  -1   -0.10    0.01
  -1   0  -1   -0.09    0.01
  -1   0  -1   -0.10    0.01
  -1   0  -1   -0.09    0.01
  -1   0  -1   -0.09    0.01
  -1   0  -1   -0.10    0.01
   1   0   1   -0.09    0.01
   1   0   1   -0.09    0.01
   1   0   1   -0.09    0.01
   1   0   1   -0.10    0.01
   1   0   1   -0.08    0.01
   1   0   1   -0.11    0.01
   1   0   1   -0.10    0.01
  -2   0  -1    7.87    0.14
  -2   0  -1    7.92    0.14
  -2   0  -1    8.01    0.14
  -2   0  -1    7.96    0.14
  -2   0  -1    7.95    0.14
  -2   0  -1    7.93    0.14
  -2   0  -1    7.99    0.15
   2   0   1    7.66    0.15
   2   0   1    7.67    0.14
   2   0   1    7.79    0.14
   2   0   1    7.86    0.14
   2   0   1    7.89    0.14
   2   0   1    7.68    0.14
  -3   0  -1    0.01    0.01
  -3   0  -1    0.02    0.01
  -3   0  -1    0.00    0.01
  -3   0  -1    0.01    0.01
  -3   0  -1    0.02    0.01
  -3   0  -1    0.01    0.01
  -3   0  -1    0.01    0.01
   3   0   1    0.02    0.01
   3   0   1    0.00    0.01
   3   0   1    0.01    0.01
   3   0   1    0.01    0.01
   3   0   1    0.01    0.01
   3   0   1    0.00    0.01
  -4   0  -1   10.99    0.19
  -4   0  -1   10.71    0.19
  -4   0  -1   11.01    0.19
  -4   0  -1   11.11    0.21
   4   0   1   11.03    0.20
   4   0   1   10.43    0.19
   4   0   1   11.03    0.21
   4   0   1   10.62    0.21
   4   0   1   10.34    0.19
   4   0   1   10.56    0.19
  -5   0  -1    0.00    0.01
   5   0   1    0.01    0.01
   5   0   1    0.01    0.01
   5   0   1    0.00    0.01
   1  -1  -1    0.06    0.01
   1  -1  -1    0.08    0.01
   1  -1  -1    0.06    0.01
   1  -1  -1    0.06    0.01
   1  -1  -1    0.06    0.01
   1  -1  -1    0.06    0.01
   1  -1  -1    0.07    0.01
   0  -1  -1   14.81    0.25
   0  -1  -1   14.70    0.26
   0  -1  -1   14.90    0.26
   0  -1  -1   14.71    0.25
   0  -1  -1   14.61    0.27
   0  -1  -1   14.74    0.25
   0  -1  -1   14.86    0.25
   0   1   1   15.20    0.25
   0   1   1   15.00    0.25
   0   1   1   15.31    0.26
   0   1   1   14.94    0.26
   0   1   1   15.23    0.25
   0   1   1   14.80    0.27
  -1  -1  -1    2.60    0.06
  -1  -1  -1    2.64    0.06
  -1  -1  -1    2.61    0.06
  -1  -1  -1    2.67    0.06
  -1  -1  -1    2.64    0.06
  -1  -1  -1    2.62    0.07
  -1  -1  -1    2.66    0.06
   1   1   1    2.65    0.06
   1   1   1    2.59    0.06
   1   1   1    2.64    0.06
   1   1   1    2.60    0.07
   1   1   1    2.65    0.06
   1   1   1    2.62    0.06
  -2  -1  -1    1.05    0.04
  -2  -1  -1    1.08    0.03
  -2  -1  -1    1.11    0.04
  -2  -1  -1    1.10    0.03
  -2  -1  -1    1.01    0.03
  -2  -1  -1    1.12    0.05
  -2  -1  -1    1.07    0.03
   2   1   1    1.07    0.05
   2   1   1    1.00    0.04
   2   1   1    1.01    0.03
   2   1   1    1.03    0.03
   2   1   1    0.99    0.03
  -3  -1  -1    4.64    0.10
  -3  -1  -1    4.73    0.10
  -3  -1  -1    4.70    0.10
  -3  -1  -1    4.62    0.09
  -3  -1  -1    4.73    0.12
  -3  -1  -1    4.73    0.10
  -3  -1  -1    4.69    0.10
   3   1   1    4.45    0.10
   3   1   1    4.39    0.11
   3   1   1    4.46    0.10
   3   1   1    4.65    0.10
   3   1   1    4.52    0.10
  -4  -1  -1    0.32    0.02
  -4  -1  -1    0.32    0.02
  -4  -1  -1    0.35    0.03
  -4  -1  -1    0.30    0.02
  -4  -1  -1    0.31    0.03
  -4  -1  -1    0.32    0.02
  -4  -1  -1    0.33    0.02
   4   1   1    0.25    0.02
   4   1   1    0.33    0.03
   4   1   1    0.28    0.02
  -5  -1  -1    3.40    0.08
  -5  -1  -1    3.38    0.08
  -5  -1  -1    3.26    0.08
  -5  -1  -1    3.39    0.08
  -5  -1  -1    3.33    0.09
  -5  -1  -1    3.38    0.10
  -5  -1  -1    3.39    0.08
   5   1   1    3.28    0.09
   5   1   1    3.32    0.09
   5   1   1    3.27    0.10
  -6  -1  -1    5.53    0.12
  -6  -1  -1    5.56    0.12
  -6  -1  -1    5.69    0.12
  -6  -1  -1    5.56    0.13
  -6  -1  -1    5.59    0.12
  -6  -1  -1    5.67    0.14
   2  -2  -1    0.14    0.01
   2  -2  -1    0.15    0.02
  -2   2   1    0.13    0.01
  -2   2   1    0.15    0.01
  -2   2   1    0.16    0.02
   1  -2  -1   25.50    0.47
   1  -2  -1   25.51    0.47
   1  -2  -1   26.11    0.48
   1  -2  -1   25.88    0.47
   1  -2  -1   25.91    0.49
   1  -2  -1   25.82    0.47
   1  -2  -1   25.81    0.47
  -1   2   1   30.65    0.47
  -1   2   1   30.90    0.48
  -1   2   1   30.06    0.47
  -1   2   1   30.47    0.47
  -1   2   1   31.54    0.49
  -1   2   1   30.36    0.47
   0  -2  -1    0.80    0.03
   0  -2  -1    0.80    0.04
   0  -2  -1    0.81    0.03
   0  -2  -1    0.83    0.03
   0  -2  -1    0.84    0.03
   0  -2  -1    0.80    0.03
   0  -2  -1    0.81    0.03
   0   2   1    0.83    0.03
   0   2   1    0.79    0.03
   0   2   1    0.80    0.04
   0   2   1    0.79    0.03
   0   2   1    0.79    0.03
  -1  -2  -1    4.75    0.10
  -1  -2  -1    4.71    0.10
  -1  -2  -1    4.62    0.10
  -1  -2  -1    4.71    0.10
  -1  -2  -1    4.60    0.11
  -1  -2  -1    4.68    0.09
  -1  -2  -1    4.69    0.10
   1   2   1    4.35    0.10
   1   2   1    4.49    0.10
   1   2   1    4.45    0.11
  -2  -2  -1    2.09    0.06
  -2  -2  -1    2.07    0.06
  -2  -2  -1    2.12    0.06
  -2  -2  -1    2.07    0.05
  -2  -2  -1    2.09    0.06
  -2  -2  -1    2.12    0.06
  -2  -2  -1    2.02    0.07
   2   2   1    2.04    0.07
   2   2   1    2.16    0.06
   2   2   1    2.09    0.06
   2   2   1    2.01    0.06
  -3  -2  -1    4.17    0.10
  -3  -2  -1    4.24    0.10
  -3  -2  -1    4.32    0.12
  -3  -2  -1    4.18    0.09
  -3  -2  -1    4.30    0.10
  -3  -2  -1    4.18    0.10
  -3  -2  -1    4.36    0.09
   3   2   1    4.16    0.10
   3   2   1    4.06    0.12
   3   2   1    4.19    0.10
   3   2   1    4.29    0.10
  -4  -2  -1    3.55    0.09
  -4  -2  -1    3.57    0.11
  -4  -2  -1    3.55    0.09
  -4  -2  -1    3.63    0.09
  -4  -2  -1    3.51    0.08
  -4  -2  -1    3.68    0.09
  -4  -2  -1    3.48    0.10
   4   2   1    3.43    0.09
   4   2   1    3.53    0.11
   4   2   1    3.45    0.09
  -5  -2  -1    1.25    0.07
  -5  -2  -1    1.31    0.05
  -5  -2  -1    1.25    0.05
  -5  -2  -1    1.29    0.05
  -5  -2  -1    1.13    0.06
  -5  -2  -1    1.16    0.05
  -5  -2  -1    1.25    0.05
   5   2   1    1.32    0.05
   5   2   1    1.29    0.07
   5   2   1    1.20    0.05
  -6  -2  -1    0.04    0.02
  -6  -2  -1    0.01    0.01
  -6  -2  -1    0.04    0.02
  -6  -2  -1    0.05    0.02
  -6  -2  -1    0.04    0.03
  -6  -2  -1    0.04    0.02
  -6  -2  -1    0.04    0.02
   6   2   1    0.00    0.02
   6   2   1    0.01    0.02
   6   2   1    0.02    0.02
   2  -3  -1   18.75    0.32
   2  -3  -1   18.72    0.32
   2  -3  -1   19.12    0.32
   2  -3  -1   19.09    0.32
   2  -3  -1   18.62    0.32
   2  -3  -1   19.17    0.33
   2  -3  -1   18.86    0.34
  -2   3   1   18.07    0.34
  -2   3   1   17.75    0.32
  -2   3   1   18.42    0.33
  -2   3   1   18.13    0.32
  -2   3   1   17.89    0.32
  -2   3   1   18.52    0.33
   1  -3  -1   56.56    0.95
   1  -3  -1   56.85    0.94
   1  -3  -1   57.83    0.96
   1  -3  -1   55.64    0.95
   1  -3  -1   57.92    0.95
   1  -3  -1   56.05    0.97
   1  -3  -1   56.65    0.95
   0  -3  -1    0.18    0.02
   0  -3  -1    0.16    0.03
   0  -3  -1    0.21    0.02
   0  -3  -1    0.18    0.02
   0  -3  -1    0.17    0.02
   0  -3  -1    0.19    0.02
   0  -3  -1    0.21    0.02
   0   3   1    0.18    0.03
   0   3   1    0.19    0.02
   0   3   1    0.18    0.02
   0   3   1    0.23    0.02
  -1  -3  -1    3.44    0.08
  -1  -3  -1    3.46    0.09
  -1  -3  -1    3.44    0.08
  -1  -3  -1    3.52    0.08
  -1  -3  -1    3.48    0.11
  -1  -3  -1    3.64    0.08
  -1  -3  -1    3.69    0.09
   1   3   1    3.43    0.09
   1   3   1    3.51    0.09
   1   3   1    3.35    0.10
   1   3   1    3.49    0.09
  -2  -3  -1    0.75    0.04
  -2  -3  -1    0.78    0.04
  -2  -3  -1    0.72    0.03
  -2  -3  -1    0.72    0.04
  -2  -3  -1    0.72    0.04
  -2  -3  -1    0.77    0.04
  -2  -3  -1    0.73    0.05
   2   3   1    0.79    0.04
   2   3   1    0.76    0.05
   2   3   1    0.75    0.04
  -3  -3  -1   45.43    0.78
  -3  -3  -1   45.76    0.77
  -3  -3  -1   45.01    0.79
  -3  -3  -1   46.00    0.82
  -3  -3  -1   45.41    0.78
  -3  -3  -1   44.83    0.78
  -3  -3  -1   44.96    0.78
   3   3   1   44.95    0.79
   3   3   1   45.90    0.79
   3   3   1   45.41    0.82
  -4  -3  -1    9.17    0.18
  -4  -3  -1    9.02    0.19
  -4  -3  -1    9.24    0.19
  -4  -3  -1    9.47    0.23
  -4  -3  -1    8.97    0.20
  -4  -3  -1    9.32    0.20
  -4  -3  -1    9.34    0.19
   4   3   1    9.16    0.20
   4   3   1    9.19    0.23
   4   3   1    9.25    0.20
  -5  -3  -1    0.01    0.02
  -5  -3  -1    0.01    0.02
  -5  -3  -1    0.02    0.02
  -5  -3  -1    0.03    0.02
  -5  -3  -1    0.01    0.02
  -5  -3  -1    0.02    0.02
  -5  -3  -1    0.00    0.01
   5   3   1    0.02    0.02
   5   3   1    0.01    0.02
   5   3   1    0.03    0.02
  -6  -3  -1    0.13    0.03
  -6  -3  -1    0.17    0.04
  -6  -3  -1    0.17    0.03
  -6  -3  -1    0.18    0.03
  -6  -3  -1    0.17    0.03
  -6  -3  -1    0.19    0.03
  -6  -3  -1    0.13    0.03
   6   3   1    0.14    0.03
   6   3   1    0.16    0.04
   6   3   1    0.18    0.03
   3  -4  -1    0.59    0.03
   3  -4  -1    0.56    0.02
   3  -4  -1    0.53    0.03
   3  -4  -1    0.48    0.04
   3  -4  -1    0.49    0.03
  -3   4   1    0.64    0.03
  -3   4   1    0.51    0.03
  -3   4   1    0.69    0.03
   2  -4  -1   79.66    1.35
   2  -4  -1   80.16    1.32
   2  -4  -1   80.16    1.32
   2  -4  -1   80.47    1.32
   2  -4  -1   79.73    1.33
   2  -4  -1   79.80    1.33
   2  -4  -1   80.95    1.32
  -2   4   1   79.13    1.33
  -2   4   1   78.17    1.33
  -2   4   1   77.86    1.35
   1  -4  -1    9.06    0.19
   1  -4  -1    9.35    0.17
   1  -4  -1    9.31    0.18
   1  -4  -1    9.50    0.18
   1  -4  -1    9.08    0.21
   1  -4  -1    9.43    0.18
   1  -4  -1    9.36    0.18
  -1   4   1    8.60    0.20
  -1   4   1    8.88    0.18
  -1   4   1    9.01    0.18
   0  -4  -1    4.49    0.11
   0  -4  -1    4.50    0.11
   0  -4  -1    4.67    0.10
   0  -4  -1    4.61    0.11
   0  -4  -1    4.64    0.11
   0  -4  -1    4.69    0.10
   0  -4  -1    4.65    0.13
   0   4   1    4.48    0.13
   0   4   1    4.59    0.11
   0   4   1    4.53    0.11
  -1  -4  -1    3.07    0.09
  -1  -4  -1    3.05    0.09
  -1  -4  -1    2.96    0.08
  -1  -4  -1    3.15    0.11
  -1  -4  -1    2.99    0.08
  -1  -4  -1    3.10    0.08
  -1  -4  -1    3.11    0.08
   1   4   1    3.08    0.11
   1   4   1    3.10    0.09
   1   4   1    3.19    0.09
  -2  -4  -1   12.45    0.25
  -2  -4  -1   12.91    0.25
  -2  -4  -1   12.88    0.26
  -2  -4  -1   13.07    0.29
  -2  -4  -1   12.94    0.25
  -2  -4  -1   12.90    0.26
  -2  -4  -1   12.82    0.25
   2   4   1   13.07    0.26
   2   4   1   12.84    0.26
   2   4   1   13.31    0.30
  -3  -4  -1    4.63    0.11
  -3  -4  -1    4.64    0.15
  -3  -4  -1    4.62    0.11
  -3  -4  -1    4.61    0.13
  -3  -4  -1    4.62    0.12
  -3  -4  -1    4.62    0.12
  -3  -4  -1    4.70    0.12
   3   4   1    4.62    0.15
   3   4   1    4.67    0.12
   3   4   1    4.57    0.12
  -4  -4  -1    0.04    0.03
  -4  -4  -1    0.02    0.02
  -4  -4  -1    0.00    0.02
  -4  -4  -1    0.08    0.02
  -4  -4  -1    0.03    0.02
  -4  -4  -1    0.03    0.02
  -4  -4  -1    0.01    0.02
   4   4   1   -0.02    0.02
   4   4   1    0.02    0.02
   4   4   1    0.02    0.02
  -5  -4  -1    0.48    0.04
  -5  -4  -1    0.42    0.04
  -5  -4  -1    0.55    0.05
  -5  -4  -1    0.55    0.04
  -5  -4  -1    0.47    0.04
  -5  -4  -1    0.46    0.04
   5   4   1    0.53    0.05
   5   4   1    0.53    0.06
   5   4   1    0.46    0.05
  -6  -4  -1    1.96    0.08
  -6  -4  -1    1.89    0.08
  -6  -4  -1    1.84    0.08
  -6  -4  -1    1.83    0.08
  -6  -4  -1    1.86    0.09
  -6  -4  -1    1.88    0.07
   6   4   1    1.88    0.08
   6   4   1    1.91    0.08
  -7  -4  -1    0.55    0.06
  -7  -4  -1    0.52    0.06
  -7  -4  -1    0.46    0.05
  -7  -4  -1    0.55    0.05
   7   4   1    0.54    0.06
   7   4   1    0.49    0.05
   4  -5  -1   11.75    0.26
  -3   5   1    0.30    0.03
  -3   5   1    0.18    0.03
  -3   5   1    0.18    0.02
   2  -5  -1    7.91    0.16
   2  -5  -1    7.91    0.19
   2  -5  -1    8.47    0.17
   2  -5  -1    7.83    0.17
   2  -5  -1    7.93    0.16
   2  -5  -1    7.80    0.16
   2  -5  -1    7.96    0.16
  -2   5   1    7.40    0.19
  -2   5   1    7.64    0.17
  -2   5   1    7.79    0.17
   1  -5  -1    0.63    0.04
   1  -5  -1    0.70    0.04
   1  -5  -1    0.72    0.04
   1  -5  -1    0.71    0.04
   1  -5  -1    0.67    0.04
   1  -5  -1    0.66    0.05
   1  -5  -1    0.72    0.04
  -1   5   1    0.68    0.05
  -1   5   1    0.67    0.04
  -1   5   1    0.67    0.04
   0  -5  -1   20.13    0.36
   0  -5  -1   19.73    0.38
   0  -5  -1   20.24    0.37
   0  -5  -1   19.97    0.41
   0  -5  -1   19.91    0.37
   0  -5  -1   19.74    0.37
   0  -5  -1   20.20    0.37
   0   5   1   19.66    0.37
   0   5   1   20.12    0.41
   0   5   1   19.67    0.38
  -1  -5  -1    0.07    0.02
  -1  -5  -1    0.06    0.02
  -1  -5  -1    0.09    0.02
  -1  -5  -1    0.06    0.02
  -1  -5  -1    0.04    0.02
  -1  -5  -1    0.03    0.02
  -1  -5  -1    0.03    0.02
   1   5   1    0.02    0.02
   1   5   1    0.03    0.02
   1   5   1    0.03    0.02
  -2  -5  -1   17.19    0.33
  -2  -5  -1   17.23    0.33
  -2  -5  -1   17.59    0.33
  -2  -5  -1   17.40    0.38
  -2  -5  -1   16.98    0.34
  -2  -5  -1   17.25    0.35
  -2  -5  -1   17.29    0.33
   2   5   1   17.65    0.35
   2   5   1   17.59    0.39
   2   5   1   17.70    0.34
  -3  -5  -1   14.36    0.29
  -3  -5  -1   14.33    0.30
  -3  -5  -1   14.24    0.28
  -3  -5  -1   14.42    0.29
  -3  -5  -1   14.51    0.29
  -3  -5  -1   14.41    0.31
   3   5   1   14.62    0.30
   3   5   1   14.31    0.30
   3   5   1   14.61    0.35
  -4  -5  -1   14.75    0.30
  -4  -5  -1   14.56    0.30
  -4  -5  -1   14.41    0.30
  -4  -5  -1   14.69    0.29
  -4  -5  -1   14.78    0.30
  -4  -5  -1   14.59    0.32
   4   5   1   15.00    0.31
   4   5   1   14.87    0.31
  -5  -5  -1    3.98    0.11
  -5  -5  -1    4.06    0.12
  -5  -5  -1    3.91    0.13
  -5  -5  -1    4.12    0.12
  -5  -5  -1    4.07    0.12
   5   5   1    3.91    0.13
   5   5   1    4.00    0.13
  -6  -5  -1    0.92    0.06
  -6  -5  -1    0.89    0.06
  -6  -5  -1    0.97    0.07
  -6  -5  -1    0.83    0.06
  -6  -5  -1    1.00    0.07
   6   5   1    0.85    0.07
   6   5   1    0.74    0.06
  -7  -5  -1    0.01    0.03
  -7  -5  -1    0.01    0.03
  -7  -5  -1   -0.02    0.02
  -7  -5  -1    0.02    0.03
  -7  -5  -1    0.03    0.03
   7   5   1    0.00    0.03
   7   5   1    0.04    0.03
   3  -6  -1   -0.02    0.02
   3  -6  -1   -0.01    0.01
   3  -6  -1   -0.04    0.02
   3  -6  -1    0.02    0.02
   3  -6  -1    0.02    0.02
   3  -6  -1   -0.02    0.01
   3  -6  -1   -0.01    0.02
   3  -6  -1   -0.02    0.02
   3  -6  -1    0.00    0.01
   3  -6  -1   -0.01    0.02
  -3   6   1    0.00    0.01
  -3   6   1   -0.01    0.02
  -3   6   1    0.00    0.01
   2  -6  -1    2.05    0.06
   2  -6  -1    1.99    0.07
   2  -6  -1    1.95    0.07
   2  -6  -1    2.07    0.09
   2  -6  -1    2.06    0.07
   2  -6  -1    1.95    0.07
   2  -6  -1    2.03    0.08
  -2   6   1    2.36    0.08
  -2   6   1    2.30    0.08
  -2   6   1    2.40    0.10
   1  -6  -1    3.06    0.10
   1  -6  -1    3.25    0.12
   1  -6  -1    3.24    0.09
   1  -6  -1    3.21    0.09
   1  -6  -1    3.21    0.09
   1  -6  -1    3.23    0.09
   1  -6  -1    3.19    0.10
  -1   6   1    3.08    0.10
  -1   6   1    3.22    0.12
  -1   6   1    3.19    0.10
   0  -6  -1    0.85    0.05
   0  -6  -1    0.84    0.07
   0  -6  -1    0.81    0.06
   0  -6  -1    0.81    0.05
   0  -6  -1    0.76    0.05
   0  -6  -1    0.84    0.06
   0  -6  -1    0.84    0.05
   0   6   1    0.90    0.05
   0   6   1    0.89    0.05
   0   6   1    0.80    0.07
  -1  -6  -1    0.01    0.02
  -1  -6  -1    0.05    0.03
  -1  -6  -1    0.00    0.02
  -1  -6  -1   -0.02    0.02
  -1  -6  -1    0.03    0.02
  -1  -6  -1    0.01    0.02
   1   6   1    0.05    0.03
   1   6   1    0.00    0.02
   1   6   1    0.02    0.02
  -2  -6  -1   41.98    0.74
  -2  -6  -1   41.64    0.73
  -2  -6  -1   41.25    0.75
  -2  -6  -1   41.81    0.74
  -2  -6  -1   41.43    0.74
  -2  -6  -1   41.79    0.76
   2   6   1   41.92    0.76
   2   6   1   42.41    0.76
  -3  -6  -1    1.45    0.07
  -3  -6  -1    1.37    0.06
  -3  -6  -1    1.45    0.08
  -3  -6  -1    1.34    0.07
  -3  -6  -1    1.37    0.07
   3   6   1    1.51    0.08
   3   6   1    1.44    0.08
  -4  -6  -1   18.40    0.36
  -4  -6  -1   18.27    0.38
  -4  -6  -1   18.46    0.37
  -4  -6  -1   18.63    0.37
  -4  -6  -1   18.59    0.37
   4   6   1   18.95    0.39
   4   6   1   18.79    0.39
  -5  -6  -1    0.10    0.03
  -5  -6  -1    0.11    0.04
  -5  -6  -1    0.10    0.03
  -5  -6  -1    0.11    0.03
  -5  -6  -1    0.11    0.03
   5   6   1    0.07    0.03
   5   6   1    0.09    0.03
  -6  -6  -1    0.01    0.03
  -6  -6  -1   -0.01    0.03
  -6  -6  -1    0.04    0.03
  -6  -6  -1    0.00    0.02
  -6  -6  -1    0.04    0.03
   6   6   1    0.06    0.03
   6   6   1    0.03    0.03
  -7  -6  -1    0.15    0.04
  -7  -6  -1    0.10    0.04
  -7  -6  -1    0.11    0.03
  -7  -6  -1    0.15    0.04
  -7  -6  -1    0.20    0.04
   7   6   1    0.20    0.04
   7   6   1    0.17    0.04
   3  -7  -1    0.46    0.04
   3  -7  -1    0.48    0.04
   3  -7  -1    0.49    0.05
   3  -7  -1    0.46    0.04
   3  -7  -1    0.41    0.05
   3  -7  -1    0.52    0.04
  -3   7   1    0.49    0.05
  -3   7   1    0.47    0.05
   2  -7  -1    0.01    0.01
   2  -7  -1    0.00    0.01
   2  -7  -1    0.01    0.01
   2  -7  -1    0.01    0.01
   2  -7  -1    0.01    0.01
   2  -7  -1    0.00    0.01
   2  -7  -1    0.01    0.01
  -2   7   1    0.06    0.02
  -2   7   1    0.05    0.02
  -2   7   1    0.07    0.03
   1  -7  -1    1.34    0.07
   1  -7  -1    1.37    0.06
   1  -7  -1    1.34    0.07
   1  -7  -1    1.31    0.06
   1  -7  -1    1.28    0.07
   1  -7  -1    1.34    0.07
  -1   7   1    1.39    0.09
  -1   7   1    1.36    0.07
  -1   7   1    1.34    0.07
   0  -7  -1    2.35    0.09
   0  -7  -1    2.48    0.09
   0  -7  -1    2.24    0.10
   0  -7  -1    2.31    0.08
   0  -7  -1    2.36    0.10
   0  -7  -1    2.41    0.09
   0   7   1    2.44    0.10
   0   7   1    2.51    0.09
  -1  -7  -1    0.03    0.02
  -1  -7  -1    0.02    0.02
  -1  -7  -1    0.04    0.03
  -1  -7  -1   -0.01    0.02
  -1  -7  -1    0.00    0.02
   1   7   1    0.00    0.02
   1   7   1    0.02    0.02
  -2  -7  -1    3.41    0.10
  -2  -7  -1    3.29    0.11
  -2  -7  -1    3.35    0.11
  -2  -7  -1    3.28    0.11
  -2  -7  -1    3.23    0.12
   2   7   1    3.15    0.12
   2   7   1    3.21    0.12
  -3  -7  -1    6.80    0.17
  -3  -7  -1    6.95    0.18
  -3  -7  -1    7.02    0.18
  -3  -7  -1    6.89    0.19
  -3  -7  -1    6.72    0.18
   3   7   1    7.14    0.19
   3   7   1    6.80    0.19
  -4  -7  -1    0.78    0.06
  -4  -7  -1    0.81    0.07
  -4  -7  -1    0.78    0.06
  -4  -7  -1    0.83    0.06
  -4  -7  -1    0.83    0.06
   4   7   1    0.88    0.07
   4   7   1    0.74    0.06
  -5  -7  -1    1.65    0.09
  -5  -7  -1    1.59    0.09
  -5  -7  -1    1.64    0.09
  -5  -7  -1    1.65    0.10
  -5  -7  -1    1.72    0.08
   5   7   1    1.66    0.09
   5   7   1    1.58    0.10
  -6  -7  -1    0.05    0.03
  -6  -7  -1    0.11    0.04
  -6  -7  -1    0.07    0.03
  -6  -7  -1    0.10    0.04
   6   7   1    0.09    0.04
   6   7   1    0.15    0.04
  -7  -7  -1    0.74    0.07
  -7  -7  -1    0.83    0.08
   7   7   1    0.80    0.08
   7   7   1    0.90    0.09
   3  -8  -1   18.09    0.36
   3  -8  -1   17.66    0.36
   3  -8  -1   18.04    0.37
   3  -8  -1   17.52    0.35
  -3   8   1   16.67    0.36
  -3   8   1   16.95    0.35
   2  -8  -1    0.39    0.05
   2  -8  -1    0.41    0.04
   2  -8  -1    0.42    0.04
   2  -8  -1    0.31    0.04
   2  -8  -1    0.37    0.05
   2  -8  -1    0.34    0.05
  -2   8   1    0.36    0.05
  -2   8   1    0.40    0.05
   1  -8  -1    1.42    0.07
   1  -8  -1    1.59    0.07
   1  -8  -1    1.46    0.07
   1  -8  -1    1.73    0.09
  -1   8   1    1.41    0.08
  -1   8   1    1.51    0.08
   0  -8  -1    0.92    0.06
   0  -8  -1    0.89    0.06
   0  -8  -1    0.87    0.06
   0  -8  -1    1.06    0.07
   0  -8  -1    0.91    0.06
   0   8   1    0.75    0.06
   0   8   1    0.79    0.06
  -1  -8  -1    6.50    0.17
  -1  -8  -1    6.74    0.19
  -1  -8  -1    6.79    0.18
  -1  -8  -1    6.85    0.18
  -1  -8  -1    6.76    0.17
   1   8   1    6.60    0.18
   1   8   1    6.48    0.19
  -2  -8  -1    0.12    0.03
  -2  -8  -1    0.16    0.03
  -2  -8  -1    0.12    0.04
  -2  -8  -1    0.17    0.04
  -2  -8  -1    0.18    0.04
   2   8   1    0.13    0.03
   2   8   1    0.11    0.03
  -3  -8  -1    1.86    0.09
  -3  -8  -1    1.78    0.09
  -3  -8  -1    1.82    0.08
  -3  -8  -1    1.69    0.10
  -3  -8  -1    1.68    0.09
   3   8   1    1.76    0.10
   3   8   1    1.80    0.09
  -4  -8  -1    0.06    0.03
  -4  -8  -1    0.10    0.04
  -4  -8  -1    0.18    0.06
  -4  -8  -1    0.10    0.04
  -4  -8  -1    0.15    0.03
   4   8   1    0.14    0.04
   4   8   1    0.12    0.04
  -5  -8  -1    0.52    0.07
  -5  -8  -1    0.62    0.08
   5   8   1    0.66    0.08
   5   8   1    0.66    0.08
  -6  -8  -1    0.26    0.06
   6   8   1    0.34    0.06
   6   8   1    0.40    0.07
   2  -9  -1    1.33    0.08
   2  -9  -1    1.34    0.08
   2  -9  -1    1.32    0.07
   2  -9  -1    1.23    0.07
   2  -9  -1    1.45    0.08
  -2   9   1    1.43    0.08
  -2   9   1    1.44    0.08
   1  -9  -1    0.50    0.06
   1  -9  -1    0.45    0.05
   1  -9  -1    0.47    0.05
   1  -9  -1    0.48    0.05
   1  -9  -1    0.42    0.05
  -1   9   1    0.56    0.06
  -1   9   1    0.51    0.06
   0  -9  -1    2.50    0.10
   0  -9  -1    2.49    0.10
   0  -9  -1    2.54    0.11
   0  -9  -1    2.44    0.10
   0  -9  -1    2.54    0.11
   0   9   1    2.50    0.11
   0   9   1    2.51    0.11
  -1  -9  -1   -0.01    0.02
  -1  -9  -1   -0.02    0.03
  -1  -9  -1    0.02    0.03
  -1  -9  -1   -0.05    0.03
  -1  -9  -1    0.02    0.03
   1   9   1   -0.01    0.02
   1   9   1    0.00    0.03
  -2  -9  -1    0.29    0.05
  -2  -9  -1    0.38    0.05
  -2  -9  -1    0.34    0.05
  -2  -9  -1    0.40    0.06
   2   9   1    0.37    0.06
   2   9   1    0.40    0.06
  -3  -9  -1    0.01    0.03
  -3  -9  -1    0.02    0.03
  -3  -9  -1    0.00    0.03
  -3  -9  -1    0.04    0.04
   3   9   1    0.02    0.03
   3   9   1    0.02    0.03
  -4  -9  -1    0.74    0.08
  -4  -9  -1    0.66    0.07
   4   9   1    0.80    0.09
   4   9   1    0.75    0.09
  -5  -9  -1    0.03    0.04
   5   9   1   -0.03    0.03
   5   9   1    0.02    0.04
   2 -10  -1    4.84    0.16
   2 -10  -1    4.63    0.15
   2 -10  -1    4.50    0.15
   2 -10  -1    4.46    0.16
  -2  10   1    4.43    0.15
  -2  10   1    4.21    0.15
   1 -10  -1    1.59    0.10
   1 -10  -1    1.56    0.09
   1 -10  -1    1.42    0.09
   1 -10  -1    1.47    0.09
   1 -10  -1    1.59    0.08
  -1  10   1    1.49    0.09
  -1  10   1    1.51    0.10
   0 -10  -1    1.65    0.11
   0 -10  -1    1.73    0.09
   0 -10  -1    1.68    0.10
   0 -10  -1    1.64    0.09
   0  10   1    1.68    0.11
   0  10   1    1.61    0.10
  -1 -10  -1    1.40    0.10
  -1 -10  -1    1.20    0.09
   1  10   1    1.26    0.09
   1  10   1    1.26    0.10
  -2 -10  -1    4.41    0.17
   2  10   1    4.26    0.17
   2  10   1    4.29    0.17
  -3 -10  -1    0.37    0.07
   3  10   1    0.41    0.07
   3  10   1    0.41    0.06
   1  11  -2    1.20    0.09
   1  11  -2    1.01    0.09
  -1 -11   2    1.17    0.10
   0  11  -2    1.88    0.11
   0  11  -2    1.86    0.11
   0 -11   2    1.82    0.11
   0 -11   2    1.86    0.12
  -1  11  -2    0.11    0.04
  -1  11  -2    0.07    0.04
   1 -11   2    0.17    0.05
   1 -11   2    0.15    0.04
  -2  11  -2    0.01    0.03
  -2  11  -2    0.06    0.04
   4  10  -2    1.29    0.10
   4  10  -2    1.31    0.11
  -4 -10   2    1.27    0.11
   3  10  -2    0.05    0.04
   3  10  -2   -0.01    0.03
  -3 -10   2    0.00    0.04
   2  10  -2    1.27    0.10
   2  10  -2    1.32    0.10
  -2 -10   2    1.22    0.10
  -2 -10   2    1.20    0.09
   1  10  -2    0.15    0.04
   1  10  -2    0.15    0.04
  -1 -10   2    0.19    0.05
  -1 -10   2    0.05    0.03
  -1 -10   2    0.12    0.04
  -1 -10   2    0.05    0.04
   0  10  -2    3.02    0.13
   0  10  -2    3.15    0.13
   0 -10   2    3.47    0.13
   0 -10   2    3.46    0.14
   0 -10   2    3.27    0.12
   0 -10   2    3.27    0.13
   0 -10   2    3.50    0.12
  -1  10  -2    0.12    0.04
  -1  10  -2    0.09    0.03
   1 -10   2    0.11    0.03
   1 -10   2    0.14    0.04
   1 -10   2    0.11    0.04
   1 -10   2    0.12    0.04
   1 -10   2    0.13    0.04
  -2  10  -2    3.19    0.12
  -2  10  -2    3.15    0.12
   2 -10   2    3.22    0.13
   2 -10   2    2.95    0.12
   2 -10   2    2.90    0.11
   2 -10   2    3.00    0.12
   2 -10   2    3.05    0.11
   5   9  -2    1.46    0.11
   5   9  -2    1.39    0.10
  -5  -9   2    1.36    0.10
   4   9  -2    0.19    0.05
   4   9  -2    0.22    0.05
  -4  -9   2    0.27    0.05
  -4  -9   2    0.28    0.05
   3   9  -2    0.13    0.04
   3   9  -2    0.15    0.04
  -3  -9   2    0.15    0.03
  -3  -9   2    0.12    0.04
  -3  -9   2    0.11    0.04
  -3  -9   2    0.15    0.04
   2   9  -2    0.44    0.06
   2   9  -2    0.29    0.05
  -2  -9   2    0.28    0.04
  -2  -9   2    0.36    0.05
  -2  -9   2    0.33    0.05
  -2  -9   2    0.31    0.04
   1   9  -2    0.02    0.03
   1   9  -2    0.01    0.03
  -1  -9   2    0.01    0.02
  -1  -9   2   -0.01    0.03
  -1  -9   2    0.02    0.03
  -1  -9   2    0.01    0.03
  -1  -9   2    0.01    0.02
   0   9  -2    0.75    0.07
   0   9  -2    0.66    0.07
   0  -9   2    1.02    0.07
   0  -9   2    0.97    0.07
   0  -9   2    0.99    0.07
   0  -9   2    0.92    0.08
   0  -9   2    0.81    0.06
  -1   9  -2    0.03    0.02
  -1   9  -2    0.02    0.02
   1  -9   2    0.01    0.02
   1  -9   2    0.00    0.02
   1  -9   2    0.01    0.03
   1  -9   2    0.02    0.02
   1  -9   2    0.05    0.03
  -2   9  -2    0.12    0.03
  -2   9  -2    0.12    0.03
   2  -9   2    0.12    0.03
   2  -9   2    0.05    0.04
   2  -9   2    0.06    0.03
   2  -9   2    0.11    0.03
   2  -9   2    0.06    0.03
   6   8  -2    0.17    0.05
   6   8  -2    0.13    0.04
  -6  -8   2    0.08    0.04
  -6  -8   2    0.09    0.04
   5   8  -2    0.31    0.06
   5   8  -2    0.38    0.06
  -5  -8   2    0.34    0.05
  -5  -8   2    0.34    0.05
  -5  -8   2    0.25    0.05
  -5  -8   2    0.35    0.05
   3   8  -2    2.34    0.11
   3   8  -2    2.30    0.11
  -3  -8   2    2.08    0.11
  -3  -8   2    2.14    0.10
  -3  -8   2    1.96    0.10
  -3  -8   2    2.00    0.09
  -3  -8   2    2.06    0.10
   2   8  -2    2.20    0.10
   2   8  -2    1.97    0.10
  -2  -8   2    2.20    0.10
  -2  -8   2    2.29    0.10
  -2  -8   2    2.03    0.08
  -2  -8   2    1.97    0.09
  -2  -8   2    2.00    0.09
   1   8  -2   -0.03    0.02
   1   8  -2    0.01    0.03
  -1  -8   2    0.03    0.04
  -1  -8   2    0.06    0.03
  -1  -8   2    0.07    0.03
  -1  -8   2    0.04    0.03
  -1  -8   2    0.05    0.03
   0   8  -2    2.84    0.11
   0   8  -2    2.98    0.11
   0  -8   2    2.90    0.11
   0  -8   2    3.02    0.10
   0  -8   2    3.03    0.10
   0  -8   2    3.05    0.11
   0  -8   2    2.80    0.10
  -1   8  -2    2.05    0.09
  -1   8  -2    1.96    0.09
   1  -8   2    2.03    0.10
   1  -8   2    2.06    0.09
   1  -8   2    2.02    0.08
   1  -8   2    2.05    0.09
   1  -8   2    2.00    0.09
  -2   8  -2    1.45    0.07
  -2   8  -2    1.39    0.07
   2  -8   2    1.41    0.07
   2  -8   2    1.49    0.07
   2  -8   2    1.36    0.08
   2  -8   2    1.39    0.07
   2  -8   2    1.41    0.06
  -3   8  -2    1.51    0.07
  -3   8  -2    1.45    0.07
   3  -8   2    1.32    0.07
   3  -8   2    1.31    0.07
   3  -8   2    1.31    0.07
   3  -8   2    1.24    0.07
   3  -8   2    1.36    0.06
   7   7  -2    1.00    0.09
   7   7  -2    1.21    0.09
  -7  -7   2    1.03    0.08
  -7  -7   2    1.15    0.09
  -7  -7   2    1.05    0.08
  -7  -7   2    1.11    0.08
   6   7  -2    0.22    0.05
   6   7  -2    0.28    0.05
  -6  -7   2    0.18    0.04
  -6  -7   2    0.25    0.04
  -6  -7   2    0.18    0.04
  -6  -7   2    0.25    0.04
  -6  -7   2    0.17    0.04
   5   7  -2    5.72    0.18
   5   7  -2    5.78    0.18
  -5  -7   2    5.65    0.15
  -5  -7   2    5.53    0.16
  -5  -7   2    5.69    0.17
  -5  -7   2    5.62    0.16
  -5  -7   2    5.57    0.16
   4   7  -2    0.18    0.04
   4   7  -2    0.17    0.04
  -4  -7   2    0.12    0.04
  -4  -7   2    0.14    0.04
  -4  -7   2    0.10    0.04
  -4  -7   2    0.16    0.04
  -4  -7   2    0.18    0.04
   3   7  -2    0.81    0.07
   3   7  -2    0.98    0.07
  -3  -7   2    0.85    0.07
  -3  -7   2    0.87    0.07
  -3  -7   2    0.94    0.08
  -3  -7   2    0.93    0.07
  -3  -7   2    1.00    0.07
   2   7  -2    1.48    0.08
   2   7  -2    1.45    0.08
  -2  -7   2    1.48    0.07
  -2  -7   2    1.56    0.07
  -2  -7   2    1.59    0.08
  -2  -7   2    1.57    0.08
  -2  -7   2    1.45    0.08
   1   7  -2    7.20    0.18
   1   7  -2    7.39    0.19
  -1  -7   2    7.36    0.19
  -1  -7   2    7.43    0.18
  -1  -7   2    7.56    0.20
  -1  -7   2    7.37    0.18
  -1  -7   2    7.51    0.18
  -1  -7   2    7.56    0.17
   0   7  -2    0.06    0.02
   0   7  -2    0.03    0.02
   0   7  -2    0.03    0.02
   0  -7   2    0.06    0.02
   0  -7   2    0.03    0.02
   0  -7   2    0.02    0.02
   0  -7   2    0.03    0.02
   0  -7   2    0.01    0.02
  -1   7  -2    0.56    0.05
  -1   7  -2    0.59    0.05
  -1   7  -2    0.55    0.06
  -1   7  -2    0.54    0.05
   1  -7   2    0.66    0.05
   1  -7   2    0.69    0.05
   1  -7   2    0.81    0.06
   1  -7   2    0.79    0.06
   1  -7   2    0.59    0.05
  -2   7  -2    0.02    0.02
  -2   7  -2    0.00    0.02
  -2   7  -2    0.01    0.02
   2  -7   2    0.00    0.01
   2  -7   2    0.00    0.01
   2  -7   2    0.01    0.01
   2  -7   2   -0.01    0.01
   2  -7   2    0.00    0.02
   2  -7   2    0.00    0.01
   2  -7   2   -0.01    0.01
  -3   7  -2    5.39    0.14
  -3   7  -2    5.44    0.13
   3  -7   2    5.06    0.13
   3  -7   2    5.22    0.13
   3  -7   2    5.15    0.14
   3  -7   2    4.85    0.14
   3  -7   2    4.96    0.13
   3  -7   2    5.31    0.17
   3  -7   2    5.09    0.12
   7   6  -2    1.93    0.10
   7   6  -2    1.76    0.10
  -7  -6   2    1.75    0.09
  -7  -6   2    1.69    0.08
  -7  -6   2    1.65    0.09
  -7  -6   2    1.69    0.09
  -7  -6   2    1.78    0.10
   6   6  -2    6.06    0.18
   6   6  -2    6.18    0.18
  -6  -6   2    6.10    0.18
  -6  -6   2    6.22    0.17
  -6  -6   2    6.28    0.17
  -6  -6   2    6.02    0.17
  -6  -6   2    6.13    0.16
   5   6  -2    3.20    0.12
   5   6  -2    3.21    0.12
  -5  -6   2    3.05    0.11
  -5  -6   2    3.20    0.12
  -5  -6   2    2.89    0.11
  -5  -6   2    3.14    0.11
  -5  -6   2    3.08    0.10
   4   6  -2    1.40    0.08
   4   6  -2    1.33    0.08
  -4  -6   2    1.15    0.07
  -4  -6   2    0.98    0.07
  -4  -6   2    1.20    0.08
  -4  -6   2    1.19    0.08
  -4  -6   2    1.17    0.08
   3   6  -2    2.21    0.09
   3   6  -2    2.14    0.09
  -3  -6   2    2.17    0.09
  -3  -6   2    2.26    0.08
  -3  -6   2    2.24    0.09
  -3  -6   2    2.14    0.08
  -3  -6   2    2.13    0.10
  -3  -6   2    2.08    0.09
   2   6  -2    3.13    0.10
   2   6  -2    3.06    0.10
   2   6  -2    3.02    0.10
   2   6  -2    3.06    0.13
  -2  -6   2    2.99    0.10
  -2  -6   2    2.97    0.11
  -2  -6   2    2.99    0.09
  -2  -6   2    2.98    0.09
  -2  -6   2    2.96    0.10
   1   6  -2    0.61    0.05
   1   6  -2    0.50    0.06
   1   6  -2    0.59    0.05
   1   6  -2    0.52    0.04
  -1  -6   2    0.58    0.05
  -1  -6   2    0.49    0.04
  -1  -6   2    0.53    0.04
  -1  -6   2    0.51    0.06
  -1  -6   2    0.52    0.04
  -1  -6   2    0.58    0.05
   0   6  -2    0.28    0.04
   0   6  -2    0.25    0.03
   0   6  -2    0.25    0.03
   0   6  -2    0.22    0.04
   0   6  -2    0.23    0.03
   0  -6   2    0.15    0.03
   0  -6   2    0.27    0.03
   0  -6   2    0.24    0.05
   0  -6   2    0.20    0.03
   0  -6   2    0.19    0.03
   0  -6   2    0.15    0.03
  -1   6  -2    2.85    0.09
  -1   6  -2    2.82    0.09
  -1   6  -2    2.98    0.09
  -1   6  -2    2.83    0.08
  -1   6  -2    2.93    0.11
   1  -6   2    2.92    0.12
   1  -6   2    2.99    0.09
   1  -6   2    2.87    0.09
   1  -6   2    2.89    0.09
   1  -6   2    2.85    0.09
   1  -6   2    2.84    0.09
   1  -6   2    2.88    0.08
  -2   6  -2    2.42    0.10
  -2   6  -2    2.47    0.08
  -2   6  -2    2.41    0.08
  -2   6  -2    2.27    0.07
   2  -6   2    1.76    0.07
   2  -6   2    2.57    0.09
   2  -6   2    2.43    0.08
   2  -6   2    1.83    0.07
   2  -6   2    2.34    0.08
   2  -6   2    1.88    0.07
   2  -6   2    1.80    0.07
   2  -6   2    1.76    0.06
   2  -6   2    1.74    0.09
  -3   6  -2    0.90    0.04
  -3   6  -2    0.90    0.05
  -3   6  -2    0.96    0.05
   3  -6   2    0.85    0.05
   3  -6   2    0.92    0.05
   3  -6   2    0.90    0.04
   3  -6   2    0.97    0.05
   3  -6   2    0.86    0.05
   3  -6   2    0.96    0.05
   3  -6   2    0.96    0.07
   7   5  -2   -0.05    0.02
   7   5  -2   -0.06    0.02
  -7  -5   2   -0.03    0.02
  -7  -5   2   -0.01    0.03
  -7  -5   2   -0.03    0.02
  -7  -5   2   -0.07    0.02
  -7  -5   2   -0.07    0.02
  -6  -5   2    0.05    0.03
  -6  -5   2    0.08    0.03
  -6  -5   2    0.07    0.03
  -6  -5   2    0.05    0.03
  -6  -5   2    0.05    0.03
   5   5  -2    0.03    0.02
   5   5  -2    0.07    0.03
  -5  -5   2   -0.06    0.02
  -5  -5   2   -0.02    0.02
  -5  -5   2   -0.03    0.02
  -5  -5   2   -0.02    0.02
  -5  -5   2   -0.02    0.02
  -5  -5   2   -0.02    0.02
   4   5  -2   26.41    0.50
   4   5  -2   27.24    0.55
   4   5  -2   26.85    0.50
  -4  -5   2   26.33    0.50
  -4  -5   2   26.29    0.49
  -4  -5   2   27.31    0.51
  -4  -5   2   26.58    0.49
  -4  -5   2   26.99    0.49
  -4  -5   2   26.28    0.48
   3   5  -2    4.20    0.12
   3   5  -2    4.10    0.12
   3   5  -2    4.16    0.12
   3   5  -2    4.16    0.15
  -3  -5   2    4.36    0.12
  -3  -5   2    4.47    0.12
  -3  -5   2    4.25    0.11
  -3  -5   2    4.23    0.12
  -3  -5   2    4.20    0.11
  -3  -5   2    4.46    0.16
   1   5  -2    0.51    0.03
   1   5  -2    0.54    0.03
   1   5  -2    0.51    0.04
   1   5  -2    0.52    0.03
   1   5  -2    0.38    0.04
   1   5  -2    0.47    0.05
   1   5  -2    0.46    0.04
  -1  -5   2    0.48    0.04
  -1  -5   2    0.42    0.03
  -1  -5   2    0.50    0.05
  -1  -5   2    0.49    0.04
  -1  -5   2    0.51    0.04
  -1  -5   2    0.48    0.03
  -1  -5   2    0.48    0.04
   0   5  -2   26.39    0.49
   0   5  -2   27.39    0.49
   0   5  -2   27.32    0.50
   0   5  -2   26.38    0.48
   0   5  -2   27.91    0.53
   0   5  -2   26.95    0.48
   0   5  -2   26.52    0.49
   0  -5   2   27.81    0.48
   0  -5   2   27.59    0.50
   0  -5   2   27.45    0.49
   0  -5   2   28.20    0.53
   0  -5   2   27.71    0.49
   0  -5   2   26.98    0.50
   0  -5   2   28.11    0.49
   0  -5   2   27.63    0.49
  -1   5  -2    3.04    0.09
  -1   5  -2    3.13    0.08
  -1   5  -2    3.08    0.09
  -1   5  -2    3.07    0.08
  -1   5  -2    3.12    0.11
  -1   5  -2    3.08    0.09
  -1   5  -2    3.06    0.08
   1  -5   2    3.10    0.09
   1  -5   2    3.18    0.09
   1  -5   2    3.11    0.09
   1  -5   2    3.24    0.09
   1  -5   2    3.21    0.11
   1  -5   2    3.14    0.08
   1  -5   2    3.10    0.09
   1  -5   2    3.16    0.08
  -2   5  -2   18.61    0.33
  -2   5  -2   18.69    0.33
  -2   5  -2   18.66    0.34
  -2   5  -2   18.49    0.34
  -2   5  -2   18.91    0.33
  -2   5  -2   18.33    0.34
   2  -5   2   18.31    0.34
   2  -5   2   18.36    0.33
   2  -5   2   18.44    0.33
   2  -5   2   18.25    0.34
   2  -5   2   18.10    0.34
   2  -5   2   18.38    0.37
   2  -5   2   18.14    0.35
   2  -5   2   18.08    0.34
  -3   5  -2    0.03    0.01
  -3   5  -2    0.03    0.01
  -3   5  -2    0.03    0.01
  -3   5  -2    0.01    0.01
  -3   5  -2    0.03    0.01
  -3   5  -2    0.03    0.01
   3  -5   2    0.02    0.01
   3  -5   2    0.02    0.02
   3  -5   2    0.03    0.02
   3  -5   2    0.01    0.01
   3  -5   2    0.02    0.01
   3  -5   2    0.01    0.01
   4  -5   2   11.00    0.21
   4  -5   2   11.01    0.23
   4  -5   2   11.05    0.20
   7   4  -2    0.09    0.03
   7   4  -2    0.09    0.03
  -7  -4   2    0.15    0.05
  -7  -4   2    0.18    0.04
   6   4  -2    0.68    0.07
  -6  -4   2    0.85    0.06
  -6  -4   2    1.00    0.07
  -6  -4   2    1.10    0.06
  -6  -4   2    1.02    0.06
  -6  -4   2    0.89    0.05
  -6  -4   2    0.93    0.05
   5   4  -2    5.26    0.14
   5   4  -2    5.17    0.17
   5   4  -2    5.21    0.14
  -5  -4   2    5.24    0.13
  -5  -4   2    5.18    0.13
  -5  -4   2    4.98    0.14
  -5  -4   2    5.52    0.13
  -5  -4   2    5.17    0.17
  -5  -4   2    5.14    0.15
  -5  -4   2    5.09    0.13
  -4  -4   2    0.12    0.03
   3   4  -2    3.65    0.10
   3   4  -2    3.66    0.10
   3   4  -2    3.69    0.10
   3   4  -2    3.67    0.10
   3   4  -2    3.62    0.13
  -3  -4   2    3.65    0.11
  -3  -4   2    3.71    0.09
  -3  -4   2    3.80    0.13
  -3  -4   2    3.81    0.10
  -3  -4   2    3.83    0.10
  -3  -4   2    3.74    0.10
  -3  -4   2    3.82    0.11
  -2  -4   2    0.85    0.05
  -2  -4   2    0.81    0.05
   1   4  -2    0.08    0.02
  -1  -4   2    0.09    0.02
  -1  -4   2    0.09    0.02
  -1  -4   2    0.07    0.02
  -1  -4   2    0.11    0.02
  -1  -4   2    0.08    0.02
   0   4  -2    0.37    0.03
   0   4  -2    0.35    0.04
   0   4  -2    0.41    0.03
   0   4  -2    0.37    0.03
   0   4  -2    0.42    0.03
   0   4  -2    0.38    0.03
   0   4  -2    0.39    0.03
   0  -4   2    0.35    0.03
   0  -4   2    0.38    0.03
   0  -4   2    0.40    0.03
   0  -4   2    0.35    0.03
   0  -4   2    0.32    0.03
   0  -4   2    0.33    0.04
   0  -4   2    0.36    0.03
   0  -4   2    0.38    0.03
  -1   4  -2    5.41    0.11
  -1   4  -2    5.39    0.12
  -1   4  -2    5.43    0.12
  -1   4  -2    5.22    0.12
  -1   4  -2    5.43    0.14
  -1   4  -2    5.53    0.12
  -1   4  -2    5.39    0.11
  -1   4  -2    5.26    0.12
  -1   4  -2    5.28    0.12
   1  -4   2    5.38    0.14
   1  -4   2    5.35    0.11
   1  -4   2    5.41    0.12
   1  -4   2    5.48    0.11
   1  -4   2    5.28    0.12
   1  -4   2    5.35    0.12
   1  -4   2    5.47    0.12
   1  -4   2    5.50    0.12
  -2   4  -2    0.43    0.02
  -2   4  -2    0.42    0.03
  -2   4  -2    0.40    0.03
  -2   4  -2    0.44    0.03
  -2   4  -2    0.42    0.02
  -2   4  -2    0.45    0.02
  -2   4  -2    0.40    0.03
  -2   4  -2    0.39    0.03
   2  -4   2    0.41    0.03
   2  -4   2    0.42    0.03
   2  -4   2    0.41    0.04
   2  -4   2    0.39    0.02
   2  -4   2    0.46    0.03
   2  -4   2    0.39    0.02
  -3   4  -2   10.66    0.20
  -3   4  -2   10.64    0.20
  -3   4  -2   10.57    0.20
  -3   4  -2   10.55    0.19
  -3   4  -2   10.63    0.19
  -3   4  -2   10.51    0.20
   3  -4   2   10.50    0.20
   3  -4   2   10.60    0.22
   3  -4   2   10.87    0.19
   3  -4   2   10.64    0.20
   3  -4   2   10.32    0.20
   3  -4   2   10.58    0.20
   3  -4   2   10.75    0.20
   3  -4   2   10.86    0.20
   6   3  -2    0.96    0.07
   6   3  -2    0.86    0.05
   6   3  -2    0.91    0.05
  -6  -3   2    0.96    0.05
  -6  -3   2    0.90    0.06
  -6  -3   2    0.95    0.05
  -6  -3   2    0.86    0.05
  -6  -3   2    0.94    0.06
  -6  -3   2    0.74    0.05
  -6  -3   2    0.90    0.04
  -6  -3   2    0.86    0.07
   5   3  -2    3.02    0.12
   5   3  -2    2.96    0.09
   5   3  -2    3.08    0.09
  -5  -3   2    2.88    0.08
  -5  -3   2    2.99    0.10
  -5  -3   2    2.87    0.08
  -5  -3   2    2.93    0.12
  -5  -3   2    3.00    0.09
  -5  -3   2    2.78    0.10
  -5  -3   2    2.67    0.10
  -5  -3   2    2.98    0.09
  -5  -3   2    3.04    0.09
  -5  -3   2    2.71    0.11
   4   3  -2    0.20    0.04
   4   3  -2    0.23    0.03
  -4  -3   2    0.23    0.03
  -4  -3   2    0.18    0.03
  -4  -3   2    0.22    0.03
  -4  -3   2    0.24    0.04
  -4  -3   2    0.24    0.03
  -4  -3   2    0.23    0.03
  -4  -3   2    0.21    0.03
   3   3  -2    2.32    0.07
   3   3  -2    2.33    0.06
   3   3  -2    2.32    0.06
   3   3  -2    2.36    0.09
   3   3  -2    2.16    0.07
   3   3  -2    2.29    0.07
   3   3  -2    2.30    0.07
  -3  -3   2    2.21    0.06
  -3  -3   2    2.13    0.07
  -3  -3   2    2.18    0.07
  -3  -3   2    2.25    0.07
  -3  -3   2    2.28    0.08
  -3  -3   2    2.17    0.07
  -3  -3   2    2.23    0.09
  -3  -3   2    2.13    0.07
  -3  -3   2    2.32    0.07
   2   3  -2   20.57    0.38
   2   3  -2   21.02    0.37
   2   3  -2   21.20    0.37
   2   3  -2   20.51    0.38
   2   3  -2   21.12    0.41
   2   3  -2   20.86    0.38
   2   3  -2   21.27    0.37
  -2  -3   2   20.64    0.37
  -2  -3   2   21.20    0.39
  -2  -3   2   20.98    0.38
  -2  -3   2   20.98    0.38
  -2  -3   2   21.22    0.38
  -2  -3   2   20.64    0.37
  -2  -3   2   21.27    0.41
  -2  -3   2   20.83    0.37
   1   3  -2   40.23    0.71
   1   3  -2   41.17    0.70
   1   3  -2   41.19    0.69
   1   3  -2   40.85    0.71
   1   3  -2   40.36    0.70
   1   3  -2   41.06    0.69
   1   3  -2   40.74    0.70
   1   3  -2   41.26    0.73
   1   3  -2   40.33    0.70
   1   3  -2   40.64    0.70
  -1  -3   2   42.14    0.73
  -1  -3   2   41.20    0.70
  -1  -3   2   41.07    0.71
  -1  -3   2   41.43    0.70
  -1  -3   2   41.22    0.69
  -1  -3   2   41.44    0.70
  -1  -3   2   40.50    0.71
  -1  -3   2   41.00    0.70
   0   3  -2    0.32    0.03
   0   3  -2    0.31    0.02
   0   3  -2    0.35    0.02
   0   3  -2    0.34    0.02
   0   3  -2    0.31    0.02
   0   3  -2    0.38    0.03
   0   3  -2    0.37    0.02
   0   3  -2    0.35    0.02
   0   3  -2    0.33    0.02
   0   3  -2    0.31    0.02
   0  -3   2    0.31    0.02
   0  -3   2    0.32    0.02
   0  -3   2    0.33    0.03
   0  -3   2    0.36    0.03
   0  -3   2    0.33    0.02
   0  -3   2    0.35    0.02
   0  -3   2    0.30    0.03
  -1   3  -2   14.95    0.27
  -1   3  -2   14.95    0.27
  -1   3  -2   15.37    0.27
  -1   3  -2   14.99    0.28
  -1   3  -2   15.16    0.27
  -1   3  -2   15.41    0.27
  -1   3  -2   15.06    0.28
  -1   3  -2   15.54    0.27
  -1   3  -2   15.01    0.27
   1  -3   2   14.57    0.29
   1  -3   2   15.21    0.27
   1  -3   2   14.47    0.26
   1  -3   2   14.57    0.27
   1  -3   2   15.15    0.28
  -2   3  -2    3.71    0.08
  -2   3  -2    3.63    0.08
  -2   3  -2    3.68    0.08
  -2   3  -2    3.70    0.08
  -2   3  -2    3.75    0.08
  -2   3  -2    3.64    0.09
  -2   3  -2    3.68    0.08
  -2   3  -2    3.64    0.08
  -2   3  -2    3.72    0.08
   2  -3   2    3.68    0.08
   2  -3   2    3.72    0.08
   2  -3   2    3.78    0.08
   2  -3   2    3.57    0.08
   2  -3   2    3.75    0.10
  -3   3  -2   40.63    0.65
  -3   3  -2   37.41    0.64
  -3   3  -2   39.94    0.65
  -3   3  -2   37.31    0.64
  -3   3  -2   37.32    0.64
   3  -3   2   37.92    0.64
   3  -3   2   37.32    0.66
   3  -3   2   37.65    0.64
   3  -3   2   37.29    0.64
   6   2  -2    1.51    0.06
   6   2  -2    1.59    0.06
  -6  -2   2    1.48    0.08
  -6  -2   2    1.45    0.06
  -6  -2   2    1.50    0.06
  -6  -2   2    1.53    0.06
  -6  -2   2    1.48    0.07
  -6  -2   2    1.49    0.06
  -6  -2   2    1.48    0.05
   5   2  -2    1.21    0.05
   5   2  -2    1.18    0.07
   5   2  -2    1.09    0.05
  -5  -2   2    1.24    0.05
  -5  -2   2    1.16    0.05
  -5  -2   2    1.24    0.05
  -5  -2   2    1.13    0.06
  -5  -2   2    1.17    0.05
  -5  -2   2    1.29    0.05
  -5  -2   2    1.13    0.05
  -5  -2   2    1.17    0.06
  -5  -2   2    1.22    0.07
  -5  -2   2    1.21    0.06
   4   2  -2    0.14    0.03
   4   2  -2    0.16    0.02
   4   2  -2    0.18    0.02
   4   2  -2    0.11    0.02
  -4  -2   2    0.12    0.02
  -4  -2   2    0.11    0.02
  -4  -2   2    0.11    0.02
  -4  -2   2    0.14    0.02
  -4  -2   2    0.14    0.02
  -4  -2   2    0.13    0.02
  -4  -2   2    0.17    0.02
  -4  -2   2    0.12    0.02
  -4  -2   2    0.14    0.03
   3   2  -2   42.82    0.72
   3   2  -2   42.67    0.72
   3   2  -2   42.42    0.75
  -3  -2   2   41.72    0.72
  -3  -2   2   42.56    0.73
  -3  -2   2   41.55    0.72
  -3  -2   2   42.24    0.72
  -3  -2   2   41.51    0.71
  -3  -2   2   43.56    0.73
  -3  -2   2   42.08    0.75
  -3  -2   2   43.01    0.72
   2   2  -2    0.03    0.01
   2   2  -2    0.03    0.01
   2   2  -2    0.01    0.01
   2   2  -2    0.01    0.01
   2   2  -2    0.03    0.01
   2   2  -2    0.02    0.01
   2   2  -2    0.05    0.01
   2   2  -2    0.02    0.01
   2   2  -2   -0.01    0.01
   2   2  -2    0.01    0.01
  -2  -2   2    0.01    0.01
  -2  -2   2    0.02    0.01
  -2  -2   2    0.06    0.01
  -2  -2   2    0.01    0.01
  -2  -2   2    0.03    0.02
  -2  -2   2    0.05    0.01
  -2  -2   2    0.03    0.01
  -2  -2   2    0.04    0.01
   1   2  -2   18.00    0.32
   1   2  -2   18.08    0.32
   1   2  -2   18.02    0.32
   1   2  -2   18.40    0.33
   1   2  -2   18.03    0.34
   1   2  -2   18.34    0.32
   1   2  -2   18.06    0.32
   1   2  -2   18.37    0.33
   1   2  -2   18.44    0.32
   1   2  -2   18.46    0.32
  -1  -2   2   18.79    0.34
  -1  -2   2   18.43    0.32
  -1  -2   2   18.60    0.33
  -1  -2   2   18.40    0.33
   0   2  -2    0.28    0.02
   0   2  -2    0.32    0.02
   0   2  -2    0.31    0.02
   0   2  -2    0.28    0.02
   0   2  -2    0.29    0.02
   0   2  -2    0.28    0.02
   0   2  -2    0.32    0.02
   0   2  -2    0.31    0.02
   0   2  -2    0.31    0.02
   0  -2   2    0.30    0.02
   0  -2   2    0.29    0.02
   0  -2   2    0.31    0.02
   0  -2   2    0.30    0.02
   0  -2   2    0.30    0.03
  -1   2  -2    6.81    0.13
  -1   2  -2    6.65    0.13
  -1   2  -2    6.74    0.13
  -1   2  -2    6.77    0.13
  -1   2  -2    6.72    0.13
  -1   2  -2    6.78    0.13
  -1   2  -2    6.79    0.13
  -1   2  -2    6.78    0.12
   1  -2   2    6.79    0.12
   1  -2   2    6.86    0.13
   1  -2   2    6.75    0.13
   1  -2   2    6.49    0.13
  -2   2  -2    2.36    0.06
  -2   2  -2    2.49    0.05
  -2   2  -2    2.49    0.05
  -2   2  -2    2.44    0.06
  -2   2  -2    2.40    0.05
  -2   2  -2    2.44    0.06
   2  -2   2    2.47    0.06
   2  -2   2    2.47    0.05
   2  -2   2    2.45    0.06
   2  -2   2    2.42    0.05
   2  -2   2    2.50    0.05
   2  -2   2    2.50    0.06
  -3   2  -2    2.56    0.06
   3  -2   2    2.65    0.06
   3  -2   2    2.56    0.06
   3  -2   2    2.65    0.07
   3  -2   2    2.60    0.05
  -6  -1   2    1.02    0.05
  -6  -1   2    0.94    0.04
   5   1  -2    1.41    0.05
   5   1  -2    1.39    0.05
  -5  -1   2    1.42    0.05
  -5  -1   2    1.30    0.05
  -5  -1   2    1.36    0.04
  -5  -1   2    1.33    0.05
  -5  -1   2    1.43    0.05
  -5  -1   2    1.41    0.06
  -5  -1   2    1.35    0.05
  -5  -1   2    1.39    0.04
   4   1  -2    2.54    0.06
   4   1  -2    2.59    0.06
   4   1  -2    2.65    0.06
   4   1  -2    2.65    0.07
   4   1  -2    2.65    0.06
   4   1  -2    2.68    0.07
  -4  -1   2    2.30    0.06
  -4  -1   2    2.16    0.06
  -4  -1   2    2.26    0.08
  -4  -1   2    2.23    0.07
  -4  -1   2    2.12    0.06
  -4  -1   2    2.07    0.06
  -4  -1   2    2.23    0.06
   3   1  -2   17.29    0.31
   3   1  -2   17.22    0.31
   3   1  -2   17.49    0.31
   3   1  -2   17.37    0.31
   3   1  -2   17.66    0.31
   3   1  -2   17.51    0.31
   3   1  -2   17.56    0.30
   3   1  -2   17.46    0.31
   3   1  -2   17.37    0.31
  -3  -1   2   18.99    0.31
  -3  -1   2   17.46    0.31
  -3  -1   2   18.58    0.31
  -3  -1   2   17.90    0.31
  -3  -1   2   17.36    0.31
  -3  -1   2   17.43    0.30
  -3  -1   2   18.10    0.33
  -3  -1   2   17.39    0.31
  -3  -1   2   17.60    0.31
  -2  -1   2   32.08    0.54
  -2  -1   2   32.20    0.56
  -2  -1   2   31.97    0.54
  -2  -1   2   30.83    0.54
  -2  -1   2   32.27    0.53
   1   1  -2   19.43    0.33
   1   1  -2   19.11    0.33
   1   1  -2   19.13    0.32
   1   1  -2   19.05    0.33
   1   1  -2   19.30    0.33
   1   1  -2   19.02    0.33
  -1  -1   2   19.01    0.32
  -1  -1   2   19.03    0.33
  -1  -1   2   19.08    0.33
  -1  -1   2   19.22    0.33
  -1  -1   2   19.37    0.33
   0   1  -2   22.34    0.38
   0   1  -2   22.40    0.38
   0   1  -2   21.84    0.38
   0   1  -2   22.24    0.38
   0   1  -2   21.83    0.38
   0   1  -2   22.25    0.37
   0  -1   2   22.37    0.38
   0  -1   2   22.28    0.38
   0  -1   2   22.56    0.37
   0  -1   2   22.51    0.38
   0  -1   2   21.84    0.38
   0  -1   2   22.26    0.38
  -1   1  -2    0.06    0.01
  -1   1  -2    0.05    0.01
  -1   1  -2    0.06    0.01
  -1   1  -2    0.04    0.01
  -1   1  -2    0.05    0.01
  -1   1  -2    0.05    0.01
   1  -1   2    0.05    0.01
   1  -1   2    0.06    0.01
   1  -1   2    0.05    0.01
   1  -1   2    0.05    0.01
   1  -1   2    0.06    0.01
   1  -1   2    0.06    0.01
  -2   1  -2    4.55    0.08
  -2   1  -2    4.41    0.09
  -2   1  -2    4.41    0.09
  -2   1  -2    4.52    0.09
  -2   1  -2    4.46    0.09
  -2   1  -2    4.56    0.09
   2  -1   2    4.47    0.10
   2  -1   2    4.39    0.09
   2  -1   2    4.50    0.09
   2  -1   2    4.52    0.09
   2  -1   2    4.59    0.09
   2  -1   2    4.43    0.09
   2  -1   2    4.60    0.09
  -3   1  -2    0.57    0.02
  -3   1  -2    0.56    0.02
  -3   1  -2    0.58    0.02
  -3   1  -2    0.50    0.02
  -3   1  -2    0.53    0.02
  -3   1  -2    0.54    0.02
   3  -1   2    0.53    0.02
   3  -1   2    0.54    0.02
   3  -1   2    0.52    0.02
   3  -1   2    0.53    0.02
   3  -1   2    0.55    0.03
   3  -1   2    0.53    0.02
   4  -1   2   12.65    0.24
   3   0  -2    0.15    0.01
   3   0  -2    0.15    0.01
   3   0  -2    0.15    0.01
  -3   0   2    0.16    0.02
  -3   0   2    0.15    0.01
  -3   0   2    0.14    0.01
  -3   0   2    0.15    0.01
  -3   0   2    0.16    0.01
  -3   0   2    0.15    0.01
   2   0  -2  970.16   16.38
   2   0  -2  973.88   16.46
   2   0  -2  971.42   16.74
   2   0  -2  942.89   16.73
   2   0  -2  968.42   16.53
   2   0  -2 1000.00   16.61
  -2   0   2  961.35   17.03
  -2   0   2  977.64   16.94
  -2   0   2  953.61   16.75
  -2   0   2  963.88   16.57
  -2   0   2  960.25   16.76
  -2   0   2  969.66   16.67
   1   0  -2    0.00    0.00
   1   0  -2    0.00    0.01
   1   0  -2    0.00    0.00
   1   0  -2    0.00    0.00
   1   0  -2    0.01    0.00
   1   0  -2    0.00    0.00
  -1   0   2    0.01    0.01
  -1   0   2    0.01    0.01
  -1   0   2    0.01    0.01
  -1   0   2    0.02    0.01
  -1   0   2    0.01    0.00
  -1   0   2    0.01    0.00
   0   0  -2   54.32    0.90
   0   0  -2   55.19    0.91
   0   0  -2   55.03    0.91
   0   0  -2   53.76    0.91
   0   0  -2   55.83    0.92
   0   0  -2   54.99    0.91
   0   0   2   52.97    0.90
   0   0   2   56.04    0.91
   0   0   2   54.24    0.90
   0   0   2   54.30    0.92
   0   0   2   53.55    0.91
   0   0   2   53.86    0.90
   0   0   2   54.56    0.90
  -1   0  -2    0.02    0.01
  -1   0  -2    0.02    0.01
  -1   0  -2    0.02    0.01
  -1   0  -2    0.02    0.01
  -1   0  -2    0.02    0.01
  -1   0  -2    0.02    0.01
  -1   0  -2    0.02    0.01
   1   0   2    0.01    0.01
   1   0   2    0.02    0.01
   1   0   2    0.03    0.01
   1   0   2    0.01    0.01
   1   0   2    0.01    0.01
   1   0   2    0.02    0.01
   1   0   2    0.02    0.01
  -2   0  -2  117.59    1.95
  -2   0  -2  117.31    1.95
  -2   0  -2  119.98    1.95
  -2   0  -2  122.65    1.97
  -2   0  -2  118.73    1.94
  -2   0  -2  119.72    1.99
  -2   0  -2  117.83    1.94
   2   0   2  115.46    1.93
   2   0   2  111.49    1.95
   2   0   2  117.15    1.97
   2   0   2  114.93    1.93
   2   0   2  116.42    1.97
  -3   0  -2    0.03    0.01
  -3   0  -2    0.03    0.01
  -3   0  -2    0.02    0.01
  -3   0  -2    0.03    0.01
  -3   0  -2    0.04    0.01
  -3   0  -2    0.05    0.01
  -3   0  -2    0.03    0.01
   3   0   2    0.01    0.01
   3   0   2    0.03    0.01
   3   0   2    0.04    0.01
   3   0   2    0.03    0.01
   3   0   2    0.02    0.01
  -4   0  -2    1.02    0.04
  -4   0  -2    1.10    0.03
  -4   0  -2    0.97    0.04
  -4   0  -2    1.03    0.04
  -4   0  -2    1.08    0.04
  -4   0  -2    1.07    0.03
  -4   0  -2    1.05    0.05
   4   0   2    1.05    0.04
   4   0   2    1.02    0.05
   4   0   2    0.99    0.03
  -5   0  -2    0.35    0.02
  -5   0  -2    0.31    0.02
  -5   0  -2    0.31    0.02
  -5   0  -2    0.33    0.03
  -5   0  -2    0.35    0.02
  -5   0  -2    0.31    0.03
   5   0   2    0.32    0.03
   5   0   2    0.35    0.03
   5   0   2    0.31    0.03
   5   0   2    0.31    0.03
   2  -1  -2   22.16    0.37
   2  -1  -2   22.29    0.37
   2  -1  -2   21.67    0.37
   2  -1  -2   22.22    0.37
   2  -1  -2   22.36    0.38
   2  -1  -2   22.27    0.38
  -2   1   2   22.20    0.37
  -2   1   2   22.43    0.37
  -2   1   2   22.19    0.39
  -2   1   2   22.54    0.37
  -2   1   2   22.58    0.37
  -2   1   2   22.23    0.38
  -2   1   2   22.23    0.38
  -1   1   2   17.40    0.30
  -1   1   2   16.93    0.31
  -1   1   2   17.67    0.30
  -1   1   2   17.59    0.30
  -1   1   2   17.56    0.30
  -1   1   2   17.55    0.30
  -1   1   2   17.45    0.30
   0  -1  -2   21.58    0.37
   0  -1  -2   21.69    0.37
   0  -1  -2   21.93    0.38
   0  -1  -2   21.64    0.37
   0  -1  -2   21.71    0.37
   0  -1  -2   21.76    0.39
   0  -1  -2   21.88    0.38
   0   1   2   22.23    0.37
   0   1   2   22.31    0.37
   0   1   2   21.97    0.39
   0   1   2   21.73    0.38
   0   1   2   21.54    0.37
  -1  -1  -2    0.52    0.02
  -1  -1  -2    0.54    0.03
  -1  -1  -2    0.53    0.03
  -1  -1  -2    0.52    0.02
  -1  -1  -2    0.53    0.02
  -1  -1  -2    0.51    0.02
  -1  -1  -2    0.53    0.03
   1   1   2    0.52    0.02
   1   1   2    0.52    0.02
   1   1   2    0.52    0.02
   1   1   2    0.52    0.03
   1   1   2    0.52    0.03
  -2  -1  -2   41.00    0.69
  -2  -1  -2   41.48    0.71
  -2  -1  -2   40.10    0.69
  -2  -1  -2   41.13    0.70
  -2  -1  -2   41.30    0.69
  -2  -1  -2   40.72    0.68
  -2  -1  -2   40.53    0.69
   2   1   2   40.85    0.72
   2   1   2   40.52    0.69
   2   1   2   40.86    0.70
  -3  -1  -2    0.26    0.02
  -3  -1  -2    0.25    0.02
  -3  -1  -2    0.27    0.02
  -3  -1  -2    0.27    0.02
  -3  -1  -2    0.25    0.03
  -3  -1  -2    0.30    0.02
  -3  -1  -2    0.28    0.02
   3   1   2    0.26    0.03
   3   1   2    0.30    0.02
  -4  -1  -2    7.17    0.14
  -4  -1  -2    7.22    0.14
  -4  -1  -2    7.12    0.14
  -4  -1  -2    7.40    0.17
  -4  -1  -2    7.13    0.14
  -4  -1  -2    7.26    0.15
  -4  -1  -2    7.06    0.15
   4   1   2    6.81    0.15
   4   1   2    6.87    0.17
  -5  -1  -2    2.37    0.06
  -5  -1  -2    2.33    0.09
  -5  -1  -2    2.29    0.07
  -5  -1  -2    2.38    0.07
  -5  -1  -2    2.30    0.06
  -5  -1  -2    2.40    0.07
  -5  -1  -2    2.35    0.07
   5   1   2    2.31    0.07
   5   1   2    2.37    0.07
   5   1   2    2.22    0.09
   5   1   2    2.35    0.07
  -6  -1  -2    1.10    0.04
  -6  -1  -2    1.01    0.05
  -6  -1  -2    1.11    0.04
  -6  -1  -2    1.08    0.05
  -6  -1  -2    1.09    0.05
  -6  -1  -2    1.13    0.05
   6   1   2    1.21    0.06
   6   1   2    1.13    0.06
   2  -2  -2    0.17    0.01
   2  -2  -2    0.15    0.01
   2  -2  -2    0.13    0.01
   2  -2  -2    0.16    0.01
   2  -2  -2    0.16    0.02
   2  -2  -2    0.16    0.01
   2  -2  -2    0.15    0.02
  -2   2   2    0.13    0.02
  -2   2   2    0.11    0.01
  -2   2   2    0.11    0.01
  -2   2   2    0.13    0.01
  -2   2   2    0.13    0.01
  -2   2   2    0.13    0.01
   1  -2  -2   78.77    1.33
   1  -2  -2   78.92    1.32
   1  -2  -2   80.15    1.33
   1  -2  -2   77.39    1.30
   1  -2  -2   78.31    1.39
   1  -2  -2   78.13    1.32
   1  -2  -2   78.74    1.33
   0  -2  -2    0.06    0.01
   0  -2  -2    0.04    0.01
   0  -2  -2    0.03    0.01
   0  -2  -2    0.05    0.01
   0  -2  -2    0.06    0.02
   0  -2  -2    0.05    0.01
   0  -2  -2    0.06    0.01
   0   2   2    0.02    0.01
   0   2   2    0.01    0.01
  -1  -2  -2   52.21    0.87
  -1  -2  -2   51.66    0.88
  -1  -2  -2   52.57    0.87
  -1  -2  -2   51.89    0.88
  -1  -2  -2   52.03    0.88
  -1  -2  -2   52.42    0.90
  -1  -2  -2   52.03    0.88
   1   2   2   51.13    0.90
   1   2   2   52.77    0.89
  -2  -2  -2   68.21    1.13
  -2  -2  -2   67.65    1.13
  -2  -2  -2   67.73    1.13
  -2  -2  -2   68.10    1.13
  -2  -2  -2   67.50    1.17
  -2  -2  -2   68.13    1.14
  -2  -2  -2   67.03    1.14
   2   2   2   66.98    1.17
   2   2   2   67.71    1.14
  -3  -2  -2   43.56    0.73
  -3  -2  -2   43.06    0.73
  -3  -2  -2   43.81    0.73
  -3  -2  -2   42.63    0.74
  -3  -2  -2   42.85    0.74
  -3  -2  -2   43.86    0.77
  -3  -2  -2   43.24    0.73
   3   2   2   41.85    0.74
   3   2   2   41.42    0.77
  -4  -2  -2   36.18    0.62
  -4  -2  -2   35.73    0.64
  -4  -2  -2   35.80    0.62
  -4  -2  -2   35.98    0.63
  -4  -2  -2   36.52    0.67
  -4  -2  -2   35.79    0.62
  -4  -2  -2   36.07    0.62
   4   2   2   36.38    0.63
   4   2   2   36.03    0.64
   4   2   2   36.07    0.63
   4   2   2   34.73    0.66
  -5  -2  -2   14.09    0.27
  -5  -2  -2   14.10    0.26
  -5  -2  -2   13.95    0.28
  -5  -2  -2   14.44    0.27
  -5  -2  -2   14.42    0.28
  -5  -2  -2   14.12    0.27
  -5  -2  -2   14.25    0.31
   5   2   2   14.25    0.28
   5   2   2   13.96    0.28
   5   2   2   13.90    0.31
  -6  -2  -2    0.25    0.03
  -6  -2  -2    0.24    0.03
  -6  -2  -2    0.20    0.04
  -6  -2  -2    0.25    0.03
  -6  -2  -2    0.25    0.03
  -6  -2  -2    0.23    0.03
  -6  -2  -2    0.16    0.03
   6   2   2    0.24    0.03
   6   2   2    0.19    0.03
   6   2   2    0.26    0.04
   3  -3  -2   14.64    0.27
   3  -3  -2   14.85    0.26
   3  -3  -2   14.95    0.26
   3  -3  -2   14.76    0.26
   3  -3  -2   14.92    0.25
  -3   3   2   14.55    0.28
  -3   3   2   13.95    0.25
  -3   3   2   15.12    0.27
  -3   3   2   14.82    0.26
  -3   3   2   13.88    0.25
  -3   3   2   14.90    0.27
   2  -3  -2    2.79    0.08
   2  -3  -2    2.78    0.07
   2  -3  -2    2.90    0.07
   2  -3  -2    2.94    0.06
   2  -3  -2    2.86    0.07
   2  -3  -2    2.76    0.07
   2  -3  -2    2.89    0.07
  -2   3   2    2.83    0.07
  -2   3   2    2.81    0.08
  -2   3   2    2.79    0.07
   1  -3  -2    8.17    0.16
   1  -3  -2    7.95    0.15
   1  -3  -2    8.05    0.16
   1  -3  -2    7.90    0.16
   1  -3  -2    8.00    0.18
   1  -3  -2    8.07    0.16
   1  -3  -2    7.93    0.15
  -1   3   2    7.80    0.16
  -1   3   2    7.88    0.18
   0  -3  -2    4.81    0.10
   0  -3  -2    4.88    0.13
   0  -3  -2    4.88    0.11
   0  -3  -2    4.92    0.11
   0  -3  -2    4.94    0.11
   0  -3  -2    4.91    0.12
   0  -3  -2    4.88    0.11
   0   3   2    4.90    0.12
   0   3   2    4.81    0.13
  -1  -3  -2    3.62    0.11
  -1  -3  -2    3.67    0.09
  -1  -3  -2    3.57    0.09
  -1  -3  -2    3.55    0.09
  -1  -3  -2    3.58    0.08
  -1  -3  -2    3.60    0.09
  -1  -3  -2    3.67    0.10
   1   3   2    3.48    0.09
   1   3   2    3.58    0.11
  -2  -3  -2   16.31    0.30
  -2  -3  -2   16.15    0.31
  -2  -3  -2   15.97    0.31
  -2  -3  -2   16.20    0.30
  -2  -3  -2   16.58    0.34
  -2  -3  -2   16.62    0.30
  -2  -3  -2   16.26    0.30
   2   3   2   16.01    0.34
   2   3   2   16.24    0.31
  -3  -3  -2   16.07    0.30
  -3  -3  -2   16.12    0.31
  -3  -3  -2   15.98    0.31
  -3  -3  -2   16.43    0.31
  -3  -3  -2   16.33    0.32
  -3  -3  -2   16.16    0.30
  -3  -3  -2   16.02    0.34
   3   3   2   16.31    0.32
   3   3   2   16.33    0.35
   3   3   2   16.46    0.32
   3   3   2   16.01    0.31
  -4  -3  -2    0.14    0.02
  -4  -3  -2    0.17    0.03
  -4  -3  -2    0.21    0.03
  -4  -3  -2    0.16    0.02
  -4  -3  -2    0.20    0.03
  -4  -3  -2    0.18    0.03
  -4  -3  -2    0.18    0.02
   4   3   2    0.20    0.03
   4   3   2    0.20    0.04
   4   3   2    0.17    0.03
   4   3   2    0.17    0.03
  -5  -3  -2    1.55    0.06
  -5  -3  -2    1.53    0.07
  -5  -3  -2    1.55    0.07
  -5  -3  -2    1.63    0.09
  -5  -3  -2    1.48    0.06
  -5  -3  -2    1.64    0.07
  -5  -3  -2    1.61    0.06
   5   3   2    1.65    0.07
   5   3   2    1.54    0.09
   5   3   2    1.71    0.07
  -6  -3  -2    1.57    0.06
  -6  -3  -2    1.47    0.06
  -6  -3  -2    1.42    0.07
  -6  -3  -2    1.46    0.07
  -6  -3  -2    1.50    0.07
  -6  -3  -2    1.48    0.07
   6   3   2    1.57    0.07
   6   3   2    1.45    0.09
   6   3   2    1.43    0.07
   3  -4  -2    0.05    0.02
   3  -4  -2    0.09    0.02
   3  -4  -2    0.06    0.02
   3  -4  -2    0.07    0.01
   3  -4  -2    0.08    0.01
   3  -4  -2    0.05    0.01
   3  -4  -2    0.07    0.01
  -3   4   2    0.06    0.02
  -3   4   2    0.07    0.02
  -3   4   2    0.09    0.02
   2  -4  -2    5.25    0.11
   2  -4  -2    5.14    0.11
   2  -4  -2    5.17    0.14
   2  -4  -2    5.13    0.11
   2  -4  -2    5.15    0.12
   2  -4  -2    5.19    0.12
   2  -4  -2    5.21    0.11
  -2   4   2    5.05    0.12
  -2   4   2    4.98    0.13
  -2   4   2    5.08    0.12
  -2   4   2    5.08    0.12
   1  -4  -2    1.71    0.05
   1  -4  -2    1.66    0.05
   1  -4  -2    1.66    0.06
   1  -4  -2    1.61    0.06
   1  -4  -2    1.64    0.05
   1  -4  -2    1.59    0.05
   1  -4  -2    1.68    0.07
  -1   4   2    1.65    0.06
  -1   4   2    1.63    0.06
  -1   4   2    1.63    0.06
  -1   4   2    1.59    0.07
   0  -4  -2    6.59    0.14
   0  -4  -2    6.66    0.15
   0  -4  -2    6.58    0.15
   0  -4  -2    6.70    0.14
   0  -4  -2    6.69    0.14
   0  -4  -2    6.68    0.14
   0  -4  -2    6.79    0.18
   0   4   2    6.48    0.15
   0   4   2    6.46    0.15
   0   4   2    6.53    0.15
   0   4   2    6.52    0.17
  -1  -4  -2    1.15    0.07
  -1  -4  -2    1.16    0.05
  -1  -4  -2    1.20    0.05
  -1  -4  -2    1.08    0.05
  -1  -4  -2    1.09    0.05
  -1  -4  -2    1.17    0.05
  -1  -4  -2    1.12    0.05
   1   4   2    1.15    0.05
   1   4   2    1.17    0.05
   1   4   2    1.11    0.07
   1   4   2    1.11    0.05
  -2  -4  -2    2.22    0.08
  -2  -4  -2    2.19    0.07
  -2  -4  -2    2.01    0.07
  -2  -4  -2    2.06    0.09
  -2  -4  -2    2.13    0.07
  -2  -4  -2    2.12    0.07
  -2  -4  -2    2.10    0.08
   2   4   2    2.12    0.09
   2   4   2    2.09    0.07
   2   4   2    2.08    0.08
   2   4   2    2.00    0.08
  -3  -4  -2    5.28    0.13
  -3  -4  -2    5.34    0.13
  -3  -4  -2    5.40    0.17
  -3  -4  -2    5.52    0.13
  -3  -4  -2    5.34    0.13
  -3  -4  -2    5.37    0.14
  -3  -4  -2    5.40    0.14
   3   4   2    5.25    0.17
   3   4   2    5.48    0.14
   3   4   2    5.43    0.14
  -4  -4  -2    4.03    0.11
  -4  -4  -2    4.14    0.11
  -4  -4  -2    3.98    0.12
  -4  -4  -2    3.93    0.11
  -4  -4  -2    4.04    0.11
  -4  -4  -2    4.05    0.12
   4   4   2    4.11    0.12
   4   4   2    4.12    0.12
   4   4   2    3.98    0.15
  -5  -4  -2    0.04    0.02
  -5  -4  -2    0.00    0.02
  -5  -4  -2    0.03    0.02
  -5  -4  -2   -0.01    0.02
  -5  -4  -2    0.02    0.02
  -5  -4  -2    0.02    0.02
   5   4   2    0.06    0.02
   5   4   2    0.09    0.03
  -6  -4  -2    1.41    0.08
  -6  -4  -2    1.46    0.07
  -6  -4  -2    1.51    0.07
  -6  -4  -2    1.33    0.07
  -6  -4  -2    1.53    0.07
   6   4   2    1.51    0.08
   6   4   2    1.57    0.08
  -7  -4  -2    1.39    0.09
  -7  -4  -2    1.28    0.08
  -7  -4  -2    1.28    0.09
  -7  -4  -2    1.32    0.08
   7   4   2    1.37    0.08
   7   4   2    1.40    0.08
   3  -5  -2    2.28    0.07
   3  -5  -2    2.28    0.06
   3  -5  -2    2.16    0.09
   3  -5  -2    2.35    0.07
   3  -5  -2    2.22    0.06
   3  -5  -2    2.26    0.07
   3  -5  -2    2.25    0.07
  -3   5   2    2.19    0.07
  -3   5   2    2.17    0.09
  -3   5   2    2.43    0.07
   2  -5  -2    3.02    0.11
   2  -5  -2    3.15    0.09
   2  -5  -2    3.14    0.08
   2  -5  -2    3.05    0.08
   2  -5  -2    3.08    0.08
   2  -5  -2    3.04    0.09
   2  -5  -2    3.01    0.08
  -2   5   2    3.12    0.09
  -2   5   2    3.07    0.09
  -2   5   2    3.02    0.11
   1  -5  -2    0.18    0.02
   1  -5  -2    0.16    0.02
   1  -5  -2    0.14    0.02
   1  -5  -2    0.16    0.03
   1  -5  -2    0.13    0.03
   1  -5  -2    0.19    0.02
   1  -5  -2    0.14    0.02
  -1   5   2    0.14    0.02
  -1   5   2    0.19    0.03
  -1   5   2    0.17    0.02
   0  -5  -2   18.85    0.36
   0  -5  -2   19.06    0.40
   0  -5  -2   19.08    0.36
   0  -5  -2   19.53    0.36
   0  -5  -2   19.07    0.35
   0  -5  -2   18.94    0.37
   0  -5  -2   19.13    0.35
   0   5   2   18.70    0.37
   0   5   2   19.15    0.36
   0   5   2   18.37    0.40
  -1  -5  -2    1.19    0.05
  -1  -5  -2    1.17    0.06
  -1  -5  -2    1.21    0.06
  -1  -5  -2    1.11    0.05
  -1  -5  -2    1.26    0.06
  -1  -5  -2    1.06    0.05
  -1  -5  -2    1.16    0.08
   1   5   2    1.12    0.06
   1   5   2    1.23    0.06
   1   5   2    1.17    0.07
  -2  -5  -2    0.11    0.03
  -2  -5  -2    0.12    0.02
  -2  -5  -2    0.12    0.03
  -2  -5  -2    0.10    0.02
  -2  -5  -2    0.08    0.02
  -2  -5  -2    0.09    0.03
   2   5   2    0.10    0.03
   2   5   2    0.08    0.02
   2   5   2    0.09    0.03
  -3  -5  -2    4.07    0.12
  -3  -5  -2    3.99    0.12
  -3  -5  -2    4.08    0.13
  -3  -5  -2    4.07    0.11
  -3  -5  -2    4.05    0.11
  -3  -5  -2    4.07    0.12
   3   5   2    3.99    0.13
   3   5   2    4.04    0.12
  -4  -5  -2   11.39    0.28
  -4  -5  -2   10.57    0.24
  -4  -5  -2   10.41    0.23
  -4  -5  -2   10.31    0.22
  -4  -5  -2   10.30    0.23
  -4  -5  -2   10.27    0.23
   4   5   2   10.58    0.24
   4   5   2   10.86    0.25
  -5  -5  -2    0.03    0.03
  -5  -5  -2    0.08    0.03
  -5  -5  -2    0.02    0.02
  -5  -5  -2    0.08    0.03
  -5  -5  -2    0.05    0.03
   5   5   2    0.10    0.03
   5   5   2    0.06    0.03
  -6  -5  -2    0.02    0.02
  -6  -5  -2    0.02    0.03
  -6  -5  -2    0.05    0.03
  -6  -5  -2   -0.01    0.03
  -6  -5  -2    0.01    0.03
   6   5   2    0.00    0.02
   6   5   2    0.02    0.03
  -7  -5  -2    0.77    0.06
  -7  -5  -2    0.66    0.06
  -7  -5  -2    0.73    0.06
  -7  -5  -2    0.80    0.06
  -7  -5  -2    0.72    0.06
   7   5   2    0.75    0.06
   7   5   2    0.76    0.07
   3  -6  -2    0.78    0.06
   3  -6  -2    0.72    0.04
   3  -6  -2    0.79    0.05
   3  -6  -2    0.67    0.04
   3  -6  -2    0.77    0.05
   3  -6  -2    0.84    0.04
   3  -6  -2    0.78    0.04
  -3   6   2    0.74    0.06
  -3   6   2    0.80    0.05
  -3   6   2    0.82    0.05
   1  -6  -2    0.14    0.03
   1  -6  -2    0.21    0.03
   1  -6  -2    0.13    0.03
   1  -6  -2    0.14    0.03
   1  -6  -2    0.18    0.03
   1  -6  -2    0.19    0.03
   1  -6  -2    0.16    0.04
  -1   6   2    0.16    0.03
  -1   6   2    0.17    0.03
  -1   6   2    0.21    0.04
   0  -6  -2    6.38    0.17
   0  -6  -2    6.40    0.16
   0  -6  -2    6.37    0.16
   0  -6  -2    6.39    0.15
   0  -6  -2    6.39    0.16
   0  -6  -2    6.44    0.15
   0   6   2    6.27    0.16
   0   6   2    6.21    0.19
   0   6   2    6.37    0.16
  -1  -6  -2   21.96    0.41
  -1  -6  -2   21.46    0.41
  -1  -6  -2   21.69    0.42
  -1  -6  -2   21.28    0.43
  -1  -6  -2   21.80    0.42
  -1  -6  -2   22.08    0.42
   1   6   2   22.29    0.43
   1   6   2   21.71    0.43
  -2  -6  -2    7.04    0.17
  -2  -6  -2    6.87    0.18
  -2  -6  -2    6.84    0.19
  -2  -6  -2    6.78    0.17
  -2  -6  -2    6.59    0.16
  -2  -6  -2    6.80    0.16
   2   6   2    6.83    0.18
   2   6   2    6.82    0.18
  -3  -6  -2    6.89    0.18
  -3  -6  -2    6.84    0.17
  -3  -6  -2    6.94    0.18
  -3  -6  -2    6.90    0.17
  -3  -6  -2    6.98    0.18
   3   6   2    6.85    0.19
   3   6   2    7.16    0.19
  -4  -6  -2    2.99    0.11
  -4  -6  -2    2.93    0.11
  -4  -6  -2    3.07    0.10
  -4  -6  -2    2.99    0.11
  -4  -6  -2    3.00    0.10
   4   6   2    3.06    0.12
   4   6   2    3.23    0.12
  -5  -6  -2    0.01    0.02
  -5  -6  -2    0.02    0.03
  -5  -6  -2   -0.01    0.03
  -5  -6  -2    0.00    0.03
  -5  -6  -2    0.02    0.02
   5   6   2   -0.02    0.02
   5   6   2    0.00    0.03
  -6  -6  -2    2.80    0.11
  -6  -6  -2    2.95    0.11
  -6  -6  -2    2.89    0.12
  -6  -6  -2    2.74    0.10
  -6  -6  -2    2.73    0.11
   6   6   2    2.84    0.12
   6   6   2    2.88    0.12
  -7  -6  -2    0.35    0.05
  -7  -6  -2    0.29    0.05
  -7  -6  -2    0.31    0.05
  -7  -6  -2    0.32    0.05
   7   6   2    0.35    0.06
   7   6   2    0.31    0.05
   3  -7  -2    6.28    0.15
   3  -7  -2    6.48    0.15
   3  -7  -2    6.34    0.15
   3  -7  -2    6.41    0.14
   3  -7  -2    6.57    0.18
   3  -7  -2    6.52    0.16
  -3   7   2    6.14    0.15
  -3   7   2    6.20    0.16
   2  -7  -2   -0.01    0.02
   2  -7  -2    0.00    0.01
   2  -7  -2    0.02    0.02
   2  -7  -2    0.03    0.02
   2  -7  -2    0.03    0.02
   2  -7  -2    0.01    0.02
  -2   7   2    0.05    0.02
  -2   7   2    0.06    0.02
  -2   7   2    0.02    0.02
   1  -7  -2    1.10    0.06
   1  -7  -2    1.12    0.06
   1  -7  -2    1.14    0.06
   1  -7  -2    1.10    0.06
   1  -7  -2    1.12    0.07
   1  -7  -2    1.06    0.07
  -1   7   2    1.12    0.07
  -1   7   2    1.08    0.06
   0  -7  -2    0.66    0.05
   0  -7  -2    0.71    0.06
   0  -7  -2    0.65    0.05
   0  -7  -2    0.80    0.06
   0  -7  -2    0.68    0.05
   0   7   2    0.61    0.05
   0   7   2    0.67    0.05
  -1  -7  -2   27.90    0.52
  -1  -7  -2   27.37    0.52
  -1  -7  -2   27.49    0.51
  -1  -7  -2   27.23    0.51
  -1  -7  -2   27.84    0.53
   1   7   2   27.46    0.53
   1   7   2   27.18    0.53
  -2  -7  -2    4.85    0.14
  -2  -7  -2    4.78    0.14
  -2  -7  -2    4.83    0.15
  -2  -7  -2    4.75    0.13
  -2  -7  -2    4.91    0.14
   2   7   2    4.98    0.15
   2   7   2    4.66    0.15
  -3  -7  -2    0.20    0.04
  -3  -7  -2    0.19    0.03
  -3  -7  -2    0.20    0.04
  -3  -7  -2    0.19    0.04
  -3  -7  -2    0.25    0.04
   3   7   2    0.20    0.04
   3   7   2    0.26    0.05
  -4  -7  -2    0.85    0.07
  -4  -7  -2    0.94    0.07
  -4  -7  -2    0.84    0.07
  -4  -7  -2    0.87    0.06
  -4  -7  -2    0.85    0.07
   4   7   2    0.97    0.08
   4   7   2    0.87    0.07
  -5  -7  -2    5.29    0.16
  -5  -7  -2    5.52    0.17
  -5  -7  -2    5.39    0.16
  -5  -7  -2    5.34    0.15
  -5  -7  -2    5.45    0.17
   5   7   2    5.50    0.18
   5   7   2    5.53    0.18
  -6  -7  -2    0.05    0.04
  -6  -7  -2    0.07    0.04
  -6  -7  -2    0.01    0.03
  -6  -7  -2    0.03    0.03
   6   7   2    0.04    0.03
   6   7   2    0.05    0.03
   3  -8  -2    0.19    0.05
   3  -8  -2    0.21    0.04
  -3   8   2    0.20    0.04
  -3   8   2    0.28    0.05
   2  -8  -2    0.44    0.05
   2  -8  -2    0.41    0.05
   2  -8  -2    0.47    0.05
   2  -8  -2    0.47    0.05
   2  -8  -2    0.46    0.04
  -2   8   2    0.47    0.05
  -2   8   2    0.46    0.05
   1  -8  -2   10.86    0.26
   1  -8  -2   11.10    0.25
   1  -8  -2   11.05    0.24
   1  -8  -2   11.28    0.25
   1  -8  -2   11.46    0.25
  -1   8   2   11.11    0.26
  -1   8   2   11.00    0.26
   0  -8  -2    0.06    0.03
   0  -8  -2    0.13    0.03
   0  -8  -2    0.06    0.03
   0  -8  -2    0.06    0.03
   0  -8  -2    0.10    0.03
   0   8   2    0.05    0.03
   0   8   2    0.05    0.03
  -1  -8  -2    0.53    0.06
  -1  -8  -2    0.42    0.05
  -1  -8  -2    0.61    0.05
  -1  -8  -2    0.57    0.06
  -1  -8  -2    0.61    0.05
   1   8   2    0.49    0.06
   1   8   2    0.45    0.05
  -2  -8  -2    0.31    0.04
  -2  -8  -2    0.21    0.04
  -2  -8  -2    0.22    0.04
  -2  -8  -2    0.21    0.04
  -2  -8  -2    0.26    0.04
   2   8   2    0.29    0.05
   2   8   2    0.25    0.05
  -3  -8  -2    2.43    0.11
  -3  -8  -2    2.38    0.10
  -3  -8  -2    2.30    0.10
  -3  -8  -2    2.34    0.10
  -3  -8  -2    2.45    0.10
   3   8   2    2.34    0.11
   3   8   2    2.47    0.11
  -4  -8  -2    0.00    0.03
  -4  -8  -2    0.04    0.03
  -4  -8  -2   -0.01    0.03
  -4  -8  -2   -0.02    0.03
   4   8   2    0.03    0.03
   4   8   2   -0.01    0.03
  -5  -8  -2    0.90    0.09
  -5  -8  -2    0.85    0.08
   5   8   2    0.89    0.09
   5   8   2    0.92    0.08
   2  -9  -2    0.84    0.06
   2  -9  -2    0.80    0.07
   2  -9  -2    0.79    0.06
   2  -9  -2    0.83    0.06
   2  -9  -2    0.87    0.06
  -2   9   2    0.82    0.07
  -2   9   2    0.92    0.07
   1  -9  -2    0.09    0.03
   1  -9  -2    0.10    0.03
   1  -9  -2    0.11    0.04
   1  -9  -2    0.09    0.03
   1  -9  -2    0.11    0.03
  -1   9   2    0.09    0.03
  -1   9   2    0.06    0.03
   0  -9  -2    0.28    0.05
   0  -9  -2    0.38    0.05
   0  -9  -2    0.28    0.05
   0  -9  -2    0.29    0.04
   0  -9  -2    0.35    0.05
   0   9   2    0.37    0.05
   0   9   2    0.32    0.05
  -1  -9  -2    4.35    0.15
  -1  -9  -2    4.30    0.14
  -1  -9  -2    4.60    0.14
  -1  -9  -2    4.63    0.15
  -1  -9  -2    4.60    0.16
   1   9   2    4.32    0.15
   1   9   2    4.37    0.16
  -2  -9  -2    4.62    0.16
  -2  -9  -2    4.65    0.15
  -2  -9  -2    4.64    0.16
  -2  -9  -2    4.48    0.14
   2   9   2    4.50    0.16
   2   9   2    4.69    0.16
  -3  -9  -2   -0.02    0.03
  -3  -9  -2    0.07    0.05
   3   9   2    0.08    0.04
   3   9   2    0.09    0.04
  -4  -9  -2    0.15    0.05
   4   9   2    0.12    0.04
   4   9   2    0.12    0.04
   2 -10  -2    0.41    0.06
   2 -10  -2    0.52    0.06
  -2  10   2    0.39    0.06
  -2  10   2    0.44    0.06
   1 -10  -2    0.20    0.04
   1 -10  -2    0.27    0.05
   1 -10  -2    0.16    0.04
   1 -10  -2    0.20    0.05
  -1  10   2    0.19    0.05
  -1  10   2    0.31    0.06
   0 -10  -2    4.37    0.16
   0 -10  -2    4.24    0.15
   0  10   2    4.11    0.16
   0  10   2    4.14    0.16
  -1 -10  -2    0.04    0.04
  -1 -10  -2    0.15    0.04
   1  10   2    0.05    0.04
   1  10   2    0.11    0.04
  -2 -10  -2    0.36    0.07
   2  10   2    0.30    0.06
   2  10   2    0.27    0.06
   1  11  -3    0.30    0.06
   1  11  -3    0.19    0.05
  -1 -11   3    0.42    0.07
   0  11  -3    1.46    0.10
   0  11  -3    1.48    0.10
   0 -11   3    1.41    0.11
   0 -11   3    1.42    0.11
  -1  11  -3    0.80    0.08
  -1  11  -3    0.80    0.08
   1 -11   3    0.86    0.08
   1 -11   3    0.88    0.09
  -2  11  -3    1.30    0.09
  -2  11  -3    1.40    0.09
   4  10  -3    0.35    0.06
   4  10  -3    0.28    0.06
  -4 -10   3    0.62    0.08
   3  10  -3    0.87    0.09
   3  10  -3    0.85    0.08
  -3 -10   3    0.83    0.09
   2  10  -3    4.09    0.16
   2  10  -3    3.94    0.15
  -2 -10   3    3.91    0.16
  -2 -10   3    3.82    0.15
   1  10  -3    0.22    0.05
   1  10  -3    0.20    0.05
  -1 -10   3    0.15    0.04
  -1 -10   3    0.24    0.05
  -1 -10   3    0.16    0.05
  -1 -10   3    0.18    0.04
   0  10  -3    0.15    0.04
   0  10  -3    0.26    0.05
   0 -10   3    0.15    0.04
   0 -10   3    0.10    0.04
   0 -10   3    0.12    0.04
   0 -10   3    0.08    0.04
   0 -10   3    0.16    0.05
  -1  10  -3    0.64    0.07
  -1  10  -3    0.62    0.07
   1 -10   3    0.49    0.06
   1 -10   3    0.58    0.07
   1 -10   3    0.46    0.06
   1 -10   3    0.58    0.06
   1 -10   3    0.59    0.06
  -2  10  -3    2.19    0.11
  -2  10  -3    1.99    0.10
   2 -10   3    2.17    0.10
   2 -10   3    1.93    0.10
   2 -10   3    2.10    0.11
   2 -10   3    2.15    0.10
   2 -10   3    2.04    0.09
   5   9  -3    0.07    0.04
   5   9  -3    0.05    0.04
  -5  -9   3    0.06    0.04
   4   9  -3    2.65    0.12
   4   9  -3    2.58    0.12
  -4  -9   3    2.43    0.12
  -4  -9   3    2.55    0.12
   3   9  -3    0.02    0.03
   3   9  -3    0.07    0.03
  -3  -9   3    0.03    0.03
  -3  -9   3    0.07    0.04
  -3  -9   3    0.14    0.04
  -3  -9   3    0.04    0.03
   2   9  -3    3.16    0.13
   2   9  -3    3.23    0.13
  -2  -9   3    3.23    0.13
  -2  -9   3    3.15    0.12
  -2  -9   3    3.15    0.13
  -2  -9   3    3.39    0.14
  -2  -9   3    3.34    0.12
   1   9  -3    0.17    0.04
   1   9  -3    0.14    0.04
  -1  -9   3    0.14    0.04
  -1  -9   3    0.19    0.04
  -1  -9   3    0.16    0.04
  -1  -9   3    0.16    0.04
  -1  -9   3    0.10    0.04
   0   9  -3    5.73    0.17
   0   9  -3    5.77    0.17
   0  -9   3    5.87    0.16
   0  -9   3    5.62    0.17
   0  -9   3    5.84    0.15
   0  -9   3    5.69    0.16
   0  -9   3    5.49    0.16
  -1   9  -3    0.03    0.02
  -1   9  -3    0.01    0.02
   1  -9   3    0.03    0.02
   1  -9   3    0.04    0.03
   1  -9   3    0.00    0.02
   1  -9   3    0.05    0.03
   1  -9   3    0.04    0.03
  -2   9  -3    2.65    0.11
  -2   9  -3    2.72    0.11
   2  -9   3    2.90    0.11
   2  -9   3    2.77    0.10
   2  -9   3    2.82    0.10
   2  -9   3    3.04    0.12
   2  -9   3    2.93    0.10
   6   8  -3    0.09    0.04
   6   8  -3    0.05    0.04
  -6  -8   3    0.13    0.04
  -6  -8   3    0.10    0.04
   5   8  -3    4.86    0.16
   5   8  -3    4.85    0.17
  -5  -8   3    4.54    0.15
  -5  -8   3    4.64    0.16
  -5  -8   3    4.52    0.15
  -5  -8   3    4.70    0.14
   4   8  -3    0.86    0.07
   4   8  -3    0.74    0.07
  -4  -8   3    0.86    0.07
  -4  -8   3    0.79    0.07
  -4  -8   3    0.80    0.08
  -4  -8   3    0.85    0.07
  -4  -8   3    0.94    0.07
   3   8  -3    1.47    0.09
   3   8  -3    1.54    0.09
  -3  -8   3    1.45    0.09
  -3  -8   3    1.34    0.08
  -3  -8   3    1.40    0.09
  -3  -8   3    1.45    0.08
  -3  -8   3    1.54    0.08
   2   8  -3    0.37    0.05
   2   8  -3    0.32    0.05
  -2  -8   3    0.27    0.05
  -2  -8   3    0.29    0.04
  -2  -8   3    0.34    0.05
  -2  -8   3    0.24    0.04
  -2  -8   3    0.23    0.04
   1   8  -3   28.56    0.56
   1   8  -3   29.60    0.57
   1   8  -3   29.37    0.56
  -1  -8   3   29.64    0.56
  -1  -8   3   29.62    0.57
  -1  -8   3   29.77    0.54
  -1  -8   3   29.35    0.55
  -1  -8   3   29.74    0.56
   0   8  -3    0.30    0.04
   0   8  -3    0.29    0.04
   0   8  -3    0.26    0.04
   0  -8   3    0.27    0.04
   0  -8   3    0.25    0.04
   0  -8   3    0.34    0.04
   0  -8   3    0.30    0.04
   0  -8   3    0.41    0.05
  -1   8  -3    0.38    0.05
  -1   8  -3    0.44    0.05
  -1   8  -3    0.34    0.05
   1  -8   3    0.36    0.05
   1  -8   3    0.32    0.04
   1  -8   3    0.31    0.04
   1  -8   3    0.33    0.04
   1  -8   3    0.29    0.05
  -2   8  -3    0.82    0.06
  -2   8  -3    0.85    0.05
  -2   8  -3    0.85    0.06
   2  -8   3    0.81    0.06
   2  -8   3    0.77    0.06
   2  -8   3    0.76    0.06
   2  -8   3    0.79    0.05
   2  -8   3    0.81    0.06
  -3   8  -3   13.42    0.29
  -3   8  -3   13.68    0.29
   3  -8   3   13.84    0.28
   3  -8   3   13.77    0.29
   3  -8   3   13.88    0.28
   3  -8   3   13.50    0.28
   3  -8   3   13.80    0.27
   7   7  -3    1.91    0.11
   7   7  -3    1.92    0.11
  -7  -7   3    1.93    0.10
  -7  -7   3    2.07    0.10
  -7  -7   3    1.88    0.11
  -7  -7   3    1.95    0.10
   6   7  -3    0.79    0.07
   6   7  -3    0.80    0.07
  -6  -7   3    0.80    0.07
  -6  -7   3    0.86    0.08
  -6  -7   3    0.77    0.06
  -6  -7   3    0.80    0.07
  -6  -7   3    0.74    0.07
   5   7  -3    1.50    0.09
   5   7  -3    1.36    0.09
  -5  -7   3    1.52    0.09
  -5  -7   3    1.58    0.09
  -5  -7   3    1.53    0.10
  -5  -7   3    1.54    0.09
  -5  -7   3    1.70    0.08
   4   7  -3    0.67    0.07
   4   7  -3    0.65    0.07
  -4  -7   3    0.69    0.07
  -4  -7   3    0.64    0.06
  -4  -7   3    0.61    0.06
  -4  -7   3    0.56    0.06
  -4  -7   3    0.53    0.06
   3   7  -3    8.78    0.22
   3   7  -3    8.78    0.22
   3   7  -3    8.89    0.22
  -3  -7   3    8.82    0.21
  -3  -7   3    8.70    0.22
  -3  -7   3    8.93    0.21
  -3  -7   3    8.49    0.20
  -3  -7   3    8.78    0.21
   2   7  -3    0.00    0.02
   2   7  -3    0.01    0.02
   2   7  -3    0.01    0.02
  -2  -7   3   -0.04    0.02
  -2  -7   3   -0.04    0.02
  -2  -7   3   -0.02    0.02
  -2  -7   3   -0.04    0.02
  -2  -7   3   -0.04    0.02
   1   7  -3    8.31    0.19
   1   7  -3    8.18    0.20
   1   7  -3    8.03    0.20
   1   7  -3    8.31    0.20
  -1  -7   3    8.00    0.20
  -1  -7   3    8.04    0.18
  -1  -7   3    8.08    0.19
  -1  -7   3    8.23    0.19
  -1  -7   3    8.13    0.19
   0   7  -3    0.58    0.04
   0   7  -3    0.65    0.05
   0   7  -3    0.54    0.05
   0   7  -3    0.62    0.05
   0  -7   3    0.60    0.05
   0  -7   3    0.61    0.04
   0  -7   3    0.61    0.05
   0  -7   3    0.59    0.05
   0  -7   3    0.56    0.05
  -1   7  -3    1.58    0.07
  -1   7  -3    1.51    0.06
  -1   7  -3    1.73    0.07
  -1   7  -3    1.49    0.06
  -1   7  -3    1.53    0.07
  -1   7  -3    1.47    0.06
   1  -7   3    1.50    0.07
   1  -7   3    1.65    0.07
   1  -7   3    1.62    0.07
   1  -7   3    1.48    0.07
   1  -7   3    1.58    0.06
  -2   7  -3    0.38    0.04
  -2   7  -3    0.44    0.04
  -2   7  -3    0.39    0.04
  -2   7  -3    0.43    0.04
   2  -7   3    0.29    0.05
   2  -7   3    0.30    0.03
   2  -7   3    0.25    0.04
   2  -7   3    0.34    0.04
   2  -7   3    0.29    0.04
   2  -7   3    0.24    0.03
  -3   7  -3   24.38    0.46
  -3   7  -3   23.76    0.46
  -3   7  -3   24.37    0.46
   3  -7   3   25.22    0.46
   3  -7   3   25.68    0.51
   3  -7   3   25.21    0.46
   3  -7   3   25.02    0.46
   3  -7   3   25.98    0.45
   3  -7   3   25.39    0.47
   7   6  -3    0.92    0.08
   7   6  -3    0.86    0.07
  -7  -6   3    0.81    0.07
  -7  -6   3    0.81    0.07
  -7  -6   3    0.83    0.08
  -7  -6   3    0.85    0.07
  -7  -6   3    0.75    0.07
   6   6  -3    3.07    0.12
   6   6  -3    3.08    0.13
  -6  -6   3    3.05    0.12
  -6  -6   3    3.18    0.12
  -6  -6   3    3.05    0.12
  -6  -6   3    3.14    0.12
  -6  -6   3    3.14    0.11
   5   6  -3   -0.06    0.02
  -5  -6   3   -0.06    0.03
  -5  -6   3   -0.08    0.02
  -5  -6   3   -0.09    0.03
  -5  -6   3   -0.07    0.03
  -5  -6   3   -0.08    0.03
   4   6  -3    1.14    0.08
   4   6  -3    1.10    0.08
   4   6  -3    1.44    0.07
  -4  -6   3    0.97    0.08
  -4  -6   3    1.24    0.07
  -4  -6   3    1.16    0.07
  -4  -6   3    1.17    0.07
  -4  -6   3    1.04    0.07
   3   6  -3    1.63    0.07
   3   6  -3    1.49    0.08
   3   6  -3    1.56    0.07
   3   6  -3    1.48    0.08
  -3  -6   3    1.55    0.07
  -3  -6   3    1.50    0.07
  -3  -6   3    1.44    0.07
  -3  -6   3    1.53    0.08
  -3  -6   3    1.44    0.07
   2   6  -3    1.25    0.06
   2   6  -3    1.14    0.09
   2   6  -3    1.24    0.05
   2   6  -3    1.27    0.06
   2   6  -3    1.27    0.06
   2   6  -3    1.17    0.06
   2   6  -3    1.26    0.07
  -2  -6   3    0.92    0.06
  -2  -6   3    1.02    0.05
  -2  -6   3    0.92    0.06
  -2  -6   3    0.90    0.05
  -2  -6   3    1.07    0.06
   1   6  -3    0.51    0.04
   1   6  -3    0.43    0.03
   1   6  -3    0.43    0.03
   1   6  -3    0.49    0.04
   1   6  -3    0.44    0.05
   1   6  -3    0.47    0.04
   1   6  -3    0.45    0.04
  -1  -6   3    0.46    0.04
  -1  -6   3    0.46    0.04
  -1  -6   3    0.59    0.11
  -1  -6   3    0.42    0.04
  -1  -6   3    0.47    0.04
   0   6  -3    7.51    0.18
   0   6  -3    7.58    0.17
   0   6  -3    7.58    0.16
   0   6  -3    7.64    0.17
   0   6  -3    7.67    0.21
   0   6  -3    7.45    0.18
   0   6  -3    7.64    0.18
   0  -6   3    7.50    0.18
   0  -6   3    7.45    0.17
   0  -6   3    7.62    0.16
   0  -6   3    7.63    0.17
   0  -6   3    7.56    0.21
  -1   6  -3    2.07    0.07
  -1   6  -3    2.05    0.08
  -1   6  -3    2.16    0.07
  -1   6  -3    2.15    0.07
  -1   6  -3    2.21    0.08
  -1   6  -3    2.00    0.07
   1  -6   3    2.10    0.07
   1  -6   3    2.13    0.08
   1  -6   3    2.13    0.08
   1  -6   3    2.19    0.07
   1  -6   3    2.25    0.10
   1  -6   3    2.12    0.07
  -2   6  -3   18.60    0.36
  -2   6  -3   18.85    0.36
  -2   6  -3   19.04    0.35
  -2   6  -3   18.92    0.35
  -2   6  -3   18.80    0.36
  -2   6  -3   18.64    0.34
   2  -6   3   18.62    0.36
  -3   6  -3   13.91    0.26
  -3   6  -3   13.75    0.27
  -3   6  -3   13.91    0.26
  -3   6  -3   13.91    0.27
  -3   6  -3   13.75    0.27
  -3   6  -3   13.92    0.27
   3  -6   3   14.00    0.31
   3  -6   3   14.43    0.27
   3  -6   3   14.09    0.26
   3  -6   3   13.99    0.27
   3  -6   3   14.16    0.27
   3  -6   3   13.24    0.28
   7   5  -3    0.87    0.07
   7   5  -3    0.92    0.07
  -7  -5   3    0.99    0.08
  -7  -5   3    0.81    0.06
  -7  -5   3    0.95    0.07
  -7  -5   3    0.83    0.07
  -7  -5   3    0.88    0.07
   6   5  -3    0.75    0.06
   6   5  -3    0.78    0.07
  -6  -5   3    0.79    0.07
  -6  -5   3    0.97    0.07
  -6  -5   3    0.83    0.07
  -6  -5   3    0.82    0.07
  -6  -5   3    0.88    0.06
   5   5  -3   -0.03    0.02
   5   5  -3    0.01    0.02
  -5  -5   3    0.00    0.02
  -5  -5   3   -0.03    0.02
  -5  -5   3   -0.03    0.03
  -5  -5   3   -0.04    0.02
  -5  -5   3    0.01    0.03
  -5  -5   3   -0.01    0.03
   4   5  -3    2.99    0.14
   4   5  -3    2.83    0.10
   4   5  -3    3.03    0.11
   4   5  -3    3.16    0.10
  -4  -5   3    3.06    0.10
  -4  -5   3    3.21    0.10
  -4  -5   3    3.13    0.11
  -4  -5   3    2.99    0.10
  -4  -5   3    3.19    0.10
   3   5  -3    0.90    0.04
   3   5  -3    0.92    0.06
   3   5  -3    0.94    0.05
   3   5  -3    0.93    0.05
   3   5  -3    0.85    0.05
   3   5  -3    0.92    0.06
   3   5  -3    0.88    0.07
  -3  -5   3    0.84    0.05
  -3  -5   3    0.69    0.05
  -3  -5   3    0.81    0.05
  -3  -5   3    0.78    0.05
  -3  -5   3    0.74    0.05
  -3  -5   3    0.73    0.07
   2   5  -3    0.92    0.05
   2   5  -3    1.00    0.05
   2   5  -3    0.98    0.05
   2   5  -3    0.95    0.04
   2   5  -3    1.01    0.07
   2   5  -3    1.04    0.06
   2   5  -3    0.90    0.05
  -2  -5   3    0.95    0.06
  -2  -5   3    0.82    0.05
  -2  -5   3    0.87    0.05
  -2  -5   3    0.90    0.07
  -2  -5   3    0.76    0.04
   1   5  -3    1.61    0.06
   1   5  -3    1.59    0.06
   1   5  -3    1.67    0.06
   1   5  -3    1.66    0.08
   1   5  -3    1.58    0.06
   1   5  -3    1.58    0.06
   1   5  -3    1.65    0.06
  -1  -5   3    1.74    0.07
  -1  -5   3    1.69    0.09
  -1  -5   3    1.48    0.06
  -1  -5   3    1.67    0.06
  -1  -5   3    1.57    0.06
  -1  -5   3    1.65    0.07
   0   5  -3   28.13    0.51
   0   5  -3   27.15    0.50
   0   5  -3   27.12    0.50
   0   5  -3   28.09    0.54
   0   5  -3   28.15    0.50
   0   5  -3   28.19    0.50
   0   5  -3   28.12    0.49
   0  -5   3   28.48    0.52
   0  -5   3   28.11    0.49
   0  -5   3   27.49    0.51
   0  -5   3   28.03    0.50
   0  -5   3   28.06    0.50
   0  -5   3   27.99    0.50
   0  -5   3   27.64    0.54
   0  -5   3   28.28    0.51
  -1   5  -3    0.69    0.04
  -1   5  -3    0.69    0.04
  -1   5  -3    0.68    0.04
  -1   5  -3    0.72    0.03
  -1   5  -3    0.68    0.04
  -1   5  -3    0.68    0.04
  -1   5  -3    0.68    0.04
  -1   5  -3    0.66    0.04
   1  -5   3    0.68    0.04
   1  -5   3    0.68    0.05
   1  -5   3    0.75    0.04
   1  -5   3    0.63    0.04
   1  -5   3    0.73    0.04
   1  -5   3    0.66    0.04
  -2   5  -3    0.30    0.03
  -2   5  -3    0.28    0.03
  -2   5  -3    0.29    0.02
  -2   5  -3    0.27    0.03
  -2   5  -3    0.25    0.03
  -2   5  -3    0.28    0.03
  -2   5  -3    0.27    0.03
  -2   5  -3    0.30    0.03
   2  -5   3    0.26    0.04
   2  -5   3    0.28    0.03
   2  -5   3    0.24    0.03
   2  -5   3    0.27    0.03
   2  -5   3    0.25    0.02
   2  -5   3    0.23    0.02
  -3   5  -3   10.16    0.20
  -3   5  -3    9.98    0.19
  -3   5  -3   10.03    0.19
  -3   5  -3    9.92    0.20
  -3   5  -3    9.98    0.20
  -3   5  -3    9.83    0.21
  -3   5  -3    9.78    0.20
  -3   5  -3    9.76    0.20
   3  -5   3    9.71    0.20
   3  -5   3    9.98    0.20
   3  -5   3   10.18    0.23
   3  -5   3   10.14    0.20
   3  -5   3   10.30    0.20
   3  -5   3   10.35    0.19
   3  -5   3   10.25    0.20
  -4   5  -3   26.47    0.47
  -4   5  -3   26.28    0.47
  -4   5  -3   26.50    0.47
  -4   5  -3   26.61    0.46
   4  -5   3   26.88    0.50
   4  -5   3   27.68    0.47
   4  -5   3   27.38    0.47
   4  -5   3   26.76    0.47
   4  -5   3   27.15    0.46
   7   4  -3    0.69    0.06
   7   4  -3    0.66    0.06
  -7  -4   3    0.74    0.09
   6   4  -3    4.01    0.12
   6   4  -3    3.94    0.12
   6   4  -3    3.88    0.15
  -6  -4   3    3.85    0.11
  -6  -4   3    3.78    0.12
  -6  -4   3    3.76    0.13
  -6  -4   3    3.92    0.11
  -6  -4   3    3.87    0.11
  -6  -4   3    3.98    0.11
   5   4  -3    1.47    0.07
   5   4  -3    1.58    0.07
   5   4  -3    1.54    0.09
   5   4  -3    1.56    0.07
  -5  -4   3    1.65    0.07
  -5  -4   3    1.53    0.07
  -5  -4   3    1.62    0.06
  -5  -4   3    1.62    0.07
  -5  -4   3    1.64    0.10
  -5  -4   3    1.58    0.07
   4   4  -3    7.04    0.15
   4   4  -3    6.99    0.16
   4   4  -3    6.81    0.17
   4   4  -3    6.93    0.16
   4   4  -3    6.97    0.20
   4   4  -3    6.69    0.16
   4   4  -3    6.84    0.16
  -4  -4   3    7.02    0.16
  -4  -4   3    7.03    0.17
  -4  -4   3    7.05    0.16
  -4  -4   3    7.09    0.15
  -4  -4   3    6.85    0.20
  -4  -4   3    6.98    0.16
   3   4  -3    1.02    0.07
   3   4  -3    1.19    0.06
   3   4  -3    0.96    0.05
   3   4  -3    1.08    0.05
   3   4  -3    1.14    0.05
   3   4  -3    0.98    0.05
   3   4  -3    1.02    0.04
  -3  -4   3    1.03    0.05
  -3  -4   3    0.97    0.05
  -3  -4   3    1.00    0.05
  -3  -4   3    0.96    0.07
  -3  -4   3    0.98    0.05
  -3  -4   3    0.88    0.05
   2   4  -3   94.88    1.60
   2   4  -3   95.99    1.59
   2   4  -3   94.46    1.60
   2   4  -3   96.97    1.60
   2   4  -3   95.26    1.60
   2   4  -3   96.07    1.64
   2   4  -3   95.95    1.59
  -2  -4   3   94.34    1.60
  -2  -4   3   94.81    1.61
  -2  -4   3   94.11    1.59
  -2  -4   3   96.90    1.60
  -2  -4   3   93.23    1.59
  -2  -4   3   95.12    1.64
  -2  -4   3   96.21    1.61
  -2  -4   3   94.13    1.59
   1   4  -3   11.58    0.24
   1   4  -3   11.67    0.23
   1   4  -3   11.19    0.23
   1   4  -3   11.65    0.23
   1   4  -3   11.60    0.22
   1   4  -3   11.09    0.23
   1   4  -3   11.69    0.22
   1   4  -3   11.29    0.24
   1   4  -3   11.39    0.26
   1   4  -3   11.31    0.23
  -1  -4   3   11.75    0.22
  -1  -4   3   11.35    0.24
  -1  -4   3   11.48    0.23
  -1  -4   3   11.85    0.22
  -1  -4   3   11.49    0.23
  -1  -4   3   12.01    0.27
  -1  -4   3   11.60    0.23
  -1  -4   3   11.27    0.23
   0   4  -3    1.34    0.05
   0   4  -3    1.28    0.05
   0   4  -3    1.38    0.05
   0   4  -3    1.36    0.05
   0   4  -3    1.39    0.05
   0   4  -3    1.42    0.05
   0   4  -3    1.35    0.06
   0   4  -3    1.43    0.05
   0   4  -3    1.34    0.05
   0  -4   3    1.37    0.05
   0  -4   3    1.42    0.07
   0  -4   3    1.44    0.05
   0  -4   3    1.35    0.05
   0  -4   3    1.41    0.06
   0  -4   3    1.29    0.06
   0  -4   3    1.35    0.05
  -1   4  -3    4.29    0.11
  -1   4  -3    4.35    0.10
  -1   4  -3    4.25    0.11
  -1   4  -3    4.29    0.10
  -1   4  -3    4.23    0.10
  -1   4  -3    4.36    0.10
  -1   4  -3    4.42    0.11
  -1   4  -3    4.33    0.10
  -1   4  -3    4.31    0.10
   1  -4   3    4.31    0.10
   1  -4   3    4.31    0.12
   1  -4   3    4.27    0.11
   1  -4   3    4.34    0.10
  -2   4  -3   13.70    0.25
  -2   4  -3   13.47    0.26
  -2   4  -3   13.64    0.25
  -2   4  -3   13.55    0.25
  -2   4  -3   13.24    0.26
  -2   4  -3   13.52    0.26
  -2   4  -3   13.78    0.25
  -2   4  -3   13.36    0.25
  -2   4  -3   13.34    0.25
   2  -4   3   13.34    0.26
   2  -4   3   13.61    0.28
  -3   4  -3    2.18    0.06
  -3   4  -3    2.17    0.06
  -3   4  -3    2.29    0.06
  -3   4  -3    2.24    0.07
  -3   4  -3    2.23    0.06
  -3   4  -3    2.23    0.06
  -3   4  -3    2.31    0.06
  -3   4  -3    2.21    0.06
  -3   4  -3    2.22    0.07
   3  -4   3    2.19    0.07
   3  -4   3    2.26    0.06
   3  -4   3    2.30    0.08
  -4   4  -3    0.00    0.01
  -4   4  -3    0.01    0.01
  -4   4  -3    0.00    0.01
   4  -4   3    0.01    0.01
   6   3  -3    0.01    0.02
   6   3  -3   -0.01    0.02
  -6  -3   3    0.00    0.02
  -6  -3   3   -0.01    0.03
  -6  -3   3   -0.04    0.02
  -6  -3   3   -0.02    0.02
  -6  -3   3   -0.03    0.02
  -6  -3   3   -0.01    0.02
  -6  -3   3   -0.01    0.02
   5   3  -3    2.32    0.08
   5   3  -3    2.15    0.08
   5   3  -3    2.45    0.08
   5   3  -3    2.22    0.07
  -5  -3   3    2.29    0.08
  -5  -3   3    2.26    0.08
  -5  -3   3    2.28    0.07
  -5  -3   3    2.34    0.08
  -5  -3   3    2.31    0.10
  -5  -3   3    2.36    0.08
  -5  -3   3    2.31    0.07
   4   3  -3    2.60    0.08
   4   3  -3    2.64    0.10
   4   3  -3    2.61    0.08
   4   3  -3    2.71    0.08
   4   3  -3    2.62    0.08
   4   3  -3    2.65    0.07
   4   3  -3    2.64    0.08
  -4  -3   3    2.61    0.09
  -4  -3   3    2.69    0.07
  -4  -3   3    2.61    0.08
  -4  -3   3    2.60    0.10
  -4  -3   3    2.67    0.09
  -4  -3   3    2.65    0.08
  -4  -3   3    2.65    0.08
  -4  -3   3    2.58    0.08
   3   3  -3   34.77    0.59
   3   3  -3   33.46    0.62
   3   3  -3   33.59    0.58
   3   3  -3   33.05    0.59
   3   3  -3   34.22    0.59
   3   3  -3   33.79    0.58
   3   3  -3   33.48    0.59
   3   3  -3   33.08    0.59
   3   3  -3   34.27    0.60
  -3  -3   3   34.27    0.60
  -3  -3   3   33.68    0.59
  -3  -3   3   33.93    0.60
  -3  -3   3   33.04    0.59
  -3  -3   3   33.64    0.63
  -3  -3   3   34.03    0.59
  -3  -3   3   33.75    0.58
  -3  -3   3   33.55    0.58
   2   3  -3    5.01    0.12
   2   3  -3    5.04    0.12
   2   3  -3    4.97    0.11
   2   3  -3    4.79    0.11
   2   3  -3    4.84    0.11
   2   3  -3    4.89    0.12
   2   3  -3    4.91    0.12
   2   3  -3    5.00    0.12
   2   3  -3    5.02    0.12
  -2  -3   3    4.81    0.11
  -2  -3   3    4.93    0.12
  -2  -3   3    4.85    0.11
  -2  -3   3    4.89    0.14
  -2  -3   3    4.96    0.11
  -2  -3   3    4.91    0.12
  -2  -3   3    4.93    0.11
   1   3  -3   18.30    0.34
   1   3  -3   18.01    0.33
   1   3  -3   18.40    0.33
   1   3  -3   18.29    0.33
   1   3  -3   18.41    0.33
   1   3  -3   18.36    0.33
   1   3  -3   18.59    0.34
   1   3  -3   18.00    0.34
   1   3  -3   17.91    0.33
  -1  -3   3   18.76    0.36
  -1  -3   3   18.85    0.34
  -1  -3   3   18.77    0.34
  -1  -3   3   18.59    0.34
   0   3  -3    4.45    0.10
   0   3  -3    4.58    0.10
   0   3  -3    4.51    0.10
   0   3  -3    4.48    0.11
   0   3  -3    4.53    0.10
   0   3  -3    4.45    0.11
   0   3  -3    4.61    0.10
   0   3  -3    4.52    0.11
   0   3  -3    4.58    0.10
   0  -3   3    4.47    0.11
   0  -3   3    4.53    0.12
  -1   3  -3   39.80    0.67
  -1   3  -3   40.02    0.67
  -1   3  -3   39.10    0.68
  -1   3  -3   39.26    0.68
  -1   3  -3   40.13    0.67
  -1   3  -3   39.10    0.67
  -1   3  -3   39.03    0.67
  -1   3  -3   39.38    0.67
  -1   3  -3   39.71    0.66
   1  -3   3   38.56    0.68
   1  -3   3   39.38    0.70
  -2   3  -3    3.71    0.09
  -2   3  -3    3.72    0.08
  -2   3  -3    3.73    0.09
  -2   3  -3    3.73    0.08
  -2   3  -3    3.76    0.08
  -2   3  -3    3.78    0.09
  -2   3  -3    3.65    0.09
  -2   3  -3    3.54    0.09
  -2   3  -3    3.69    0.09
   2  -3   3    3.68    0.09
   2  -3   3    3.76    0.09
  -3   3  -3    1.62    0.05
  -3   3  -3    1.66    0.05
  -3   3  -3    1.63    0.04
  -3   3  -3    1.64    0.05
  -3   3  -3    1.72    0.05
  -3   3  -3    1.63    0.05
  -3   3  -3    1.71    0.05
  -3   3  -3    1.65    0.05
   3  -3   3    1.69    0.05
   3  -3   3    1.63    0.05
   3  -3   3    1.69    0.05
  -4   3  -3    1.32    0.04
  -4   3  -3    1.29    0.04
  -4   3  -3    1.29    0.04
   4  -3   3    1.27    0.05
   4  -3   3    1.26    0.04
   6   2  -3    0.02    0.02
   6   2  -3   -0.02    0.02
  -6  -2   3   -0.05    0.02
  -6  -2   3    0.00    0.02
  -6  -2   3   -0.03    0.02
  -6  -2   3    0.00    0.03
  -6  -2   3   -0.04    0.01
  -6  -2   3   -0.02    0.02
  -6  -2   3   -0.03    0.02
   5   2  -3   20.03    0.37
   5   2  -3   20.39    0.38
   5   2  -3   20.24    0.37
   5   2  -3   20.14    0.36
   5   2  -3   20.17    0.37
   5   2  -3   20.20    0.37
  -5  -2   3   20.52    0.38
  -5  -2   3   20.85    0.37
  -5  -2   3   20.54    0.36
  -5  -2   3   20.92    0.38
  -5  -2   3   20.44    0.41
  -5  -2   3   20.52    0.37
  -5  -2   3   20.50    0.37
   4   2  -3    0.65    0.04
   4   2  -3    0.68    0.04
   4   2  -3    0.65    0.04
   4   2  -3    0.66    0.03
   4   2  -3    0.67    0.04
   4   2  -3    0.72    0.03
  -4  -2   3    0.67    0.04
  -4  -2   3    0.65    0.04
  -4  -2   3    0.72    0.05
  -4  -2   3    0.69    0.03
  -4  -2   3    0.61    0.04
  -4  -2   3    0.70    0.03
   3   2  -3   14.13    0.27
   3   2  -3   13.98    0.27
   3   2  -3   14.52    0.27
   3   2  -3   14.23    0.27
   3   2  -3   14.23    0.26
   3   2  -3   14.10    0.26
   3   2  -3   14.03    0.26
   3   2  -3   14.34    0.28
   3   2  -3   14.62    0.27
  -3  -2   3   14.43    0.26
  -3  -2   3   14.39    0.26
  -3  -2   3   14.90    0.30
  -3  -2   3   14.51    0.26
  -3  -2   3   14.87    0.27
   2   2  -3    0.27    0.02
   2   2  -3    0.30    0.02
   2   2  -3    0.27    0.02
   2   2  -3    0.27    0.02
   2   2  -3    0.29    0.02
   2   2  -3    0.28    0.02
   2   2  -3    0.26    0.02
   2   2  -3    0.28    0.03
   2   2  -3    0.31    0.02
  -2  -2   3    0.29    0.02
  -2  -2   3    0.27    0.03
   1   2  -3  146.19    2.44
   1   2  -3  146.38    2.45
   1   2  -3  144.60    2.43
   1   2  -3  147.05    2.44
   1   2  -3  147.44    2.43
   1   2  -3  143.58    2.42
   1   2  -3  145.57    2.43
   1   2  -3  148.19    2.43
   1   2  -3  147.14    2.46
  -1  -2   3  146.40    2.44
  -1  -2   3  143.76    2.48
   0   2  -3    0.02    0.01
   0   2  -3    0.03    0.01
   0   2  -3    0.04    0.01
   0   2  -3    0.03    0.01
   0   2  -3    0.03    0.01
   0   2  -3    0.03    0.01
   0   2  -3    0.02    0.01
   0   2  -3    0.03    0.01
   0  -2   3    0.03    0.01
   0  -2   3    0.03    0.01
   0  -2   3    0.02    0.01
  -1   2  -3   70.26    1.16
  -1   2  -3   70.26    1.17
  -1   2  -3   70.79    1.16
  -1   2  -3   70.10    1.17
  -1   2  -3   71.08    1.17
  -1   2  -3   70.32    1.17
  -1   2  -3   69.77    1.17
  -1   2  -3   70.42    1.17
   1  -2   3   69.30    1.16
   1  -2   3   68.92    1.17
   1  -2   3   70.17    1.17
  -2   2  -3   75.07    1.23
  -2   2  -3   74.81    1.23
  -2   2  -3   74.70    1.23
  -2   2  -3   74.84    1.23
  -2   2  -3   72.93    1.24
  -2   2  -3   74.63    1.24
   2  -2   3   73.14    1.24
   2  -2   3   74.95    1.23
   2  -2   3   74.29    1.24
  -3   2  -3   39.45    0.68
  -3   2  -3   40.19    0.68
  -3   2  -3   41.16    0.67
  -3   2  -3   41.30    0.68
  -3   2  -3   40.88    0.68
  -3   2  -3   40.56    0.68
   3  -2   3   39.59    0.68
   3  -2   3   39.13    0.68
   3  -2   3   40.22    0.70
   3  -2   3   39.16    0.68
  -4   2  -3   32.05    0.53
  -4   2  -3   31.41    0.53
  -4   2  -3   31.97    0.53
  -4   2  -3   31.86    0.53
   4  -2   3   30.48    0.53
   4  -2   3   30.67    0.55
   4  -2   3   30.64    0.54
  -6  -1   3    7.54    0.16
  -6  -1   3    7.55    0.16
  -6  -1   3    7.33    0.17
  -6  -1   3    7.49    0.16
   5   1  -3    1.37    0.05
   5   1  -3    1.37    0.05
   5   1  -3    1.38    0.04
   5   1  -3    1.34    0.05
   5   1  -3    1.43    0.05
   5   1  -3    1.36    0.05
  -5  -1   3    1.43    0.05
  -5  -1   3    1.43    0.07
  -5  -1   3    1.36    0.05
  -5  -1   3    1.38    0.05
  -5  -1   3    1.37    0.05
  -5  -1   3    1.39    0.04
   4   1  -3   24.57    0.44
   4   1  -3   24.54    0.43
   4   1  -3   24.36    0.42
   4   1  -3   24.51    0.43
   4   1  -3   24.49    0.43
   4   1  -3   24.98    0.43
   4   1  -3   24.51    0.43
   4   1  -3   24.58    0.44
   4   1  -3   24.51    0.42
  -4  -1   3   24.29    0.42
  -4  -1   3   25.28    0.46
  -4  -1   3   24.71    0.43
  -4  -1   3   24.24    0.42
  -4  -1   3   24.63    0.43
   3   1  -3    7.03    0.15
   3   1  -3    6.90    0.13
   3   1  -3    6.90    0.14
   3   1  -3    6.92    0.14
   3   1  -3    6.86    0.13
   3   1  -3    6.93    0.14
   3   1  -3    6.90    0.14
   3   1  -3    6.87    0.14
   3   1  -3    7.00    0.14
  -3  -1   3    6.84    0.16
  -3  -1   3    7.09    0.14
  -3  -1   3    7.01    0.14
   2   1  -3    9.96    0.19
   2   1  -3   10.27    0.19
   2   1  -3   10.04    0.18
   2   1  -3   10.25    0.19
   2   1  -3   10.20    0.19
   2   1  -3   10.22    0.19
   2   1  -3   10.39    0.19
   2   1  -3   10.05    0.19
  -2  -1   3   10.41    0.19
  -2  -1   3   10.26    0.19
  -2  -1   3   10.19    0.19
   1   1  -3    0.66    0.03
   1   1  -3    0.61    0.03
   1   1  -3    0.60    0.03
   1   1  -3    0.61    0.03
   1   1  -3    0.65    0.02
   1   1  -3    0.61    0.03
   0   1  -3    4.28    0.09
   0   1  -3    4.33    0.09
   0   1  -3    4.40    0.09
   0   1  -3    4.34    0.09
   0   1  -3    4.21    0.09
   0   1  -3    4.24    0.09
   0   1  -3    4.34    0.09
   0   1  -3    4.32    0.09
   0  -1   3    4.30    0.09
   0  -1   3    4.42    0.09
   0  -1   3    4.25    0.09
   0  -1   3    4.02    0.09
   0  -1   3    4.22    0.09
  -1   1  -3   11.66    0.20
  -1   1  -3   11.38    0.21
  -1   1  -3   11.42    0.20
  -1   1  -3   11.50    0.21
  -1   1  -3   11.72    0.20
  -1   1  -3   11.19    0.21
   1  -1   3   11.25    0.20
   1  -1   3   10.99    0.21
   1  -1   3   11.13    0.21
  -2   1  -3   38.90    0.67
  -2   1  -3   39.27    0.66
  -2   1  -3   39.35    0.66
  -2   1  -3   39.64    0.66
  -2   1  -3   39.32    0.66
  -2   1  -3   38.97    0.66
   2  -1   3   38.83    0.67
   2  -1   3   39.77    0.68
   2  -1   3   39.19    0.66
   2  -1   3   39.19    0.66
  -3   1  -3    6.45    0.13
  -3   1  -3    6.34    0.13
  -3   1  -3    6.52    0.12
  -3   1  -3    6.58    0.13
  -3   1  -3    6.53    0.13
  -3   1  -3    6.55    0.13
   3  -1   3    6.56    0.13
   3  -1   3    6.63    0.13
   3  -1   3    6.26    0.13
   3  -1   3    6.52    0.15
  -4   1  -3    0.79    0.03
  -4   1  -3    0.77    0.03
  -4   1  -3    0.78    0.04
  -4   1  -3    0.81    0.03
  -4   1  -3    0.81    0.03
  -4   1  -3    0.77    0.03
   4  -1   3    0.75    0.04
   4  -1   3    0.76    0.04
  -5   1  -3    2.45    0.06
  -5   1  -3    2.35    0.06
  -5   1  -3    2.39    0.06
  -5   1  -3    2.36    0.06
   5  -1   3    2.39    0.08
   5   0  -3    0.05    0.01
   4   0  -3   38.71    0.66
   4   0  -3   39.46    0.65
   4   0  -3   38.58    0.66
   4   0  -3   38.99    0.66
   4   0  -3   39.12    0.65
  -4   0   3   38.93    0.65
  -4   0   3   38.86    0.66
  -4   0   3   39.26    0.65
  -4   0   3   39.30    0.65
  -4   0   3   38.75    0.68
  -4   0   3   38.39    0.66
   3   0  -3    0.16    0.02
   3   0  -3    0.18    0.02
   3   0  -3    0.14    0.02
   3   0  -3    0.17    0.02
   3   0  -3    0.15    0.01
   3   0  -3    0.17    0.02
   3   0  -3    0.16    0.01
   3   0  -3    0.16    0.01
  -3   0   3    0.18    0.02
  -3   0   3    0.16    0.01
  -3   0   3    0.17    0.01
  -3   0   3    0.15    0.02
  -3   0   3    0.16    0.01
   2   0  -3    0.66    0.03
   2   0  -3    0.69    0.03
   2   0  -3    0.69    0.03
   2   0  -3    0.65    0.03
   2   0  -3    0.70    0.03
   2   0  -3    0.69    0.03
  -2   0   3    0.72    0.03
  -2   0   3    0.72    0.03
  -2   0   3    0.75    0.02
  -2   0   3    0.72    0.03
  -2   0   3    0.76    0.03
   1   0  -3    0.04    0.01
   1   0  -3    0.04    0.01
   1   0  -3    0.04    0.01
   1   0  -3    0.03    0.01
   1   0  -3    0.02    0.01
   1   0  -3    0.02    0.01
  -1   0   3    0.03    0.01
  -1   0   3    0.04    0.01
  -1   0   3    0.04    0.01
  -1   0   3    0.02    0.01
  -1   0   3    0.03    0.01
   0   0  -3   39.19    0.66
   0   0  -3   37.86    0.66
   0   0  -3   39.88    0.66
   0   0  -3   39.16    0.67
   0   0  -3   39.55    0.66
   0   0  -3   38.17    0.66
   0   0   3   38.94    0.67
   0   0   3   38.72    0.68
   0   0   3   41.19    0.66
   0   0   3   38.46    0.66
   0   0   3   38.65    0.66
   0   0   3   41.30    0.66
  -1   0  -3    0.03    0.01
  -1   0  -3    0.02    0.01
  -1   0  -3    0.05    0.01
  -1   0  -3    0.03    0.01
  -1   0  -3    0.05    0.01
  -1   0  -3    0.03    0.01
  -1   0  -3    0.02    0.01
   1   0   3    0.03    0.01
   1   0   3    0.04    0.01
   1   0   3    0.03    0.01
   1   0   3    0.02    0.01
  -2   0  -3   48.57    0.81
  -2   0  -3   47.50    0.81
  -2   0  -3   48.36    0.80
  -2   0  -3   49.62    0.83
  -2   0  -3   47.91    0.80
  -2   0  -3   48.26    0.80
  -2   0  -3   48.23    0.80
   2   0   3   47.70    0.81
   2   0   3   47.50    0.83
   2   0   3   46.82    0.81
   2   0   3   46.55    0.80
  -3   0  -3   -0.01    0.01
  -3   0  -3    0.00    0.01
  -3   0  -3    0.01    0.01
  -3   0  -3    0.01    0.01
  -3   0  -3    0.01    0.01
  -3   0  -3    0.03    0.01
  -3   0  -3    0.02    0.01
   3   0   3    0.01    0.01
   3   0   3    0.02    0.01
  -4   0  -3   10.39    0.22
  -4   0  -3   10.41    0.20
  -4   0  -3   10.43    0.19
  -4   0  -3   10.32    0.21
  -4   0  -3   10.11    0.20
  -4   0  -3   10.43    0.20
  -4   0  -3   10.41    0.20
   4   0   3   10.45    0.21
   4   0   3   10.38    0.23
  -5   0  -3    0.00    0.01
  -5   0  -3    0.00    0.01
  -5   0  -3    0.00    0.01
  -5   0  -3   -0.01    0.01
  -5   0  -3    0.01    0.01
  -5   0  -3    0.01    0.01
  -5   0  -3    0.00    0.01
   5   0   3    0.02    0.02
   5   0   3    0.01    0.01
   3  -1  -3    1.38    0.04
   3  -1  -3    1.34    0.04
   3  -1  -3    1.35    0.04
   3  -1  -3    1.36    0.04
   3  -1  -3    1.33    0.04
  -3   1   3    1.33    0.04
  -3   1   3    1.33    0.04
  -3   1   3    1.28    0.04
  -3   1   3    1.37    0.03
  -3   1   3    1.34    0.05
  -3   1   3    1.31    0.04
   2  -1  -3    4.93    0.10
   2  -1  -3    4.99    0.10
   2  -1  -3    4.97    0.10
   2  -1  -3    4.84    0.10
   2  -1  -3    4.89    0.10
   2  -1  -3    5.02    0.10
  -2   1   3    5.03    0.10
  -2   1   3    4.92    0.11
  -2   1   3    4.94    0.10
  -2   1   3    5.14    0.10
  -2   1   3    5.03    0.10
  -2   1   3    5.07    0.10
   1  -1  -3    3.48    0.07
   1  -1  -3    3.44    0.09
   1  -1  -3    3.51    0.08
   1  -1  -3    3.51    0.08
   1  -1  -3    3.49    0.08
   1  -1  -3    3.42    0.08
   1  -1  -3    3.46    0.07
  -1   1   3    3.44    0.08
  -1   1   3    3.43    0.09
  -1   1   3    3.45    0.08
  -1   1   3    3.38    0.08
   0  -1  -3    0.05    0.01
   0  -1  -3    0.05    0.01
   0  -1  -3    0.07    0.02
   0  -1  -3    0.05    0.02
   0  -1  -3    0.05    0.01
   0  -1  -3    0.06    0.01
   0  -1  -3    0.05    0.01
   0   1   3    0.03    0.01
   0   1   3    0.04    0.01
   0   1   3    0.05    0.01
   0   1   3    0.04    0.01
  -1  -1  -3    7.70    0.15
  -1  -1  -3    7.83    0.15
  -1  -1  -3    7.99    0.15
  -1  -1  -3    7.68    0.15
  -1  -1  -3    7.82    0.16
  -1  -1  -3    7.86    0.18
  -1  -1  -3    7.86    0.15
   1   1   3    8.03    0.18
   1   1   3    7.94    0.16
  -2  -1  -3    4.11    0.10
  -2  -1  -3    4.07    0.09
  -2  -1  -3    4.13    0.11
  -2  -1  -3    4.03    0.09
  -2  -1  -3    4.06    0.09
  -2  -1  -3    4.13    0.09
  -2  -1  -3    4.13    0.10
   2   1   3    3.92    0.11
   2   1   3    4.17    0.10
  -3  -1  -3   18.94    0.35
  -3  -1  -3   19.24    0.37
  -3  -1  -3   19.23    0.34
  -3  -1  -3   18.99    0.34
  -3  -1  -3   18.90    0.34
  -3  -1  -3   19.21    0.34
  -3  -1  -3   18.95    0.35
   3   1   3   19.54    0.36
   3   1   3   19.17    0.38
  -4  -1  -3   12.19    0.23
  -4  -1  -3   12.13    0.23
  -4  -1  -3   11.81    0.23
  -4  -1  -3   12.07    0.24
  -4  -1  -3   12.13    0.23
  -4  -1  -3   12.06    0.23
  -4  -1  -3   11.86    0.26
   4   1   3   12.28    0.24
   4   1   3   11.96    0.26
  -5  -1  -3   -0.01    0.01
  -5  -1  -3    0.01    0.01
  -5  -1  -3    0.01    0.01
  -5  -1  -3    0.01    0.01
  -5  -1  -3    0.01    0.02
  -5  -1  -3    0.00    0.01
  -5  -1  -3    0.00    0.01
   5   1   3    0.01    0.02
   5   1   3   -0.01    0.01
  -6  -1  -3    1.25    0.08
  -6  -1  -3    1.13    0.05
  -6  -1  -3    1.15    0.05
  -6  -1  -3    1.14    0.05
  -6  -1  -3    1.12    0.05
  -6  -1  -3    1.15    0.05
   6   1   3    1.13    0.05
   6   1   3    1.13    0.06
   3  -2  -3   13.07    0.24
   3  -2  -3   13.15    0.23
   3  -2  -3   13.02    0.23
   3  -2  -3   12.72    0.23
   3  -2  -3   12.77    0.23
   3  -2  -3   13.01    0.23
  -3   2   3   13.03    0.23
  -3   2   3   13.09    0.23
  -3   2   3   13.00    0.24
  -3   2   3   13.01    0.23
  -3   2   3   13.22    0.25
   2  -2  -3    1.48    0.04
   2  -2  -3    1.56    0.04
   2  -2  -3    1.47    0.04
   2  -2  -3    1.50    0.04
   2  -2  -3    1.52    0.05
   2  -2  -3    1.55    0.05
   2  -2  -3    1.53    0.06
  -2   2   3    1.45    0.05
  -2   2   3    1.50    0.06
  -2   2   3    1.52    0.04
   1  -2  -3    0.01    0.01
   1  -2  -3    0.02    0.01
   1  -2  -3    0.03    0.01
   1  -2  -3    0.01    0.01
   1  -2  -3    0.01    0.01
   1  -2  -3    0.01    0.01
   1  -2  -3    0.01    0.01
  -1   2   3    0.00    0.01
  -1   2   3    0.02    0.01
   0  -2  -3    0.22    0.03
   0  -2  -3    0.23    0.02
   0  -2  -3    0.23    0.02
   0  -2  -3    0.23    0.02
   0  -2  -3    0.20    0.02
   0  -2  -3    0.23    0.02
   0  -2  -3    0.23    0.02
   0   2   3    0.23    0.02
   0   2   3    0.23    0.03
  -1  -2  -3   21.16    0.38
  -1  -2  -3   21.17    0.38
  -1  -2  -3   21.24    0.37
  -1  -2  -3   21.72    0.41
  -1  -2  -3   21.54    0.39
  -1  -2  -3   20.92    0.38
  -1  -2  -3   20.93    0.38
   1   2   3   21.62    0.39
   1   2   3   21.43    0.41
  -2  -2  -3    1.65    0.05
  -2  -2  -3    1.66    0.06
  -2  -2  -3    1.55    0.05
  -2  -2  -3    1.66    0.06
  -2  -2  -3    1.67    0.07
  -2  -2  -3    1.56    0.05
  -2  -2  -3    1.57    0.05
   2   2   3    1.67    0.07
   2   2   3    1.63    0.06
  -3  -2  -3    3.19    0.08
  -3  -2  -3    3.21    0.09
  -3  -2  -3    3.21    0.09
  -3  -2  -3    3.24    0.11
  -3  -2  -3    3.12    0.09
  -3  -2  -3    3.10    0.08
  -3  -2  -3    3.15    0.09
   3   2   3    3.26    0.09
   3   2   3    3.14    0.11
  -4  -2  -3    0.07    0.02
  -4  -2  -3    0.09    0.02
  -4  -2  -3    0.10    0.02
  -4  -2  -3    0.09    0.02
  -4  -2  -3    0.10    0.02
  -4  -2  -3    0.09    0.03
  -4  -2  -3    0.08    0.02
   4   2   3    0.07    0.02
   4   2   3    0.11    0.03
  -5  -2  -3    4.46    0.11
  -5  -2  -3    4.37    0.12
  -5  -2  -3    4.36    0.11
  -5  -2  -3    4.44    0.11
  -5  -2  -3    4.42    0.14
  -5  -2  -3    4.39    0.12
  -5  -2  -3    4.40    0.11
   5   2   3    4.53    0.12
   5   2   3    4.39    0.12
   5   2   3    4.42    0.12
   5   2   3    4.27    0.14
  -6  -2  -3    0.60    0.05
  -6  -2  -3    0.54    0.05
  -6  -2  -3    0.59    0.04
  -6  -2  -3    0.57    0.04
  -6  -2  -3    0.58    0.04
  -6  -2  -3    0.57    0.07
  -6  -2  -3    0.53    0.04
   6   2   3    0.57    0.06
   6   2   3    0.65    0.05
   6   2   3    0.53    0.05
   3  -3  -3   49.79    0.82
   3  -3  -3   49.43    0.82
   3  -3  -3   49.19    0.83
   3  -3  -3   48.55    0.85
   3  -3  -3   48.78    0.83
   3  -3  -3   49.74    0.83
   3  -3  -3   49.20    0.83
  -3   3   3   49.22    0.85
  -3   3   3   49.32    0.84
  -3   3   3   49.11    0.83
   2  -3  -3    3.35    0.08
   2  -3  -3    3.19    0.08
   2  -3  -3    3.20    0.10
   2  -3  -3    3.28    0.08
   2  -3  -3    3.18    0.08
   2  -3  -3    3.28    0.08
   2  -3  -3    3.25    0.07
  -2   3   3    3.29    0.09
  -2   3   3    3.27    0.10
   1  -3  -3    0.96    0.05
   1  -3  -3    0.95    0.04
   1  -3  -3    0.94    0.04
   1  -3  -3    0.97    0.04
   1  -3  -3    0.95    0.04
   1  -3  -3    0.92    0.04
   1  -3  -3    0.98    0.04
  -1   3   3    0.93    0.05
  -1   3   3    0.96    0.04
   0  -3  -3    1.34    0.05
   0  -3  -3    1.33    0.05
   0  -3  -3    1.45    0.05
   0  -3  -3    1.36    0.05
   0  -3  -3    1.48    0.07
   0  -3  -3    1.36    0.06
   0  -3  -3    1.34    0.05
   0   3   3    1.46    0.07
   0   3   3    1.45    0.06
  -1  -3  -3   83.44    1.40
  -1  -3  -3   81.74    1.38
  -1  -3  -3   84.56    1.43
  -1  -3  -3   82.99    1.39
  -1  -3  -3   81.11    1.39
  -1  -3  -3   83.44    1.39
  -1  -3  -3   80.25    1.38
   1   3   3   83.93    1.43
   1   3   3   82.59    1.40
  -2  -3  -3   28.70    0.50
  -2  -3  -3   28.89    0.52
  -2  -3  -3   28.78    0.51
  -2  -3  -3   28.90    0.53
  -2  -3  -3   28.69    0.51
  -2  -3  -3   28.72    0.55
  -2  -3  -3   28.78    0.51
   2   3   3   28.79    0.53
   2   3   3   28.92    0.56
  -3  -3  -3    1.38    0.05
  -3  -3  -3    1.40    0.05
  -3  -3  -3    1.34    0.06
  -3  -3  -3    1.25    0.06
  -3  -3  -3    1.50    0.08
  -3  -3  -3    1.39    0.06
  -3  -3  -3    1.31    0.06
   3   3   3    1.29    0.06
   3   3   3    1.29    0.07
  -4  -3  -3    1.37    0.08
  -4  -3  -3    1.36    0.07
  -4  -3  -3    1.41    0.06
  -4  -3  -3    1.38    0.05
  -4  -3  -3    1.37    0.06
  -4  -3  -3    1.42    0.06
  -4  -3  -3    1.46    0.06
   4   3   3    1.50    0.07
   4   3   3    1.34    0.08
   4   3   3    1.35    0.06
  -5  -3  -3   11.81    0.25
  -5  -3  -3   11.78    0.24
  -5  -3  -3   11.56    0.23
  -5  -3  -3   11.38    0.26
  -5  -3  -3   11.91    0.25
  -5  -3  -3   11.76    0.24
   5   3   3   12.04    0.25
   5   3   3   11.67    0.26
   5   3   3   11.78    0.29
  -6  -3  -3    0.13    0.03
  -6  -3  -3    0.12    0.03
  -6  -3  -3    0.06    0.02
  -6  -3  -3    0.13    0.03
  -6  -3  -3    0.07    0.03
  -6  -3  -3    0.06    0.03
   6   3   3    0.05    0.02
   6   3   3    0.09    0.03
   4  -4  -3    9.55    0.20
  -4   4   3    9.63    0.21
   3  -4  -3    0.37    0.03
   3  -4  -3    0.43    0.03
   3  -4  -3    0.41    0.04
   3  -4  -3    0.38    0.03
   3  -4  -3    0.36    0.03
   3  -4  -3    0.44    0.03
   3  -4  -3    0.41    0.03
  -3   4   3    0.38    0.04
  -3   4   3    0.37    0.03
   2  -4  -3    4.83    0.11
   2  -4  -3    4.66    0.11
   2  -4  -3    4.72    0.10
   2  -4  -3    4.87    0.11
   2  -4  -3    4.79    0.12
   2  -4  -3    4.83    0.11
   2  -4  -3    4.78    0.14
  -2   4   3    4.83    0.12
  -2   4   3    4.86    0.14
   1  -4  -3   12.29    0.25
   1  -4  -3   12.14    0.23
   1  -4  -3   12.19    0.23
   1  -4  -3   12.12    0.27
   1  -4  -3   12.31    0.24
   1  -4  -3   12.24    0.24
   1  -4  -3   12.13    0.24
  -1   4   3   12.32    0.27
  -1   4   3   12.19    0.25
   0  -4  -3    1.57    0.06
   0  -4  -3    1.54    0.06
   0  -4  -3    1.54    0.08
   0  -4  -3    1.52    0.06
   0  -4  -3    1.61    0.06
   0  -4  -3    1.47    0.05
   0  -4  -3    1.57    0.05
   0   4   3    1.52    0.06
   0   4   3    1.52    0.08
  -1  -4  -3    0.56    0.05
  -1  -4  -3    0.56    0.04
  -1  -4  -3    0.49    0.04
  -1  -4  -3    0.54    0.04
  -1  -4  -3    0.55    0.04
  -1  -4  -3    0.55    0.03
  -1  -4  -3    0.58    0.04
   1   4   3    0.60    0.05
   1   4   3    0.57    0.04
  -2  -4  -3    2.36    0.08
  -2  -4  -3    2.55    0.11
  -2  -4  -3    2.52    0.09
  -2  -4  -3    2.48    0.07
  -2  -4  -3    2.51    0.08
  -2  -4  -3    2.42    0.08
  -2  -4  -3    2.42    0.08
   2   4   3    2.45    0.11
  -3  -4  -3    2.45    0.09
  -3  -4  -3    2.45    0.08
  -3  -4  -3    2.38    0.09
  -3  -4  -3    2.44    0.08
  -3  -4  -3    2.52    0.08
  -3  -4  -3    2.41    0.08
   3   4   3    2.40    0.09
   3   4   3    2.32    0.09
   3   4   3    2.37    0.11
  -4  -4  -3    2.79    0.09
  -4  -4  -3    2.73    0.09
  -4  -4  -3    2.68    0.10
  -4  -4  -3    2.64    0.08
  -4  -4  -3    2.63    0.09
  -4  -4  -3    2.70    0.10
   4   4   3    2.83    0.10
   4   4   3    2.67    0.10
  -5  -4  -3    2.16    0.08
  -5  -4  -3    2.12    0.08
  -5  -4  -3    2.17    0.08
  -5  -4  -3    2.07    0.09
  -5  -4  -3    2.03    0.08
   5   4   3    2.17    0.09
   5   4   3    2.18    0.09
  -6  -4  -3    2.42    0.10
  -6  -4  -3    2.65    0.09
  -6  -4  -3    2.47    0.09
  -6  -4  -3    2.40    0.09
  -6  -4  -3    2.57    0.09
   6   4   3    2.57    0.10
   6   4   3    2.34    0.10
  -7  -4  -3    2.29    0.10
  -7  -4  -3    2.23    0.10
   7   4   3    2.47    0.11
   7   4   3    2.55    0.11
   4  -5  -3    3.02    0.08
   4  -5  -3    3.05    0.08
   4  -5  -3    2.93    0.09
   4  -5  -3    2.97    0.08
   3  -5  -3    1.63    0.06
   3  -5  -3    1.55    0.06
   3  -5  -3    1.58    0.06
   3  -5  -3    1.61    0.06
   3  -5  -3    1.55    0.05
   3  -5  -3    1.59    0.08
   3  -5  -3    1.64    0.05
  -3   5   3    1.59    0.06
  -3   5   3    1.52    0.06
  -3   5   3    1.51    0.07
  -2   5   3   11.61    0.27
  -2   5   3   11.64    0.24
  -2   5   3   11.69    0.24
  -2   5   3   12.01    0.24
   1  -5  -3    3.35    0.09
   1  -5  -3    3.51    0.10
   1  -5  -3    3.32    0.12
   1  -5  -3    3.40    0.10
   1  -5  -3    3.45    0.09
   1  -5  -3    3.40    0.10
   1  -5  -3    3.32    0.10
  -1   5   3    3.33    0.10
  -1   5   3    3.34    0.10
  -1   5   3    3.35    0.10
  -1   5   3    3.33    0.12
   0  -5  -3   27.71    0.51
   0  -5  -3   27.72    0.50
   0  -5  -3   27.61    0.50
   0  -5  -3   28.06    0.50
   0  -5  -3   27.54    0.49
   0  -5  -3   27.80    0.52
   0  -5  -3   27.01    0.55
   0   5   3   26.95    0.55
   0   5   3   27.50    0.51
   0   5   3   27.56    0.51
  -1  -5  -3   18.86    0.35
  -1  -5  -3   18.51    0.36
  -1  -5  -3   20.26    0.46
  -1  -5  -3   18.53    0.37
  -1  -5  -3   18.84    0.36
  -1  -5  -3   18.80    0.38
  -1  -5  -3   18.41    0.36
   1   5   3   18.57    0.37
   1   5   3   18.67    0.41
   1   5   3   18.69    0.37
  -2  -5  -3   32.62    0.59
  -2  -5  -3   32.95    0.62
  -2  -5  -3   33.26    0.61
  -2  -5  -3   33.41    0.60
  -2  -5  -3   33.56    0.60
  -2  -5  -3   33.62    0.60
   2   5   3   33.64    0.62
   2   5   3   33.15    0.61
   2   5   3   32.70    0.71
  -3  -5  -3    1.72    0.07
  -3  -5  -3    1.67    0.07
  -3  -5  -3    1.58    0.08
  -3  -5  -3    1.68    0.07
  -3  -5  -3    1.70    0.07
  -3  -5  -3    1.67    0.08
   3   5   3    1.56    0.08
   3   5   3    1.60    0.08
  -4  -5  -3    2.82    0.10
  -4  -5  -3    2.93    0.10
  -4  -5  -3    2.74    0.10
  -4  -5  -3    2.73    0.09
  -4  -5  -3    2.66    0.10
   4   5   3    2.87    0.11
   4   5   3    2.92    0.11
  -5  -5  -3    0.26    0.04
  -5  -5  -3    0.25    0.04
  -5  -5  -3    0.26    0.04
  -5  -5  -3    0.14    0.03
  -5  -5  -3    0.24    0.03
   5   5   3    0.23    0.04
   5   5   3    0.27    0.04
  -6  -5  -3    5.66    0.16
  -6  -5  -3    5.61    0.15
  -6  -5  -3    5.55    0.16
  -6  -5  -3    5.73    0.16
  -6  -5  -3    5.63    0.17
   6   5   3    5.71    0.17
   6   5   3    5.87    0.18
  -7  -5  -3    0.03    0.03
  -7  -5  -3    0.05    0.03
  -7  -5  -3    0.03    0.03
  -7  -5  -3    0.05    0.03
  -7  -5  -3    0.00    0.03
   7   5   3    0.04    0.03
   7   5   3    0.00    0.03
   3  -6  -3    1.88    0.08
   3  -6  -3    1.79    0.09
   3  -6  -3    1.79    0.06
   3  -6  -3    1.77    0.07
   3  -6  -3    1.93    0.06
   3  -6  -3    1.78    0.07
   3  -6  -3    1.77    0.07
  -3   6   3    1.85    0.07
  -3   6   3    1.89    0.07
  -3   6   3    1.65    0.09
   2  -6  -3    2.04    0.08
   2  -6  -3    2.04    0.06
   2  -6  -3    2.08    0.07
   2  -6  -3    1.95    0.10
   2  -6  -3    1.92    0.08
   2  -6  -3    1.94    0.07
   2  -6  -3    1.95    0.07
   1  -6  -3    1.19    0.06
   1  -6  -3    1.29    0.06
   1  -6  -3    1.34    0.07
   1  -6  -3    1.21    0.07
   1  -6  -3    1.28    0.06
   1  -6  -3    1.21    0.06
  -1   6   3    1.24    0.08
  -1   6   3    1.29    0.07
  -1   6   3    1.29    0.06
   0  -6  -3   55.75    0.95
   0  -6  -3   55.14    0.96
   0  -6  -3   55.73    0.96
   0  -6  -3   54.75    0.97
   0  -6  -3   55.75    0.96
   0  -6  -3   54.47    0.98
   0   6   3   55.69    0.98
   0   6   3   55.61    0.98
  -1  -6  -3    0.32    0.04
  -1  -6  -3    0.38    0.04
  -1  -6  -3    0.47    0.05
  -1  -6  -3    0.53    0.05
  -1  -6  -3    0.42    0.04
  -1  -6  -3    0.40    0.04
   1   6   3    0.39    0.05
   1   6   3    0.33    0.04
  -2  -6  -3    7.89    0.19
  -2  -6  -3    8.13    0.19
  -2  -6  -3    8.19    0.20
  -2  -6  -3    8.06    0.18
  -2  -6  -3    8.20    0.20
   2   6   3    8.19    0.21
   2   6   3    8.08    0.20
  -3  -6  -3    0.05    0.03
  -3  -6  -3    0.03    0.02
  -3  -6  -3    0.02    0.03
  -3  -6  -3    0.01    0.02
  -3  -6  -3    0.00    0.02
   3   6   3    0.02    0.02
   3   6   3    0.04    0.02
  -4  -6  -3    2.49    0.09
  -4  -6  -3    2.49    0.10
  -4  -6  -3    2.41    0.10
  -4  -6  -3    2.57    0.10
  -4  -6  -3    2.48    0.11
   4   6   3    2.53    0.11
   4   6   3    2.47    0.11
  -5  -6  -3    0.38    0.05
  -5  -6  -3    0.34    0.05
  -5  -6  -3    0.34    0.04
  -5  -6  -3    0.36    0.05
  -5  -6  -3    0.36    0.05
   5   6   3    0.37    0.05
   5   6   3    0.29    0.05
  -6  -6  -3    0.23    0.04
  -6  -6  -3    0.13    0.04
  -6  -6  -3    0.21    0.04
  -6  -6  -3    0.19    0.04
  -6  -6  -3    0.19    0.04
   6   6   3    0.21    0.05
   6   6   3    0.27    0.05
  -7  -6  -3    0.04    0.03
  -7  -6  -3    0.02    0.04
   7   6   3    0.04    0.03
   7   6   3    0.03    0.03
   3  -7  -3    0.05    0.02
   3  -7  -3    0.07    0.03
   3  -7  -3    0.01    0.02
   3  -7  -3    0.05    0.02
   3  -7  -3    0.05    0.02
  -3   7   3    0.08    0.03
  -3   7   3    0.06    0.02
   2  -7  -3    6.03    0.15
   2  -7  -3    5.97    0.15
   2  -7  -3    6.02    0.17
   2  -7  -3    6.11    0.16
   2  -7  -3    6.19    0.15
   2  -7  -3    5.95    0.15
  -2   7   3    6.22    0.16
  -2   7   3    6.09    0.16
   1  -7  -3    0.01    0.02
   1  -7  -3    0.03    0.02
   1  -7  -3    0.04    0.03
   1  -7  -3    0.02    0.02
   1  -7  -3    0.01    0.02
  -1   7   3    0.03    0.02
  -1   7   3    0.04    0.02
   0  -7  -3    0.24    0.03
   0  -7  -3    0.27    0.04
   0  -7  -3    0.20    0.04
   0  -7  -3    0.23    0.03
   0  -7  -3    0.21    0.03
   0   7   3    0.25    0.04
   0   7   3    0.17    0.03
  -1  -7  -3    5.18    0.15
  -1  -7  -3    5.32    0.15
  -1  -7  -3    5.42    0.14
  -1  -7  -3    5.28    0.15
  -1  -7  -3    5.22    0.16
   1   7   3    5.30    0.16
   1   7   3    5.39    0.16
  -2  -7  -3    6.16    0.17
  -2  -7  -3    6.31    0.17
  -2  -7  -3    6.04    0.16
  -2  -7  -3    6.18    0.18
  -2  -7  -3    6.16    0.17
   2   7   3    6.24    0.18
   2   7   3    6.18    0.18
  -3  -7  -3    2.19    0.10
  -3  -7  -3    2.22    0.09
  -3  -7  -3    2.07    0.10
  -3  -7  -3    2.12    0.09
  -3  -7  -3    2.20    0.10
   3   7   3    2.12    0.10
   3   7   3    2.23    0.11
  -4  -7  -3    0.06    0.03
  -4  -7  -3    0.08    0.04
  -4  -7  -3    0.08    0.03
  -4  -7  -3    0.06    0.03
  -4  -7  -3    0.08    0.04
   4   7   3    0.04    0.03
   4   7   3    0.08    0.03
  -5  -7  -3    2.69    0.12
  -5  -7  -3    2.77    0.13
  -5  -7  -3    2.70    0.11
  -5  -7  -3    2.77    0.11
   5   7   3    2.79    0.13
   5   7   3    2.78    0.13
  -6  -7  -3    1.94    0.10
  -6  -7  -3    2.06    0.11
   6   7   3    1.82    0.11
   6   7   3    1.84    0.11
   3  -8  -3    1.93    0.12
  -3   8   3    1.77    0.13
  -3   8   3    1.83    0.11
   2  -8  -3    0.10    0.03
   2  -8  -3    0.14    0.03
   2  -8  -3    0.07    0.03
   2  -8  -3    0.09    0.03
   2  -8  -3    0.14    0.04
  -2   8   3    0.16    0.03
  -2   8   3    0.15    0.03
   1  -8  -3    2.18    0.09
   1  -8  -3    1.95    0.08
   1  -8  -3    2.19    0.09
   1  -8  -3    2.25    0.10
   1  -8  -3    2.12    0.09
  -1   8   3    2.14    0.10
  -1   8   3    2.18    0.10
   0  -8  -3    0.10    0.03
   0  -8  -3    0.08    0.03
   0  -8  -3    0.07    0.03
   0  -8  -3    0.08    0.03
   0  -8  -3    0.10    0.04
   0   8   3    0.09    0.03
   0   8   3    0.15    0.04
  -1  -8  -3    4.20    0.15
  -1  -8  -3    4.21    0.14
  -1  -8  -3    3.97    0.13
  -1  -8  -3    4.21    0.13
  -1  -8  -3    4.25    0.14
   1   8   3    4.15    0.14
   1   8   3    4.07    0.15
  -2  -8  -3    0.02    0.03
  -2  -8  -3    0.01    0.03
  -2  -8  -3    0.00    0.03
  -2  -8  -3    0.02    0.03
  -2  -8  -3    0.02    0.03
   2   8   3    0.04    0.03
   2   8   3    0.08    0.03
  -3  -8  -3    0.86    0.08
  -3  -8  -3    0.96    0.08
  -3  -8  -3    1.01    0.07
  -3  -8  -3    1.00    0.09
   3   8   3    1.18    0.08
   3   8   3    1.03    0.08
  -4  -8  -3    0.82    0.08
  -4  -8  -3    0.82    0.08
   4   8   3    0.77    0.08
   4   8   3    0.97    0.08
  -5  -8  -3    1.95    0.12
   5   8   3    2.01    0.12
   5   8   3    1.96    0.12
   2  -9  -3    0.25    0.04
   2  -9  -3    0.24    0.04
   2  -9  -3    0.35    0.05
   2  -9  -3    0.30    0.05
   2  -9  -3    0.34    0.05
  -2   9   3    0.30    0.05
  -2   9   3    0.36    0.05
   1  -9  -3    0.18    0.04
   1  -9  -3    0.17    0.04
   1  -9  -3    0.16    0.04
   1  -9  -3    0.17    0.04
   1  -9  -3    0.22    0.05
  -1   9   3    0.17    0.04
  -1   9   3    0.28    0.05
   0  -9  -3    0.99    0.07
   0  -9  -3    1.23    0.08
   0  -9  -3    1.24    0.08
   0  -9  -3    1.12    0.09
   0  -9  -3    1.13    0.08
   0   9   3    1.10    0.08
   0   9   3    1.15    0.08
  -1  -9  -3    0.17    0.05
  -1  -9  -3    0.14    0.04
  -1  -9  -3    0.16    0.04
  -1  -9  -3    0.13    0.04
   1   9   3    0.20    0.05
   1   9   3    0.10    0.04
  -2  -9  -3   -0.01    0.03
  -2  -9  -3    0.04    0.04
   2   9   3    0.04    0.03
   2   9   3    0.04    0.03
  -3  -9  -3    0.03    0.04
   3   9   3   -0.03    0.03
   3   9   3    0.00    0.03
  -4  -9  -3    0.84    0.09
   4   9   3    0.92    0.09
   4   9   3    1.01    0.09
   2 -10  -3    0.36    0.06
  -2  10   3    0.47    0.07
  -2  10   3    0.47    0.07
   1 -10  -3    0.50    0.06
   1 -10  -3    0.53    0.07
  -1  10   3    0.47    0.06
  -1  10   3    0.46    0.06
   0 -10  -3    1.80    0.11
   0 -10  -3    1.89    0.10
   0  10   3    2.02    0.11
   0  10   3    1.96    0.11
  -1 -10  -3    0.61    0.07
   1  10   3    0.56    0.07
   1  10   3    0.69    0.08
  -2 -10  -3    0.33    0.06
   2  10   3    0.25    0.05
   2  10   3    0.28    0.06
   1  11  -4   -0.03    0.03
   1  11  -4    0.07    0.04
  -1 -11   4    0.05    0.05
   0  11  -4    0.17    0.05
   0  11  -4    0.27    0.05
   0 -11   4    0.22    0.06
  -1  11  -4    0.04    0.03
  -1  11  -4    0.06    0.04
   1 -11   4    0.06    0.04
   1 -11   4    0.06    0.04
   4  10  -4    1.75    0.12
   4  10  -4    1.88    0.12
  -4 -10   4    1.60    0.12
   3  10  -4   -0.04    0.03
   3  10  -4   -0.01    0.03
  -3 -10   4   -0.05    0.04
   2  10  -4    1.62    0.11
   2  10  -4    1.59    0.11
  -2 -10   4    1.74    0.12
  -2 -10   4    1.62    0.11
   1  10  -4    0.09    0.04
   1  10  -4    0.08    0.04
  -1 -10   4    0.10    0.04
  -1 -10   4    0.05    0.05
  -1 -10   4   -0.01    0.04
  -1 -10   4    0.03    0.04
   0  10  -4    4.28    0.16
   0  10  -4    4.44    0.16
   0 -10   4    4.35    0.14
   0 -10   4    4.27    0.15
   0 -10   4    4.43    0.15
   0 -10   4    4.55    0.16
  -1  10  -4    2.06    0.10
  -1  10  -4    2.10    0.10
   1 -10   4    2.03    0.11
   1 -10   4    1.97    0.10
   1 -10   4    2.09    0.10
   1 -10   4    2.01    0.10
   1 -10   4    1.98    0.09
  -2  10  -4    7.28    0.21
  -2  10  -4    7.33    0.20
   2 -10   4    7.33    0.20
   2 -10   4    7.33    0.19
   2 -10   4    7.09    0.18
   2 -10   4    7.15    0.19
   2 -10   4    7.08    0.20
   5   9  -4    0.21    0.05
   5   9  -4    0.40    0.06
  -5  -9   4    0.24    0.06
   4   9  -4    0.58    0.07
   4   9  -4    0.51    0.07
  -4  -9   4    0.51    0.07
  -4  -9   4    0.59    0.07
   3   9  -4    0.27    0.05
   3   9  -4    0.32    0.05
  -3  -9   4    0.31    0.05
  -3  -9   4    0.33    0.05
  -3  -9   4    0.24    0.04
  -3  -9   4    0.25    0.05
   2   9  -4    2.08    0.11
   2   9  -4    1.95    0.10
  -2  -9   4    2.05    0.11
  -2  -9   4    2.00    0.10
  -2  -9   4    2.07    0.10
  -2  -9   4    2.11    0.09
  -2  -9   4    1.98    0.10
   1   9  -4    0.33    0.05
   1   9  -4    0.35    0.05
   1   9  -4    0.33    0.05
  -1  -9   4    0.37    0.04
  -1  -9   4    0.42    0.06
  -1  -9   4    0.33    0.05
  -1  -9   4    0.35    0.05
  -1  -9   4    0.34    0.06
   0   9  -4    0.97    0.07
   0   9  -4    0.86    0.06
   0   9  -4    0.85    0.07
   0  -9   4    0.80    0.06
   0  -9   4    0.88    0.06
   0  -9   4    0.70    0.06
   0  -9   4    0.86    0.07
   0  -9   4    0.86    0.07
  -1   9  -4   -0.02    0.02
  -1   9  -4    0.02    0.02
  -1   9  -4    0.02    0.02
   1  -9   4    0.02    0.03
   1  -9   4    0.03    0.03
   1  -9   4    0.02    0.02
   1  -9   4    0.02    0.02
   1  -9   4    0.04    0.02
  -2   9  -4    0.38    0.05
  -2   9  -4    0.40    0.05
  -2   9  -4    0.35    0.05
   2  -9   4    0.37    0.05
   2  -9   4    0.39    0.05
   2  -9   4    0.39    0.05
   2  -9   4    0.39    0.05
   2  -9   4    0.46    0.05
   6   8  -4    0.58    0.07
   6   8  -4    0.59    0.07
  -6  -8   4    0.46    0.06
  -6  -8   4    0.52    0.07
   5   8  -4    0.27    0.05
   5   8  -4    0.32    0.06
  -5  -8   4    0.26    0.05
  -5  -8   4    0.16    0.04
  -5  -8   4    0.23    0.04
  -5  -8   4    0.31    0.05
   4   8  -4    2.91    0.12
   4   8  -4    2.78    0.12
  -4  -8   4    3.11    0.13
  -4  -8   4    2.93    0.12
  -4  -8   4    2.95    0.11
  -4  -8   4    2.84    0.11
  -4  -8   4    2.77    0.11
   3   8  -4    0.36    0.05
   3   8  -4    0.36    0.06
   3   8  -4    0.41    0.05
  -3  -8   4    0.34    0.05
  -3  -8   4    0.35    0.05
  -3  -8   4    0.43    0.06
  -3  -8   4    0.34    0.05
  -3  -8   4    0.27    0.04
   2   8  -4    1.32    0.08
   2   8  -4    1.38    0.08
   2   8  -4    1.31    0.08
  -2  -8   4    1.43    0.08
  -2  -8   4    1.37    0.08
  -2  -8   4    1.33    0.07
  -2  -8   4    1.32    0.09
  -2  -8   4    1.37    0.07
   1   8  -4    1.55    0.08
   1   8  -4    1.72    0.08
   1   8  -4    1.92    0.09
   1   8  -4    1.65    0.09
  -1  -8   4    1.17    0.08
  -1  -8   4    1.21    0.08
  -1  -8   4    1.34    0.08
  -1  -8   4    1.38    0.08
  -1  -8   4    1.32    0.07
   0   8  -4    0.05    0.02
   0   8  -4    0.07    0.02
   0   8  -4    0.06    0.03
   0   8  -4    0.05    0.02
   0   8  -4    0.05    0.03
   0   8  -4    0.03    0.02
   0  -8   4    0.04    0.03
   0  -8   4   -0.02    0.02
   0  -8   4    0.02    0.03
   0  -8   4    0.05    0.03
   0  -8   4    0.03    0.02
  -1   8  -4    5.15    0.15
  -1   8  -4    5.17    0.14
  -1   8  -4    4.97    0.15
  -1   8  -4    5.10    0.15
  -1   8  -4    5.13    0.13
  -1   8  -4    5.22    0.14
   1  -8   4    5.27    0.15
   1  -8   4    5.31    0.14
   1  -8   4    5.14    0.15
   1  -8   4    5.20    0.14
   1  -8   4    5.18    0.15
  -2   8  -4    0.13    0.02
  -2   8  -4    0.15    0.03
  -2   8  -4    0.14    0.03
  -2   8  -4    0.15    0.03
  -2   8  -4    0.18    0.03
  -2   8  -4    0.13    0.03
   2  -8   4    0.11    0.03
   2  -8   4    0.19    0.03
   2  -8   4    0.21    0.03
   2  -8   4    0.17    0.04
   2  -8   4    0.15    0.03
  -3   8  -4    1.78    0.08
  -3   8  -4    1.88    0.08
  -3   8  -4    1.76    0.07
  -3   8  -4    1.76    0.08
   3  -8   4    1.88    0.08
   3  -8   4    1.88    0.08
   3  -8   4    1.87    0.07
   3  -8   4    1.80    0.08
   3  -8   4    1.78    0.08
   7   7  -4    0.78    0.08
   7   7  -4    0.92    0.09
  -7  -7   4    0.80    0.07
  -7  -7   4    0.82    0.07
  -7  -7   4    0.84    0.08
  -7  -7   4    0.64    0.07
   6   7  -4    0.06    0.04
   6   7  -4    0.01    0.03
  -6  -7   4    0.07    0.03
  -6  -7   4    0.05    0.03
  -6  -7   4    0.01    0.03
  -6  -7   4   -0.01    0.03
  -6  -7   4    0.01    0.03
   5   7  -4    1.41    0.09
   5   7  -4    1.56    0.09
  -5  -7   4    1.50    0.10
  -5  -7   4    1.54    0.09
  -5  -7   4    1.36    0.08
  -5  -7   4    1.42    0.08
  -5  -7   4    1.45    0.09
   4   7  -4    1.09    0.07
   4   7  -4    0.97    0.07
   4   7  -4    1.06    0.07
  -4  -7   4    0.96    0.06
  -4  -7   4    0.95    0.08
  -4  -7   4    1.00    0.07
  -4  -7   4    0.81    0.07
  -4  -7   4    0.83    0.07
   3   7  -4    1.66    0.08
   3   7  -4    1.62    0.08
   3   7  -4    1.53    0.09
   3   7  -4    1.52    0.08
  -3  -7   4    1.66    0.08
  -3  -7   4    1.49    0.08
  -3  -7   4    1.62    0.09
  -3  -7   4    1.43    0.08
  -3  -7   4    1.43    0.07
   2   7  -4    0.19    0.03
   2   7  -4    0.16    0.03
   2   7  -4    0.20    0.03
   2   7  -4    0.16    0.03
   2   7  -4    0.19    0.04
   2   7  -4    0.17    0.03
  -2  -7   4    0.23    0.03
  -2  -7   4    0.14    0.03
  -2  -7   4    0.16    0.03
  -2  -7   4    0.13    0.03
  -2  -7   4    0.17    0.03
   1   7  -4    0.15    0.03
   1   7  -4    0.17    0.03
   1   7  -4    0.14    0.03
   1   7  -4    0.17    0.03
  -1  -7   4    0.15    0.03
  -1  -7   4    0.17    0.03
  -1  -7   4    0.21    0.03
  -1  -7   4    0.11    0.03
   0   7  -4    0.34    0.04
   0   7  -4    0.34    0.04
   0   7  -4    0.41    0.04
   0   7  -4    0.31    0.04
   0   7  -4    0.33    0.04
   0   7  -4    0.33    0.04
   0  -7   4    0.37    0.04
   0  -7   4    0.38    0.04
   0  -7   4    0.40    0.05
   0  -7   4    0.39    0.04
  -1   7  -4    5.48    0.13
  -1   7  -4    5.45    0.15
  -1   7  -4    5.41    0.15
  -1   7  -4    5.40    0.15
  -1   7  -4    5.37    0.14
  -1   7  -4    5.42    0.14
   1  -7   4    5.55    0.14
   1  -7   4    5.51    0.14
   1  -7   4    5.57    0.13
   1  -7   4    5.42    0.15
  -2   7  -4    2.84    0.09
  -2   7  -4    2.62    0.09
  -2   7  -4    2.72    0.09
  -2   7  -4    2.63    0.09
  -2   7  -4    2.66    0.09
  -2   7  -4    2.82    0.08
   2  -7   4    2.66    0.09
   2  -7   4    2.77    0.10
   2  -7   4    2.75    0.08
   2  -7   4    2.66    0.09
  -3   7  -4    0.12    0.02
  -3   7  -4    0.14    0.02
  -3   7  -4    0.16    0.02
  -3   7  -4    0.16    0.03
  -3   7  -4    0.12    0.03
  -3   7  -4    0.11    0.02
   3  -7   4    0.17    0.04
   3  -7   4    0.18    0.03
   3  -7   4    0.21    0.03
   3  -7   4    0.16    0.03
   3  -7   4    0.17    0.03
   7   6  -4    0.74    0.07
   7   6  -4    0.59    0.06
  -7  -6   4    0.57    0.06
  -7  -6   4    0.57    0.06
  -7  -6   4    0.64    0.06
  -7  -6   4    0.59    0.07
  -7  -6   4    0.64    0.06
  -6  -6   4    0.06    0.04
  -6  -6   4    0.11    0.04
  -6  -6   4    0.10    0.03
  -6  -6   4    0.06    0.04
  -6  -6   4    0.10    0.04
   5   6  -4    2.46    0.11
   5   6  -4    2.70    0.10
   5   6  -4    2.37    0.10
  -5  -6   4    2.43    0.10
  -5  -6   4    2.50    0.11
  -5  -6   4    2.55    0.10
  -5  -6   4    2.55    0.09
  -5  -6   4    2.58    0.10
   4   6  -4    0.12    0.03
   4   6  -4    0.12    0.03
   4   6  -4    0.07    0.03
   4   6  -4    0.09    0.03
  -4  -6   4   -0.01    0.02
  -4  -6   4    0.10    0.03
  -4  -6   4    0.08    0.03
  -4  -6   4    0.03    0.03
  -4  -6   4    0.02    0.02
   3   6  -4    0.10    0.03
   3   6  -4    0.13    0.03
   3   6  -4    0.09    0.03
   3   6  -4    0.17    0.03
   3   6  -4    0.12    0.03
   3   6  -4    0.19    0.03
  -3  -6   4    0.13    0.03
  -3  -6   4    0.15    0.03
  -3  -6   4    0.15    0.03
  -3  -6   4    0.12    0.03
  -3  -6   4    0.16    0.04
   2   6  -4    0.69    0.05
   2   6  -4    0.63    0.05
   2   6  -4    0.62    0.05
   2   6  -4    0.64    0.04
   2   6  -4    0.60    0.05
   2   6  -4    0.68    0.05
  -2  -6   4    0.71    0.05
  -2  -6   4    0.61    0.05
  -2  -6   4    0.65    0.05
  -2  -6   4    0.60    0.04
   1   6  -4    6.50    0.15
   1   6  -4    6.49    0.16
   1   6  -4    6.37    0.16
   1   6  -4    6.38    0.15
   1   6  -4    6.40    0.16
   1   6  -4    6.48    0.16
  -1  -6   4    6.54    0.15
  -1  -6   4    6.54    0.16
  -1  -6   4    6.57    0.16
  -1  -6   4    6.70    0.16
   0   6  -4    1.32    0.06
   0   6  -4    1.41    0.06
   0   6  -4    1.30    0.06
   0   6  -4    1.32    0.05
   0   6  -4    1.27    0.06
   0   6  -4    1.25    0.06
   0  -6   4    1.22    0.06
   0  -6   4    1.37    0.08
   0  -6   4    1.29    0.05
   0  -6   4    1.30    0.06
   0  -6   4    1.28    0.06
  -1   6  -4    0.77    0.05
  -1   6  -4    0.71    0.04
  -1   6  -4    0.69    0.05
  -1   6  -4    0.73    0.04
  -1   6  -4    0.72    0.04
  -1   6  -4    0.80    0.05
  -1   6  -4    0.77    0.05
  -1   6  -4    0.79    0.05
   1  -6   4    0.78    0.05
   1  -6   4    0.77    0.05
   1  -6   4    0.85    0.04
   1  -6   4    0.78    0.05
   1  -6   4    0.73    0.07
  -2   6  -4   38.77    0.66
  -2   6  -4   39.19    0.67
  -2   6  -4   39.45    0.66
  -2   6  -4   38.10    0.67
  -2   6  -4   39.63    0.67
  -2   6  -4   38.53    0.67
  -2   6  -4   38.47    0.67
  -2   6  -4   37.97    0.68
   2  -6   4   35.85    0.71
   2  -6   4   34.99    0.67
   2  -6   4   36.05    0.66
   2  -6   4   37.99    0.70
   2  -6   4   35.95    0.65
   2  -6   4   36.23    0.66
  -3   6  -4    5.09    0.12
  -3   6  -4    5.10    0.12
  -3   6  -4    5.07    0.13
  -3   6  -4    5.19    0.13
  -3   6  -4    5.09    0.13
  -3   6  -4    4.98    0.13
  -3   6  -4    4.96    0.13
  -3   6  -4    5.18    0.13
   3  -6   4    5.14    0.12
   3  -6   4    5.25    0.12
   3  -6   4    5.05    0.13
   3  -6   4    5.12    0.13
   3  -6   4    5.08    0.13
   3  -6   4    5.37    0.13
   3  -6   4    5.35    0.16
   4  -6   4    9.96    0.25
   7   5  -4    0.35    0.05
   7   5  -4    0.44    0.05
  -7  -5   4    0.40    0.05
  -7  -5   4    0.60    0.08
  -7  -5   4    0.40    0.04
  -7  -5   4    0.47    0.05
  -7  -5   4    0.35    0.05
   6   5  -4   11.00    0.26
   6   5  -4   11.07    0.25
  -6  -5   4   11.22    0.25
  -6  -5   4   11.04    0.25
  -6  -5   4   10.77    0.25
  -6  -5   4   11.11    0.24
  -6  -5   4   11.03    0.24
   5   5  -4    0.73    0.06
   5   5  -4    0.80    0.06
   5   5  -4    0.87    0.06
   5   5  -4    0.82    0.06
  -5  -5   4    0.82    0.05
  -5  -5   4    0.73    0.06
  -5  -5   4    0.80    0.06
  -5  -5   4    0.86    0.06
  -5  -5   4    0.88    0.06
   4   5  -4    0.32    0.04
   4   5  -4    0.30    0.04
   4   5  -4    0.35    0.03
   4   5  -4    0.28    0.04
   4   5  -4    0.39    0.04
   4   5  -4    0.31    0.04
  -4  -5   4    0.24    0.04
  -4  -5   4    0.35    0.04
  -4  -5   4    0.31    0.04
  -4  -5   4    0.31    0.04
   3   5  -4    2.02    0.08
   3   5  -4    2.22    0.08
   3   5  -4    2.24    0.08
   3   5  -4    2.26    0.08
   3   5  -4    2.13    0.08
   3   5  -4    2.10    0.07
  -3  -5   4    1.99    0.08
  -3  -5   4    2.13    0.08
  -3  -5   4    2.13    0.08
  -3  -5   4    2.13    0.07
   2   5  -4   20.27    0.38
   2   5  -4   20.56    0.39
   2   5  -4   20.65    0.39
   2   5  -4   20.55    0.39
   2   5  -4   20.81    0.39
   2   5  -4   20.35    0.39
   2   5  -4   20.31    0.38
   2   5  -4   20.45    0.40
  -2  -5   4   20.08    0.38
  -2  -5   4   20.23    0.43
  -2  -5   4   20.00    0.38
  -2  -5   4   20.52    0.38
  -2  -5   4   20.37    0.39
   1   5  -4    0.16    0.02
   1   5  -4    0.15    0.03
   1   5  -4    0.16    0.02
   1   5  -4    0.13    0.02
   1   5  -4    0.12    0.02
   1   5  -4    0.13    0.02
   1   5  -4    0.14    0.03
   1   5  -4    0.13    0.02
   1   5  -4    0.15    0.03
  -1  -5   4    0.16    0.03
  -1  -5   4    0.13    0.03
  -1  -5   4    0.14    0.03
  -1  -5   4    0.16    0.02
  -1  -5   4    0.15    0.02
   0   5  -4    6.46    0.15
   0   5  -4    6.39    0.15
   0   5  -4    6.52    0.15
   0   5  -4    6.47    0.15
   0   5  -4    6.41    0.16
   0   5  -4    6.35    0.15
   0   5  -4    6.55    0.14
   0   5  -4    6.49    0.16
   0   5  -4    6.62    0.15
   0  -5   4    6.56    0.15
   0  -5   4    6.40    0.15
   0  -5   4    6.33    0.14
   0  -5   4    6.36    0.16
   0  -5   4    6.58    0.19
  -1   5  -4    0.12    0.02
  -1   5  -4    0.13    0.02
  -1   5  -4    0.15    0.02
  -1   5  -4    0.07    0.02
  -1   5  -4    0.13    0.02
  -1   5  -4    0.11    0.02
  -1   5  -4    0.12    0.02
  -1   5  -4    0.13    0.02
  -1   5  -4    0.10    0.02
   1  -5   4    0.13    0.02
   1  -5   4    0.16    0.03
   1  -5   4    0.10    0.02
   1  -5   4    0.12    0.02
   1  -5   4    0.12    0.02
  -2   5  -4   26.30    0.47
  -2   5  -4   26.16    0.48
  -2   5  -4   26.25    0.47
  -2   5  -4   26.13    0.46
  -2   5  -4   26.00    0.47
  -2   5  -4   26.44    0.46
  -2   5  -4   26.34    0.48
  -2   5  -4   26.02    0.47
  -2   5  -4   26.33    0.47
   2  -5   4   25.36    0.48
   2  -5   4   25.67    0.47
  -3   5  -4   11.75    0.24
  -3   5  -4   11.65    0.23
  -3   5  -4   11.78    0.23
  -3   5  -4   11.87    0.23
  -3   5  -4   12.00    0.23
  -3   5  -4   11.59    0.24
  -3   5  -4   11.82    0.22
  -3   5  -4   11.65    0.24
  -3   5  -4   11.83    0.24
   3  -5   4   11.99    0.23
   3  -5   4   12.02    0.23
   3  -5   4   11.83    0.24
   3  -5   4   11.96    0.24
   3  -5   4   11.98    0.27
  -4   5  -4    1.67    0.06
  -4   5  -4    1.68    0.06
  -4   5  -4    1.66    0.06
  -4   5  -4    1.73    0.05
  -4   5  -4    1.71    0.06
  -4   5  -4    1.70    0.06
  -4   5  -4    1.77    0.06
  -4   5  -4    1.67    0.06
  -4   5  -4    1.62    0.06
   4  -5   4    1.78    0.06
   4  -5   4    1.71    0.05
   4  -5   4    1.64    0.06
   4  -5   4    1.76    0.08
   4  -5   4    1.76    0.06
   7   4  -4    1.30    0.09
   7   4  -4    1.34    0.08
   6   4  -4    0.07    0.03
   6   4  -4    0.05    0.02
   6   4  -4    0.08    0.03
  -6  -4   4    0.12    0.03
  -6  -4   4    0.08    0.02
  -6  -4   4    0.05    0.03
  -6  -4   4    0.09    0.03
  -6  -4   4    0.08    0.03
   5   4  -4    1.51    0.06
   5   4  -4    1.47    0.06
   5   4  -4    1.49    0.07
   5   4  -4    1.53    0.07
   5   4  -4    1.58    0.07
   5   4  -4    1.50    0.07
  -5  -4   4    1.55    0.07
  -5  -4   4    1.57    0.07
  -5  -4   4    1.45    0.06
  -5  -4   4    1.56    0.07
  -5  -4   4    1.53    0.07
   4   4  -4    6.27    0.15
   4   4  -4    6.53    0.16
   4   4  -4    6.28    0.16
   4   4  -4    6.52    0.15
   4   4  -4    6.01    0.15
   4   4  -4    6.63    0.15
  -4  -4   4    6.30    0.16
  -4  -4   4    6.31    0.19
  -4  -4   4    6.40    0.15
  -4  -4   4    6.42    0.15
  -4  -4   4    6.44    0.15
   3   4  -4    0.97    0.05
   3   4  -4    0.90    0.05
   3   4  -4    1.02    0.05
   3   4  -4    1.01    0.05
   3   4  -4    0.95    0.05
   3   4  -4    1.03    0.05
   3   4  -4    1.04    0.06
   3   4  -4    0.98    0.04
  -3  -4   4    1.01    0.05
  -3  -4   4    0.93    0.05
  -3  -4   4    1.05    0.06
  -3  -4   4    0.98    0.06
  -3  -4   4    1.01    0.05
  -3  -4   4    1.02    0.07
   2   4  -4    0.04    0.02
   2   4  -4    0.03    0.02
   2   4  -4    0.02    0.02
   2   4  -4    0.01    0.01
   2   4  -4    0.01    0.01
   2   4  -4    0.01    0.01
   2   4  -4    0.04    0.02
   2   4  -4    0.00    0.01
   2   4  -4    0.05    0.02
  -2  -4   4    0.00    0.01
  -2  -4   4    0.01    0.02
  -2  -4   4    0.00    0.02
  -2  -4   4    0.03    0.02
  -2  -4   4   -0.02    0.02
   1   4  -4    0.44    0.03
   1   4  -4    0.43    0.03
   1   4  -4    0.42    0.03
   1   4  -4    0.43    0.03
   1   4  -4    0.37    0.03
   1   4  -4    0.51    0.04
   1   4  -4    0.44    0.03
   1   4  -4    0.41    0.03
   1   4  -4    0.43    0.03
  -1  -4   4    0.36    0.03
  -1  -4   4    0.41    0.03
  -1  -4   4    0.38    0.04
  -1  -4   4    0.38    0.03
   0   4  -4    9.38    0.19
   0   4  -4    9.28    0.19
   0   4  -4    9.33    0.19
   0   4  -4    9.39    0.19
   0   4  -4    9.57    0.20
   0   4  -4    9.54    0.18
   0   4  -4    9.25    0.20
   0   4  -4    9.44    0.19
   0   4  -4    9.30    0.20
   0  -4   4    9.41    0.23
   0  -4   4    9.25    0.20
  -1   4  -4    0.92    0.04
  -1   4  -4    1.00    0.04
  -1   4  -4    1.03    0.05
  -1   4  -4    1.02    0.04
  -1   4  -4    0.95    0.04
  -1   4  -4    1.01    0.05
  -1   4  -4    0.93    0.04
  -1   4  -4    0.95    0.04
  -1   4  -4    0.95    0.04
   1  -4   4    1.01    0.06
   1  -4   4    0.99    0.05
  -2   4  -4    6.65    0.15
  -2   4  -4    6.81    0.15
  -2   4  -4    6.73    0.14
  -2   4  -4    6.71    0.15
  -2   4  -4    6.75    0.15
  -2   4  -4    6.75    0.14
  -2   4  -4    6.73    0.15
  -2   4  -4    6.73    0.14
  -2   4  -4    6.79    0.15
   2  -4   4    6.55    0.15
   2  -4   4    6.78    0.15
  -3   4  -4    5.37    0.12
  -3   4  -4    5.38    0.12
  -3   4  -4    5.37    0.13
  -3   4  -4    5.23    0.13
  -3   4  -4    5.34    0.12
  -3   4  -4    5.39    0.12
  -3   4  -4    5.41    0.12
  -3   4  -4    5.35    0.12
  -3   4  -4    5.43    0.11
   3  -4   4    5.44    0.15
   3  -4   4    5.35    0.13
   3  -4   4    5.48    0.12
  -4   4  -4    2.16    0.06
  -4   4  -4    2.09    0.06
  -4   4  -4    2.11    0.06
  -4   4  -4    2.04    0.06
  -4   4  -4    2.21    0.07
  -4   4  -4    2.10    0.06
  -4   4  -4    2.11    0.07
   4  -4   4    2.04    0.08
   4  -4   4    2.07    0.06
   4  -4   4    2.08    0.07
   6   3  -4    0.89    0.06
   6   3  -4    0.96    0.05
   6   3  -4    0.89    0.05
   6   3  -4    0.87    0.05
  -6  -3   4    0.84    0.05
  -6  -3   4    0.98    0.06
  -6  -3   4    0.92    0.05
  -6  -3   4    0.90    0.06
  -6  -3   4    0.92    0.07
  -6  -3   4    0.90    0.05
   5   3  -4    0.36    0.03
   5   3  -4    0.30    0.03
   5   3  -4    0.32    0.03
   5   3  -4    0.48    0.04
   5   3  -4    0.46    0.04
   5   3  -4    0.38    0.03
  -5  -3   4    0.44    0.04
  -5  -3   4    0.39    0.04
  -5  -3   4    0.39    0.03
  -5  -3   4    0.46    0.05
  -5  -3   4    0.48    0.05
  -5  -3   4    0.44    0.04
   4   3  -4    7.18    0.15
   4   3  -4    7.18    0.16
   4   3  -4    7.34    0.16
   4   3  -4    6.92    0.16
   4   3  -4    7.33    0.16
   4   3  -4    7.26    0.16
   4   3  -4    7.13    0.16
   4   3  -4    7.22    0.17
  -4  -3   4    7.10    0.16
  -4  -3   4    7.09    0.16
  -4  -3   4    7.20    0.16
  -4  -3   4    7.17    0.15
  -4  -3   4    6.95    0.19
  -4  -3   4    7.05    0.17
   3   3  -4   10.57    0.20
   3   3  -4   10.55    0.21
   3   3  -4   10.57    0.21
   3   3  -4   10.48    0.21
   3   3  -4   10.66    0.22
   3   3  -4   10.64    0.22
   3   3  -4   10.32    0.22
   3   3  -4   10.39    0.22
   3   3  -4   10.61    0.23
  -3  -3   4   10.51    0.25
  -3  -3   4   10.51    0.21
  -3  -3   4   10.68    0.22
  -3  -3   4   10.62    0.21
  -3  -3   4   10.48    0.21
   2   3  -4    5.80    0.13
   2   3  -4    5.76    0.14
   2   3  -4    5.79    0.13
   2   3  -4    5.86    0.13
   2   3  -4    5.82    0.14
   2   3  -4    5.84    0.13
   2   3  -4    5.55    0.13
   2   3  -4    5.73    0.12
   2   3  -4    5.89    0.14
  -2  -3   4    5.85    0.16
  -2  -3   4    5.87    0.14
   1   3  -4   10.03    0.21
   1   3  -4   10.15    0.19
   1   3  -4   10.27    0.21
   1   3  -4   10.28    0.21
   1   3  -4   10.43    0.20
   1   3  -4   10.37    0.20
   1   3  -4    9.98    0.20
   1   3  -4   10.05    0.21
   1   3  -4   10.12    0.20
  -1  -3   4   10.12    0.21
  -1  -3   4   10.32    0.23
   0   3  -4    0.23    0.02
   0   3  -4    0.31    0.03
   0   3  -4    0.32    0.02
   0   3  -4    0.29    0.02
   0   3  -4    0.32    0.03
   0   3  -4    0.26    0.02
   0   3  -4    0.28    0.02
   0   3  -4    0.31    0.03
   0   3  -4    0.29    0.03
   0   3  -4    0.23    0.02
   0  -3   4    0.29    0.03
   0  -3   4    0.23    0.03
  -1   3  -4   56.81    0.96
  -1   3  -4   57.38    0.96
  -1   3  -4   56.23    0.96
  -1   3  -4   57.04    0.97
  -1   3  -4   57.08    0.96
  -1   3  -4   57.12    0.96
  -1   3  -4   56.89    0.97
  -1   3  -4   57.12    0.95
   1  -3   4   57.17    0.97
   1  -3   4   56.38    0.97
  -2   3  -4   50.39    0.84
  -2   3  -4   50.18    0.85
  -2   3  -4   49.59    0.85
  -2   3  -4   50.72    0.85
  -2   3  -4   49.74    0.85
  -2   3  -4   50.25    0.86
  -2   3  -4   50.44    0.85
  -2   3  -4   51.44    0.85
   2  -3   4   49.28    0.86
   2  -3   4   49.32    0.85
  -3   3  -4   22.88    0.40
  -3   3  -4   22.90    0.40
  -3   3  -4   23.03    0.40
  -3   3  -4   22.77    0.41
  -3   3  -4   22.75    0.40
  -3   3  -4   22.54    0.39
   3  -3   4   22.42    0.41
   3  -3   4   22.43    0.40
  -4   3  -4    0.14    0.02
  -4   3  -4    0.14    0.02
  -4   3  -4    0.12    0.02
  -4   3  -4    0.19    0.02
  -4   3  -4    0.12    0.02
  -4   3  -4    0.12    0.02
   4  -3   4    0.14    0.03
   4  -3   4    0.17    0.02
   4  -3   4    0.16    0.02
   6   2  -4    0.02    0.02
   6   2  -4    0.01    0.02
   6   2  -4    0.01    0.02
   6   2  -4    0.00    0.01
   6   2  -4    0.00    0.01
   6   2  -4   -0.02    0.01
  -6  -2   4    0.02    0.02
  -6  -2   4    0.01    0.02
  -6  -2   4    0.03    0.02
  -6  -2   4   -0.02    0.01
  -6  -2   4   -0.01    0.02
   5   2  -4    4.44    0.11
   5   2  -4    4.36    0.10
   5   2  -4    4.37    0.11
   5   2  -4    4.32    0.11
   5   2  -4    4.25    0.11
   5   2  -4    4.28    0.10
  -5  -2   4    4.29    0.14
  -5  -2   4    4.29    0.10
  -5  -2   4    4.24    0.10
  -5  -2   4    4.41    0.12
  -5  -2   4    4.33    0.11
  -5  -2   4    4.35    0.11
   4   2  -4    0.01    0.01
   4   2  -4    0.01    0.01
   4   2  -4    0.02    0.02
   4   2  -4    0.01    0.01
   4   2  -4    0.03    0.01
   4   2  -4    0.00    0.01
   4   2  -4    0.01    0.01
   4   2  -4    0.02    0.01
   4   2  -4    0.01    0.01
  -4  -2   4    0.04    0.02
  -4  -2   4    0.03    0.02
  -4  -2   4    0.00    0.01
  -4  -2   4    0.03    0.01
  -4  -2   4    0.01    0.01
   3   2  -4    9.01    0.17
   3   2  -4    9.07    0.19
   3   2  -4    9.32    0.19
   3   2  -4    8.89    0.18
   3   2  -4    8.93    0.18
   3   2  -4    9.09    0.19
   3   2  -4    9.12    0.18
   3   2  -4    8.94    0.18
   3   2  -4    9.07    0.18
  -3  -2   4    8.89    0.19
  -3  -2   4    8.98    0.21
   2   2  -4    0.00    0.01
   2   2  -4    0.02    0.01
   2   2  -4    0.01    0.01
   2   2  -4    0.01    0.01
   2   2  -4    0.01    0.01
   2   2  -4   -0.01    0.01
   2   2  -4   -0.01    0.01
   2   2  -4    0.00    0.01
   2   2  -4   -0.01    0.01
  -2  -2   4    0.00    0.01
  -2  -2   4    0.01    0.01
   1   2  -4    1.29    0.05
   1   2  -4    1.31    0.04
   1   2  -4    1.29    0.04
   1   2  -4    1.31    0.04
   1   2  -4    1.28    0.05
   1   2  -4    1.25    0.05
   1   2  -4    1.26    0.05
   1   2  -4    1.26    0.04
  -1  -2   4    1.25    0.05
  -1  -2   4    1.30    0.05
   0   2  -4    0.84    0.04
   0   2  -4    0.86    0.04
   0   2  -4    0.88    0.04
   0   2  -4    0.90    0.04
   0   2  -4    0.85    0.03
   0   2  -4    0.88    0.04
   0   2  -4    0.87    0.03
   0   2  -4    0.91    0.03
   0  -2   4    0.86    0.04
   0  -2   4    0.87    0.04
  -1   2  -4   13.50    0.25
  -1   2  -4   13.27    0.24
  -1   2  -4   13.29    0.25
  -1   2  -4   13.45    0.25
  -1   2  -4   13.39    0.25
  -1   2  -4   13.86    0.26
  -1   2  -4   13.57    0.25
  -1   2  -4   13.42    0.25
   1  -2   4   13.44    0.26
   1  -2   4   13.45    0.25
  -2   2  -4    2.15    0.06
  -2   2  -4    2.13    0.06
  -2   2  -4    2.17    0.06
  -2   2  -4    2.05    0.05
  -2   2  -4    2.14    0.06
  -2   2  -4    2.11    0.06
   2  -2   4    2.00    0.06
   2  -2   4    2.07    0.06
  -3   2  -4    3.99    0.09
  -3   2  -4    3.94    0.09
  -3   2  -4    4.03    0.09
  -3   2  -4    4.08    0.09
  -3   2  -4    4.00    0.09
  -3   2  -4    4.08    0.10
   3  -2   4    4.07    0.11
   3  -2   4    4.05    0.10
   3  -2   4    3.89    0.10
  -4   2  -4    0.01    0.01
  -4   2  -4    0.01    0.01
  -4   2  -4    0.01    0.01
  -4   2  -4    0.01    0.01
  -4   2  -4    0.01    0.01
  -4   2  -4    0.01    0.01
   4  -2   4    0.01    0.02
   4  -2   4    0.00    0.01
   4  -2   4    0.02    0.01
  -5   2  -4    2.60    0.08
  -5   2  -4    2.69    0.07
  -5   2  -4    2.62    0.07
  -5   2  -4    2.63    0.07
  -5   2  -4    2.77    0.07
   5  -2   4    2.51    0.09
   6   1  -4    7.66    0.17
   6   1  -4    7.70    0.17
   6   1  -4    7.41    0.18
  -6  -1   4    7.81    0.19
  -6  -1   4    7.40    0.20
  -6  -1   4    7.55    0.18
   5   1  -4    3.40    0.09
   5   1  -4    3.36    0.08
   5   1  -4    3.30    0.08
   5   1  -4    3.31    0.08
   5   1  -4    3.30    0.09
   5   1  -4    3.36    0.09
   5   1  -4    3.31    0.09
   5   1  -4    3.38    0.09
   5   1  -4    3.39    0.09
  -5  -1   4    3.33    0.08
  -5  -1   4    3.47    0.09
  -5  -1   4    3.44    0.11
  -5  -1   4    3.33    0.09
  -5  -1   4    3.37    0.08
  -5  -1   4    3.46    0.09
   4   1  -4   17.77    0.33
   4   1  -4   17.78    0.32
   4   1  -4   17.88    0.32
   4   1  -4   17.74    0.32
   4   1  -4   17.58    0.32
   4   1  -4   17.97    0.33
   4   1  -4   17.97    0.32
   4   1  -4   17.49    0.31
   4   1  -4   17.67    0.33
  -4  -1   4   17.70    0.33
  -4  -1   4   17.72    0.33
  -4  -1   4   17.75    0.35
   3   1  -4    3.67    0.08
   3   1  -4    3.72    0.09
   3   1  -4    3.67    0.09
   3   1  -4    3.71    0.08
   3   1  -4    3.63    0.09
   3   1  -4    3.76    0.10
   3   1  -4    3.60    0.09
   3   1  -4    3.78    0.09
   2   1  -4    0.62    0.03
   2   1  -4    0.58    0.03
   2   1  -4    0.69    0.03
   2   1  -4    0.72    0.03
   2   1  -4    0.64    0.03
   2   1  -4    0.63    0.03
   2   1  -4    0.61    0.03
   2   1  -4    0.61    0.03
  -2  -1   4    0.62    0.03
  -2  -1   4    0.54    0.03
   1   1  -4   21.26    0.38
   1   1  -4   21.23    0.38
   1   1  -4   21.34    0.38
   1   1  -4   21.26    0.37
   1   1  -4   22.26    0.39
   1   1  -4   21.56    0.38
   1   1  -4   21.89    0.38
   1   1  -4   21.72    0.38
  -1  -1   4   21.68    0.39
   0   1  -4    9.84    0.18
   0   1  -4    9.66    0.19
   0   1  -4    9.80    0.18
   0   1  -4    9.85    0.19
   0   1  -4    9.43    0.18
   0   1  -4    9.72    0.18
   0  -1   4    9.62    0.19
   0  -1   4    9.60    0.19
  -1   1  -4    0.11    0.01
  -1   1  -4    0.13    0.02
  -1   1  -4    0.14    0.02
  -1   1  -4    0.10    0.01
  -1   1  -4    0.12    0.02
  -1   1  -4    0.11    0.01
   1  -1   4    0.12    0.02
   1  -1   4    0.11    0.02
   1  -1   4    0.12    0.02
  -2   1  -4   12.30    0.23
  -2   1  -4   12.35    0.23
  -2   1  -4   12.32    0.24
  -2   1  -4   12.23    0.22
  -2   1  -4   12.23    0.23
  -2   1  -4   12.08    0.23
   2  -1   4   12.31    0.25
   2  -1   4   12.36    0.23
   2  -1   4   12.41    0.24
  -3   1  -4    9.57    0.18
  -3   1  -4    9.40    0.18
  -3   1  -4    9.34    0.19
  -3   1  -4    9.54    0.19
  -3   1  -4    9.50    0.18
  -3   1  -4    9.51    0.18
   3  -1   4    9.44    0.19
   3  -1   4    9.37    0.19
   3  -1   4    9.32    0.21
  -4   1  -4    5.71    0.12
  -4   1  -4    5.70    0.13
  -4   1  -4    5.84    0.12
  -4   1  -4    5.63    0.13
  -4   1  -4    5.60    0.12
  -4   1  -4    5.68    0.12
   4  -1   4    5.56    0.13
   4  -1   4    5.59    0.15
  -5   1  -4    9.60    0.20
  -5   1  -4    9.71    0.18
  -5   1  -4    9.55    0.19
  -5   1  -4    9.32    0.19
  -5   1  -4    9.53    0.19
  -5   1  -4    9.77    0.19
   5  -1   4    9.36    0.20
   5  -1   4    9.48    0.22
   5   0  -4    0.46    0.03
   5   0  -4    0.42    0.03
   5   0  -4    0.44    0.03
   5   0  -4    0.46    0.03
  -5   0   4    0.44    0.04
   4   0  -4  129.87    2.18
   4   0  -4  132.65    2.19
   4   0  -4  134.15    2.19
   4   0  -4  130.97    2.18
   4   0  -4  136.90    2.20
   4   0  -4  133.38    2.20
   4   0  -4  136.23    2.19
  -4   0   4  130.15    2.21
  -4   0   4  129.64    2.20
   3   0  -4    0.08    0.01
   3   0  -4    0.07    0.01
   3   0  -4    0.07    0.01
   3   0  -4    0.07    0.01
   3   0  -4    0.07    0.02
   3   0  -4    0.05    0.01
  -3   0   4    0.09    0.02
  -3   0   4    0.10    0.02
   2   0  -4    6.05    0.12
   2   0  -4    5.96    0.13
   2   0  -4    6.11    0.13
   2   0  -4    6.01    0.12
   2   0  -4    6.04    0.13
   2   0  -4    5.94    0.12
  -2   0   4    6.86    0.13
  -2   0   4    6.81    0.13
   1   0  -4    0.82    0.03
   1   0  -4    0.89    0.04
   1   0  -4    0.84    0.03
   1   0  -4    0.88    0.03
   1   0  -4    0.88    0.03
   1   0  -4    0.86    0.03
  -1   0   4    0.91    0.05
  -1   0   4    0.88    0.04
  -1   0   4    0.84    0.03
   0   0  -4   42.81    0.72
   0   0  -4   42.91    0.72
   0   0  -4   42.69    0.72
   0   0  -4   42.88    0.72
   0   0  -4   41.77    0.72
   0   0  -4   42.96    0.73
   0   0   4   42.72    0.73
   0   0   4   41.85    0.72
   0   0   4   42.34    0.75
  -1   0  -4    0.01    0.01
  -1   0  -4    0.01    0.01
  -1   0  -4    0.01    0.01
  -1   0  -4    0.01    0.01
  -1   0  -4    0.01    0.01
  -1   0  -4    0.02    0.01
   1   0   4    0.01    0.01
   1   0   4    0.00    0.01
   1   0   4    0.01    0.01
  -2   0  -4    0.64    0.03
  -2   0  -4    0.67    0.03
  -2   0  -4    0.67    0.03
  -2   0  -4    0.68    0.03
  -2   0  -4    0.69    0.03
  -2   0  -4    0.60    0.04
  -2   0  -4    0.66    0.04
   2   0   4    0.63    0.03
   2   0   4    0.65    0.04
   2   0   4    0.71    0.04
  -3   0  -4    0.00    0.01
  -3   0  -4    0.00    0.01
  -3   0  -4    0.00    0.01
  -3   0  -4    0.01    0.01
  -3   0  -4   -0.01    0.01
  -3   0  -4    0.01    0.01
  -3   0  -4    0.01    0.01
   3   0   4    0.00    0.01
   3   0   4    0.01    0.01
  -4   0  -4   12.38    0.24
  -4   0  -4   12.59    0.23
  -4   0  -4   12.65    0.27
  -4   0  -4   12.29    0.24
  -4   0  -4   12.58    0.23
  -4   0  -4   12.19    0.25
  -4   0  -4   12.13    0.24
   4   0   4   12.30    0.27
   4   0   4   12.41    0.25
  -5   0  -4   -0.01    0.02
  -5   0  -4    0.01    0.01
  -5   0  -4    0.02    0.02
  -5   0  -4    0.02    0.02
  -5   0  -4    0.01    0.01
  -5   0  -4   -0.01    0.01
  -5   0  -4    0.00    0.01
   5   0   4    0.01    0.02
   5   0   4    0.01    0.02
   4  -1  -4   13.19    0.24
   4  -1  -4   13.21    0.25
   4  -1  -4   13.08    0.23
   4  -1  -4   13.38    0.24
   4  -1  -4   13.26    0.24
  -4   1   4   13.08    0.24
  -4   1   4   13.08    0.24
  -4   1   4   12.76    0.26
  -4   1   4   13.07    0.24
   3  -1  -4    3.26    0.08
   3  -1  -4    3.09    0.07
   3  -1  -4    3.26    0.08
   3  -1  -4    3.19    0.07
   3  -1  -4    3.27    0.07
   3  -1  -4    3.23    0.08
  -3   1   4    3.17    0.09
  -3   1   4    3.42    0.08
  -3   1   4    3.22    0.08
  -3   1   4    3.20    0.08
  -2   1   4    7.38    0.15
  -2   1   4    7.51    0.17
  -2   1   4    7.38    0.15
   1  -1  -4    9.53    0.18
   1  -1  -4    9.74    0.18
   1  -1  -4   10.01    0.19
   1  -1  -4    9.64    0.19
   1  -1  -4    9.66    0.18
   1  -1  -4    9.85    0.18
  -1   1   4    9.85    0.19
  -1   1   4    9.77    0.21
  -1   1   4    9.68    0.19
   0  -1  -4   38.87    0.66
   0  -1  -4   38.35    0.66
   0  -1  -4   39.08    0.69
   0  -1  -4   38.43    0.65
   0  -1  -4   38.80    0.66
   0  -1  -4   38.46    0.65
   0  -1  -4   38.39    0.66
   0   1   4   37.92    0.66
   0   1   4   37.22    0.68
   0   1   4   38.52    0.66
  -1  -1  -4    0.03    0.01
  -1  -1  -4    0.03    0.01
  -1  -1  -4    0.02    0.01
  -1  -1  -4    0.03    0.02
  -1  -1  -4    0.06    0.02
  -1  -1  -4    0.03    0.01
  -1  -1  -4    0.02    0.01
   1   1   4    0.03    0.02
   1   1   4    0.02    0.01
   1   1   4    0.02    0.01
  -2  -1  -4   22.50    0.40
  -2  -1  -4   22.33    0.41
  -2  -1  -4   22.38    0.40
  -2  -1  -4   22.62    0.40
  -2  -1  -4   22.86    0.44
  -2  -1  -4   22.97    0.42
  -2  -1  -4   22.53    0.40
   2   1   4   22.56    0.44
   2   1   4   23.03    0.42
  -3  -1  -4    0.06    0.01
  -3  -1  -4    0.08    0.02
  -3  -1  -4    0.06    0.02
  -3  -1  -4    0.10    0.02
  -3  -1  -4    0.06    0.02
  -3  -1  -4    0.09    0.02
  -3  -1  -4    0.06    0.01
   3   1   4    0.05    0.02
   3   1   4    0.05    0.02
  -4  -1  -4    1.46    0.06
  -4  -1  -4    1.45    0.06
  -4  -1  -4    1.49    0.06
  -4  -1  -4    1.54    0.08
  -4  -1  -4    1.47    0.05
  -4  -1  -4    1.50    0.05
  -4  -1  -4    1.41    0.06
   4   1   4    1.46    0.06
   4   1   4    1.45    0.08
  -5  -1  -4    7.66    0.17
  -5  -1  -4    7.62    0.18
  -5  -1  -4    7.52    0.20
  -5  -1  -4    7.66    0.16
  -5  -1  -4    7.44    0.17
  -5  -1  -4    7.49    0.16
  -5  -1  -4    7.65    0.16
   5   1   4    7.22    0.18
   5   1   4    7.30    0.20
  -6  -1  -4   11.18    0.23
  -6  -1  -4   11.17    0.22
  -6  -1  -4   10.96    0.23
  -6  -1  -4   10.98    0.23
  -6  -1  -4   11.09    0.22
   4  -2  -4    0.55    0.03
   4  -2  -4    0.58    0.03
   4  -2  -4    0.57    0.03
   4  -2  -4    0.56    0.03
   4  -2  -4    0.56    0.03
  -4   2   4    0.58    0.04
  -4   2   4    0.53    0.03
   3  -2  -4   35.08    0.60
   3  -2  -4   35.48    0.61
   3  -2  -4   34.65    0.60
   3  -2  -4   35.28    0.60
   3  -2  -4   34.65    0.60
   3  -2  -4   35.42    0.59
  -3   2   4   35.40    0.63
  -3   2   4   34.91    0.61
   2  -2  -4    0.68    0.03
   2  -2  -4    0.65    0.03
   2  -2  -4    0.67    0.03
   2  -2  -4    0.63    0.03
   2  -2  -4    0.64    0.03
   2  -2  -4    0.66    0.04
   2  -2  -4    0.65    0.03
   1  -2  -4   20.11    0.39
   1  -2  -4   19.76    0.35
   1  -2  -4   19.92    0.36
   1  -2  -4   19.69    0.35
   1  -2  -4   19.86    0.35
   1  -2  -4   20.41    0.37
   1  -2  -4   19.92    0.35
  -1   2   4   19.65    0.36
  -1   2   4   19.70    0.39
   0  -2  -4   84.62    1.42
   0  -2  -4   83.94    1.42
   0  -2  -4   85.47    1.45
   0  -2  -4   83.15    1.41
   0  -2  -4   84.90    1.42
   0  -2  -4   84.27    1.41
   0  -2  -4   85.56    1.43
   0   2   4   86.71    1.43
   0   2   4   86.04    1.46
  -1  -2  -4   22.30    0.40
  -1  -2  -4   22.09    0.40
  -1  -2  -4   22.28    0.39
  -1  -2  -4   22.01    0.40
  -1  -2  -4   21.95    0.41
  -1  -2  -4   22.35    0.40
  -1  -2  -4   22.41    0.43
   1   2   4   22.05    0.43
   1   2   4   22.31    0.41
  -2  -2  -4   28.07    0.49
  -2  -2  -4   27.44    0.50
  -2  -2  -4   28.15    0.51
  -2  -2  -4   28.09    0.54
  -2  -2  -4   27.93    0.50
  -2  -2  -4   27.96    0.49
  -2  -2  -4   27.93    0.50
   2   2   4   27.95    0.51
   2   2   4   28.28    0.54
  -3  -2  -4    9.44    0.20
  -3  -2  -4    9.54    0.21
  -3  -2  -4    9.48    0.20
  -3  -2  -4    9.72    0.20
  -3  -2  -4    9.53    0.19
  -3  -2  -4    9.44    0.19
  -3  -2  -4    9.44    0.23
   3   2   4    9.65    0.24
   3   2   4    9.62    0.21
  -4  -2  -4    1.21    0.06
  -4  -2  -4    1.05    0.07
  -4  -2  -4    1.13    0.05
  -4  -2  -4    1.26    0.06
  -4  -2  -4    1.11    0.06
  -4  -2  -4    1.11    0.05
  -4  -2  -4    1.14    0.05
   4   2   4    0.94    0.07
   5   2   4    0.98    0.07
  -6  -2  -4    0.16    0.03
  -6  -2  -4    0.18    0.03
  -6  -2  -4    0.18    0.03
  -6  -2  -4    0.14    0.03
  -6  -2  -4    0.13    0.03
  -6  -2  -4    0.10    0.02
   6   2   4    0.17    0.03
   6   2   4    0.14    0.03
   4  -3  -4    3.19    0.08
   4  -3  -4    3.15    0.07
   4  -3  -4    3.22    0.08
   4  -3  -4    3.13    0.07
  -4   3   4    3.14    0.10
  -4   3   4    3.17    0.08
   3  -3  -4    2.67    0.09
   3  -3  -4    2.68    0.07
   3  -3  -4    2.83    0.07
   3  -3  -4    2.74    0.07
   3  -3  -4    2.82    0.08
   3  -3  -4    2.77    0.07
   3  -3  -4    2.76    0.07
  -3   3   4    2.75    0.08
  -3   3   4    2.82    0.09
   2  -3  -4    0.03    0.01
   2  -3  -4    0.04    0.01
   2  -3  -4    0.03    0.01
   2  -3  -4    0.03    0.01
   2  -3  -4    0.04    0.01
   2  -3  -4    0.05    0.01
   2  -3  -4    0.06    0.01
   1  -3  -4    0.67    0.05
   1  -3  -4    0.62    0.04
   1  -3  -4    0.76    0.04
   1  -3  -4    0.71    0.04
   1  -3  -4    0.76    0.04
   1  -3  -4    0.71    0.04
   1  -3  -4    0.68    0.03
  -1   3   4    0.80    0.05
  -1   3   4    0.75    0.04
   0  -3  -4    4.16    0.13
   0  -3  -4    4.16    0.11
   0  -3  -4    4.03    0.11
   0  -3  -4    4.06    0.10
   0  -3  -4    4.06    0.10
   0  -3  -4    4.18    0.10
   0  -3  -4    4.01    0.10
   0   3   4    4.15    0.11
   0   3   4    4.17    0.13
  -1  -3  -4   19.81    0.37
  -1  -3  -4   19.39    0.36
  -1  -3  -4   19.64    0.36
  -1  -3  -4   19.52    0.41
  -1  -3  -4   20.02    0.38
  -1  -3  -4   19.75    0.37
  -1  -3  -4   19.84    0.37
   1   3   4   20.10    0.38
   1   3   4   19.80    0.41
  -2  -3  -4    0.82    0.06
  -2  -3  -4    0.86    0.05
  -2  -3  -4    0.86    0.05
  -2  -3  -4    0.81    0.04
  -2  -3  -4    0.79    0.04
  -2  -3  -4    0.84    0.05
  -2  -3  -4    0.87    0.05
   2   3   4    0.86    0.06
   2   3   4    0.85    0.05
  -3  -3  -4    1.37    0.06
  -3  -3  -4    1.47    0.06
  -3  -3  -4    1.41    0.07
  -3  -3  -4    1.35    0.06
  -3  -3  -4    1.40    0.06
  -3  -3  -4    1.42    0.08
  -3  -3  -4    1.47    0.06
   3   3   4    1.36    0.08
  -4  -3  -4    1.15    0.06
  -4  -3  -4    1.08    0.05
  -4  -3  -4    1.09    0.06
  -4  -3  -4    1.02    0.06
  -4  -3  -4    1.14    0.05
  -4  -3  -4    1.02    0.06
   4   3   4    1.01    0.08
  -5  -3  -4    2.44    0.10
  -5  -3  -4    2.43    0.09
  -5  -3  -4    2.54    0.08
  -5  -3  -4    2.43    0.09
  -5  -3  -4    2.46    0.08
  -5  -3  -4    2.48    0.09
   5   3   4    2.46    0.10
   5   3   4    2.37    0.09
  -6  -3  -4    0.17    0.03
  -6  -3  -4    0.17    0.03
  -6  -3  -4    0.15    0.03
  -6  -3  -4    0.14    0.03
   6   3   4    0.05    0.03
   6   3   4    0.09    0.03
   7   3   4   -0.01    0.02
   7   3   4    0.00    0.03
   4  -4  -4    0.80    0.04
   4  -4  -4    0.77    0.04
   4  -4  -4    0.82    0.03
   4  -4  -4    0.77    0.04
   4  -4  -4    0.79    0.04
  -4   4   4    0.73    0.05
   3  -4  -4    0.38    0.04
   3  -4  -4    0.35    0.03
   3  -4  -4    0.41    0.03
   3  -4  -4    0.39    0.03
   3  -4  -4    0.40    0.04
   3  -4  -4    0.38    0.03
   3  -4  -4    0.35    0.03
  -3   4   4    0.38    0.04
  -3   4   4    0.33    0.03
  -2   4   4    4.56    0.14
  -2   4   4    4.87    0.12
   1  -4  -4    0.03    0.02
   1  -4  -4    0.03    0.02
   1  -4  -4    0.02    0.02
   1  -4  -4    0.08    0.03
   1  -4  -4    0.05    0.02
   1  -4  -4    0.02    0.02
   1  -4  -4    0.05    0.02
  -1   4   4    0.08    0.02
  -1   4   4    0.05    0.02
   0  -4  -4    3.62    0.10
   0  -4  -4    3.54    0.09
   0  -4  -4    3.60    0.10
   0  -4  -4    3.34    0.10
   0  -4  -4    3.49    0.11
   0  -4  -4    3.45    0.13
   0  -4  -4    3.47    0.09
   0   4   4    3.58    0.13
   0   4   4    3.47    0.11
  -1  -4  -4   15.30    0.31
  -1  -4  -4   15.12    0.34
  -1  -4  -4   15.35    0.30
  -1  -4  -4   14.81    0.29
  -1  -4  -4   14.92    0.29
  -1  -4  -4   15.13    0.30
  -1  -4  -4   14.77    0.30
   1   4   4   15.36    0.35
  -2  -4  -4    3.04    0.10
  -2  -4  -4    3.10    0.09
  -2  -4  -4    2.92    0.09
  -2  -4  -4    3.08    0.10
  -2  -4  -4    3.15    0.11
  -2  -4  -4    3.01    0.09
   2   4   4    3.16    0.13
  -3  -4  -4    0.08    0.03
  -3  -4  -4    0.05    0.02
  -3  -4  -4    0.04    0.02
  -3  -4  -4    0.05    0.02
  -3  -4  -4    0.07    0.03
  -3  -4  -4    0.05    0.02
  -4  -4  -4    1.97    0.13
  -4  -4  -4    1.88    0.08
  -4  -4  -4    1.88    0.07
  -4  -4  -4    1.81    0.08
  -4  -4  -4    1.78    0.08
  -4  -4  -4    1.81    0.08
   4   4   4    1.92    0.09
   4   4   4    1.75    0.08
  -5  -4  -4    6.33    0.16
  -5  -4  -4    6.29    0.15
  -5  -4  -4    6.32    0.16
  -5  -4  -4    6.33    0.16
  -5  -4  -4    6.22    0.17
   5   4   4    6.20    0.17
   5   4   4    6.28    0.17
  -6  -4  -4    0.47    0.05
  -6  -4  -4    0.63    0.06
  -6  -4  -4    0.49    0.05
  -6  -4  -4    0.37    0.05
  -6  -4  -4    0.60    0.05
   6   4   4    0.53    0.06
   6   4   4    0.58    0.06
  -7  -4  -4    0.41    0.06
  -7  -4  -4    0.47    0.07
   7   4   4    0.38    0.06
   7   4   4    0.41    0.06
   4  -5  -4    1.71    0.07
   4  -5  -4    1.71    0.07
   4  -5  -4    1.92    0.08
   4  -5  -4    1.78    0.07
   3  -5  -4    0.09    0.02
   3  -5  -4    0.06    0.02
   3  -5  -4    0.05    0.02
   3  -5  -4    0.04    0.02
   3  -5  -4    0.06    0.02
   3  -5  -4    0.03    0.02
   3  -5  -4    0.05    0.02
  -3   5   4    0.04    0.02
  -3   5   4    0.05    0.02
  -3   5   4    0.07    0.02
  -3   5   4    0.04    0.02
   2  -5  -4    3.00    0.08
   2  -5  -4    3.10    0.12
   2  -5  -4    3.07    0.09
   2  -5  -4    3.06    0.09
   2  -5  -4    2.94    0.09
   2  -5  -4    2.93    0.10
   2  -5  -4    2.99    0.09
  -2   5   4    3.51    0.10
  -2   5   4    3.73    0.13
   1  -5  -4    0.46    0.04
   1  -5  -4    0.41    0.04
   1  -5  -4    0.46    0.04
   1  -5  -4    0.44    0.05
   1  -5  -4    0.44    0.04
   1  -5  -4    0.54    0.04
   1  -5  -4    0.45    0.06
  -1   5   4    0.41    0.05
   0  -5  -4    1.24    0.07
   0  -5  -4    1.24    0.06
   0  -5  -4    1.17    0.06
   0  -5  -4    1.30    0.07
   0  -5  -4    1.19    0.06
   0  -5  -4    1.23    0.06
   0   5   4    1.08    0.08
  -1  -5  -4    3.70    0.12
  -1  -5  -4    3.89    0.11
  -1  -5  -4    3.74    0.10
  -1  -5  -4    3.76    0.11
  -1  -5  -4    3.96    0.11
  -1  -5  -4    3.80    0.12
  -2  -5  -4    2.77    0.09
  -2  -5  -4    2.77    0.10
  -2  -5  -4    2.82    0.10
  -2  -5  -4    2.76    0.11
  -2  -5  -4    2.75    0.10
  -2  -5  -4    2.85    0.09
   2   5   4    2.70    0.10
   2   5   4    2.87    0.10
  -3  -5  -4    0.79    0.06
  -3  -5  -4    0.88    0.06
  -3  -5  -4    0.99    0.06
  -3  -5  -4    0.84    0.06
  -3  -5  -4    0.86    0.07
   3   5   4    0.77    0.06
   3   5   4    0.76    0.07
  -4  -5  -4    0.01    0.03
  -4  -5  -4   -0.02    0.02
  -4  -5  -4   -0.03    0.03
  -4  -5  -4   -0.03    0.02
  -4  -5  -4   -0.01    0.02
   4   5   4    0.01    0.03
   4   5   4    0.00    0.03
  -5  -5  -4    0.45    0.05
  -5  -5  -4    0.33    0.05
  -5  -5  -4    0.34    0.05
  -5  -5  -4    0.42    0.04
  -5  -5  -4    0.42    0.05
   5   5   4    0.40    0.05
   5   5   4    0.38    0.05
  -6  -5  -4    2.70    0.11
  -6  -5  -4    2.82    0.12
  -6  -5  -4    2.84    0.10
  -6  -5  -4    2.82    0.11
  -6  -5  -4    2.69    0.11
   6   5   4    2.45    0.11
   6   5   4    2.46    0.12
  -7  -5  -4    0.25    0.05
  -7  -5  -4    0.37    0.05
  -7  -5  -4    0.30    0.05
  -7  -5  -4    0.25    0.05
   7   5   4    0.31    0.06
   7   5   4    0.32    0.05
   3  -6  -4    0.30    0.04
   3  -6  -4    0.26    0.03
   3  -6  -4    0.29    0.05
   3  -6  -4    0.27    0.03
   3  -6  -4    0.29    0.03
   3  -6  -4    0.25    0.04
   3  -6  -4    0.24    0.03
  -3   6   4    0.35    0.04
  -3   6   4    0.29    0.05
  -3   6   4    0.33    0.04
   2  -6  -4    0.49    0.05
   2  -6  -4    0.49    0.04
   2  -6  -4    0.49    0.04
   2  -6  -4    0.45    0.04
   2  -6  -4    0.42    0.05
   2  -6  -4    0.42    0.04
  -2   6   4    0.52    0.05
  -2   6   4    0.51    0.05
  -2   6   4    0.52    0.06
   1  -6  -4   17.10    0.33
   1  -6  -4   17.12    0.34
   1  -6  -4   17.24    0.34
   1  -6  -4   17.13    0.34
   1  -6  -4   17.05    0.33
   1  -6  -4   16.47    0.35
  -1   6   4   16.71    0.35
  -1   6   4   16.86    0.34
   0  -6  -4    0.94    0.06
   0  -6  -4    0.93    0.06
   0  -6  -4    0.88    0.06
   0  -6  -4    0.93    0.05
   0  -6  -4    0.96    0.07
   0  -6  -4    0.90    0.07
   0   6   4    0.87    0.06
   0   6   4    0.98    0.06
  -1  -6  -4    5.34    0.15
  -1  -6  -4    5.30    0.15
  -1  -6  -4    5.57    0.15
  -1  -6  -4    5.47    0.14
  -1  -6  -4    5.40    0.14
   1   6   4    5.33    0.16
   1   6   4    5.09    0.16
   2   6   4    0.86    0.06
   2   6   4    0.86    0.07
  -3  -6  -4    0.22    0.04
  -3  -6  -4    0.19    0.03
  -3  -6  -4    0.20    0.04
  -3  -6  -4    0.14    0.03
  -3  -6  -4    0.21    0.04
   3   6   4    0.25    0.04
   3   6   4    0.16    0.04
  -4  -6  -4    3.52    0.12
  -4  -6  -4    3.52    0.11
  -4  -6  -4    3.45    0.12
  -4  -6  -4    3.54    0.13
  -4  -6  -4    3.53    0.12
   4   6   4    3.25    0.13
   4   6   4    3.23    0.13
  -6  -6  -4    0.21    0.04
  -6  -6  -4    0.25    0.05
  -6  -6  -4    0.25    0.04
  -6  -6  -4    0.25    0.04
   6   6   4    0.27    0.05
   6   6   4    0.32    0.06
   3  -7  -4    1.59    0.07
   3  -7  -4    1.55    0.07
   3  -7  -4    1.51    0.06
   3  -7  -4    1.46    0.08
   3  -7  -4    1.56    0.07
  -3   7   4    1.53    0.08
  -3   7   4    1.44    0.08
   2  -7  -4    1.89    0.08
   2  -7  -4    1.89    0.09
   2  -7  -4    1.79    0.08
   2  -7  -4    1.85    0.07
   2  -7  -4    2.01    0.08
  -2   7   4    1.89    0.09
  -2   7   4    1.87    0.09
   1  -7  -4   17.08    0.35
   1  -7  -4   17.15    0.34
   1  -7  -4   17.39    0.36
   1  -7  -4   17.18    0.34
   1  -7  -4   17.46    0.35
  -1   7   4   17.19    0.36
  -1   7   4   16.83    0.36
   0  -7  -4    2.27    0.09
   0  -7  -4    2.46    0.09
   0  -7  -4    2.35    0.09
   0  -7  -4    2.26    0.09
   0  -7  -4    2.23    0.10
   0   7   4    2.31    0.10
   0   7   4    2.36    0.10
  -1  -7  -4    0.06    0.03
  -1  -7  -4    0.06    0.03
  -1  -7  -4    0.10    0.03
  -1  -7  -4    0.11    0.03
  -1  -7  -4    0.06    0.03
   1   7   4    0.07    0.03
   1   7   4    0.06    0.03
  -2  -7  -4    0.07    0.03
  -2  -7  -4    0.03    0.03
  -2  -7  -4    0.05    0.03
  -2  -7  -4    0.04    0.03
  -2  -7  -4    0.08    0.03
   2   7   4    0.05    0.03
   2   7   4    0.04    0.03
  -3  -7  -4    4.37    0.14
  -3  -7  -4    4.53    0.15
  -3  -7  -4    4.42    0.14
  -3  -7  -4    4.56    0.15
  -3  -7  -4    4.54    0.13
   3   7   4    4.40    0.16
   3   7   4    4.40    0.15
  -4  -7  -4    0.01    0.03
  -4  -7  -4    0.02    0.03
  -4  -7  -4    0.04    0.04
  -4  -7  -4    0.01    0.03
   4   7   4   -0.04    0.02
   4   7   4   -0.01    0.03
  -5  -7  -4    0.24    0.05
  -5  -7  -4    0.24    0.05
   5   7   4    0.18    0.05
   5   7   4    0.17    0.05
  -6  -7  -4    0.16    0.05
   6   7   4    0.16    0.05
   6   7   4    0.06    0.04
   2  -8  -4    0.15    0.03
   2  -8  -4    0.17    0.04
   2  -8  -4    0.18    0.04
   2  -8  -4    0.17    0.04
   2  -8  -4    0.14    0.03
  -2   8   4    0.15    0.04
  -2   8   4    0.12    0.03
   1  -8  -4    1.46    0.09
   1  -8  -4    1.52    0.07
   1  -8  -4    1.53    0.08
   1  -8  -4    1.53    0.08
   1  -8  -4    1.60    0.08
  -1   8   4    1.47    0.09
  -1   8   4    1.66    0.09
   0  -8  -4    0.61    0.06
   0  -8  -4    0.43    0.05
   0  -8  -4    0.55    0.05
   0  -8  -4    0.61    0.06
   0  -8  -4    0.49    0.06
   0   8   4    0.54    0.06
   0   8   4    0.47    0.06
  -1  -8  -4    2.27    0.10
  -1  -8  -4    2.36    0.10
  -1  -8  -4    2.45    0.11
  -1  -8  -4    2.35    0.09
  -1  -8  -4    2.40    0.11
   1   8   4    2.09    0.11
   1   8   4    2.35    0.11
  -2  -8  -4    0.00    0.03
  -2  -8  -4   -0.01    0.04
  -2  -8  -4   -0.02    0.03
  -2  -8  -4    0.01    0.03
   2   8   4    0.01    0.03
   2   8   4    0.02    0.03
  -3  -8  -4    0.55    0.07
  -3  -8  -4    0.65    0.08
  -3  -8  -4    0.53    0.06
   3   8   4    0.59    0.07
   3   8   4    0.61    0.07
  -4  -8  -4    0.02    0.04
   4   8   4   -0.03    0.03
   4   8   4   -0.05    0.03
   2  -9  -4    0.35    0.05
   2  -9  -4    0.50    0.07
   2  -9  -4    0.42    0.05
   2  -9  -4    0.50    0.06
   2  -9  -4    0.42    0.05
  -2   9   4    0.43    0.06
  -2   9   4    0.46    0.06
   1  -9  -4    2.69    0.11
   1  -9  -4    2.70    0.11
   1  -9  -4    2.80    0.13
   1  -9  -4    2.69    0.10
   1  -9  -4    2.65    0.11
  -1   9   4    2.72    0.12
  -1   9   4    2.69    0.12
   0  -9  -4    4.35    0.15
   0  -9  -4    4.53    0.16
   0  -9  -4    4.23    0.14
   0  -9  -4    4.32    0.14
   0   9   4    4.44    0.16
   0   9   4    4.27    0.16
  -1  -9  -4   -0.04    0.04
  -1  -9  -4    0.01    0.04
   1   9   4   -0.02    0.03
   1   9   4    0.00    0.03
  -2  -9  -4    0.07    0.05
   2   9   4    0.07    0.04
   2   9   4    0.04    0.04
  -3  -9  -4    1.75    0.11
   3   9   4    1.67    0.11
   3   9   4    1.63    0.11
   1 -10  -4    0.18    0.06
   1 -10  -4    0.12    0.04
  -1  10   4    0.15    0.05
  -1  10   4    0.10    0.04
   0 -10  -4    0.84    0.09
   0  10   4    0.75    0.09
   0  10   4    0.85    0.09
   1  11  -5    0.04    0.04
   1  11  -5    0.03    0.03
  -1 -11   5    0.02    0.04
   0  11  -5    2.39    0.13
   0  11  -5    2.55    0.12
   0 -11   5    2.22    0.13
  -1  11  -5    0.05    0.04
  -1  11  -5    0.00    0.03
   1 -11   5    0.13    0.05
   1 -11   5    0.05    0.04
   4  10  -5    0.78    0.09
   4  10  -5    0.95    0.09
  -4 -10   5    1.01    0.11
   3  10  -5    0.28    0.06
   3  10  -5    0.15    0.05
  -3 -10   5    0.13    0.05
   2  10  -5    0.11    0.04
   2  10  -5    0.07    0.04
  -2 -10   5    0.07    0.04
  -2 -10   5    0.04    0.05
   1  10  -5    0.12    0.04
   1  10  -5    0.09    0.03
   1  10  -5    0.10    0.04
  -1 -10   5    0.07    0.04
  -1 -10   5    0.03    0.05
  -1 -10   5    0.11    0.04
  -1 -10   5    0.10    0.06
   0  10  -5    1.44    0.09
   0  10  -5    1.47    0.10
   0  10  -5    1.40    0.09
   0 -10   5    1.55    0.09
   0 -10   5    1.41    0.09
   0 -10   5    1.48    0.10
   0 -10   5    1.45    0.08
  -1  10  -5    0.06    0.03
  -1  10  -5    0.06    0.03
  -1  10  -5    0.03    0.03
   1 -10   5    0.08    0.03
   1 -10   5    0.01    0.03
   1 -10   5    0.08    0.04
   1 -10   5    0.02    0.03
   1 -10   5    0.04    0.03
  -2  10  -5    0.42    0.05
  -2  10  -5    0.42    0.06
  -2  10  -5    0.35    0.05
   2 -10   5    0.41    0.05
   2 -10   5    0.53    0.06
   2 -10   5    0.49    0.06
   2 -10   5    0.41    0.06
   2 -10   5    0.38    0.05
   5   9  -5    0.59    0.08
   5   9  -5    0.43    0.07
  -5  -9   5    0.45    0.07
   4   9  -5    1.00    0.09
   4   9  -5    0.96    0.09
  -4  -9   5    1.12    0.09
  -4  -9   5    0.99    0.09
   3   9  -5    0.55    0.07
   3   9  -5    0.63    0.07
   3   9  -5    0.63    0.07
  -3  -9   5    0.70    0.07
  -3  -9   5    0.61    0.06
  -3  -9   5    0.68    0.08
  -3  -9   5    0.77    0.07
   2   9  -5    2.83    0.12
   2   9  -5    2.54    0.12
   2   9  -5    2.54    0.12
  -2  -9   5    2.76    0.12
  -2  -9   5    2.74    0.11
  -2  -9   5    2.77    0.11
  -2  -9   5    2.70    0.12
  -2  -9   5    2.69    0.12
   1   9  -5    0.05    0.03
   1   9  -5    0.04    0.02
   1   9  -5    0.03    0.03
   1   9  -5    0.02    0.03
  -1  -9   5    0.02    0.03
  -1  -9   5    0.04    0.03
  -1  -9   5    0.07    0.03
  -1  -9   5    0.03    0.03
  -1  -9   5    0.03    0.03
   0   9  -5    1.36    0.07
   0   9  -5    1.23    0.08
   0   9  -5    1.10    0.08
   0   9  -5    1.20    0.08
   0  -9   5    1.19    0.07
   0  -9   5    1.16    0.08
   0  -9   5    1.17    0.07
   0  -9   5    1.24    0.08
   0  -9   5    1.17    0.07
  -1   9  -5    0.24    0.04
  -1   9  -5    0.19    0.03
  -1   9  -5    0.28    0.04
  -1   9  -5    0.21    0.03
  -1   9  -5    0.24    0.03
  -1   9  -5    0.15    0.03
   1  -9   5    0.27    0.04
   1  -9   5    0.24    0.04
   1  -9   5    0.21    0.04
   1  -9   5    0.25    0.04
   1  -9   5    0.22    0.04
  -2   9  -5    2.49    0.10
  -2   9  -5    2.88    0.11
  -2   9  -5    2.68    0.11
  -2   9  -5    2.72    0.11
   2  -9   5    2.59    0.10
   2  -9   5    2.75    0.11
   2  -9   5    2.71    0.11
   2  -9   5    2.85    0.11
   2  -9   5    2.72    0.10
   6   8  -5    0.09    0.04
   6   8  -5    0.17    0.04
  -6  -8   5    0.16    0.05
  -6  -8   5    0.12    0.04
   5   8  -5    1.30    0.09
   5   8  -5    1.35    0.09
  -5  -8   5    1.22    0.09
  -5  -8   5    1.08    0.08
  -5  -8   5    1.17    0.08
  -5  -8   5    1.17    0.08
   4   8  -5    0.13    0.04
   4   8  -5    0.16    0.04
   4   8  -5    0.11    0.04
  -4  -8   5    0.15    0.04
  -4  -8   5    0.12    0.04
  -4  -8   5    0.07    0.04
  -4  -8   5    0.13    0.04
  -4  -8   5    0.10    0.04
   3   8  -5    9.63    0.24
   3   8  -5    9.78    0.25
   3   8  -5    9.73    0.25
   3   8  -5    9.69    0.25
  -3  -8   5    9.65    0.23
  -3  -8   5   10.25    0.24
  -3  -8   5    9.85    0.24
  -3  -8   5    9.85    0.25
  -3  -8   5    9.62    0.23
   2   8  -5    0.46    0.05
   2   8  -5    0.41    0.05
   2   8  -5    0.45    0.05
   2   8  -5    0.36    0.04
   2   8  -5    0.51    0.06
   2   8  -5    0.51    0.05
  -2  -8   5    0.36    0.05
  -2  -8   5    0.48    0.05
  -2  -8   5    0.55    0.06
  -2  -8   5    0.49    0.05
  -2  -8   5    0.52    0.05
   1   8  -5    0.09    0.03
   1   8  -5    0.05    0.02
   1   8  -5    0.04    0.03
   1   8  -5    0.07    0.03
   1   8  -5    0.06    0.03
   1   8  -5    0.08    0.03
  -1  -8   5    0.04    0.03
  -1  -8   5    0.05    0.04
  -1  -8   5    0.06    0.03
  -1  -8   5    0.03    0.03
   0   8  -5    1.66    0.08
   0   8  -5    1.74    0.07
   0   8  -5    1.71    0.08
   0   8  -5    1.74    0.09
   0   8  -5    1.65    0.08
   0   8  -5    1.70    0.08
   0  -8   5    1.58    0.08
   0  -8   5    1.61    0.08
   0  -8   5    1.75    0.08
   0  -8   5    1.71    0.08
  -1   8  -5    7.31    0.19
  -1   8  -5    7.57    0.18
  -1   8  -5    7.77    0.19
  -1   8  -5    7.65    0.20
  -1   8  -5    7.72    0.18
  -1   8  -5    7.70    0.20
   1  -8   5    7.67    0.20
   1  -8   5    7.78    0.19
   1  -8   5    7.63    0.19
   1  -8   5    7.54    0.18
  -2   8  -5   -0.01    0.02
  -2   8  -5    0.01    0.02
  -2   8  -5    0.01    0.02
  -2   8  -5   -0.01    0.02
  -2   8  -5    0.01    0.02
  -2   8  -5   -0.01    0.02
   2  -8   5    0.01    0.02
   2  -8   5    0.01    0.02
   2  -8   5    0.00    0.02
   2  -8   5    0.01    0.02
  -3   8  -5    0.29    0.04
  -3   8  -5    0.29    0.04
  -3   8  -5    0.23    0.03
  -3   8  -5    0.25    0.03
  -3   8  -5    0.30    0.04
  -3   8  -5    0.25    0.04
   3  -8   5    0.28    0.04
   3  -8   5    0.40    0.05
   3  -8   5    0.34    0.04
   3  -8   5    0.28    0.04
   3  -8   5    0.27    0.04
   7   7  -5    0.95    0.09
   7   7  -5    0.97    0.08
  -7  -7   5    0.83    0.08
  -7  -7   5    0.84    0.09
  -7  -7   5    0.96    0.10
  -7  -7   5    0.84    0.08
   6   7  -5    0.44    0.06
   6   7  -5    0.53    0.06
  -6  -7   5    0.51    0.06
  -6  -7   5    0.38    0.05
  -6  -7   5    0.35    0.05
  -6  -7   5    0.53    0.06
  -6  -7   5    0.40    0.05
   5   7  -5    3.73    0.14
   5   7  -5    4.06    0.14
   5   7  -5    3.72    0.14
  -5  -7   5    3.73    0.12
  -5  -7   5    3.75    0.14
  -5  -7   5    4.10    0.14
  -5  -7   5    3.98    0.14
  -5  -7   5    3.82    0.13
   4   7  -5    0.08    0.03
   4   7  -5    0.09    0.03
   4   7  -5    0.06    0.03
   4   7  -5    0.05    0.03
   4   7  -5    0.02    0.03
   4   7  -5    0.03    0.03
  -4  -7   5    0.03    0.03
  -4  -7   5    0.04    0.03
  -4  -7   5    0.05    0.03
  -4  -7   5    0.06    0.03
  -4  -7   5    0.04    0.03
   3   7  -5    4.00    0.13
   3   7  -5    4.02    0.14
   3   7  -5    4.23    0.13
   3   7  -5    4.08    0.13
   3   7  -5    4.24    0.14
   3   7  -5    4.15    0.12
  -3  -7   5    4.50    0.14
  -3  -7   5    4.29    0.13
  -3  -7   5    4.04    0.13
  -3  -7   5    4.17    0.13
   2   7  -5    0.45    0.05
   2   7  -5    0.37    0.04
   2   7  -5    0.32    0.04
   2   7  -5    0.37    0.04
   2   7  -5    0.34    0.04
   2   7  -5    0.34    0.05
  -2  -7   5    0.37    0.04
  -2  -7   5    0.34    0.04
  -2  -7   5    0.33    0.04
  -2  -7   5    0.37    0.05
   1   7  -5    0.16    0.03
   1   7  -5    0.22    0.03
   1   7  -5    0.26    0.03
   1   7  -5    0.23    0.04
   1   7  -5    0.22    0.04
   1   7  -5    0.32    0.04
  -1  -7   5    0.28    0.04
  -1  -7   5    0.23    0.03
  -1  -7   5    0.23    0.04
  -1  -7   5    0.25    0.03
   0   7  -5    5.65    0.16
   0   7  -5    5.48    0.16
   0   7  -5    5.63    0.15
   0   7  -5    5.76    0.15
   0   7  -5    5.94    0.16
   0   7  -5    5.49    0.14
   0  -7   5    5.72    0.15
   0  -7   5    5.82    0.15
   0  -7   5    5.84    0.14
   0  -7   5    5.81    0.16
  -1   7  -5   32.47    0.59
  -1   7  -5   32.34    0.60
  -1   7  -5   31.96    0.60
  -1   7  -5   33.10    0.59
  -1   7  -5   32.61    0.58
  -1   7  -5   32.10    0.60
   1  -7   5   32.52    0.60
   1  -7   5   32.56    0.59
   1  -7   5   31.91    0.58
   1  -7   5   32.67    0.59
  -2   7  -5    4.38    0.12
  -2   7  -5    4.38    0.12
  -2   7  -5    4.47    0.13
  -2   7  -5    4.19    0.12
  -2   7  -5    4.32    0.11
  -2   7  -5    4.31    0.13
  -2   7  -5    4.42    0.13
   2  -7   5    4.50    0.13
   2  -7   5    4.36    0.12
   2  -7   5    4.51    0.13
   2  -7   5    4.35    0.12
  -3   7  -5    2.86    0.09
  -3   7  -5    2.88    0.09
  -3   7  -5    2.71    0.09
  -3   7  -5    2.67    0.08
  -3   7  -5    2.86    0.10
  -3   7  -5    2.69    0.09
   3  -7   5    2.71    0.10
   3  -7   5    2.56    0.09
   3  -7   5    2.76    0.09
   3  -7   5    2.78    0.09
   3  -7   5    2.81    0.09
   7   6  -5   -0.02    0.03
   7   6  -5   -0.05    0.02
  -7  -6   5   -0.01    0.03
  -7  -6   5   -0.02    0.03
  -7  -6   5    0.01    0.03
  -7  -6   5   -0.03    0.03
  -7  -6   5   -0.02    0.03
   6   6  -5    0.78    0.07
   6   6  -5    0.98    0.07
   6   6  -5    0.92    0.07
  -6  -6   5    0.79    0.06
  -6  -6   5    0.85    0.07
  -6  -6   5    0.87    0.08
  -6  -6   5    0.86    0.07
  -6  -6   5    0.89    0.07
   5   6  -5    0.49    0.05
   5   6  -5    0.47    0.05
   5   6  -5    0.53    0.06
   5   6  -5    0.56    0.06
  -5  -6   5    0.51    0.06
  -5  -6   5    0.43    0.05
  -5  -6   5    0.43    0.05
  -5  -6   5    0.51    0.05
  -5  -6   5    0.51    0.05
   4   6  -5    0.25    0.04
   4   6  -5    0.30    0.04
   4   6  -5    0.26    0.03
   4   6  -5    0.28    0.04
   4   6  -5    0.28    0.04
   4   6  -5    0.26    0.04
  -4  -6   5    0.19    0.04
  -4  -6   5    0.30    0.04
  -4  -6   5    0.21    0.03
  -4  -6   5    0.30    0.04
   3   6  -5    0.55    0.04
   3   6  -5    0.63    0.06
   3   6  -5    0.61    0.05
   3   6  -5    0.58    0.05
   3   6  -5    0.61    0.05
   3   6  -5    0.60    0.05
  -3  -6   5    0.58    0.06
  -3  -6   5    0.62    0.05
  -3  -6   5    0.64    0.05
  -3  -6   5    0.62    0.05
   2   6  -5    2.77    0.11
   2   6  -5    2.86    0.10
   2   6  -5    2.91    0.10
   2   6  -5    2.88    0.10
   2   6  -5    2.85    0.10
   2   6  -5    2.89    0.09
   2   6  -5    2.89    0.09
   2   6  -5    2.86    0.10
  -2  -6   5    2.90    0.09
  -2  -6   5    3.00    0.09
  -2  -6   5    2.88    0.10
  -2  -6   5    2.85    0.10
   1   6  -5    3.35    0.10
   1   6  -5    3.31    0.11
   1   6  -5    3.31    0.11
   1   6  -5    3.43    0.11
   1   6  -5    3.46    0.11
   1   6  -5    3.28    0.10
   1   6  -5    3.54    0.12
   1   6  -5    3.46    0.11
   1   6  -5    3.50    0.12
  -1  -6   5    3.34    0.10
  -1  -6   5    3.29    0.11
  -1  -6   5    3.44    0.10
  -1  -6   5    3.33    0.11
   0   6  -5   12.70    0.25
   0   6  -5   12.48    0.27
   0   6  -5   12.46    0.26
   0   6  -5   12.46    0.27
   0   6  -5   12.38    0.28
   0   6  -5   12.26    0.26
   0   6  -5   11.92    0.26
   0   6  -5   12.49    0.25
   0   6  -5   12.55    0.27
   0  -6   5   12.41    0.25
   0  -6   5   12.41    0.25
   0  -6   5   12.69    0.26
  -1   6  -5   22.81    0.45
  -1   6  -5   23.18    0.43
  -1   6  -5   22.41    0.43
  -1   6  -5   22.87    0.44
  -1   6  -5   23.26    0.42
  -1   6  -5   23.15    0.45
  -1   6  -5   22.82    0.43
  -1   6  -5   22.89    0.43
  -1   6  -5   22.99    0.44
   1  -6   5   23.15    0.42
   1  -6   5   22.93    0.43
   1  -6   5   22.92    0.43
  -2   6  -5   11.31    0.24
  -2   6  -5   10.79    0.24
  -2   6  -5   11.21    0.23
  -2   6  -5   11.37    0.24
  -2   6  -5   11.12    0.24
  -2   6  -5   11.26    0.23
  -2   6  -5   11.20    0.25
  -2   6  -5   11.12    0.24
  -2   6  -5   11.00    0.24
   2  -6   5   11.42    0.23
   2  -6   5   11.41    0.28
   2  -6   5   11.38    0.24
   2  -6   5   11.10    0.23
   2  -6   5   11.58    0.24
  -3   6  -5    4.08    0.12
  -3   6  -5    4.19    0.12
  -3   6  -5    4.23    0.12
  -3   6  -5    4.09    0.11
  -3   6  -5    4.26    0.11
  -3   6  -5    4.18    0.12
  -3   6  -5    4.21    0.12
  -3   6  -5    4.30    0.11
  -3   6  -5    4.26    0.12
   3  -6   5    4.23    0.11
   3  -6   5    4.12    0.11
   3  -6   5    4.13    0.12
   3  -6   5    4.28    0.15
   3  -6   5    4.09    0.11
   4  -6   5    5.62    0.17
   4  -6   5    5.43    0.16
   4  -6   5    5.04    0.18
   4  -6   5    5.57    0.17
   7   5  -5    0.10    0.03
   7   5  -5    0.16    0.04
  -7  -5   5    0.14    0.04
  -7  -5   5    0.11    0.04
  -7  -5   5    0.13    0.04
  -7  -5   5    0.12    0.04
   6   5  -5    0.30    0.04
   6   5  -5    0.23    0.04
   6   5  -5    0.10    0.04
   6   5  -5    0.17    0.04
  -6  -5   5    0.14    0.04
  -6  -5   5    0.09    0.03
  -6  -5   5    0.12    0.04
  -6  -5   5    0.13    0.04
  -6  -5   5    0.11    0.03
   5   5  -5    0.05    0.03
   5   5  -5    0.05    0.02
   5   5  -5    0.06    0.02
   5   5  -5    0.06    0.02
   5   5  -5    0.03    0.02
   5   5  -5    0.06    0.02
  -5  -5   5    0.07    0.02
  -5  -5   5    0.06    0.03
  -5  -5   5    0.05    0.03
  -5  -5   5    0.05    0.03
   4   5  -5    0.02    0.02
   4   5  -5    0.06    0.03
   4   5  -5    0.00    0.02
   4   5  -5   -0.01    0.02
   4   5  -5    0.00    0.02
   4   5  -5    0.11    0.03
  -4  -5   5    0.03    0.02
  -4  -5   5   -0.04    0.02
  -4  -5   5   -0.01    0.02
  -4  -5   5    0.04    0.02
   3   5  -5    1.25    0.07
   3   5  -5    1.21    0.06
   3   5  -5    1.19    0.05
   3   5  -5    1.14    0.06
   3   5  -5    1.10    0.06
   3   5  -5    1.13    0.06
   3   5  -5    1.14    0.06
   3   5  -5    1.19    0.06
  -3  -5   5    1.31    0.07
  -3  -5   5    1.17    0.06
  -3  -5   5    1.26    0.06
  -3  -5   5    1.11    0.06
   2   5  -5   10.33    0.22
   2   5  -5   10.33    0.23
   2   5  -5   10.06    0.22
   2   5  -5   10.19    0.23
   2   5  -5   10.33    0.24
   2   5  -5   10.26    0.22
   2   5  -5   10.28    0.22
   2   5  -5   10.24    0.23
   2   5  -5   10.36    0.21
  -2  -5   5   10.23    0.22
  -2  -5   5   10.10    0.21
  -2  -5   5   10.08    0.22
   1   5  -5    2.52    0.09
   1   5  -5    2.41    0.09
   1   5  -5    2.41    0.07
   1   5  -5    2.40    0.08
   1   5  -5    2.37    0.08
   1   5  -5    2.52    0.09
   1   5  -5    2.39    0.09
   1   5  -5    2.41    0.08
   1   5  -5    2.52    0.09
  -1  -5   5    2.48    0.11
  -1  -5   5    2.49    0.08
  -1  -5   5    2.41    0.08
  -1  -5   5    2.46    0.08
   0   5  -5    1.65    0.06
   0   5  -5    1.70    0.07
   0   5  -5    1.68    0.07
   0   5  -5    1.69    0.06
   0   5  -5    1.69    0.07
   0   5  -5    1.71    0.07
   0   5  -5    1.60    0.06
   0   5  -5    1.74    0.07
   0   5  -5    1.64    0.07
   0  -5   5    1.74    0.09
  -1   5  -5    8.81    0.19
  -1   5  -5    8.56    0.19
  -1   5  -5    8.69    0.18
  -1   5  -5    8.91    0.20
  -1   5  -5    8.72    0.19
  -1   5  -5    8.72    0.19
  -1   5  -5    8.66    0.20
  -1   5  -5    8.89    0.18
  -1   5  -5    8.63    0.19
   1  -5   5    8.78    0.19
   1  -5   5    8.56    0.20
   1  -5   5    8.78    0.23
  -2   5  -5   44.83    0.75
  -2   5  -5   44.13    0.76
  -2   5  -5   43.82    0.76
  -2   5  -5   42.99    0.77
  -2   5  -5   43.32    0.76
  -2   5  -5   43.44    0.76
  -2   5  -5   44.49    0.75
  -2   5  -5   43.08    0.77
  -2   5  -5   43.00    0.76
   2  -5   5   43.59    0.81
   2  -5   5   43.02    0.76
   2  -5   5   42.86    0.77
  -3   5  -5    0.49    0.04
  -3   5  -5    0.44    0.04
  -3   5  -5    0.46    0.04
  -3   5  -5    0.43    0.03
  -3   5  -5    0.43    0.04
  -3   5  -5    0.49    0.04
  -3   5  -5    0.48    0.03
  -3   5  -5    0.45    0.03
  -3   5  -5    0.42    0.04
   3  -5   5    0.48    0.05
   3  -5   5    0.45    0.04
   3  -5   5    0.38    0.04
  -4   5  -5    0.26    0.03
  -4   5  -5    0.21    0.03
  -4   5  -5    0.25    0.02
  -4   5  -5    0.22    0.03
  -4   5  -5    0.24    0.03
  -4   5  -5    0.22    0.03
  -4   5  -5    0.25    0.03
   4  -5   5    0.29    0.03
   7   4  -5    0.39    0.07
   6   4  -5    3.13    0.11
   6   4  -5    3.20    0.11
  -6  -4   5    3.18    0.10
  -6  -4   5    3.27    0.11
  -6  -4   5    3.19    0.10
  -6  -4   5    3.16    0.10
  -6  -4   5    3.22    0.11
   5   4  -5    0.01    0.02
   5   4  -5   -0.01    0.02
   5   4  -5    0.02    0.02
   5   4  -5    0.00    0.02
   5   4  -5    0.00    0.02
   5   4  -5    0.00    0.02
  -5  -4   5   -0.01    0.02
  -5  -4   5   -0.02    0.02
  -5  -4   5    0.00    0.02
  -5  -4   5   -0.02    0.02
   4   4  -5   19.43    0.38
   4   4  -5   19.47    0.37
   4   4  -5   18.93    0.38
   4   4  -5   19.24    0.39
   4   4  -5   19.45    0.36
   4   4  -5   19.24    0.37
   4   4  -5   18.69    0.37
   4   4  -5   19.27    0.38
   4   4  -5   19.49    0.37
  -4  -4   5   18.82    0.36
  -4  -4   5   19.15    0.37
  -4  -4   5   19.17    0.36
  -4  -4   5   19.83    0.46
  -4  -4   5   19.41    0.38
   3   4  -5    1.12    0.05
   3   4  -5    1.18    0.05
   3   4  -5    1.11    0.06
   3   4  -5    1.17    0.06
   3   4  -5    1.10    0.05
   3   4  -5    1.13    0.06
   3   4  -5    1.06    0.06
   3   4  -5    1.09    0.06
   3   4  -5    1.19    0.06
  -3  -4   5    1.10    0.05
  -3  -4   5    1.05    0.05
  -3  -4   5    1.18    0.06
  -3  -4   5    1.08    0.08
   2   4  -5    1.18    0.05
   2   4  -5    1.23    0.06
   2   4  -5    1.19    0.06
   2   4  -5    1.20    0.05
   2   4  -5    1.20    0.06
   2   4  -5    1.16    0.06
   2   4  -5    1.16    0.06
   2   4  -5    1.23    0.05
   2   4  -5    1.28    0.06
  -2  -4   5    1.19    0.08
  -2  -4   5    1.22    0.06
   1   4  -5    7.06    0.16
   1   4  -5    7.13    0.16
   1   4  -5    7.07    0.17
   1   4  -5    7.13    0.17
   1   4  -5    6.91    0.16
   1   4  -5    6.95    0.15
   1   4  -5    6.88    0.15
   1   4  -5    7.06    0.16
   1   4  -5    6.83    0.16
  -1  -4   5    7.04    0.17
  -1  -4   5    7.12    0.19
   0   4  -5    4.50    0.11
   0   4  -5    4.61    0.12
   0   4  -5    4.40    0.12
   0   4  -5    4.55    0.12
   0   4  -5    4.54    0.11
   0   4  -5    4.51    0.11
   0   4  -5    4.54    0.12
   0   4  -5    4.36    0.11
   0   4  -5    4.40    0.11
   0  -4   5    4.45    0.12
   0  -4   5    4.41    0.14
   0  -4   5    4.33    0.12
  -1   4  -5    0.18    0.02
  -1   4  -5    0.21    0.03
  -1   4  -5    0.21    0.02
  -1   4  -5    0.22    0.02
  -1   4  -5    0.24    0.03
  -1   4  -5    0.16    0.02
  -1   4  -5    0.20    0.03
  -1   4  -5    0.20    0.03
  -1   4  -5    0.18    0.02
   1  -4   5    0.21    0.03
   1  -4   5    0.19    0.03
   1  -4   5    0.21    0.03
  -2   4  -5    1.59    0.06
  -2   4  -5    1.52    0.06
  -2   4  -5    1.45    0.05
  -2   4  -5    1.46    0.06
  -2   4  -5    1.51    0.06
  -2   4  -5    1.47    0.05
  -2   4  -5    1.52    0.06
  -2   4  -5    1.46    0.06
  -2   4  -5    1.53    0.06
  -2   4  -5    1.51    0.06
   2  -4   5    1.51    0.06
   2  -4   5    1.56    0.06
  -3   4  -5    3.76    0.10
  -3   4  -5    3.63    0.10
  -3   4  -5    3.81    0.10
  -3   4  -5    3.68    0.09
  -3   4  -5    3.78    0.10
  -3   4  -5    3.74    0.11
  -3   4  -5    3.80    0.10
  -3   4  -5    3.72    0.09
   3  -4   5    3.69    0.10
   3  -4   5    3.66    0.10
  -4   4  -5    3.79    0.11
  -4   4  -5    3.85    0.09
  -4   4  -5    3.79    0.09
  -4   4  -5    3.82    0.10
  -4   4  -5    3.81    0.10
  -4   4  -5    3.97    0.10
  -4   4  -5    3.72    0.10
  -4   4  -5    3.82    0.11
   4  -4   5    3.87    0.10
   4  -4   5    3.77    0.10
   6   3  -5    0.06    0.02
   6   3  -5    0.04    0.02
   6   3  -5    0.03    0.02
   6   3  -5    0.05    0.02
   6   3  -5    0.03    0.02
   6   3  -5    0.06    0.02
  -6  -3   5    0.06    0.03
  -6  -3   5    0.07    0.02
  -6  -3   5    0.06    0.02
  -6  -3   5    0.07    0.02
  -6  -3   5    0.08    0.02
   5   3  -5    5.64    0.14
   5   3  -5    5.59    0.14
  -5  -3   5    5.34    0.14
  -5  -3   5    5.53    0.13
  -5  -3   5    5.62    0.14
  -5  -3   5    5.60    0.17
  -5  -3   5    5.35    0.13
   4   3  -5    3.74    0.10
   4   3  -5    3.73    0.11
   4   3  -5    3.73    0.11
   4   3  -5    3.81    0.10
   4   3  -5    3.78    0.11
   4   3  -5    3.74    0.10
   4   3  -5    3.72    0.11
   4   3  -5    3.59    0.10
   4   3  -5    3.66    0.11
  -4  -3   5    3.65    0.10
  -4  -3   5    3.64    0.10
  -4  -3   5    3.67    0.11
  -4  -3   5    3.56    0.13
  -4  -3   5    3.70    0.10
   3   3  -5    5.25    0.13
   3   3  -5    5.19    0.14
   3   3  -5    5.19    0.13
   3   3  -5    5.00    0.13
   3   3  -5    5.17    0.12
   3   3  -5    5.30    0.12
   3   3  -5    5.06    0.13
   3   3  -5    5.31    0.13
   3   3  -5    5.16    0.14
  -3  -3   5    5.10    0.13
  -3  -3   5    5.08    0.16
   2   3  -5    1.68    0.06
   2   3  -5    1.76    0.06
   2   3  -5    1.67    0.06
   2   3  -5    1.75    0.07
   2   3  -5    1.73    0.06
   2   3  -5    1.72    0.07
   2   3  -5    1.80    0.06
   2   3  -5    1.78    0.07
   2   3  -5    1.77    0.06
  -2  -3   5    1.71    0.08
  -2  -3   5    1.63    0.06
  -2  -3   5    1.74    0.07
   1   3  -5   12.46    0.25
   1   3  -5   12.14    0.23
   1   3  -5   12.06    0.24
   1   3  -5   12.30    0.24
   1   3  -5   12.20    0.25
   1   3  -5   12.43    0.24
   1   3  -5   12.03    0.24
   1   3  -5   12.32    0.24
   1   3  -5   12.47    0.25
   1   3  -5   12.57    0.24
  -1  -3   5   12.16    0.25
  -1  -3   5   12.23    0.25
   0   3  -5    1.13    0.04
   0   3  -5    1.18    0.05
   0   3  -5    1.07    0.05
   0   3  -5    1.09    0.05
   0   3  -5    1.13    0.05
   0   3  -5    1.15    0.05
   0   3  -5    1.06    0.04
   0   3  -5    1.09    0.05
   0  -3   5    1.13    0.05
   0  -3   5    1.14    0.05
  -1   3  -5    4.50    0.11
  -1   3  -5    4.43    0.10
  -1   3  -5    4.46    0.10
  -1   3  -5    4.43    0.11
  -1   3  -5    4.27    0.10
  -1   3  -5    4.32    0.11
  -1   3  -5    4.41    0.11
  -1   3  -5    4.57    0.11
   1  -3   5    4.39    0.11
   1  -3   5    4.37    0.11
  -2   3  -5    3.01    0.08
  -2   3  -5    3.00    0.08
  -2   3  -5    3.01    0.08
  -2   3  -5    2.97    0.08
  -2   3  -5    3.01    0.08
  -2   3  -5    2.93    0.08
  -2   3  -5    2.88    0.09
  -2   3  -5    3.04    0.08
   2  -3   5    2.99    0.09
   2  -3   5    2.96    0.08
  -3   3  -5    7.30    0.15
  -3   3  -5    7.15    0.16
  -3   3  -5    7.30    0.16
  -3   3  -5    7.04    0.15
  -3   3  -5    7.09    0.15
  -3   3  -5    7.28    0.15
   3  -3   5    7.10    0.16
   3  -3   5    7.16    0.16
  -4   3  -5    0.02    0.01
  -4   3  -5    0.04    0.01
  -4   3  -5    0.00    0.01
  -4   3  -5    0.01    0.01
  -4   3  -5    0.01    0.01
  -4   3  -5    0.03    0.01
   4  -3   5    0.04    0.02
   4  -3   5    0.03    0.01
   4  -3   5    0.02    0.01
   6   2  -5    0.09    0.02
   6   2  -5    0.12    0.02
   6   2  -5    0.12    0.02
   6   2  -5    0.09    0.02
   6   2  -5    0.11    0.02
   6   2  -5    0.12    0.02
  -6  -2   5    0.12    0.02
  -6  -2   5    0.09    0.03
  -6  -2   5    0.14    0.03
  -6  -2   5    0.08    0.02
  -6  -2   5    0.11    0.02
   5   2  -5    4.32    0.11
   5   2  -5    4.08    0.10
   5   2  -5    4.12    0.11
   5   2  -5    4.15    0.11
   5   2  -5    4.18    0.12
   5   2  -5    4.12    0.12
   5   2  -5    4.09    0.11
   5   2  -5    4.29    0.11
   5   2  -5    4.18    0.11
  -5  -2   5    4.07    0.14
  -5  -2   5    4.21    0.11
  -5  -2   5    4.07    0.10
  -5  -2   5    4.18    0.11
  -5  -2   5    4.18    0.12
  -5  -2   5    4.02    0.10
   4   2  -5    0.01    0.01
   4   2  -5    0.01    0.01
   4   2  -5    0.00    0.01
   4   2  -5    0.05    0.02
   4   2  -5    0.01    0.01
   4   2  -5    0.04    0.02
   4   2  -5    0.00    0.01
   4   2  -5    0.01    0.01
   4   2  -5    0.02    0.01
  -4  -2   5    0.08    0.02
  -4  -2   5    0.06    0.02
  -4  -2   5    0.06    0.02
   3   2  -5   38.71    0.66
   3   2  -5   37.92    0.66
   3   2  -5   38.06    0.67
   3   2  -5   38.38    0.66
   3   2  -5   38.68    0.68
   3   2  -5   37.46    0.66
   3   2  -5   37.33    0.66
   3   2  -5   38.09    0.65
   3   2  -5   38.04    0.67
  -3  -2   5   36.88    0.70
  -3  -2   5   38.30    0.67
  -3  -2   5   38.69    0.67
   2   2  -5    0.38    0.03
   2   2  -5    0.39    0.03
   2   2  -5    0.37    0.03
   2   2  -5    0.37    0.03
   2   2  -5    0.37    0.03
   2   2  -5    0.34    0.03
   2   2  -5    0.36    0.03
   2   2  -5    0.34    0.03
  -2  -2   5    0.40    0.03
  -2  -2   5    0.35    0.03
   1   2  -5   35.01    0.61
   1   2  -5   35.68    0.61
   1   2  -5   35.85    0.62
   1   2  -5   35.45    0.60
   1   2  -5   34.99    0.61
   1   2  -5   34.25    0.61
   1   2  -5   34.29    0.61
   1   2  -5   35.40    0.61
  -1  -2   5   35.17    0.62
  -1  -2   5   35.19    0.62
   0   2  -5   70.11    1.17
   0   2  -5   70.68    1.17
   0   2  -5   68.57    1.17
   0   2  -5   71.78    1.19
   0   2  -5   70.44    1.18
   0   2  -5   68.84    1.18
   0   2  -5   69.36    1.18
   0   2  -5   71.14    1.18
   0  -2   5   68.96    1.18
   0  -2   5   69.01    1.18
  -1   2  -5   25.83    0.45
  -1   2  -5   26.01    0.46
  -1   2  -5   26.04    0.46
  -1   2  -5   25.46    0.46
  -1   2  -5   26.11    0.47
  -1   2  -5   26.12    0.45
   1  -2   5   25.44    0.46
   1  -2   5   25.65    0.47
  -2   2  -5   26.99    0.48
  -2   2  -5   27.05    0.49
  -2   2  -5   27.39    0.47
  -2   2  -5   27.55    0.48
  -2   2  -5   27.41    0.48
  -2   2  -5   27.10    0.48
   2  -2   5   27.04    0.49
   2  -2   5   27.02    0.48
  -3   2  -5   10.34    0.20
  -3   2  -5   10.58    0.20
  -3   2  -5   10.34    0.20
  -3   2  -5   10.45    0.20
  -3   2  -5   10.51    0.21
  -3   2  -5   10.38    0.21
   3  -2   5   10.32    0.24
   3  -2   5   10.45    0.21
   3  -2   5   10.32    0.21
  -4   2  -5    3.18    0.08
  -4   2  -5    3.18    0.09
  -4   2  -5    3.13    0.09
  -4   2  -5    3.15    0.08
  -4   2  -5    3.21    0.09
  -4   2  -5    3.40    0.09
   4  -2   5    4.01    0.12
  -5   2  -5    0.85    0.04
  -5   2  -5    0.86    0.05
  -5   2  -5    0.78    0.04
  -5   2  -5    0.79    0.04
  -5   2  -5    0.92    0.04
  -5   2  -5    0.79    0.04
   5  -2   5    0.79    0.07
   5   1  -5    2.13    0.07
   5   1  -5    2.27    0.08
   5   1  -5    2.22    0.07
   5   1  -5    2.20    0.07
   5   1  -5    2.24    0.07
   5   1  -5    2.25    0.07
   5   1  -5    2.14    0.07
   5   1  -5    2.28    0.08
   5   1  -5    2.16    0.06
  -5  -1   5    2.31    0.07
  -5  -1   5    2.20    0.09
  -5  -1   5    2.24    0.08
   4   1  -5    9.34    0.19
   4   1  -5    9.52    0.19
   4   1  -5    9.51    0.19
   4   1  -5    9.45    0.18
   4   1  -5    9.68    0.20
   4   1  -5    9.27    0.19
   4   1  -5    9.39    0.19
   4   1  -5    9.64    0.19
   4   1  -5    9.59    0.20
  -4  -1   5    9.43    0.20
  -4  -1   5    9.39    0.19
  -4  -1   5    9.19    0.22
   3   1  -5    1.62    0.06
   3   1  -5    1.64    0.05
   3   1  -5    1.60    0.05
   3   1  -5    1.59    0.05
   3   1  -5    1.63    0.06
   3   1  -5    1.76    0.06
   3   1  -5    1.62    0.06
   3   1  -5    1.62    0.06
  -3  -1   5    1.73    0.06
  -3  -1   5    1.70    0.06
   2   1  -5    3.66    0.09
   2   1  -5    3.64    0.09
   2   1  -5    3.71    0.10
   2   1  -5    3.69    0.09
   2   1  -5    3.64    0.09
   2   1  -5    3.60    0.09
   2   1  -5    3.64    0.09
   2   1  -5    3.74    0.09
  -2  -1   5    3.61    0.10
  -2  -1   5    3.61    0.09
   1   1  -5    2.63    0.07
   1   1  -5    2.75    0.08
   1   1  -5    2.80    0.07
   1   1  -5    2.76    0.07
   1   1  -5    2.73    0.08
   1   1  -5    2.62    0.07
  -1  -1   5    2.67    0.08
  -1  -1   5    2.73    0.08
   0   1  -5   29.44    0.51
   0   1  -5   29.14    0.51
   0   1  -5   29.61    0.51
   0   1  -5   29.24    0.50
   0   1  -5   29.97    0.52
   0   1  -5   29.42    0.51
   0  -1   5   29.50    0.52
   0  -1   5   28.55    0.52
  -1   1  -5   10.81    0.20
  -1   1  -5   10.56    0.21
  -1   1  -5   10.69    0.20
  -1   1  -5   10.63    0.21
  -1   1  -5   10.64    0.21
  -1   1  -5   10.67    0.21
   1  -1   5   10.66    0.24
   1  -1   5   10.78    0.22
   1  -1   5   10.44    0.21
  -2   1  -5    0.33    0.03
  -2   1  -5    0.29    0.03
  -2   1  -5    0.31    0.03
  -2   1  -5    0.33    0.03
  -2   1  -5    0.30    0.02
  -2   1  -5    0.30    0.03
   2  -1   5    0.31    0.04
   2  -1   5    0.29    0.03
   2  -1   5    0.31    0.03
  -3   1  -5    2.17    0.07
  -3   1  -5    2.22    0.07
  -3   1  -5    2.17    0.06
  -3   1  -5    2.27    0.07
  -3   1  -5    2.18    0.06
  -3   1  -5    2.26    0.07
   3  -1   5    2.17    0.09
   3  -1   5    2.23    0.07
   3  -1   5    2.21    0.07
  -4   1  -5   10.59    0.21
  -4   1  -5   10.62    0.22
  -4   1  -5   10.78    0.22
  -4   1  -5   10.95    0.21
  -4   1  -5   10.72    0.21
  -4   1  -5   10.62    0.20
   4  -1   5   10.68    0.22
   4  -1   5   10.41    0.25
  -5   1  -5    0.05    0.02
  -5   1  -5    0.02    0.01
  -5   1  -5    0.05    0.02
  -5   1  -5    0.03    0.02
  -5   1  -5    0.03    0.02
  -5   1  -5    0.03    0.02
   5  -1   5    0.02    0.02
   5  -1   5    0.06    0.02
   5   0  -5    0.07    0.02
   5   0  -5    0.06    0.02
   5   0  -5    0.07    0.02
   5   0  -5    0.07    0.02
   5   0  -5    0.07    0.02
   5   0  -5    0.08    0.02
   5   0  -5    0.09    0.02
  -5   0   5    0.11    0.02
  -5   0   5    0.09    0.03
  -5   0   5    0.06    0.02
   4   0  -5    1.27    0.06
   4   0  -5    1.23    0.05
   4   0  -5    1.21    0.04
   4   0  -5    1.25    0.05
   4   0  -5    1.26    0.05
   4   0  -5    1.27    0.05
  -4   0   5    1.24    0.05
  -4   0   5    1.19    0.05
   3   0  -5    0.01    0.01
   3   0  -5    0.01    0.01
   3   0  -5    0.00    0.01
   3   0  -5    0.01    0.01
   3   0  -5    0.01    0.01
   3   0  -5   -0.01    0.01
  -3   0   5    0.00    0.01
  -3   0   5    0.01    0.01
   2   0  -5   27.26    0.47
   2   0  -5   28.14    0.49
   2   0  -5   26.87    0.48
   2   0  -5   26.86    0.47
   2   0  -5   27.18    0.48
   2   0  -5   27.29    0.48
  -2   0   5   27.14    0.49
  -2   0   5   27.18    0.48
   1   0  -5    0.07    0.01
   1   0  -5    0.10    0.02
   1   0  -5    0.08    0.01
   1   0  -5    0.09    0.01
   1   0  -5    0.11    0.02
   1   0  -5    0.08    0.02
  -1   0   5    0.07    0.02
  -1   0   5    0.09    0.02
  -1   0   5    0.09    0.02
   0   0  -5   59.93    1.01
   0   0  -5   59.97    1.02
   0   0  -5   58.40    1.00
   0   0  -5   59.43    1.00
   0   0  -5   59.04    1.01
   0   0  -5   60.17    1.01
   0   0   5   59.91    1.04
   0   0   5   60.38    1.02
   0   0   5   60.38    1.01
  -1   0  -5    0.12    0.02
  -1   0  -5    0.12    0.02
  -1   0  -5    0.12    0.02
  -1   0  -5    0.10    0.02
  -1   0  -5    0.11    0.02
  -1   0  -5    0.12    0.02
   1   0   5    0.13    0.02
   1   0   5    0.12    0.03
   1   0   5    0.11    0.02
  -2   0  -5    8.99    0.18
  -2   0  -5    8.97    0.18
  -2   0  -5    8.97    0.19
  -2   0  -5    8.99    0.19
  -2   0  -5    8.99    0.18
  -2   0  -5    9.18    0.18
   2   0   5    9.07    0.19
   2   0   5    9.09    0.19
   2   0   5    9.03    0.21
  -3   0  -5    0.05    0.01
  -3   0  -5    0.03    0.01
  -3   0  -5    0.02    0.01
  -3   0  -5    0.02    0.01
  -3   0  -5    0.03    0.02
  -3   0  -5    0.05    0.02
   3   0   5    0.05    0.02
   3   0   5    0.03    0.02
  -4   0  -5    4.62    0.12
  -4   0  -5    4.69    0.11
  -4   0  -5    4.58    0.12
  -4   0  -5    4.77    0.12
  -4   0  -5    4.61    0.11
  -4   0  -5    4.63    0.11
   4   0   5    4.61    0.15
   4   0   5    4.60    0.12
  -5   0  -5    0.01    0.02
  -5   0  -5    0.01    0.02
  -5   0  -5    0.03    0.02
  -5   0  -5    0.00    0.02
  -5   0  -5   -0.01    0.01
  -5   0  -5    0.00    0.02
   5   0   5    0.01    0.02
   5   0   5    0.00    0.02
  -6   0  -5   15.32    0.34
   5  -1  -5    0.23    0.02
   5  -1  -5    0.25    0.02
   5  -1  -5    0.23    0.02
   5  -1  -5    0.23    0.02
  -5   1   5    0.28    0.03
  -5   1   5    0.30    0.03
   4  -1  -5    6.92    0.15
   4  -1  -5    6.79    0.14
   4  -1  -5    6.80    0.14
   4  -1  -5    6.69    0.14
   4  -1  -5    6.80    0.14
   4  -1  -5    6.77    0.13
  -4   1   5    6.66    0.14
  -4   1   5    6.70    0.15
  -4   1   5    6.50    0.16
   3  -1  -5    7.22    0.14
   3  -1  -5    7.11    0.14
   3  -1  -5    7.20    0.15
   3  -1  -5    7.04    0.15
   3  -1  -5    7.12    0.15
   3  -1  -5    7.18    0.16
  -3   1   5    7.25    0.16
  -3   1   5    7.17    0.15
  -3   1   5    7.24    0.17
   2  -1  -5    0.03    0.01
   2  -1  -5    0.08    0.02
   2  -1  -5    0.07    0.01
   2  -1  -5    0.05    0.01
   2  -1  -5    0.07    0.02
   2  -1  -5    0.09    0.02
  -2   1   5    0.07    0.02
  -2   1   5    0.08    0.02
  -2   1   5    0.07    0.02
   1  -1  -5    0.97    0.04
   1  -1  -5    1.01    0.05
   1  -1  -5    1.00    0.04
   1  -1  -5    0.92    0.04
   1  -1  -5    0.97    0.04
   1  -1  -5    0.93    0.04
  -1   1   5    0.91    0.05
  -1   1   5    0.96    0.04
  -1   1   5    0.92    0.04
   0  -1  -5    3.67    0.10
   0  -1  -5    3.56    0.09
   0  -1  -5    3.52    0.08
   0  -1  -5    3.64    0.12
   0  -1  -5    3.63    0.09
   0  -1  -5    3.60    0.09
   0  -1  -5    3.57    0.09
   0   1   5    3.47    0.11
   0   1   5    3.54    0.10
   0   1   5    3.58    0.09
  -1  -1  -5   24.51    0.44
  -1  -1  -5   23.89    0.43
  -1  -1  -5   23.85    0.42
  -1  -1  -5   24.08    0.43
  -1  -1  -5   24.68    0.47
  -1  -1  -5   24.22    0.43
  -1  -1  -5   24.32    0.44
   1   1   5   24.01    0.44
   1   1   5   23.91    0.47
   1   1   5   23.86    0.44
  -2  -1  -5   12.80    0.25
  -2  -1  -5   12.98    0.29
  -2  -1  -5   12.67    0.25
  -2  -1  -5   13.20    0.26
  -2  -1  -5   12.66    0.25
  -2  -1  -5   12.82    0.25
  -2  -1  -5   13.03    0.24
   2   1   5   13.09    0.29
   2   1   5   12.81    0.26
  -3  -1  -5    1.60    0.06
  -3  -1  -5    1.66    0.07
  -3  -1  -5    1.54    0.06
  -3  -1  -5    1.57    0.08
  -3  -1  -5    1.70    0.06
  -3  -1  -5    1.59    0.06
  -3  -1  -5    1.63    0.06
   3   1   5    1.70    0.07
   3   1   5    1.53    0.08
  -4  -1  -5    0.55    0.04
  -4  -1  -5    0.52    0.04
  -4  -1  -5    0.54    0.04
  -4  -1  -5    0.47    0.04
  -4  -1  -5    0.51    0.04
  -4  -1  -5    0.55    0.05
  -4  -1  -5    0.53    0.04
   4   1   5    0.54    0.06
  -5  -1  -5    7.29    0.16
  -5  -1  -5    7.29    0.18
  -5  -1  -5    7.47    0.17
  -5  -1  -5    7.29    0.21
  -5  -1  -5    7.43    0.17
  -5  -1  -5    7.39    0.17
  -5  -1  -5    7.43    0.16
   5   1   5    7.56    0.21
  -6  -1  -5    5.25    0.13
  -6  -1  -5    5.26    0.13
  -6  -1  -5    5.23    0.13
  -6  -1  -5    5.15    0.14
  -6  -1  -5    5.12    0.13
   4  -2  -5    0.62    0.03
   4  -2  -5    0.60    0.04
   4  -2  -5    0.70    0.04
   4  -2  -5    0.64    0.03
   4  -2  -5    0.60    0.03
   4  -2  -5    0.66    0.03
  -4   2   5    0.60    0.04
  -4   2   5    0.63    0.05
   3  -2  -5    0.03    0.01
   3  -2  -5    0.05    0.02
   3  -2  -5    0.07    0.01
   3  -2  -5    0.05    0.02
   3  -2  -5    0.03    0.02
   3  -2  -5    0.06    0.02
  -3   2   5    0.06    0.02
  -3   2   5    0.06    0.02
  -3   2   5    0.06    0.02
   2  -2  -5    1.12    0.05
   2  -2  -5    1.12    0.04
   2  -2  -5    1.07    0.04
   2  -2  -5    1.09    0.04
   2  -2  -5    1.12    0.05
   2  -2  -5    1.09    0.04
  -2   2   5    1.07    0.05
  -2   2   5    1.12    0.05
  -2   2   5    1.06    0.06
   1  -2  -5   14.08    0.27
   1  -2  -5   14.50    0.27
   1  -2  -5   14.71    0.28
   1  -2  -5   14.57    0.31
   1  -2  -5   13.95    0.26
   1  -2  -5   14.30    0.27
   1  -2  -5   14.39    0.27
  -1   2   5   14.42    0.31
  -1   2   5   14.45    0.28
   0  -2  -5    0.01    0.02
   0  -2  -5    0.00    0.01
   0  -2  -5   -0.01    0.02
   0  -2  -5    0.01    0.01
   0  -2  -5   -0.02    0.01
   0  -2  -5    0.01    0.01
   0  -2  -5    0.01    0.02
   0   2   5   -0.02    0.01
   0   2   5    0.01    0.02
  -1  -2  -5    8.38    0.19
  -1  -2  -5    8.24    0.18
  -1  -2  -5    8.12    0.17
  -1  -2  -5    8.17    0.17
  -1  -2  -5    8.39    0.18
  -1  -2  -5    8.42    0.21
  -1  -2  -5    8.26    0.18
   1   2   5    8.08    0.19
   1   2   5    8.28    0.21
  -2  -2  -5    0.50    0.04
  -2  -2  -5    0.53    0.05
  -2  -2  -5    0.48    0.04
  -2  -2  -5    0.49    0.03
  -2  -2  -5    0.60    0.05
  -2  -2  -5    0.53    0.04
  -2  -2  -5    0.46    0.03
   2   2   5    0.46    0.04
   2   2   5    0.45    0.05
  -3  -2  -5    2.62    0.09
  -3  -2  -5    2.80    0.11
  -3  -2  -5    2.71    0.09
  -3  -2  -5    2.75    0.08
  -3  -2  -5    2.84    0.10
  -3  -2  -5    2.78    0.09
  -3  -2  -5    2.82    0.08
   3   2   5    2.83    0.12
  -4  -2  -5    1.29    0.07
  -4  -2  -5    1.37    0.06
  -4  -2  -5    1.34    0.06
  -4  -2  -5    1.44    0.06
  -4  -2  -5    1.22    0.06
  -4  -2  -5    1.44    0.06
   4   2   5    1.34    0.09
  -5  -2  -5    9.28    0.21
  -5  -2  -5    9.37    0.20
  -5  -2  -5    9.06    0.22
  -5  -2  -5    9.69    0.21
  -5  -2  -5    9.41    0.20
  -5  -2  -5    9.35    0.21
  -6  -2  -5    0.43    0.04
  -6  -2  -5    0.43    0.04
  -6  -2  -5    0.44    0.04
  -6  -2  -5    0.43    0.05
  -6  -2  -5    0.37    0.04
   4  -3  -5    1.35    0.05
   4  -3  -5    1.37    0.05
   4  -3  -5    1.35    0.05
   4  -3  -5    1.30    0.06
   4  -3  -5    1.36    0.05
   4  -3  -5    1.32    0.05
  -4   3   5    1.30    0.07
  -4   3   5    1.36    0.06
   3  -3  -5    0.37    0.03
   3  -3  -5    0.37    0.03
   3  -3  -5    0.32    0.03
   3  -3  -5    0.35    0.03
   3  -3  -5    0.34    0.03
   3  -3  -5    0.31    0.03
  -3   3   5    0.34    0.03
  -3   3   5    0.32    0.04
   2  -3  -5    6.01    0.13
   2  -3  -5    6.12    0.17
   2  -3  -5    6.02    0.13
   2  -3  -5    5.94    0.13
   2  -3  -5    6.03    0.14
   2  -3  -5    6.05    0.14
   2  -3  -5    6.04    0.14
  -2   3   5    6.01    0.15
  -2   3   5    5.95    0.17
   1  -3  -5   52.39    0.94
   1  -3  -5   51.95    0.89
   1  -3  -5   53.08    0.91
   1  -3  -5   52.19    0.89
   1  -3  -5   51.55    0.89
   1  -3  -5   52.37    0.90
   1  -3  -5   51.96    0.89
  -1   3   5   52.45    0.94
  -1   3   5   51.84    0.91
   0  -3  -5   13.07    0.30
   0  -3  -5   13.16    0.26
   0  -3  -5   13.27    0.26
   0  -3  -5   13.36    0.25
   0  -3  -5   13.41    0.26
   0  -3  -5   12.95    0.26
   0  -3  -5   13.30    0.27
   0   3   5   13.25    0.27
   0   3   5   13.24    0.30
   1   3   5    3.22    0.12
  -2  -3  -5    8.41    0.20
  -2  -3  -5    8.26    0.18
  -2  -3  -5    8.55    0.19
  -2  -3  -5    8.10    0.23
  -2  -3  -5    8.24    0.18
  -2  -3  -5    8.61    0.19
  -2  -3  -5    8.18    0.18
   2   3   5    8.07    0.23
  -3  -3  -5   18.53    0.38
  -3  -3  -5   18.90    0.36
  -3  -3  -5   19.00    0.37
  -3  -3  -5   18.97    0.36
  -3  -3  -5   18.44    0.36
  -3  -3  -5   19.00    0.35
   3   3   5   19.29    0.42
  -4  -3  -5    0.16    0.03
  -5  -3  -5    1.61    0.07
  -5  -3  -5    1.79    0.08
  -5  -3  -5    1.71    0.07
  -5  -3  -5    1.75    0.07
  -5  -3  -5    1.62    0.07
  -6  -3  -5    2.83    0.11
  -6  -3  -5    2.66    0.09
  -6  -3  -5    2.85    0.10
  -6  -3  -5    2.83    0.10
  -6  -3  -5    2.81    0.10
   6   3   5    2.84    0.11
   6   3   5    2.69    0.11
   7   3   5    1.91    0.10
   7   3   5    2.10    0.11
   4  -4  -5    4.52    0.12
   4  -4  -5    4.64    0.11
   4  -4  -5    4.72    0.11
   4  -4  -5    4.64    0.11
   4  -4  -5    4.73    0.11
   4  -4  -5    4.63    0.10
   3  -4  -5    6.32    0.14
   3  -4  -5    5.99    0.17
   3  -4  -5    5.96    0.15
   3  -4  -5    6.11    0.13
   3  -4  -5    6.26    0.14
   3  -4  -5    6.13    0.14
   3  -4  -5    5.95    0.14
  -3   4   5    5.98    0.17
  -3   4   5    6.06    0.15
   2  -4  -5    0.09    0.02
   2  -4  -5    0.09    0.02
   2  -4  -5    0.07    0.02
   2  -4  -5    0.08    0.02
   2  -4  -5    0.08    0.02
   2  -4  -5    0.05    0.03
   2  -4  -5    0.07    0.02
  -2   4   5    0.07    0.03
  -2   4   5    0.03    0.02
   1  -4  -5    0.57    0.04
   1  -4  -5    0.60    0.04
   1  -4  -5    0.59    0.04
   1  -4  -5    0.55    0.04
   1  -4  -5    0.56    0.04
   1  -4  -5    0.57    0.05
   1  -4  -5    0.57    0.06
  -1   4   5    0.55    0.06
   0  -4  -5    6.70    0.16
   0  -4  -5    6.65    0.17
   0  -4  -5    6.65    0.16
   0  -4  -5    6.64    0.16
   0  -4  -5    6.81    0.20
   0  -4  -5    6.56    0.15
   0  -4  -5    6.67    0.15
   0   4   5    6.74    0.20
  -1  -4  -5    2.93    0.10
  -1  -4  -5    2.98    0.10
  -1  -4  -5    2.92    0.09
  -1  -4  -5    2.87    0.09
  -1  -4  -5    2.98    0.09
  -1  -4  -5    2.92    0.09
   1   4   5    2.91    0.13
  -2  -4  -5    3.71    0.12
  -2  -4  -5    3.72    0.12
  -2  -4  -5    3.69    0.11
  -2  -4  -5    3.54    0.11
  -2  -4  -5    3.58    0.11
  -2  -4  -5    3.62    0.10
  -3  -4  -5    2.78    0.09
  -3  -4  -5    2.86    0.10
  -3  -4  -5    2.97    0.10
  -3  -4  -5    2.78    0.10
  -3  -4  -5    2.82    0.10
  -4  -4  -5    4.48    0.13
  -4  -4  -5    4.69    0.13
  -4  -4  -5    4.59    0.13
  -4  -4  -5    4.64    0.13
  -4  -4  -5    4.52    0.14
  -5  -4  -5    4.72    0.14
  -5  -4  -5    4.80    0.14
  -5  -4  -5    4.77    0.13
  -5  -4  -5    4.91    0.14
  -5  -4  -5    4.60    0.15
   5   4   5    4.70    0.15
   5   4   5    4.76    0.15
  -6  -4  -5    2.58    0.10
  -6  -4  -5    2.46    0.10
  -6  -4  -5    2.48    0.10
  -6  -4  -5    2.43    0.10
  -6  -4  -5    2.56    0.11
   6   4   5    2.71    0.11
   6   4   5    2.72    0.11
  -7  -4  -5    0.23    0.04
   7   4   5    0.34    0.05
   7   4   5    0.27    0.05
   3  -5  -5    7.39    0.16
   3  -5  -5    7.49    0.17
   3  -5  -5    7.36    0.16
   3  -5  -5    7.22    0.16
   3  -5  -5    7.29    0.20
   3  -5  -5    7.37    0.18
   3  -5  -5    7.33    0.16
  -3   5   5    7.23    0.20
   2  -5  -5   19.28    0.39
   2  -5  -5   19.60    0.37
   2  -5  -5   19.87    0.36
   2  -5  -5   19.44    0.37
   2  -5  -5   19.50    0.37
   2  -5  -5   20.26    0.38
   2  -5  -5   19.86    0.43
  -2   5   5   19.19    0.42
   1  -5  -5    9.23    0.20
   1  -5  -5    9.22    0.21
   1  -5  -5    9.36    0.21
   1  -5  -5    9.36    0.22
   1  -5  -5    9.32    0.20
   1  -5  -5    9.30    0.21
  -1   5   5    9.21    0.25
   0  -5  -5   29.63    0.56
   0  -5  -5   29.69    0.54
   0  -5  -5   29.73    0.54
   0  -5  -5   29.63    0.53
   0  -5  -5   29.41    0.54
   0  -5  -5   29.87    0.55
  -1  -5  -5    0.65    0.05
  -1  -5  -5    0.64    0.06
  -1  -5  -5    0.65    0.05
  -1  -5  -5    0.63    0.05
  -1  -5  -5    0.60    0.05
  -2  -5  -5    4.96    0.14
  -2  -5  -5    4.77    0.14
  -2  -5  -5    4.96    0.13
  -2  -5  -5    4.98    0.14
  -2  -5  -5    4.99    0.15
  -3  -5  -5    1.27    0.07
  -3  -5  -5    1.34    0.07
  -3  -5  -5    1.48    0.07
  -3  -5  -5    1.36    0.08
  -3  -5  -5    1.35    0.07
   3   5   5    1.24    0.07
   3   5   5    1.35    0.08
  -4  -5  -5   11.48    0.26
  -4  -5  -5   11.72    0.26
  -4  -5  -5   11.38    0.27
  -4  -5  -5   11.61    0.25
  -4  -5  -5   11.61    0.26
   4   5   5   11.70    0.28
   4   5   5   11.76    0.28
  -5  -5  -5   -0.01    0.03
  -5  -5  -5    0.00    0.03
  -5  -5  -5    0.04    0.03
  -5  -5  -5    0.01    0.02
  -5  -5  -5    0.01    0.03
   5   5   5    0.05    0.03
   5   5   5    0.02    0.03
  -6  -5  -5    0.00    0.03
  -6  -5  -5    0.01    0.03
  -6  -5  -5    0.05    0.04
  -6  -5  -5    0.01    0.03
  -6  -5  -5    0.00    0.03
   6   5   5    0.05    0.03
   6   5   5    0.02    0.03
  -7  -5  -5    0.17    0.04
  -7  -5  -5    0.12    0.04
   7   5   5    0.17    0.05
   7   5   5    0.13    0.04
   3  -6  -5    2.66    0.10
   3  -6  -5    2.64    0.09
   3  -6  -5    2.65    0.08
   3  -6  -5    2.69    0.10
   3  -6  -5    2.73    0.09
   3  -6  -5    2.77    0.09
  -3   6   5    2.77    0.10
  -3   6   5    2.76    0.10
   2  -6  -5   27.37    0.51
   2  -6  -5   27.70    0.50
   2  -6  -5   27.13    0.53
   2  -6  -5   28.29    0.51
   2  -6  -5   28.22    0.51
   2  -6  -5   28.10    0.52
  -2   6   5   27.88    0.53
  -2   6   5   28.08    0.53
   1  -6  -5    0.04    0.02
   1  -6  -5    0.05    0.02
   1  -6  -5    0.05    0.02
   1  -6  -5    0.06    0.03
   1  -6  -5    0.06    0.02
  -1   6   5    0.09    0.03
  -1   6   5    0.05    0.02
   0  -6  -5    0.10    0.03
   0  -6  -5    0.08    0.03
   0  -6  -5    0.07    0.02
   0  -6  -5    0.07    0.03
   0  -6  -5    0.09    0.02
   0   6   5    0.10    0.03
   0   6   5    0.08    0.03
  -2  -6  -5    5.55    0.15
  -2  -6  -5    5.52    0.16
  -2  -6  -5    5.84    0.16
  -2  -6  -5    5.40    0.16
  -2  -6  -5    5.77    0.16
   2   6   5    5.48    0.17
   2   6   5    5.97    0.17
  -3  -6  -5    1.60    0.09
  -3  -6  -5    1.57    0.08
  -3  -6  -5    1.59    0.08
  -3  -6  -5    1.57    0.08
  -3  -6  -5    1.57    0.09
   3   6   5    1.83    0.10
   3   6   5    1.74    0.09
  -4  -6  -5    1.53    0.08
  -4  -6  -5    1.48    0.08
  -4  -6  -5    1.63    0.09
  -4  -6  -5    1.49    0.09
  -4  -6  -5    1.57    0.08
   4   6   5    1.55    0.09
   4   6   5    1.60    0.09
   5   6   5    1.33    0.09
   5   6   5    1.39    0.09
  -6  -6  -5    1.52    0.10
  -6  -6  -5    1.62    0.10
   6   6   5    1.79    0.11
   6   6   5    1.78    0.11
   3  -7  -5    0.00    0.02
   3  -7  -5    0.01    0.02
   3  -7  -5    0.05    0.03
   3  -7  -5   -0.02    0.02
   3  -7  -5   -0.03    0.03
  -3   7   5    0.01    0.02
  -3   7   5   -0.02    0.02
   2  -7  -5    0.99    0.06
   2  -7  -5    0.91    0.07
   2  -7  -5    0.90    0.06
   2  -7  -5    0.89    0.06
   2  -7  -5    0.91    0.06
  -2   7   5    0.89    0.07
  -2   7   5    0.85    0.06
   1  -7  -5    3.15    0.11
   1  -7  -5    3.41    0.11
   1  -7  -5    3.62    0.13
   1  -7  -5    3.52    0.12
   1  -7  -5    3.25    0.10
  -1   7   5    3.01    0.12
  -1   7   5    3.02    0.12
   0  -7  -5    6.15    0.16
   0  -7  -5    6.23    0.16
   0  -7  -5    6.20    0.17
   0  -7  -5    6.20    0.18
   0  -7  -5    6.47    0.17
   0   7   5    5.95    0.18
   0   7   5    5.96    0.18
  -1  -7  -5    3.28    0.11
  -1  -7  -5    3.24    0.11
  -1  -7  -5    3.50    0.13
  -1  -7  -5    3.17    0.12
  -1  -7  -5    3.18    0.12
   1   7   5    2.46    0.12
   1   7   5    2.50    0.11
  -2  -7  -5    1.27    0.08
  -2  -7  -5    1.29    0.09
  -2  -7  -5    1.45    0.08
  -2  -7  -5    1.34    0.08
  -2  -7  -5    1.31    0.07
   2   7   5    1.46    0.09
   2   7   5    1.29    0.08
  -3  -7  -5    5.79    0.17
  -3  -7  -5    5.73    0.16
  -3  -7  -5    6.03    0.18
  -3  -7  -5    5.93    0.18
   3   7   5    5.69    0.19
   3   7   5    5.85    0.19
  -4  -7  -5    3.75    0.14
  -4  -7  -5    3.53    0.13
   4   7   5    3.45    0.14
   4   7   5    3.46    0.15
  -5  -7  -5    3.39    0.14
   5   7   5    3.50    0.15
   5   7   5    3.39    0.15
   2  -8  -5    0.10    0.04
   2  -8  -5    0.03    0.03
   2  -8  -5    0.06    0.03
   2  -8  -5    0.04    0.03
   2  -8  -5    0.05    0.03
  -2   8   5    0.07    0.03
  -2   8   5    0.08    0.03
   1  -8  -5    3.96    0.14
   1  -8  -5    4.18    0.13
   1  -8  -5    4.30    0.15
   1  -8  -5    4.27    0.14
   1  -8  -5    4.18    0.13
  -1   8   5    4.37    0.15
  -1   8   5    4.30    0.15
   0  -8  -5   -0.02    0.02
   0  -8  -5    0.04    0.03
   0  -8  -5    0.03    0.03
   0  -8  -5    0.06    0.04
   0  -8  -5   -0.03    0.02
   0   8   5    0.00    0.03
   0   8   5    0.01    0.03
  -1  -8  -5    1.23    0.08
  -1  -8  -5    1.29    0.09
  -1  -8  -5    1.29    0.09
  -1  -8  -5    1.32    0.08
   1   8   5    1.21    0.09
   1   8   5    1.21    0.09
  -2  -8  -5    1.12    0.09
  -2  -8  -5    1.10    0.09
   2   8   5    1.27    0.09
   2   8   5    1.29    0.10
  -3  -8  -5    1.49    0.11
  -3  -8  -5    1.61    0.11
   3   8   5    1.76    0.11
   3   8   5    1.70    0.11
  -4  -8  -5    2.73    0.13
   4   8   5    2.59    0.14
   4   8   5    2.54    0.13
   2  -9  -5    1.82    0.11
   2  -9  -5    1.81    0.09
   2  -9  -5    1.67    0.09
   2  -9  -5    1.64    0.08
  -2   9   5    1.84    0.10
  -2   9   5    1.64    0.10
   1  -9  -5    0.17    0.05
   1  -9  -5    0.14    0.04
   1  -9  -5    0.19    0.04
   1  -9  -5    0.17    0.04
  -1   9   5    0.14    0.04
  -1   9   5    0.23    0.05
   0  -9  -5    0.05    0.05
   0  -9  -5    0.00    0.04
   0   9   5    0.04    0.04
   0   9   5    0.03    0.04
  -1  -9  -5   -0.07    0.04
   1   9   5    0.00    0.03
   1   9   5   -0.01    0.03
  -2  -9  -5    1.69    0.11
   2   9   5    1.76    0.11
   2   9   5    1.60    0.11
   3  10  -6    0.07    0.04
   3  10  -6    0.11    0.04
   3  10  -6    0.09    0.04
  -3 -10   6    0.03    0.04
   2  10  -6    2.70    0.13
   2  10  -6    2.68    0.13
   2  10  -6    2.70    0.12
  -2 -10   6    2.68    0.13
   1  10  -6    2.45    0.11
   1  10  -6    2.37    0.11
   1  10  -6    2.27    0.12
   1  10  -6    2.45    0.12
  -1 -10   6    2.22    0.11
  -1 -10   6    2.52    0.13
   0  10  -6    5.53    0.18
   0  10  -6    5.37    0.18
   0  10  -6    5.14    0.17
   0  10  -6    5.51    0.18
   0 -10   6    5.47    0.18
   0 -10   6    5.49    0.17
   0 -10   6    5.38    0.19
   0 -10   6    5.60    0.18
  -1  10  -6    1.37    0.09
  -1  10  -6    1.34    0.08
  -1  10  -6    1.44    0.09
  -1  10  -6    1.40    0.09
   1 -10   6    1.62    0.10
   1 -10   6    1.65    0.09
   1 -10   6    1.40    0.09
   1 -10   6    1.42    0.08
  -2  10  -6    2.79    0.12
  -2  10  -6    2.61    0.11
  -2  10  -6    2.57    0.11
  -2  10  -6    2.81    0.12
   2 -10   6    2.79    0.11
   2 -10   6    2.96    0.11
   2 -10   6    2.74    0.12
   2 -10   6    2.76    0.12
   2 -10   6    2.79    0.12
   5   9  -6    0.14    0.05
   5   9  -6    0.11    0.04
  -5  -9   6    0.12    0.05
   4   9  -6    1.80    0.11
   4   9  -6    1.62    0.10
   4   9  -6    1.88    0.10
  -4  -9   6    1.53    0.10
  -4  -9   6    1.67    0.11
   3   9  -6    0.62    0.07
   3   9  -6    0.57    0.07
   3   9  -6    0.61    0.06
   3   9  -6    0.53    0.07
  -3  -9   6    0.62    0.07
  -3  -9   6    0.51    0.08
  -3  -9   6    0.59    0.07
  -3  -9   6    0.56    0.09
   2   9  -6    1.43    0.09
   2   9  -6    1.51    0.09
   2   9  -6    1.50    0.08
   2   9  -6    1.53    0.09
   2   9  -6    1.51    0.08
   2   9  -6    1.50    0.09
  -2  -9   6    1.50    0.08
  -2  -9   6    1.43    0.09
  -2  -9   6    1.34    0.09
  -2  -9   6    1.45    0.09
   1   9  -6    0.15    0.04
   1   9  -6    0.10    0.03
   1   9  -6    0.10    0.03
   1   9  -6    0.13    0.03
   1   9  -6    0.12    0.03
   1   9  -6    0.13    0.03
  -1  -9   6    0.12    0.04
  -1  -9   6    0.15    0.04
  -1  -9   6    0.17    0.04
  -1  -9   6    0.14    0.04
  -1  -9   6    0.14    0.04
   0   9  -6    0.09    0.03
   0   9  -6    0.15    0.04
   0   9  -6    0.11    0.03
   0   9  -6    0.13    0.03
   0   9  -6    0.14    0.04
   0   9  -6    0.22    0.04
   0  -9   6    0.16    0.04
   0  -9   6    0.15    0.03
   0  -9   6    0.18    0.04
   0  -9   6    0.15    0.04
  -1   9  -6    3.12    0.12
  -1   9  -6    2.92    0.11
  -1   9  -6    3.02    0.12
  -1   9  -6    3.14    0.10
  -1   9  -6    3.09    0.11
  -1   9  -6    3.15    0.12
   1  -9   6    3.02    0.11
   1  -9   6    3.23    0.12
   1  -9   6    3.05    0.11
   1  -9   6    2.98    0.12
  -2   9  -6    5.03    0.15
  -2   9  -6    5.19    0.15
  -2   9  -6    5.18    0.16
  -2   9  -6    5.24    0.14
  -2   9  -6    5.27    0.16
  -2   9  -6    5.10    0.16
   2  -9   6    5.30    0.16
   2  -9   6    5.22    0.15
   2  -9   6    5.24    0.16
   2  -9   6    5.32    0.16
   2  -9   6    5.32    0.15
  -3   9  -6    0.49    0.07
  -3   9  -6    0.42    0.06
   6   8  -6    1.70    0.11
   6   8  -6    1.71    0.11
  -6  -8   6    1.70    0.11
  -6  -8   6    1.81    0.15
   5   8  -6    0.65    0.07
   5   8  -6    0.81    0.08
   5   8  -6    0.79    0.08
  -5  -8   6    1.07    0.12
  -5  -8   6    0.71    0.07
  -5  -8   6    0.81    0.10
  -5  -8   6    0.78    0.07
   4   8  -6    0.24    0.05
   4   8  -6    0.22    0.04
   4   8  -6    0.12    0.04
   4   8  -6    0.22    0.04
   4   8  -6    0.16    0.04
   4   8  -6    0.14    0.04
  -4  -8   6    0.24    0.04
  -4  -8   6    0.23    0.04
  -4  -8   6    0.20    0.05
  -4  -8   6    0.21    0.05
   3   8  -6    1.65    0.09
   3   8  -6    1.75    0.10
   3   8  -6    1.55    0.08
   3   8  -6    1.68    0.09
   3   8  -6    1.56    0.08
   3   8  -6    1.61    0.09
  -3  -8   6    1.78    0.09
  -3  -8   6    1.61    0.08
  -3  -8   6    1.74    0.10
  -3  -8   6    1.76    0.09
  -3  -8   6    1.64    0.09
   2   8  -6    0.38    0.05
   2   8  -6    0.28    0.04
   2   8  -6    0.23    0.04
   2   8  -6    0.35    0.05
   2   8  -6    0.28    0.04
   2   8  -6    0.29    0.05
  -2  -8   6    0.27    0.04
  -2  -8   6    0.27    0.04
  -2  -8   6    0.30    0.05
  -2  -8   6    0.20    0.04
   1   8  -6    6.96    0.17
   1   8  -6    6.65    0.19
   1   8  -6    6.79    0.18
   1   8  -6    7.03    0.19
   1   8  -6    6.97    0.19
   1   8  -6    6.76    0.19
  -1  -8   6    6.74    0.18
  -1  -8   6    6.87    0.19
  -1  -8   6    7.01    0.19
  -1  -8   6    6.77    0.17
   0   8  -6    0.18    0.04
   0   8  -6    0.20    0.03
   0   8  -6    0.17    0.03
   0   8  -6    0.17    0.04
   0   8  -6    0.12    0.03
   0   8  -6    0.18    0.04
   0  -8   6    0.20    0.04
   0  -8   6    0.24    0.05
   0  -8   6    0.12    0.03
   0  -8   6    0.18    0.04
  -1   8  -6    3.63    0.13
  -1   8  -6    3.65    0.12
  -1   8  -6    3.68    0.13
  -1   8  -6    3.77    0.13
  -1   8  -6    3.61    0.11
  -1   8  -6    3.74    0.12
   1  -8   6    3.67    0.11
   1  -8   6    3.67    0.13
   1  -8   6    3.83    0.12
   1  -8   6    3.65    0.12
  -2   8  -6    0.45    0.05
  -2   8  -6    0.32    0.04
  -2   8  -6    0.34    0.04
  -2   8  -6    0.36    0.04
  -2   8  -6    0.35    0.04
  -2   8  -6    0.31    0.04
   2  -8   6    0.36    0.04
   2  -8   6    0.43    0.05
   2  -8   6    0.41    0.05
   2  -8   6    0.41    0.05
   2  -8   6    0.36    0.04
  -3   8  -6    1.75    0.07
  -3   8  -6    1.80    0.07
  -3   8  -6    1.80    0.08
  -3   8  -6    1.75    0.08
  -3   8  -6    1.78    0.08
  -3   8  -6    1.72    0.08
   3  -8   6    1.60    0.08
   3  -8   6    1.47    0.08
   3  -8   6    1.48    0.07
   3  -8   6    1.55    0.07
   3  -8   6    1.76    0.08
   7   7  -6    1.04    0.09
   7   7  -6    0.98    0.09
  -7  -7   6    0.95    0.08
  -7  -7   6    0.88    0.08
   6   7  -6    0.38    0.06
   6   7  -6    0.42    0.06
   6   7  -6    0.29    0.05
  -6  -7   6    0.29    0.05
  -6  -7   6    0.31    0.05
  -6  -7   6    0.35    0.05
  -6  -7   6    0.38    0.06
   5   7  -6    0.18    0.04
   5   7  -6    0.24    0.05
   5   7  -6    0.24    0.05
   5   7  -6    0.21    0.04
   5   7  -6    0.18    0.04
   5   7  -6    0.20    0.04
  -5  -7   6    0.15    0.04
  -5  -7   6    0.09    0.03
  -5  -7   6    0.16    0.04
  -5  -7   6    0.17    0.04
  -5  -7   6    0.21    0.04
   4   7  -6    0.01    0.02
   4   7  -6    0.01    0.03
   4   7  -6   -0.02    0.02
   4   7  -6   -0.02    0.02
   4   7  -6    0.00    0.02
   4   7  -6    0.01    0.02
  -4  -7   6   -0.02    0.02
  -4  -7   6   -0.01    0.03
  -4  -7   6   -0.01    0.02
  -4  -7   6    0.04    0.03
   3   7  -6    0.56    0.06
   3   7  -6    0.44    0.06
   3   7  -6    0.53    0.05
   3   7  -6    0.41    0.05
   3   7  -6    0.52    0.05
   3   7  -6    0.34    0.05
  -3  -7   6    0.42    0.05
  -3  -7   6    0.50    0.05
  -3  -7   6    0.45    0.06
  -3  -7   6    0.42    0.04
   2   7  -6    0.70    0.06
   2   7  -6    0.61    0.05
   2   7  -6    0.63    0.06
   2   7  -6    0.70    0.06
   2   7  -6    0.61    0.05
   2   7  -6    0.61    0.05
  -2  -7   6    0.51    0.05
  -2  -7   6    0.69    0.05
  -2  -7   6    0.70    0.06
  -2  -7   6    0.71    0.06
   1   7  -6    4.58    0.14
   1   7  -6    4.61    0.14
   1   7  -6    4.70    0.13
   1   7  -6    4.95    0.15
   1   7  -6    4.73    0.13
   1   7  -6    4.78    0.14
  -1  -7   6    4.74    0.14
  -1  -7   6    4.82    0.14
  -1  -7   6    4.68    0.15
  -1  -7   6    4.77    0.13
   0   7  -6    0.02    0.02
   0   7  -6    0.00    0.02
   0   7  -6    0.01    0.02
   0   7  -6    0.06    0.02
   0   7  -6    0.05    0.02
   0   7  -6    0.02    0.02
   0   7  -6    0.02    0.02
   0   7  -6    0.04    0.02
   0  -7   6    0.04    0.02
   0  -7   6    0.03    0.02
   0  -7   6    0.03    0.02
   0  -7   6    0.03    0.02
  -1   7  -6    0.02    0.02
  -1   7  -6    0.01    0.02
  -1   7  -6   -0.01    0.01
  -1   7  -6    0.03    0.02
  -1   7  -6    0.00    0.02
  -1   7  -6    0.01    0.02
  -1   7  -6    0.01    0.02
  -1   7  -6    0.01    0.02
   1  -7   6    0.02    0.02
   1  -7   6   -0.01    0.02
   1  -7   6    0.01    0.02
   1  -7   6    0.03    0.02
   1  -7   6    0.05    0.02
  -2   7  -6    8.24    0.19
  -2   7  -6    8.27    0.19
  -2   7  -6    8.19    0.18
  -2   7  -6    8.18    0.20
  -2   7  -6    7.95    0.21
  -2   7  -6    8.03    0.20
  -2   7  -6    8.30    0.20
  -2   7  -6    8.01    0.20
   2  -7   6    8.14    0.18
   2  -7   6    8.45    0.19
   2  -7   6    8.30    0.20
   2  -7   6    8.40    0.20
  -3   7  -6    8.43    0.19
  -3   7  -6    8.13    0.20
  -3   7  -6    8.27    0.19
  -3   7  -6    8.22    0.18
  -3   7  -6    8.44    0.19
  -3   7  -6    7.76    0.20
  -3   7  -6    7.97    0.19
  -3   7  -6    8.12    0.20
  -3   7  -6    8.16    0.20
   3  -7   6    8.21    0.20
   3  -7   6    7.89    0.19
   3  -7   6    7.83    0.18
   3  -7   6    7.91    0.18
   7   6  -6    1.22    0.08
   7   6  -6    1.06    0.08
   7   6  -6    1.01    0.08
  -7  -6   6    1.06    0.08
  -7  -6   6    1.15    0.10
  -7  -6   6    1.06    0.07
  -7  -6   6    1.01    0.08
  -7  -6   6    1.11    0.08
   6   6  -6   -0.02    0.03
   6   6  -6    0.01    0.02
   6   6  -6    0.01    0.02
   6   6  -6   -0.02    0.02
  -6  -6   6   -0.01    0.02
  -6  -6   6    0.00    0.03
  -6  -6   6   -0.02    0.03
  -6  -6   6   -0.05    0.02
  -6  -6   6    0.03    0.03
   5   6  -6    0.01    0.02
   5   6  -6    0.05    0.02
   5   6  -6    0.00    0.02
   5   6  -6    0.02    0.02
   5   6  -6    0.03    0.03
   5   6  -6    0.05    0.03
  -5  -6   6    0.03    0.03
  -5  -6   6   -0.01    0.03
  -5  -6   6    0.03    0.02
  -5  -6   6    0.04    0.03
   4   6  -6    0.44    0.04
   4   6  -6    0.42    0.05
   4   6  -6    0.49    0.05
   4   6  -6    0.39    0.05
   4   6  -6    0.42    0.05
   4   6  -6    0.36    0.05
  -4  -6   6    0.39    0.05
  -4  -6   6    0.45    0.05
  -4  -6   6    0.47    0.05
  -4  -6   6    0.50    0.06
   3   6  -6    4.44    0.14
   3   6  -6    4.53    0.14
   3   6  -6    4.92    0.18
   3   6  -6    4.44    0.13
   3   6  -6    4.33    0.13
   3   6  -6    4.57    0.14
   3   6  -6    4.58    0.12
   3   6  -6    5.07    0.20
  -3  -6   6    4.42    0.14
  -3  -6   6    4.39    0.13
  -3  -6   6    4.33    0.13
  -3  -6   6    4.36    0.12
   2   6  -6    3.27    0.11
   2   6  -6    3.40    0.10
   2   6  -6    3.27    0.10
   2   6  -6    3.23    0.11
   2   6  -6    3.22    0.11
   2   6  -6    3.34    0.12
   2   6  -6    3.25    0.12
   2   6  -6    3.22    0.11
  -2  -6   6    3.33    0.11
  -2  -6   6    3.32    0.11
  -2  -6   6    3.33    0.11
  -2  -6   6    3.50    0.10
   1   6  -6    0.08    0.03
   1   6  -6    0.04    0.02
   1   6  -6    0.07    0.03
   1   6  -6    0.04    0.02
   1   6  -6    0.06    0.02
   1   6  -6    0.05    0.02
   1   6  -6    0.09    0.02
   1   6  -6    0.12    0.03
   1   6  -6    0.07    0.02
  -1  -6   6    0.04    0.02
  -1  -6   6    0.11    0.03
  -1  -6   6    0.11    0.03
   0   6  -6   48.87    0.87
   0   6  -6   48.69    0.87
   0   6  -6   49.64    0.88
   0   6  -6   49.15    0.89
   0   6  -6   49.37    0.89
   0   6  -6   48.66    0.87
   0   6  -6   49.36    0.87
   0   6  -6   48.91    0.85
   0   6  -6   48.71    0.86
   0  -6   6   49.61    0.86
   0  -6   6   50.42    0.86
  -1   6  -6    5.52    0.15
  -1   6  -6    5.95    0.16
  -1   6  -6    5.86    0.15
  -1   6  -6    6.08    0.15
  -1   6  -6    5.86    0.14
  -1   6  -6    5.92    0.15
  -1   6  -6    5.72    0.15
  -1   6  -6    6.01    0.16
  -1   6  -6    5.72    0.16
   1  -6   6    5.72    0.15
   1  -6   6    5.92    0.14
   1  -6   6    6.10    0.15
  -2   6  -6    4.78    0.12
  -2   6  -6    4.85    0.12
  -2   6  -6    4.58    0.13
  -2   6  -6    4.65    0.13
  -2   6  -6    4.56    0.13
  -2   6  -6    4.64    0.13
  -2   6  -6    4.86    0.13
  -2   6  -6    4.61    0.14
  -2   6  -6    4.60    0.14
   2  -6   6    4.81    0.13
  -3   6  -6    0.14    0.02
  -3   6  -6    0.17    0.03
  -3   6  -6    0.16    0.02
  -3   6  -6    0.16    0.03
  -4   6  -6    2.69    0.13
   7   5  -6    0.00    0.03
   7   5  -6   -0.01    0.01
   7   5  -6    0.04    0.03
  -7  -5   6    0.04    0.03
  -7  -5   6    0.00    0.03
   6   5  -6    0.53    0.05
   6   5  -6    0.53    0.06
   6   5  -6    0.50    0.05
   6   5  -6    0.48    0.05
   6   5  -6    0.54    0.05
   6   5  -6    0.50    0.06
  -6  -5   6    0.48    0.05
  -6  -5   6    0.47    0.05
  -6  -5   6    0.59    0.06
  -6  -5   6    0.51    0.05
  -6  -5   6    0.42    0.05
   5   5  -6    0.73    0.06
   5   5  -6    0.58    0.05
   5   5  -6    0.77    0.05
   5   5  -6    0.70    0.05
   5   5  -6    0.69    0.06
   5   5  -6    0.73    0.06
  -5  -5   6    0.71    0.06
  -5  -5   6    0.76    0.06
  -5  -5   6    0.73    0.06
  -5  -5   6    0.72    0.05
   4   5  -6    7.09    0.18
   4   5  -6    7.03    0.18
   4   5  -6    7.02    0.17
   4   5  -6    7.20    0.17
   4   5  -6    7.14    0.18
   4   5  -6    6.98    0.19
   4   5  -6    7.03    0.18
   4   5  -6    7.05    0.18
  -4  -5   6    7.07    0.17
  -4  -5   6    7.12    0.18
  -4  -5   6    6.99    0.18
  -4  -5   6    7.03    0.17
   3   5  -6    1.07    0.07
   3   5  -6    1.22    0.07
   3   5  -6    1.22    0.06
   3   5  -6    1.18    0.06
   3   5  -6    1.03    0.06
   3   5  -6    1.11    0.06
   3   5  -6    1.27    0.07
   3   5  -6    1.10    0.06
   3   5  -6    1.10    0.06
  -3  -5   6    1.17    0.06
  -3  -5   6    1.16    0.06
  -3  -5   6    1.23    0.06
   2   5  -6    0.99    0.06
   2   5  -6    0.95    0.06
   2   5  -6    0.95    0.06
   2   5  -6    0.92    0.05
   2   5  -6    1.06    0.05
   2   5  -6    0.99    0.06
   2   5  -6    1.11    0.06
   2   5  -6    1.04    0.06
   2   5  -6    1.01    0.06
  -2  -5   6    0.95    0.05
  -2  -5   6    1.01    0.06
   1   5  -6    0.29    0.04
   1   5  -6    0.36    0.04
   1   5  -6    0.30    0.03
   1   5  -6    0.34    0.04
   1   5  -6    0.30    0.04
   1   5  -6    0.34    0.04
   1   5  -6    0.33    0.03
   1   5  -6    0.34    0.04
   1   5  -6    0.33    0.03
   0   5  -6   30.50    0.58
   0   5  -6   31.06    0.56
   0   5  -6   30.99    0.58
   0   5  -6   30.89    0.55
   0   5  -6   31.14    0.57
   0   5  -6   30.97    0.56
   0   5  -6   30.42    0.56
   0   5  -6   30.78    0.56
   0   5  -6   30.74    0.55
   0  -5   6   30.12    0.56
  -1   5  -6   13.30    0.28
  -1   5  -6   13.52    0.27
  -1   5  -6   13.53    0.28
  -1   5  -6   13.80    0.27
  -1   5  -6   13.73    0.28
  -1   5  -6   13.49    0.28
  -1   5  -6   13.45    0.29
  -1   5  -6   13.43    0.26
  -1   5  -6   13.52    0.29
   1  -5   6   13.54    0.32
   1  -5   6   13.91    0.28
  -2   5  -6    0.24    0.03
  -2   5  -6    0.23    0.03
  -2   5  -6    0.18    0.03
  -2   5  -6    0.23    0.03
  -2   5  -6    0.25    0.03
  -2   5  -6    0.19    0.03
  -2   5  -6    0.22    0.03
  -2   5  -6    0.25    0.04
  -2   5  -6    0.27    0.04
   2  -5   6    0.23    0.04
  -3   5  -6    0.02    0.02
  -3   5  -6    0.02    0.02
  -3   5  -6    0.00    0.01
  -3   5  -6   -0.01    0.01
  -3   5  -6   -0.02    0.01
  -3   5  -6    0.01    0.02
  -3   5  -6   -0.01    0.02
  -3   5  -6    0.01    0.02
  -3   5  -6    0.01    0.02
   3  -5   6    0.00    0.02
   3  -5   6    0.00    0.02
  -4   5  -6    5.49    0.13
  -4   5  -6    5.48    0.15
  -4   5  -6    5.51    0.14
  -4   5  -6    5.49    0.14
  -4   5  -6    5.41    0.13
  -4   5  -6    5.87    0.18
  -4   5  -6    5.56    0.13
   4  -5   6    5.60    0.14
   6   4  -6    5.45    0.15
   6   4  -6    5.34    0.15
  -6  -4   6    5.42    0.15
  -6  -4   6    5.39    0.14
  -6  -4   6    5.33    0.15
  -6  -4   6    5.25    0.14
  -6  -4   6    5.51    0.15
   5   4  -6    1.39    0.07
   5   4  -6    1.38    0.07
   5   4  -6    1.45    0.08
   5   4  -6    1.43    0.07
   5   4  -6    1.33    0.06
   5   4  -6    1.44    0.07
   5   4  -6    1.33    0.06
   5   4  -6    1.41    0.07
  -5  -4   6    1.46    0.07
  -5  -4   6    1.39    0.07
  -5  -4   6    1.46    0.06
  -5  -4   6    1.40    0.07
   4   4  -6    1.05    0.06
   4   4  -6    0.99    0.05
   4   4  -6    0.98    0.06
   4   4  -6    1.04    0.06
   4   4  -6    0.87    0.06
   4   4  -6    0.98    0.06
   4   4  -6    0.89    0.06
   4   4  -6    0.95    0.06
   4   4  -6    0.94    0.06
  -4  -4   6    0.97    0.06
  -4  -4   6    0.93    0.06
  -4  -4   6    1.00    0.05
   3   4  -6    1.13    0.06
   3   4  -6    1.08    0.06
   3   4  -6    1.12    0.06
   3   4  -6    1.14    0.05
   3   4  -6    1.16    0.05
   3   4  -6    1.14    0.06
   3   4  -6    1.19    0.07
   3   4  -6    1.11    0.07
   3   4  -6    1.18    0.06
   2   4  -6    8.88    0.20
   2   4  -6    9.12    0.20
   2   4  -6    9.05    0.21
   2   4  -6    8.90    0.20
   2   4  -6    9.03    0.21
   2   4  -6    8.83    0.19
   2   4  -6    9.06    0.20
   2   4  -6    9.26    0.21
   2   4  -6    8.97    0.19
  -2  -4   6    9.01    0.20
  -2  -4   6    8.95    0.24
   1   4  -6    0.67    0.05
   1   4  -6    0.67    0.05
   1   4  -6    0.65    0.04
   1   4  -6    0.70    0.04
   1   4  -6    0.67    0.05
   1   4  -6    0.67    0.04
   1   4  -6    0.69    0.04
   1   4  -6    0.67    0.04
   1   4  -6    0.64    0.04
  -1  -4   6    0.57    0.04
  -1  -4   6    0.60    0.06
   0   4  -6   12.90    0.27
   0   4  -6   12.86    0.26
   0   4  -6   12.92    0.27
   0   4  -6   13.18    0.26
   0   4  -6   13.01    0.26
   0   4  -6   13.36    0.25
   0   4  -6   12.99    0.28
   0   4  -6   12.66    0.26
   0   4  -6   13.22    0.26
   0   4  -6   12.73    0.26
   0  -4   6   12.86    0.27
  -1   4  -6   14.44    0.29
  -1   4  -6   14.74    0.31
  -1   4  -6   14.66    0.29
  -1   4  -6   14.98    0.28
  -1   4  -6   14.97    0.30
  -1   4  -6   14.62    0.28
  -1   4  -6   15.02    0.29
  -1   4  -6   14.57    0.29
  -1   4  -6   14.88    0.29
  -1   4  -6   15.33    0.29
   1  -4   6   14.61    0.31
   1  -4   6   14.73    0.30
  -2   4  -6    3.55    0.10
  -2   4  -6    3.44    0.10
  -2   4  -6    3.50    0.11
  -2   4  -6    3.55    0.10
  -2   4  -6    3.47    0.10
  -2   4  -6    3.39    0.09
  -2   4  -6    3.48    0.09
  -2   4  -6    3.44    0.10
   2  -4   6    3.53    0.10
   2  -4   6    3.50    0.11
  -3   4  -6    0.17    0.03
  -3   4  -6    0.18    0.03
  -3   4  -6    0.16    0.02
  -3   4  -6    0.19    0.03
  -3   4  -6    0.17    0.03
  -3   4  -6    0.17    0.02
   3  -4   6    0.18    0.03
   3  -4   6    0.14    0.03
  -4   4  -6    4.29    0.11
  -4   4  -6    4.19    0.10
  -4   4  -6    4.14    0.11
  -4   4  -6    4.24    0.11
  -4   4  -6    4.17    0.12
  -4   4  -6    4.31    0.11
   4  -4   6    4.17    0.11
   4  -4   6    4.18    0.14
   4  -4   6    4.19    0.12
   6   3  -6    0.40    0.04
   6   3  -6    0.37    0.04
   6   3  -6    0.39    0.04
   6   3  -6    0.39    0.04
   6   3  -6    0.41    0.04
   6   3  -6    0.43    0.04
  -6  -3   6    0.43    0.04
  -6  -3   6    0.48    0.05
  -6  -3   6    0.43    0.04
  -6  -3   6    0.41    0.04
  -6  -3   6    0.43    0.04
   5   3  -6    0.90    0.05
   5   3  -6    0.92    0.06
   5   3  -6    1.15    0.06
   5   3  -6    0.99    0.06
   5   3  -6    0.87    0.05
   5   3  -6    0.94    0.06
   5   3  -6    0.92    0.05
   5   3  -6    0.92    0.06
   5   3  -6    1.14    0.06
  -5  -3   6    1.09    0.05
  -5  -3   6    1.11    0.06
  -5  -3   6    1.14    0.06
  -5  -3   6    1.01    0.06
   4   3  -6    3.84    0.11
   4   3  -6    3.91    0.11
   4   3  -6    3.92    0.11
   4   3  -6    3.85    0.11
   4   3  -6    3.87    0.12
   4   3  -6    3.94    0.12
   4   3  -6    3.98    0.10
   4   3  -6    3.95    0.11
   4   3  -6    4.07    0.11
  -4  -3   6    3.78    0.14
  -4  -3   6    3.83    0.11
   3   3  -6    4.19    0.11
   3   3  -6    4.11    0.11
   3   3  -6    4.12    0.12
   3   3  -6    4.24    0.10
   3   3  -6    4.10    0.12
   3   3  -6    4.00    0.11
   3   3  -6    4.18    0.13
   3   3  -6    4.09    0.11
   3   3  -6    4.29    0.12
  -3  -3   6    4.00    0.14
  -3  -3   6    4.11    0.12
   2   3  -6    5.91    0.15
   2   3  -6    6.11    0.13
   2   3  -6    5.94    0.16
   2   3  -6    5.85    0.15
   2   3  -6    5.96    0.14
   2   3  -6    6.10    0.15
   2   3  -6    6.02    0.14
   2   3  -6    6.18    0.15
   2   3  -6    6.00    0.15
   2   3  -6    5.99    0.14
  -2  -3   6    6.06    0.15
  -2  -3   6    6.09    0.15
   1   3  -6   27.57    0.49
   1   3  -6   27.86    0.49
   1   3  -6   27.72    0.49
   1   3  -6   27.14    0.50
   1   3  -6   28.01    0.51
   1   3  -6   26.89    0.50
   1   3  -6   27.20    0.50
   1   3  -6   27.15    0.49
  -1  -3   6   27.34    0.51
  -1  -3   6   27.76    0.50
   0   3  -6   25.52    0.47
   0   3  -6   25.55    0.46
   0   3  -6   26.14    0.46
   0   3  -6   25.58    0.47
   0   3  -6   25.84    0.46
   0   3  -6   25.92    0.47
   0   3  -6   26.44    0.47
   0   3  -6   26.01    0.48
   0  -3   6   25.84    0.48
   0  -3   6   25.78    0.47
  -1   3  -6   28.34    0.50
  -1   3  -6   28.29    0.50
  -1   3  -6   28.67    0.50
  -1   3  -6   27.77    0.51
  -1   3  -6   28.59    0.52
  -1   3  -6   27.47    0.51
  -1   3  -6   28.60    0.50
  -1   3  -6   28.21    0.51
   1  -3   6   28.09    0.51
   1  -3   6   28.08    0.52
  -2   3  -6    7.26    0.15
  -2   3  -6    7.33    0.16
  -2   3  -6    7.13    0.16
  -2   3  -6    7.33    0.15
  -2   3  -6    7.20    0.17
  -2   3  -6    7.11    0.16
   2  -3   6    6.88    0.16
   2  -3   6    7.10    0.17
  -3   3  -6   11.13    0.22
  -3   3  -6   10.85    0.22
  -3   3  -6   11.16    0.22
  -3   3  -6   10.99    0.21
  -3   3  -6   10.90    0.23
  -3   3  -6   11.00    0.23
   3  -3   6   10.91    0.23
   3  -3   6   10.81    0.23
   3  -3   6   11.26    0.26
  -4   3  -6    1.52    0.05
  -4   3  -6    1.42    0.06
  -4   3  -6    1.50    0.06
  -4   3  -6    1.37    0.06
  -4   3  -6    1.59    0.06
  -4   3  -6    1.49    0.06
   4  -3   6    1.47    0.08
   4  -3   6    1.47    0.07
   4  -3   6    1.51    0.06
  -5   3  -6    6.56    0.18
  -5   3  -6    7.03    0.18
  -5   3  -6    7.22    0.19
  -5   3  -6    7.10    0.19
   5  -3   6    6.73    0.18
   6   2  -6    0.01    0.02
   6   2  -6    0.02    0.02
   6   2  -6    0.02    0.02
   6   2  -6    0.00    0.02
   6   2  -6   -0.02    0.02
   6   2  -6    0.02    0.02
   6   2  -6    0.00    0.02
   6   2  -6    0.00    0.02
  -6  -2   6    0.00    0.02
  -6  -2   6    0.02    0.02
  -6  -2   6    0.01    0.02
  -6  -2   6    0.02    0.02
  -6  -2   6    0.01    0.02
   5   2  -6    3.67    0.10
   5   2  -6    3.78    0.10
   5   2  -6    3.70    0.10
   5   2  -6    3.74    0.11
   5   2  -6    3.79    0.11
   5   2  -6    3.81    0.11
   5   2  -6    3.71    0.12
   5   2  -6    3.62    0.11
   5   2  -6    3.74    0.11
  -5  -2   6    3.76    0.11
  -5  -2   6    3.59    0.13
   4   2  -6    0.03    0.02
   4   2  -6    0.03    0.02
   4   2  -6    0.00    0.02
   4   2  -6    0.01    0.02
   4   2  -6    0.03    0.02
   4   2  -6    0.05    0.02
   4   2  -6    0.02    0.02
   4   2  -6    0.02    0.01
   4   2  -6    0.02    0.02
  -4  -2   6    0.03    0.02
  -4  -2   6    0.03    0.02
  -4  -2   6    0.03    0.03
   3   2  -6    1.97    0.07
   3   2  -6    1.87    0.07
   3   2  -6    1.88    0.06
   3   2  -6    1.93    0.08
   3   2  -6    1.90    0.07
   3   2  -6    1.89    0.08
   3   2  -6    1.81    0.07
   3   2  -6    1.97    0.07
   3   2  -6    1.83    0.07
   3   2  -6    1.95    0.07
  -3  -2   6    1.90    0.07
  -3  -2   6    1.83    0.07
   2   2  -6    0.37    0.03
   2   2  -6    0.41    0.03
   2   2  -6    0.37    0.03
   2   2  -6    0.35    0.03
   2   2  -6    0.41    0.03
   2   2  -6    0.41    0.04
   2   2  -6    0.38    0.04
   2   2  -6    0.37    0.03
  -2  -2   6    0.35    0.03
  -2  -2   6    0.40    0.04
   1   2  -6    8.33    0.17
   1   2  -6    8.59    0.18
   1   2  -6    8.42    0.18
   1   2  -6    8.73    0.19
   1   2  -6    8.47    0.18
   1   2  -6    8.46    0.17
   1   2  -6    8.51    0.18
   1   2  -6    8.40    0.18
  -1  -2   6    8.39    0.18
  -1  -2   6    8.29    0.19
   0   2  -6    0.24    0.02
   0   2  -6    0.34    0.03
   0   2  -6    0.37    0.03
   0   2  -6    0.35    0.03
   0   2  -6    0.32    0.03
   0   2  -6    0.35    0.03
  -1   2  -6   16.05    0.30
  -1   2  -6   16.08    0.31
  -1   2  -6   16.36    0.30
  -1   2  -6   15.91    0.31
  -1   2  -6   15.55    0.32
  -1   2  -6   15.74    0.30
   1  -2   6   17.23    0.31
   1  -2   6   17.03    0.32
   2  -2   6    1.69    0.07
   2  -2   6    2.22    0.09
  -5   2  -6   10.15    0.21
  -5   2  -6    9.66    0.20
  -5   2  -6   10.43    0.21
  -5   2  -6    9.83    0.21
  -5   2  -6    9.97    0.20
  -5   2  -6    9.90    0.23
   5   1  -6    4.62    0.12
   5   1  -6    4.65    0.13
   5   1  -6    4.49    0.11
   5   1  -6    4.51    0.11
   5   1  -6    4.38    0.12
   5   1  -6    4.48    0.11
   5   1  -6    4.49    0.12
   5   1  -6    4.64    0.12
   5   1  -6    4.36    0.11
  -5  -1   6    4.38    0.14
  -5  -1   6    4.34    0.12
  -5  -1   6    4.61    0.12
   4   1  -6    2.62    0.08
   4   1  -6    2.58    0.07
   4   1  -6    2.68    0.08
   4   1  -6    2.69    0.08
   4   1  -6    2.71    0.08
   4   1  -6    3.01    0.09
   4   1  -6    2.90    0.09
   4   1  -6    2.73    0.09
   4   1  -6    2.80    0.09
   4   1  -6    2.69    0.08
  -4  -1   6    2.91    0.09
  -4  -1   6    3.00    0.09
   3   1  -6   18.69    0.35
   3   1  -6   18.49    0.36
   3   1  -6   19.02    0.35
   3   1  -6   19.20    0.36
   3   1  -6   19.20    0.35
   3   1  -6   19.39    0.35
   3   1  -6   19.38    0.36
   3   1  -6   19.37    0.34
  -3  -1   6   18.70    0.36
  -3  -1   6   18.98    0.36
   2   1  -6    2.08    0.06
   2   1  -6    1.96    0.06
   2   1  -6    2.01    0.07
   2   1  -6    1.96    0.07
   2   1  -6    2.00    0.06
   2   1  -6    2.11    0.07
  -2  -1   6    1.97    0.07
  -2  -1   6    1.98    0.07
   1   1  -6    3.08    0.09
   1   1  -6    3.09    0.08
   1   1  -6    3.21    0.09
   1   1  -6    3.13    0.09
   1   1  -6    3.24    0.08
   1   1  -6    3.23    0.09
  -1  -1   6    3.11    0.09
  -1  -1   6    3.11    0.09
   0   1  -6    7.22    0.16
   0   1  -6    7.29    0.16
   0   1  -6    7.42    0.15
   0   1  -6    7.27    0.15
   0   1  -6    7.21    0.15
   0   1  -6    7.19    0.15
   0  -1   6    6.59    0.18
   0  -1   6    6.60    0.16
   0  -1   6    7.23    0.16
  -1   1  -6   11.53    0.23
  -1   1  -6   11.74    0.23
  -1   1  -6   11.62    0.23
  -1   1  -6   11.75    0.24
  -1   1  -6   11.64    0.22
  -1   1  -6   11.76    0.23
   1  -1   6   11.84    0.24
   1  -1   6   11.43    0.26
   1  -1   6   11.73    0.24
  -2   1  -6    7.17    0.15
  -2   1  -6    7.26    0.16
  -2   1  -6    7.24    0.15
  -2   1  -6    7.56    0.16
  -2   1  -6    7.38    0.16
  -2   1  -6    7.37    0.15
   2  -1   6    6.17    0.18
   2  -1   6    6.30    0.16
   2  -1   6    6.29    0.16
  -3   1  -6   33.54    0.59
  -3   1  -6   33.24    0.59
  -3   1  -6   33.17    0.59
  -3   1  -6   33.47    0.58
  -3   1  -6   33.01    0.59
  -3   1  -6   33.77    0.60
   3  -1   6   33.37    0.63
   3  -1   6   33.41    0.60
   3  -1   6   33.99    0.60
  -4   1  -6   20.59    0.38
  -4   1  -6   20.71    0.37
  -4   1  -6   20.47    0.38
  -4   1  -6   20.30    0.37
  -4   1  -6   20.09    0.39
  -4   1  -6   20.69    0.38
   4  -1   6   18.32    0.40
   4  -1   6   20.23    0.38
   4  -1   6   20.38    0.42
  -5   1  -6    8.03    0.17
  -5   1  -6    8.06    0.18
  -5   1  -6    8.11    0.18
  -5   1  -6    8.06    0.17
  -5   1  -6    8.19    0.18
  -5   1  -6    7.72    0.19
   5  -1   6    7.86    0.22
   5   0  -6    0.01    0.02
   5   0  -6    0.02    0.01
   5   0  -6   -0.01    0.02
   5   0  -6    0.02    0.02
   5   0  -6    0.00    0.01
   5   0  -6    0.01    0.02
   5   0  -6   -0.02    0.01
  -5   0   6    0.02    0.02
  -5   0   6    0.00    0.02
   4   0  -6    3.85    0.09
   4   0  -6    3.82    0.10
   4   0  -6    3.93    0.10
   4   0  -6    3.90    0.11
   4   0  -6    3.78    0.10
   4   0  -6    3.92    0.10
  -4   0   6    3.77    0.11
  -4   0   6    3.86    0.10
   3   0  -6    0.95    0.04
   3   0  -6    0.97    0.05
   3   0  -6    0.91    0.04
   3   0  -6    0.95    0.05
   3   0  -6    0.98    0.05
   3   0  -6    0.97    0.05
  -3   0   6    1.05    0.06
  -3   0   6    1.02    0.05
  -3   0   6    0.99    0.05
   2   0  -6    4.62    0.10
   2   0  -6    4.57    0.12
   2   0  -6    4.45    0.11
   2   0  -6    4.67    0.11
   2   0  -6    4.65    0.11
   2   0  -6    4.70    0.11
  -2   0   6    4.49    0.11
  -2   0   6    4.46    0.14
  -2   0   6    4.62    0.12
   1   0  -6    0.00    0.01
   1   0  -6    0.01    0.01
   1   0  -6    0.01    0.01
   1   0  -6   -0.01    0.01
   1   0  -6    0.02    0.01
   1   0  -6   -0.01    0.01
  -1   0   6    0.00    0.01
  -1   0   6   -0.01    0.01
  -1   0   6    0.01    0.01
   0   0  -6    5.13    0.12
   0   0  -6    4.99    0.12
   0   0  -6    5.11    0.13
   0   0  -6    5.06    0.12
   0   0  -6    5.08    0.12
   0   0  -6    5.19    0.11
   0   0   6    5.13    0.15
   0   0   6    5.10    0.13
   0   0   6    5.02    0.13
  -1   0  -6    0.44    0.03
  -1   0  -6    0.46    0.04
  -1   0  -6    0.44    0.03
  -1   0  -6    0.42    0.03
  -1   0  -6    0.45    0.03
  -1   0  -6    0.47    0.03
   1   0   6    0.41    0.03
   1   0   6    0.42    0.04
   1   0   6    0.43    0.04
  -2   0  -6   16.34    0.31
  -2   0  -6   16.07    0.31
  -2   0  -6   16.13    0.32
  -2   0  -6   16.48    0.30
  -2   0  -6   16.16    0.30
  -2   0  -6   16.18    0.31
   2   0   6   16.31    0.35
   2   0   6   16.28    0.32
   2   0   6   16.32    0.32
  -3   0  -6    0.02    0.02
  -3   0  -6    0.02    0.02
  -3   0  -6    0.01    0.02
  -3   0  -6    0.03    0.02
  -3   0  -6    0.01    0.02
  -3   0  -6    0.02    0.02
   3   0   6    0.01    0.02
   3   0   6   -0.01    0.03
   3   0   6   -0.01    0.02
  -4   0  -6    5.95    0.15
  -4   0  -6    6.02    0.14
  -4   0  -6    6.03    0.14
  -4   0  -6    5.75    0.14
  -4   0  -6    5.74    0.14
  -4   0  -6    5.80    0.14
   4   0   6    5.99    0.18
  -5   0  -6   -0.02    0.01
  -5   0  -6    0.02    0.02
  -5   0  -6    0.00    0.02
  -5   0  -6   -0.01    0.02
  -5   0  -6    0.02    0.02
  -5   0  -6    0.00    0.02
   5   0   6    0.02    0.03
  -6   0  -6    4.47    0.15
   5  -1  -6    1.09    0.05
   5  -1  -6    1.19    0.05
   5  -1  -6    1.20    0.06
   5  -1  -6    1.14    0.05
   5  -1  -6    1.19    0.05
   5  -1  -6    1.19    0.04
  -5   1   6    1.10    0.05
   4  -1  -6    1.26    0.05
   4  -1  -6    1.26    0.05
   4  -1  -6    1.22    0.05
   4  -1  -6    1.27    0.05
   4  -1  -6    1.23    0.06
   4  -1  -6    1.30    0.05
  -4   1   6    1.20    0.05
  -4   1   6    1.22    0.07
  -4   1   6    1.23    0.05
  -3   1   6   12.70    0.28
  -3   1   6   13.09    0.26
  -3   1   6   12.97    0.25
   2  -1  -6   11.07    0.22
   2  -1  -6   11.57    0.23
   2  -1  -6   11.16    0.22
   2  -1  -6   11.32    0.22
   2  -1  -6   10.98    0.22
   2  -1  -6   11.01    0.21
  -2   1   6   10.92    0.23
  -2   1   6   10.89    0.22
  -2   1   6   10.79    0.25
   1  -1  -6    0.61    0.04
   1  -1  -6    0.62    0.04
   1  -1  -6    0.55    0.04
   1  -1  -6    0.58    0.03
   1  -1  -6    0.55    0.03
   1  -1  -6    0.61    0.04
  -1   1   6    0.53    0.05
  -1   1   6    0.58    0.04
  -1   1   6    0.55    0.04
   0  -1  -6   24.30    0.45
   0  -1  -6   25.03    0.46
   0  -1  -6   25.10    0.45
   0  -1  -6   24.70    0.44
   0  -1  -6   24.90    0.45
   0  -1  -6   25.11    0.44
   0   1   6   25.06    0.49
   0   1   6   24.68    0.46
   0   1   6   24.83    0.46
  -1  -1  -6    0.02    0.02
  -1  -1  -6    0.01    0.02
  -1  -1  -6    0.02    0.01
  -1  -1  -6    0.01    0.01
  -1  -1  -6    0.01    0.01
  -1  -1  -6    0.00    0.01
  -1  -1  -6    0.00    0.01
   1   1   6    0.00    0.02
   1   1   6    0.01    0.01
   1   1   6    0.00    0.01
  -2  -1  -6    2.09    0.07
  -2  -1  -6    2.04    0.07
  -2  -1  -6    2.20    0.07
  -2  -1  -6    2.05    0.08
  -2  -1  -6    2.13    0.07
  -2  -1  -6    2.12    0.08
  -2  -1  -6    2.16    0.10
   2   1   6    2.15    0.10
  -3  -1  -6   25.72    0.47
  -3  -1  -6   25.51    0.47
  -3  -1  -6   25.80    0.47
  -3  -1  -6   25.68    0.48
  -3  -1  -6   25.64    0.46
  -3  -1  -6   25.97    0.52
  -3  -1  -6   26.08    0.49
   3   1   6   25.82    0.52
  -4  -1  -6   38.12    0.67
  -4  -1  -6   37.31    0.68
  -4  -1  -6   38.18    0.68
  -4  -1  -6   37.90    0.69
  -4  -1  -6   38.11    0.67
  -4  -1  -6   38.83    0.68
   4   1   6   38.52    0.74
  -5  -1  -6    0.87    0.06
  -5  -1  -6    0.85    0.05
  -5  -1  -6    0.96    0.05
  -5  -1  -6    0.81    0.05
  -5  -1  -6    0.85    0.06
  -5  -1  -6    0.79    0.05
  -6  -1  -6    3.34    0.10
  -6  -1  -6    3.18    0.10
  -6  -1  -6    3.15    0.11
  -6  -1  -6    3.25    0.10
  -6  -1  -6    3.27    0.10
   4  -2  -6    3.56    0.09
   4  -2  -6    3.66    0.09
   4  -2  -6    3.64    0.10
   4  -2  -6    3.66    0.09
   4  -2  -6    3.55    0.09
   4  -2  -6    3.59    0.10
  -4   2   6    3.55    0.10
  -4   2   6    3.43    0.12
  -4   2   6    3.50    0.10
   3  -2  -6    0.38    0.03
   3  -2  -6    0.39    0.03
   3  -2  -6    0.41    0.04
   3  -2  -6    0.38    0.03
   3  -2  -6    0.43    0.04
   3  -2  -6    0.40    0.03
  -3   2   6    0.45    0.04
  -3   2   6    0.43    0.05
  -3   2   6    0.39    0.03
   2  -2  -6   36.22    0.65
   2  -2  -6   36.65    0.64
   2  -2  -6   36.69    0.63
   2  -2  -6   36.37    0.64
   2  -2  -6   37.06    0.64
   2  -2  -6   36.68    0.63
  -2   2   6   36.08    0.65
  -2   2   6   36.21    0.68
  -2   2   6   36.00    0.64
   1  -2  -6    5.62    0.17
   1  -2  -6    5.61    0.13
   1  -2  -6    5.78    0.15
   1  -2  -6    5.78    0.13
   1  -2  -6    5.78    0.13
   1  -2  -6    5.58    0.14
   1  -2  -6    5.86    0.14
  -1   2   6    5.75    0.17
  -1   2   6    6.10    0.14
  -1   2   6    5.89    0.15
   0  -2  -6    4.66    0.15
   0   2   6    4.55    0.15
  -1  -2  -6    0.02    0.01
  -1  -2  -6    0.03    0.01
  -2  -2  -6    5.57    0.14
  -2  -2  -6    5.49    0.13
  -2  -2  -6    5.94    0.15
  -2  -2  -6    6.67    0.27
  -2  -2  -6    5.63    0.14
  -2  -2  -6    5.63    0.14
  -2  -2  -6    5.57    0.15
   2   2   6    6.96    0.19
  -4  -2  -6    0.01    0.02
  -4  -2  -6    0.00    0.02
  -4  -2  -6    0.00    0.02
  -4  -2  -6    0.02    0.02
  -4  -2  -6    0.00    0.02
  -4  -2  -6   -0.01    0.02
  -5  -2  -6    0.02    0.02
  -5  -2  -6    0.01    0.02
  -5  -2  -6   -0.01    0.02
  -5  -2  -6    0.00    0.02
  -5  -2  -6    0.00    0.02
  -6  -2  -6    0.31    0.04
  -6  -2  -6    0.33    0.04
  -6  -2  -6    0.28    0.04
  -6  -2  -6    0.26    0.03
  -6  -2  -6    0.30    0.03
  -4   3   6    0.00    0.02
   2  -3  -6    0.66    0.04
   2  -3  -6    0.55    0.06
   2  -3  -6    0.64    0.05
   2  -3  -6    0.59    0.04
   2  -3  -6    0.59    0.05
   2  -3  -6    0.54    0.04
   2  -3  -6    0.52    0.04
  -2   3   6    0.63    0.06
  -2   3   6    0.57    0.04
   1  -3  -6    8.28    0.18
   1  -3  -6    8.64    0.19
   1  -3  -6    8.70    0.23
   1  -3  -6    8.73    0.18
   1  -3  -6    8.25    0.18
   1  -3  -6    8.81    0.19
   1  -3  -6    8.78    0.20
  -1   3   6    8.23    0.22
   0  -3  -6    2.74    0.12
  -1  -3  -6    2.19    0.07
  -1  -3  -6    2.28    0.08
  -1  -3  -6    2.29    0.08
  -1  -3  -6    2.26    0.09
  -1  -3  -6    2.00    0.08
  -1  -3  -6    2.19    0.08
   1   3   6    1.96    0.10
  -3  -3  -6    2.99    0.10
  -3  -3  -6    2.87    0.10
  -3  -3  -6    2.86    0.10
  -3  -3  -6    2.68    0.15
  -3  -3  -6    2.78    0.09
  -3  -3  -6    2.74    0.09
  -4  -3  -6    2.23    0.09
  -4  -3  -6    2.36    0.08
  -4  -3  -6    2.38    0.09
  -4  -3  -6    2.30    0.09
  -4  -3  -6    2.41    0.10
  -5  -3  -6    0.20    0.03
  -5  -3  -6    0.14    0.03
  -5  -3  -6    0.14    0.03
  -5  -3  -6    0.16    0.04
  -5  -3  -6    0.17    0.03
  -6  -3  -6    0.11    0.03
  -6  -3  -6    0.12    0.04
  -6  -3  -6    0.17    0.04
  -6  -3  -6    0.07    0.03
  -6  -3  -6    0.09    0.03
   6   3   6    0.17    0.04
   6   3   6    0.20    0.04
   7   3   6    0.76    0.08
   7   3   6    0.80    0.08
   4  -4  -6    1.52    0.05
   4  -4  -6    1.46    0.06
   4  -4  -6    1.47    0.06
   4  -4  -6    1.35    0.06
   4  -4  -6    1.33    0.06
  -3   4   6    0.03    0.02
   2  -4  -6    1.27    0.08
   2  -4  -6    1.39    0.07
   2  -4  -6    1.53    0.06
   2  -4  -6    1.43    0.06
   2  -4  -6    1.48    0.06
   2  -4  -6    1.53    0.06
  -2   4   6    1.09    0.08
   1  -4  -6   14.12    0.28
   1  -4  -6   13.97    0.28
   1  -4  -6   13.74    0.30
   1  -4  -6   14.00    0.27
   1  -4  -6   14.49    0.29
   1  -4  -6   14.07    0.28
  -1   4   6   13.43    0.33
   0  -4  -6    2.04    0.09
  -1  -4  -6    1.51    0.07
  -1  -4  -6    1.48    0.07
  -1  -4  -6    1.47    0.06
  -1  -4  -6    1.44    0.07
  -1  -4  -6    1.45    0.08
  -1  -4  -6    1.35    0.07
  -2  -4  -6    0.13    0.03
  -2  -4  -6    0.14    0.03
  -2  -4  -6    0.15    0.03
  -2  -4  -6    0.10    0.03
  -2  -4  -6    0.10    0.03
  -3  -4  -6    9.03    0.21
  -3  -4  -6    9.01    0.20
  -3  -4  -6    9.04    0.21
  -3  -4  -6    9.02    0.22
  -3  -4  -6    8.94    0.21
  -4  -4  -6    0.19    0.04
  -4  -4  -6    0.13    0.03
  -4  -4  -6    0.18    0.03
  -4  -4  -6    0.21    0.04
  -4  -4  -6    0.17    0.03
  -5  -4  -6    1.50    0.08
  -5  -4  -6    1.51    0.08
  -5  -4  -6    1.59    0.09
  -5  -4  -6    1.53    0.07
  -5  -4  -6    1.42    0.08
  -6  -4  -6    1.04    0.07
  -6  -4  -6    1.05    0.07
  -6  -4  -6    1.21    0.07
  -6  -4  -6    1.16    0.08
  -6  -4  -6    1.13    0.08
   6   4   6    1.29    0.09
   6   4   6    1.26    0.08
  -7  -4  -6    0.47    0.06
   7   4   6    0.59    0.07
   7   4   6    0.49    0.06
   3  -5  -6    2.62    0.09
   3  -5  -6    2.55    0.09
   3  -5  -6    2.45    0.08
   3  -5  -6    2.42    0.08
   3  -5  -6    2.58    0.10
   3  -5  -6    2.55    0.09
  -3   5   6    2.51    0.12
   2  -5  -6    3.43    0.10
   2  -5  -6    3.31    0.10
   2  -5  -6    3.43    0.11
   2  -5  -6    3.29    0.11
   2  -5  -6    3.34    0.12
   2  -5  -6    3.48    0.11
   1  -5  -6    0.58    0.05
   1  -5  -6    0.42    0.04
   1  -5  -6    0.42    0.04
   1  -5  -6    0.39    0.05
   1  -5  -6    0.35    0.04
   1  -5  -6    0.43    0.05
   0  -5  -6    0.01    0.02
   0  -5  -6    0.00    0.02
   0  -5  -6    0.03    0.02
   0  -5  -6    0.01    0.02
   0  -5  -6    0.03    0.02
  -1  -5  -6    2.31    0.08
  -1  -5  -6    2.33    0.09
  -1  -5  -6    2.35    0.09
  -1  -5  -6    2.36    0.09
  -1  -5  -6    2.28    0.10
  -2  -5  -6   -0.01    0.02
  -2  -5  -6   -0.02    0.02
  -2  -5  -6    0.04    0.03
  -2  -5  -6    0.02    0.02
  -2  -5  -6    0.04    0.03
  -3  -5  -6    0.06    0.03
  -3  -5  -6    0.10    0.03
  -3  -5  -6    0.09    0.03
  -3  -5  -6    0.03    0.03
  -3  -5  -6    0.12    0.03
  -4  -5  -6    1.35    0.08
  -4  -5  -6    1.33    0.08
  -4  -5  -6    1.62    0.09
  -4  -5  -6    1.31    0.09
  -4  -5  -6    1.43    0.08
   4   5   6    1.42    0.08
   4   5   6    1.56    0.09
  -5  -5  -6    0.45    0.06
  -5  -5  -6    0.49    0.07
  -5  -5  -6    0.51    0.05
  -5  -5  -6    0.47    0.06
  -5  -5  -6    0.44    0.06
   5   5   6    0.47    0.06
   5   5   6    0.43    0.06
  -6  -5  -6    0.19    0.04
  -6  -5  -6    0.23    0.05
   6   5   6    0.23    0.05
   6   5   6    0.33    0.06
   3  -6  -6    6.37    0.16
   3  -6  -6    6.34    0.16
   3  -6  -6    6.38    0.15
   3  -6  -6    6.34    0.16
   3  -6  -6    6.44    0.17
   2  -6  -6    0.00    0.03
   2  -6  -6    0.00    0.02
   2  -6  -6    0.00    0.03
   2  -6  -6   -0.02    0.02
   2  -6  -6    0.00    0.02
   1  -6  -6    2.70    0.10
   1  -6  -6    2.80    0.10
   1  -6  -6    2.66    0.09
   1  -6  -6    2.78    0.10
   1  -6  -6    2.99    0.11
  -1  -6  -6    0.13    0.04
  -1  -6  -6    0.18    0.04
  -1  -6  -6    0.08    0.03
  -1  -6  -6    0.08    0.03
  -1  -6  -6    0.12    0.03
  -2  -6  -6    3.44    0.12
  -2  -6  -6    3.33    0.12
  -2  -6  -6    3.46    0.12
  -2  -6  -6    3.32    0.13
  -2  -6  -6    3.27    0.11
   2   6   6    3.31    0.13
   2   6   6    3.19    0.13
  -4  -6  -6    1.36    0.09
  -4  -6  -6    1.32    0.08
  -4  -6  -6    1.34    0.08
  -4  -6  -6    1.33    0.08
   4   6   6    1.25    0.09
   4   6   6    1.35    0.09
  -5  -6  -6    0.16    0.05
  -5  -6  -6    0.16    0.04
   5   6   6    0.24    0.05
   5   6   6    0.17    0.05
   3  -7  -6    6.08    0.19
   3  -7  -6    6.16    0.18
   3  -7  -6    6.77    0.18
   3  -7  -6    6.30    0.18
  -3   7   6    7.38    0.19
  -3   7   6    7.55    0.19
   2  -7  -6    0.18    0.04
   2  -7  -6    0.17    0.03
   2  -7  -6    0.23    0.04
   2  -7  -6    0.14    0.04
   2  -7  -6    0.21    0.04
  -2   7   6    0.20    0.04
  -2   7   6    0.23    0.04
   1  -7  -6    1.76    0.08
   1  -7  -6    1.60    0.09
   1  -7  -6    1.77    0.08
   1  -7  -6    1.62    0.08
   1  -7  -6    1.64    0.09
  -1   7   6    1.62    0.09
  -1   7   6    1.50    0.09
   0  -7  -6    0.27    0.04
   0  -7  -6    0.21    0.04
   0  -7  -6    0.28    0.05
   0  -7  -6    0.20    0.03
   0  -7  -6    0.22    0.04
   0   7   6    0.18    0.04
   0   7   6    0.18    0.04
  -1  -7  -6    2.55    0.11
  -1  -7  -6    2.53    0.10
  -1  -7  -6    2.72    0.12
  -1  -7  -6    2.51    0.10
  -1  -7  -6    2.54    0.11
   1   7   6    2.57    0.11
   1   7   6    2.41    0.12
  -2  -7  -6    0.12    0.04
  -2  -7  -6    0.17    0.04
  -2  -7  -6    0.14    0.04
  -2  -7  -6    0.11    0.04
   2   7   6    0.15    0.04
   2   7   6    0.16    0.04
  -3  -7  -6    1.53    0.10
  -3  -7  -6    1.45    0.09
   3   7   6    1.26    0.09
   3   7   6    1.35    0.09
  -4  -7  -6    0.58    0.07
   4   7   6    0.42    0.06
   4   7   6    0.47    0.07
   2  -8  -6    0.34    0.05
   2  -8  -6    0.28    0.04
   2  -8  -6    0.31    0.04
   2  -8  -6    0.26    0.05
   2  -8  -6    0.23    0.04
  -2   8   6    0.25    0.05
  -2   8   6    0.20    0.04
   1  -8  -6    1.74    0.09
   1  -8  -6    1.83    0.09
   1  -8  -6    1.83    0.10
   1  -8  -6    1.74    0.09
   1  -8  -6    1.65    0.08
  -1   8   6    1.54    0.09
  -1   8   6    1.67    0.10
   0  -8  -6    0.11    0.04
   0  -8  -6    0.10    0.03
   0   8   6    0.03    0.03
   0   8   6    0.02    0.03
  -1  -8  -6   -0.02    0.04
  -1  -8  -6   -0.02    0.03
   1   8   6   -0.01    0.03
   1   8   6   -0.01    0.03
  -2  -8  -6    0.13    0.05
   2   8   6    0.11    0.04
   2   8   6    0.13    0.05
  -3  -8  -6    0.05    0.04
   3   8   6   -0.02    0.03
   3   8   6    0.02    0.04
   2  -9  -6    1.83    0.10
   2  -9  -6    1.69    0.10
  -2   9   6    1.73    0.11
  -2   9   6    1.74    0.10
   1  -9  -6    0.06    0.05
   1  -9  -6    0.07    0.04
  -1   9   6    0.09    0.04
  -1   9   6    0.12    0.04
   0  -9  -6    0.01    0.04
   0   9   6    0.01    0.04
   0   9   6    0.02    0.04
   3  10  -7    0.01    0.03
   3  10  -7    0.01    0.03
   3  10  -7    0.02    0.03
  -3 -10   7    0.04    0.05
   2  10  -7    1.19    0.09
   2  10  -7    1.11    0.09
   2  10  -7    1.04    0.09
  -2 -10   7    1.34    0.10
   1  10  -7    0.03    0.03
   1  10  -7    0.00    0.05
   1  10  -7    0.01    0.03
   1  10  -7    0.03    0.03
  -1 -10   7    0.03    0.04
   0  10  -7    1.08    0.08
   0  10  -7    1.08    0.09
   0  10  -7    1.09    0.09
   0  10  -7    1.08    0.08
   0 -10   7    1.23    0.09
   0 -10   7    1.05    0.08
  -1  10  -7    0.13    0.03
  -1  10  -7    0.16    0.04
  -1  10  -7    0.23    0.05
  -1  10  -7    0.13    0.04
   1 -10   7    0.19    0.04
   1 -10   7    0.25    0.05
   1 -10   7    0.27    0.05
  -2  10  -7    1.02    0.08
  -2  10  -7    1.13    0.07
  -2  10  -7    1.08    0.07
  -2  10  -7    1.00    0.08
  -2  10  -7    1.17    0.08
  -2  10  -7    1.03    0.07
   2 -10   7    1.27    0.09
   2 -10   7    1.63    0.09
   4   9  -7    0.47    0.07
   4   9  -7    0.53    0.07
   4   9  -7    0.43    0.06
  -4  -9   7    0.42    0.06
   3   9  -7    0.10    0.03
   3   9  -7    0.15    0.04
   3   9  -7    0.17    0.04
   3   9  -7    0.08    0.03
  -3  -9   7    0.16    0.04
  -3  -9   7    0.13    0.04
   2   9  -7    0.16    0.04
   2   9  -7    0.24    0.05
   2   9  -7    0.18    0.04
   2   9  -7    0.22    0.04
   2   9  -7    0.18    0.04
   2   9  -7    0.17    0.04
  -2  -9   7    0.12    0.04
  -2  -9   7    0.24    0.04
  -2  -9   7    0.20    0.04
  -2  -9   7    0.25    0.05
   1   9  -7    0.34    0.05
   1   9  -7    0.35    0.05
   1   9  -7    0.38    0.05
   1   9  -7    0.43    0.06
   1   9  -7    0.47    0.06
   1   9  -7    0.42    0.05
  -1  -9   7    0.42    0.06
  -1  -9   7    0.36    0.05
  -1  -9   7    0.47    0.06
  -1  -9   7    0.42    0.05
   0   9  -7    4.74    0.14
   0   9  -7    4.63    0.15
   0   9  -7    4.88    0.16
   0   9  -7    4.69    0.16
   0   9  -7    4.84    0.16
   0   9  -7    4.89    0.15
   0  -9   7    4.90    0.16
   0  -9   7    4.71    0.15
   0  -9   7    4.87    0.14
   0  -9   7    4.69    0.16
  -1   9  -7    0.43    0.05
  -1   9  -7    0.46    0.05
  -1   9  -7    0.43    0.05
  -1   9  -7    0.52    0.05
  -1   9  -7    0.51    0.06
  -1   9  -7    0.54    0.05
   1  -9   7    0.50    0.05
   1  -9   7    0.37    0.05
   1  -9   7    0.49    0.06
   1  -9   7    0.44    0.05
   1  -9   7    0.48    0.05
  -2   9  -7    0.42    0.04
  -2   9  -7    0.44    0.05
  -2   9  -7    0.37    0.05
  -2   9  -7    0.39    0.05
  -2   9  -7    0.47    0.06
  -2   9  -7    0.38    0.05
   2  -9   7    0.41    0.05
   2  -9   7    0.37    0.05
   2  -9   7    0.43    0.06
   2  -9   7    0.44    0.06
   2  -9   7    0.34    0.05
  -3   9  -7    0.19    0.04
  -3   9  -7    0.20    0.04
   6   8  -7    0.02    0.04
   6   8  -7   -0.02    0.03
   6   8  -7    0.00    0.03
  -6  -8   7    0.07    0.04
   5   8  -7    1.36    0.09
   5   8  -7    1.44    0.10
   5   8  -7    1.59    0.10
   5   8  -7    1.49    0.10
  -5  -8   7    1.36    0.09
  -5  -8   7    1.42    0.10
   4   8  -7    0.22    0.04
   4   8  -7    0.27    0.05
   4   8  -7    0.20    0.04
   4   8  -7    0.31    0.05
   4   8  -7    0.26    0.04
   4   8  -7    0.19    0.04
  -4  -8   7    0.28    0.05
  -4  -8   7    0.25    0.05
  -4  -8   7    0.19    0.04
  -4  -8   7    0.21    0.04
   3   8  -7    0.30    0.05
   3   8  -7    0.28    0.05
   3   8  -7    0.25    0.05
   3   8  -7    0.33    0.05
   3   8  -7    0.36    0.04
   3   8  -7    0.31    0.05
  -3  -8   7    0.30    0.04
  -3  -8   7    0.30    0.05
  -3  -8   7    0.24    0.04
  -3  -8   7    0.38    0.05
   2   8  -7    1.32    0.07
   2   8  -7    1.27    0.08
   2   8  -7    1.36    0.09
   2   8  -7    1.40    0.08
   2   8  -7    1.31    0.08
   2   8  -7    1.31    0.08
  -2  -8   7    1.36    0.07
  -2  -8   7    1.46    0.08
  -2  -8   7    1.28    0.09
  -2  -8   7    1.26    0.08
   1   8  -7    1.70    0.08
   1   8  -7    1.79    0.09
   1   8  -7    1.66    0.09
   1   8  -7    1.58    0.08
   1   8  -7    1.82    0.08
   1   8  -7    1.77    0.09
  -1  -8   7    1.78    0.09
  -1  -8   7    1.72    0.09
  -1  -8   7    1.54    0.08
  -1  -8   7    1.69    0.08
   0   8  -7    0.15    0.04
   0   8  -7    0.14    0.03
   0   8  -7    0.15    0.03
   0   8  -7    0.17    0.04
   0   8  -7    0.14    0.03
   0   8  -7    0.11    0.03
   0  -8   7    0.20    0.04
   0  -8   7    0.09    0.03
   0  -8   7    0.13    0.04
   0  -8   7    0.17    0.03
   0  -8   7    0.17    0.04
  -1   8  -7    1.76    0.08
  -1   8  -7    1.76    0.08
  -1   8  -7    1.69    0.09
  -1   8  -7    1.87    0.09
  -1   8  -7    1.83    0.09
  -1   8  -7    1.74    0.08
   1  -8   7    1.68    0.08
   1  -8   7    1.68    0.09
   1  -8   7    1.80    0.09
   1  -8   7    1.84    0.08
   1  -8   7    1.95    0.09
  -2   8  -7    0.30    0.04
  -2   8  -7    0.25    0.03
  -2   8  -7    0.27    0.04
  -2   8  -7    0.24    0.04
  -2   8  -7    0.29    0.04
  -2   8  -7    0.24    0.04
   2  -8   7    0.33    0.04
   2  -8   7    0.30    0.04
   2  -8   7    0.17    0.04
   2  -8   7    0.29    0.04
   2  -8   7    0.33    0.05
  -3   8  -7    1.73    0.08
  -3   8  -7    1.86    0.07
  -3   8  -7    1.90    0.08
  -3   8  -7    1.74    0.08
  -3   8  -7    1.72    0.08
  -3   8  -7    1.75    0.08
   3  -8   7    1.74    0.09
   6   7  -7    0.06    0.04
   6   7  -7    0.13    0.04
   6   7  -7    0.14    0.04
   6   7  -7    0.11    0.04
  -6  -7   7    0.12    0.04
  -6  -7   7    0.18    0.04
  -6  -7   7    0.13    0.04
  -6  -7   7    0.07    0.04
   5   7  -7    0.35    0.05
   5   7  -7    0.34    0.05
   5   7  -7    0.38    0.05
   5   7  -7    0.46    0.06
   5   7  -7    0.38    0.06
   5   7  -7    0.40    0.05
  -5  -7   7    0.36    0.05
  -5  -7   7    0.29    0.05
  -5  -7   7    0.35    0.05
  -5  -7   7    0.41    0.05
   4   7  -7    0.66    0.06
   4   7  -7    0.60    0.06
   4   7  -7    0.58    0.06
   4   7  -7    0.63    0.06
   4   7  -7    0.66    0.07
   4   7  -7    0.59    0.06
  -4  -7   7    0.66    0.06
  -4  -7   7    0.50    0.06
  -4  -7   7    0.69    0.06
  -4  -7   7    0.54    0.06
   3   7  -7    0.09    0.03
   3   7  -7    0.10    0.03
   3   7  -7    0.06    0.03
   3   7  -7    0.11    0.03
   3   7  -7    0.08    0.03
   3   7  -7    0.15    0.04
  -3  -7   7    0.13    0.04
  -3  -7   7    0.15    0.03
  -3  -7   7    0.08    0.03
  -3  -7   7    0.11    0.03
   2   7  -7   10.38    0.23
   2   7  -7   10.08    0.25
   2   7  -7   10.31    0.25
   2   7  -7   10.04    0.24
   2   7  -7   10.11    0.24
   2   7  -7   10.11    0.25
  -2  -7   7   10.23    0.24
  -2  -7   7   10.37    0.23
  -2  -7   7   10.25    0.24
  -2  -7   7   10.14    0.25
   1   7  -7   18.32    0.36
   1   7  -7   18.73    0.37
   1   7  -7   18.23    0.39
   1   7  -7   18.15    0.38
   1   7  -7   18.69    0.39
   1   7  -7   18.88    0.39
  -1  -7   7   18.42    0.37
  -1  -7   7   18.56    0.37
  -1  -7   7   18.55    0.38
   0   7  -7    1.58    0.07
   0   7  -7    1.53    0.07
   0   7  -7    1.49    0.08
   0   7  -7    1.60    0.08
   0   7  -7    1.58    0.07
   0   7  -7    1.60    0.08
   0  -7   7    1.44    0.08
   0  -7   7    1.53    0.07
   0  -7   7    1.61    0.08
   0  -7   7    1.51    0.07
  -1   7  -7    5.10    0.14
  -1   7  -7    5.07    0.15
  -1   7  -7    5.18    0.14
  -1   7  -7    5.24    0.15
  -1   7  -7    5.47    0.15
  -1   7  -7    5.28    0.15
   1  -7   7    5.23    0.15
   1  -7   7    5.19    0.15
   1  -7   7    5.25    0.14
   1  -7   7    5.23    0.14
  -2   7  -7    0.74    0.05
  -2   7  -7    0.72    0.06
  -2   7  -7    0.66    0.05
  -2   7  -7    0.75    0.05
  -2   7  -7    0.77    0.05
  -2   7  -7    0.73    0.06
   2  -7   7    0.80    0.05
   2  -7   7    0.68    0.06
   2  -7   7    0.80    0.06
   2  -7   7    0.79    0.05
  -3   7  -7    4.54    0.13
  -3   7  -7    4.32    0.13
  -3   7  -7    4.20    0.13
  -3   7  -7    4.34    0.14
  -3   7  -7    4.37    0.13
  -3   7  -7    4.15    0.12
  -3   7  -7    4.47    0.13
  -3   7  -7    4.33    0.12
   3  -7   7    4.47    0.14
   7   6  -7    0.11    0.04
   7   6  -7    0.09    0.04
   7   6  -7    0.13    0.04
   7   6  -7    0.17    0.04
  -7  -6   7    0.11    0.04
  -7  -6   7    0.13    0.04
  -7  -6   7    0.14    0.04
  -7  -6   7    0.08    0.04
  -7  -6   7    0.09    0.04
   6   6  -7    0.01    0.03
   6   6  -7   -0.03    0.02
   6   6  -7    0.01    0.02
   6   6  -7    0.02    0.02
   6   6  -7    0.04    0.03
   6   6  -7   -0.02    0.02
  -6  -6   7    0.03    0.03
  -6  -6   7   -0.01    0.03
  -6  -6   7    0.03    0.03
  -6  -6   7   -0.02    0.02
   5   6  -7    0.33    0.05
   5   6  -7    0.34    0.05
   5   6  -7    0.33    0.05
   5   6  -7    0.34    0.04
   5   6  -7    0.34    0.04
   5   6  -7    0.40    0.05
  -5  -6   7    0.37    0.05
  -5  -6   7    0.33    0.04
  -5  -6   7    0.28    0.04
  -5  -6   7    0.33    0.05
   4   6  -7    0.39    0.05
   4   6  -7    0.39    0.04
   4   6  -7    0.38    0.05
   4   6  -7    0.43    0.05
   4   6  -7    0.44    0.05
   4   6  -7    0.36    0.05
  -4  -6   7    0.37    0.05
  -4  -6   7    0.33    0.04
  -4  -6   7    0.38    0.05
  -4  -6   7    0.39    0.04
   3   6  -7    4.05    0.12
   3   6  -7    4.47    0.14
   3   6  -7    4.17    0.13
   3   6  -7    4.05    0.14
   3   6  -7    4.22    0.13
   3   6  -7    4.34    0.14
  -3  -6   7    4.33    0.14
  -3  -6   7    4.23    0.13
  -3  -6   7    4.26    0.13
  -3  -6   7    4.23    0.12
   2   6  -7    0.73    0.06
   2   6  -7    0.80    0.06
   2   6  -7    0.86    0.06
   2   6  -7    0.86    0.06
   2   6  -7    0.83    0.06
   2   6  -7    0.86    0.05
   1   6  -7   19.02    0.38
   1   6  -7   18.96    0.39
   1   6  -7   18.97    0.39
   1   6  -7   19.58    0.37
   1   6  -7   19.17    0.39
   1   6  -7   18.65    0.40
   1   6  -7   19.26    0.39
   1   6  -7   18.77    0.38
  -1  -6   7   19.86    0.38
  -1  -6   7   19.01    0.39
  -1  -6   7   19.98    0.37
   0   6  -7    1.21    0.06
   0   6  -7    1.14    0.07
   0   6  -7    1.09    0.07
   0   6  -7    1.22    0.07
   0   6  -7    1.23    0.07
   0   6  -7    1.24    0.07
   0   6  -7    1.29    0.06
   0   6  -7    1.39    0.07
   0  -6   7    1.41    0.07
  -1   6  -7    0.85    0.06
  -1   6  -7    0.87    0.10
  -1   6  -7    0.77    0.06
  -1   6  -7    0.97    0.06
  -1   6  -7    0.79    0.05
  -1   6  -7    0.81    0.06
  -1   6  -7    0.83    0.05
  -1   6  -7    0.79    0.06
  -1   6  -7    0.83    0.06
   1  -6   7    0.78    0.06
  -2   6  -7    1.13    0.06
  -2   6  -7    1.08    0.07
  -2   6  -7    1.04    0.05
  -2   6  -7    1.07    0.06
  -2   6  -7    1.22    0.06
  -2   6  -7    1.29    0.07
  -2   6  -7    1.17    0.06
  -2   6  -7    1.08    0.06
  -2   6  -7    1.09    0.07
   2  -6   7    1.26    0.07
  -3   6  -7    0.14    0.03
  -3   6  -7    0.14    0.03
  -3   6  -7    0.13    0.03
  -3   6  -7    0.14    0.03
  -3   6  -7    0.11    0.03
  -3   6  -7    0.12    0.02
  -3   6  -7    0.17    0.03
  -3   6  -7    0.13    0.02
  -3   6  -7    0.15    0.03
   3  -6   7    0.14    0.03
  -4   6  -7    3.42    0.12
   4  -6   7    3.49    0.11
   7   5  -7    0.03    0.03
   7   5  -7   -0.01    0.02
   7   5  -7    0.03    0.03
  -7  -5   7    0.00    0.03
  -7  -5   7   -0.01    0.03
   6   5  -7   -0.02    0.02
   6   5  -7    0.00    0.02
   6   5  -7   -0.02    0.02
   6   5  -7   -0.03    0.02
   6   5  -7    0.01    0.02
   6   5  -7    0.04    0.02
  -6  -5   7    0.05    0.03
  -6  -5   7    0.03    0.03
  -6  -5   7    0.01    0.03
  -6  -5   7    0.04    0.03
  -6  -5   7   -0.01    0.02
   5   5  -7    0.01    0.02
   5   5  -7   -0.01    0.02
   5   5  -7    0.00    0.02
   5   5  -7    0.02    0.02
   5   5  -7    0.00    0.02
   5   5  -7    0.01    0.02
  -5  -5   7    0.04    0.03
  -5  -5   7    0.03    0.02
  -5  -5   7    0.05    0.02
  -5  -5   7    0.03    0.02
  -5  -5   7    0.04    0.03
   4   5  -7    1.16    0.07
   4   5  -7    1.06    0.06
   4   5  -7    0.94    0.07
   4   5  -7    1.14    0.06
   4   5  -7    1.11    0.06
   4   5  -7    0.99    0.07
  -4  -5   7    1.36    0.07
  -4  -5   7    1.44    0.07
  -4  -5   7    1.43    0.07
  -4  -5   7    1.27    0.07
   3   5  -7    5.76    0.16
   3   5  -7    5.75    0.17
   3   5  -7    5.86    0.15
   3   5  -7    5.83    0.16
   3   5  -7    5.78    0.16
   3   5  -7    5.94    0.15
   3   5  -7    5.76    0.15
   3   5  -7    5.77    0.16
  -3  -5   7    5.85    0.16
  -3  -5   7    5.63    0.15
  -3  -5   7    5.89    0.15
   2   5  -7    3.36    0.10
   2   5  -7    2.98    0.11
   2   5  -7    2.99    0.11
   2   5  -7    3.35    0.10
   2   5  -7    3.14    0.12
   2   5  -7    3.20    0.11
   2   5  -7    3.20    0.12
   2   5  -7    3.33    0.11
   2   5  -7    3.11    0.10
  -2  -5   7    3.81    0.12
   1   5  -7    1.43    0.07
   1   5  -7    1.70    0.07
   1   5  -7    1.43    0.08
   1   5  -7    1.41    0.07
   1   5  -7    1.74    0.07
   1   5  -7    1.51    0.07
   1   5  -7    1.57    0.07
   1   5  -7    1.42    0.08
   1   5  -7    1.35    0.07
   0   5  -7   26.62    0.51
   0   5  -7   26.52    0.50
   0   5  -7   26.98    0.49
   0   5  -7   26.89    0.50
   0   5  -7   27.12    0.49
   0   5  -7   26.06    0.52
   0   5  -7   27.35    0.51
   0   5  -7   26.29    0.50
   0   5  -7   26.86    0.50
   0  -5   7   26.41    0.51
  -1   5  -7    0.05    0.03
  -1   5  -7    0.05    0.02
  -1   5  -7    0.07    0.02
  -1   5  -7    0.06    0.02
  -1   5  -7    0.09    0.02
  -1   5  -7    0.03    0.02
  -1   5  -7    0.04    0.02
  -1   5  -7    0.06    0.03
  -1   5  -7    0.02    0.02
   1  -5   7    0.04    0.02
  -2   5  -7    0.13    0.03
  -2   5  -7    0.08    0.02
  -2   5  -7    0.12    0.03
  -2   5  -7    0.16    0.03
  -2   5  -7    0.15    0.03
  -2   5  -7    0.17    0.03
  -2   5  -7    0.17    0.03
  -2   5  -7    0.14    0.03
  -2   5  -7    0.08    0.02
   2  -5   7    0.05    0.02
  -3   5  -7    5.62    0.14
  -3   5  -7    5.53    0.15
  -3   5  -7    5.71    0.14
  -3   5  -7    5.71    0.13
  -3   5  -7    5.91    0.15
  -3   5  -7    5.47    0.16
  -3   5  -7    5.35    0.15
   3  -5   7    5.54    0.15
  -4   5  -7   14.84    0.31
  -4   5  -7   14.70    0.29
  -4   5  -7   14.94    0.30
  -4   5  -7   15.86    0.36
  -4   5  -7   14.74    0.30
  -4   5  -7   15.44    0.37
   4  -5   7   14.91    0.31
   6   4  -7    2.23    0.10
   6   4  -7    2.22    0.10
   6   4  -7    2.22    0.09
   6   4  -7    2.25    0.08
   6   4  -7    2.20    0.09
   6   4  -7    2.21    0.10
  -6  -4   7    2.09    0.09
  -6  -4   7    2.11    0.09
  -6  -4   7    2.33    0.10
  -6  -4   7    2.32    0.09
  -6  -4   7    2.32    0.10
   5   4  -7    0.06    0.02
   5   4  -7    0.02    0.02
   5   4  -7    0.06    0.03
   5   4  -7    0.04    0.02
   5   4  -7    0.05    0.03
   5   4  -7    0.01    0.02
   5   4  -7    0.05    0.02
   5   4  -7    0.01    0.02
  -5  -4   7    0.08    0.03
  -5  -4   7    0.05    0.03
  -5  -4   7    0.04    0.02
  -5  -4   7    0.06    0.03
   4   4  -7    1.81    0.07
   4   4  -7    1.66    0.08
   4   4  -7    1.77    0.09
   4   4  -7    1.70    0.08
   4   4  -7    1.74    0.08
   4   4  -7    1.87    0.08
   4   4  -7    1.82    0.07
   4   4  -7    1.72    0.08
   4   4  -7    1.68    0.08
  -4  -4   7    1.72    0.08
  -4  -4   7    1.83    0.07
  -4  -4   7    1.78    0.08
   3   4  -7    1.94    0.07
   3   4  -7    1.98    0.08
   3   4  -7    2.00    0.08
   3   4  -7    1.77    0.07
   3   4  -7    2.01    0.09
   3   4  -7    1.98    0.08
   3   4  -7    1.94    0.08
   3   4  -7    2.02    0.09
   3   4  -7    1.86    0.08
  -3  -4   7    1.86    0.08
   2   4  -7    0.95    0.06
   2   4  -7    0.99    0.06
   2   4  -7    1.02    0.05
   2   4  -7    1.04    0.05
   2   4  -7    0.96    0.05
   2   4  -7    0.97    0.06
   2   4  -7    1.01    0.06
   2   4  -7    0.96    0.06
   2   4  -7    0.97    0.06
  -2  -4   7    0.90    0.06
   1   4  -7    0.18    0.03
   1   4  -7    0.18    0.03
   1   4  -7    0.25    0.04
   1   4  -7    0.16    0.03
   1   4  -7    0.22    0.03
   1   4  -7    0.23    0.03
   1   4  -7    0.23    0.03
   1   4  -7    0.18    0.03
   1   4  -7    0.22    0.03
  -1  -4   7    0.19    0.03
   0   4  -7    3.86    0.10
   0   4  -7    3.77    0.11
   0   4  -7    3.92    0.11
   0   4  -7    3.66    0.11
   0   4  -7    3.76    0.11
   0   4  -7    3.76    0.11
   0   4  -7    3.88    0.12
   0   4  -7    3.74    0.10
   0  -4   7    3.55    0.11
  -1   4  -7    1.34    0.06
  -1   4  -7    1.43    0.07
  -1   4  -7    1.41    0.06
  -1   4  -7    1.40    0.07
  -1   4  -7    1.40    0.07
  -1   4  -7    1.43    0.06
  -1   4  -7    1.37    0.07
  -1   4  -7    1.35    0.06
   1  -4   7    1.35    0.07
  -2   4  -7    6.91    0.15
  -2   4  -7    6.89    0.16
  -2   4  -7    6.81    0.16
  -2   4  -7    6.95    0.17
  -2   4  -7    7.01    0.16
  -2   4  -7    6.74    0.17
   2  -4   7    6.85    0.17
  -3   4  -7    4.36    0.12
  -3   4  -7    4.34    0.12
  -3   4  -7    4.19    0.13
  -3   4  -7    4.39    0.12
  -3   4  -7    4.32    0.11
  -3   4  -7    4.20    0.11
   3  -4   7    4.25    0.12
  -4   4  -7    3.56    0.10
  -4   4  -7    3.58    0.11
  -4   4  -7    3.50    0.10
  -4   4  -7    3.64    0.10
  -4   4  -7    3.56    0.10
  -4   4  -7    3.52    0.11
   4  -4   7    3.46    0.13
   4  -4   7    3.58    0.11
   6   3  -7    0.70    0.06
   6   3  -7    0.75    0.05
   6   3  -7    0.69    0.05
   6   3  -7    0.83    0.07
   6   3  -7    0.74    0.06
   6   3  -7    0.75    0.06
   6   3  -7    0.68    0.05
   6   3  -7    0.64    0.06
   6   3  -7    0.67    0.05
  -6  -3   7    0.65    0.05
  -6  -3   7    0.60    0.05
  -6  -3   7    0.70    0.06
  -6  -3   7    0.68    0.05
  -6  -3   7    0.66    0.06
   5   3  -7    0.95    0.06
   5   3  -7    0.95    0.06
   5   3  -7    0.89    0.07
   5   3  -7    0.93    0.06
   5   3  -7    0.95    0.06
   5   3  -7    0.90    0.06
   5   3  -7    0.91    0.05
   5   3  -7    0.86    0.05
   5   3  -7    0.88    0.05
  -5  -3   7    0.87    0.05
  -5  -3   7    0.86    0.06
  -5  -3   7    0.86    0.05
   4   3  -7    1.71    0.07
   4   3  -7    1.79    0.08
   4   3  -7    1.80    0.08
   4   3  -7    1.88    0.07
   4   3  -7    1.76    0.07
   4   3  -7    1.67    0.08
   4   3  -7    1.79    0.08
   4   3  -7    1.78    0.07
   4   3  -7    1.77    0.08
  -4  -3   7    1.82    0.08
   3   3  -7    2.44    0.08
   3   3  -7    2.47    0.09
   3   3  -7    2.40    0.09
   3   3  -7    2.37    0.09
   3   3  -7    2.44    0.10
   3   3  -7    2.44    0.08
   3   3  -7    2.40    0.08
   3   3  -7    2.35    0.09
   3   3  -7    2.55    0.09
  -3  -3   7    2.33    0.09
   2   3  -7    8.47    0.19
   2   3  -7    8.54    0.18
   2   3  -7    8.36    0.19
   2   3  -7    8.44    0.19
   2   3  -7    8.25    0.18
   2   3  -7    8.53    0.20
   2   3  -7    8.80    0.19
   2   3  -7    8.44    0.19
  -2  -3   7    8.41    0.20
   1   3  -7    4.63    0.12
   1   3  -7    4.68    0.13
   1   3  -7    4.75    0.12
   1   3  -7    4.65    0.12
   1   3  -7    4.73    0.13
   1   3  -7    4.67    0.13
   1   3  -7    4.62    0.11
   1   3  -7    4.67    0.13
  -1  -3   7    4.57    0.13
   0   3  -7    0.01    0.02
   0   3  -7    0.00    0.01
   0   3  -7    0.00    0.02
   0   3  -7    0.01    0.01
   0   3  -7    0.01    0.02
   0   3  -7    0.00    0.02
   0   3  -7    0.02    0.02
   0   3  -7    0.00    0.02
   0  -3   7    0.00    0.02
  -1   3  -7    2.78    0.09
  -1   3  -7    2.69    0.08
  -1   3  -7    2.80    0.08
  -1   3  -7    2.70    0.09
  -1   3  -7    2.80    0.09
  -1   3  -7    2.76    0.09
   1  -3   7    2.67    0.09
  -2   3  -7    1.90    0.07
  -2   3  -7    1.94    0.08
  -2   3  -7    1.80    0.07
  -2   3  -7    1.87    0.07
  -2   3  -7    1.83    0.06
  -2   3  -7    1.82    0.07
   2  -3   7    1.75    0.07
  -3   3  -7    1.97    0.07
  -3   3  -7    1.96    0.07
  -3   3  -7    2.08    0.07
  -3   3  -7    2.06    0.08
  -3   3  -7    2.03    0.08
  -3   3  -7    2.04    0.07
   3  -3   7    2.02    0.10
   3  -3   7    1.99    0.08
  -4   3  -7    6.02    0.15
  -4   3  -7    5.98    0.15
  -4   3  -7    6.20    0.14
  -4   3  -7    6.16    0.14
  -4   3  -7    6.15    0.15
  -4   3  -7    6.17    0.16
   4  -3   7    6.31    0.16
   4  -3   7    5.86    0.18
  -5   3  -7    0.53    0.05
  -5   3  -7    0.60    0.06
   5  -3   7    0.64    0.05
   6   2  -7    0.07    0.02
   6   2  -7    0.09    0.03
   6   2  -7    0.08    0.03
   6   2  -7    0.05    0.02
   6   2  -7    0.07    0.02
   6   2  -7    0.07    0.02
  -6  -2   7    0.07    0.02
  -6  -2   7    0.11    0.03
  -6  -2   7    0.07    0.03
  -6  -2   7    0.11    0.02
   5   2  -7    3.15    0.11
   5   2  -7    3.23    0.10
   5   2  -7    3.05    0.09
   5   2  -7    3.05    0.10
   5   2  -7    3.18    0.11
   5   2  -7    3.25    0.10
   5   2  -7    3.28    0.09
   4   2  -7    1.11    0.06
   4   2  -7    1.13    0.05
   4   2  -7    1.07    0.06
   4   2  -7    1.07    0.06
   4   2  -7    1.04    0.06
   4   2  -7    1.12    0.05
   4   2  -7    1.03    0.05
   4   2  -7    1.07    0.06
   4   2  -7    1.02    0.06
  -4  -2   7    1.13    0.08
  -4  -2   7    1.19    0.06
   3   2  -7    3.45    0.10
   3   2  -7    3.41    0.11
   3   2  -7    3.49    0.10
   3   2  -7    3.41    0.10
   3   2  -7    3.55    0.10
   3   2  -7    3.43    0.10
   3   2  -7    3.33    0.10
   3   2  -7    3.34    0.09
  -3  -2   7    3.43    0.11
   2   2  -7   18.71    0.36
   2   2  -7   18.76    0.35
   2   2  -7   18.50    0.35
   2   2  -7   18.68    0.34
   2   2  -7   18.72    0.37
   2   2  -7   18.10    0.36
   2   2  -7   18.10    0.36
   2   2  -7   18.85    0.35
  -2  -2   7   18.52    0.36
   1   2  -7    6.88    0.16
   1   2  -7    6.78    0.15
   1   2  -7    6.99    0.16
   1   2  -7    6.96    0.16
   1   2  -7    7.18    0.17
   1   2  -7    7.02    0.16
  -1  -2   7    7.16    0.17
   0   2  -7    6.52    0.15
   0   2  -7    6.41    0.15
   0   2  -7    6.47    0.15
   0   2  -7    6.58    0.15
   0   2  -7    6.48    0.14
   0   2  -7    6.41    0.16
   0  -2   7    6.57    0.16
  -1   2  -7    0.17    0.03
  -1   2  -7    0.18    0.03
  -1   2  -7    0.19    0.03
  -1   2  -7    0.13    0.02
  -1   2  -7    0.19    0.02
  -1   2  -7    0.17    0.03
   1  -2   7    0.19    0.04
  -2   2  -7    2.08    0.08
  -2   2  -7    2.06    0.07
  -2   2  -7    2.20    0.08
  -2   2  -7    2.10    0.07
  -2   2  -7    2.24    0.08
  -2   2  -7    2.11    0.07
   2  -2   7    2.13    0.08
   2  -2   7    2.20    0.10
  -3   2  -7    2.23    0.08
  -3   2  -7    2.25    0.08
  -3   2  -7    2.29    0.07
  -3   2  -7    2.13    0.08
  -3   2  -7    2.22    0.07
  -3   2  -7    2.19    0.08
   3  -2   7    2.23    0.11
   3  -2   7    2.25    0.08
  -4   2  -7    0.13    0.03
  -4   2  -7    0.13    0.03
  -4   2  -7    0.11    0.03
   4  -2   7    0.23    0.04
   4  -2   7    0.14    0.04
  -5   2  -7    0.04    0.02
  -5   2  -7    0.00    0.02
  -5   2  -7    0.01    0.02
  -5   2  -7    0.03    0.02
  -5   2  -7    0.04    0.02
   5   1  -7    0.61    0.05
   5   1  -7    0.61    0.04
   5   1  -7    0.66    0.04
   5   1  -7    0.56    0.05
   5   1  -7    0.63    0.05
   5   1  -7    0.66    0.04
   5   1  -7    0.59    0.05
  -5  -1   7    0.60    0.05
  -5  -1   7    0.60    0.06
   4   1  -7    0.62    0.04
   4   1  -7    0.63    0.04
   4   1  -7    0.61    0.04
   4   1  -7    0.62    0.05
   4   1  -7    0.63    0.04
   4   1  -7    0.62    0.04
   3   1  -7    0.25    0.03
   3   1  -7    0.23    0.03
   3   1  -7    0.23    0.03
   3   1  -7    0.26    0.04
   3   1  -7    0.24    0.03
   3   1  -7    0.24    0.03
  -3  -1   7    0.24    0.03
  -3  -1   7    0.24    0.04
   2   1  -7   10.33    0.21
   2   1  -7    9.98    0.21
   2   1  -7    9.89    0.21
   2   1  -7   10.01    0.20
   2   1  -7   10.34    0.22
   2   1  -7   10.51    0.21
  -2  -1   7   10.51    0.22
  -2  -1   7    8.78    0.22
   1   1  -7    3.56    0.10
   1   1  -7    3.56    0.10
   1   1  -7    3.43    0.09
   1   1  -7    3.73    0.10
   1   1  -7    3.47    0.11
   1   1  -7    3.50    0.09
  -1  -1   7    3.46    0.10
  -1  -1   7    3.60    0.11
   0   1  -7    2.76    0.08
   0   1  -7    2.80    0.08
   0   1  -7    2.82    0.09
   0   1  -7    2.99    0.09
   0   1  -7    2.87    0.08
   0   1  -7    2.91    0.08
   0  -1   7    2.64    0.09
   0  -1   7    2.60    0.11
  -1   1  -7    5.26    0.13
  -1   1  -7    5.01    0.12
  -1   1  -7    5.19    0.14
  -1   1  -7    5.16    0.12
  -1   1  -7    5.13    0.13
  -1   1  -7    5.12    0.13
   1  -1   7    5.19    0.13
   1  -1   7    5.09    0.16
  -2   1  -7   10.83    0.23
  -2   1  -7   10.84    0.23
  -2   1  -7   11.04    0.24
  -2   1  -7   11.05    0.22
  -2   1  -7   11.03    0.22
  -2   1  -7   10.96    0.23
   2  -1   7   11.13    0.24
   2  -1   7   11.08    0.27
  -3   1  -7    1.01    0.05
  -3   1  -7    0.93    0.05
  -3   1  -7    0.92    0.05
  -3   1  -7    0.95    0.05
  -3   1  -7    0.89    0.06
  -3   1  -7    0.88    0.05
   3  -1   7    1.01    0.06
   3  -1   7    0.95    0.07
  -4   1  -7    9.71    0.21
  -4   1  -7   10.11    0.22
  -4   1  -7    9.72    0.21
  -4   1  -7    9.93    0.21
  -4   1  -7   10.14    0.22
  -4   1  -7   10.05    0.23
   4  -1   7    9.98    0.26
   4  -1   7   10.32    0.23
  -5   1  -7    0.06    0.02
  -5   1  -7    0.02    0.02
  -5   1  -7    0.05    0.02
  -5   1  -7    0.07    0.03
  -5   1  -7    0.08    0.02
  -5   1  -7    0.07    0.02
   5   0  -7    0.09    0.03
  -5   0   7    0.04    0.02
   4   0  -7    7.45    0.17
   4   0  -7    7.60    0.17
   4   0  -7    7.26    0.16
   4   0  -7    7.51    0.18
   4   0  -7    7.39    0.17
   4   0  -7    7.48    0.16
  -4   0   7    7.79    0.17
  -4   0   7    7.50    0.18
  -4   0   7    7.62    0.20
   3   0  -7    0.18    0.02
   3   0  -7    0.24    0.03
   3   0  -7    0.16    0.03
   3   0  -7    0.25    0.03
   3   0  -7    0.21    0.03
   3   0  -7    0.16    0.03
  -3   0   7    0.20    0.03
  -3   0   7    0.21    0.03
  -3   0   7    0.22    0.04
   2   0  -7   19.54    0.36
   2   0  -7   19.34    0.37
   2   0  -7   19.47    0.36
   2   0  -7   19.54    0.36
   2   0  -7   19.66    0.36
   2   0  -7   19.91    0.38
  -2   0   7   19.36    0.37
  -2   0   7   19.16    0.41
  -2   0   7   19.67    0.38
   1   0  -7    0.37    0.04
   1   0  -7    0.33    0.03
   1   0  -7    0.29    0.03
   1   0  -7    0.29    0.03
   1   0  -7    0.27    0.03
   1   0  -7    0.27    0.03
  -1   0   7    0.32    0.04
  -1   0   7    0.35    0.04
  -1   0   7    0.38    0.04
   0   0  -7    4.60    0.11
   0   0  -7    4.53    0.12
   0   0  -7    4.53    0.11
   0   0  -7    4.50    0.13
   0   0  -7    4.36    0.11
   0   0  -7    4.36    0.11
   0   0   7    4.67    0.15
   0   0   7    4.60    0.12
  -1   0  -7    0.57    0.04
  -1   0  -7    0.57    0.04
  -1   0  -7    0.49    0.04
  -1   0  -7    0.56    0.04
  -1   0  -7    0.53    0.04
  -1   0  -7    0.55    0.04
   1   0   7    0.53    0.05
   1   0   7    0.52    0.04
  -2   0  -7    0.00    0.02
  -2   0  -7   -0.01    0.01
  -2   0  -7   -0.02    0.02
  -2   0  -7   -0.01    0.01
  -2   0  -7   -0.02    0.01
  -2   0  -7    0.01    0.02
   2   0   7    0.03    0.02
   2   0   7    0.04    0.03
  -3   0  -7    0.14    0.03
  -3   0  -7    0.21    0.03
  -3   0  -7    0.21    0.03
  -3   0  -7    0.17    0.03
  -3   0  -7    0.19    0.03
  -3   0  -7    0.20    0.04
   3   0   7    0.18    0.03
   3   0   7    0.21    0.04
  -4   0  -7   17.64    0.36
  -4   0  -7   17.96    0.35
  -4   0  -7   17.96    0.35
  -4   0  -7   17.80    0.35
  -4   0  -7   18.10    0.34
  -4   0  -7   17.88    0.34
  -5   0  -7    0.06    0.02
  -5   0  -7    0.05    0.02
  -5   0  -7    0.04    0.02
  -5   0  -7    0.07    0.03
  -5   0  -7    0.05    0.02
  -5   0  -7    0.04    0.02
  -6   0  -7    9.01    0.25
   5  -1  -7    2.05    0.07
   5  -1  -7    2.10    0.07
   5  -1  -7    2.13    0.08
   5  -1  -7    2.09    0.07
   5  -1  -7    2.09    0.07
  -5   1   7    2.05    0.08
   4  -1  -7    0.15    0.03
   4  -1  -7    0.25    0.03
   4  -1  -7    0.24    0.03
   4  -1  -7    0.25    0.03
   4  -1  -7    0.18    0.02
   4  -1  -7    0.23    0.04
  -4   1   7    0.23    0.04
  -4   1   7    0.21    0.03
  -4   1   7    0.18    0.03
   3  -1  -7    0.09    0.02
   3  -1  -7    0.09    0.02
   3  -1  -7    0.14    0.02
   3  -1  -7    0.07    0.02
   3  -1  -7    0.10    0.02
   3  -1  -7    0.08    0.02
  -3   1   7    0.06    0.02
  -3   1   7    0.10    0.02
  -3   1   7    0.08    0.02
   2  -1  -7    0.91    0.05
   2  -1  -7    1.02    0.05
   2  -1  -7    0.96    0.06
   2  -1  -7    0.91    0.05
   2  -1  -7    0.92    0.04
   2  -1  -7    1.06    0.05
  -2   1   7    1.01    0.07
  -2   1   7    0.94    0.08
  -2   1   7    0.96    0.05
   1  -1  -7    6.97    0.16
   1  -1  -7    7.13    0.16
   1  -1  -7    7.10    0.15
   1  -1  -7    7.40    0.17
   1  -1  -7    6.97    0.16
   1  -1  -7    6.86    0.16
  -1   1   7    6.86    0.19
  -1   1   7    6.79    0.16
   0  -1  -7    4.46    0.12
   0  -1  -7    4.43    0.11
   0  -1  -7    4.55    0.12
   0  -1  -7    4.51    0.11
   0  -1  -7    4.51    0.13
   0  -1  -7    4.52    0.12
   0   1   7    4.61    0.15
   0   1   7    4.30    0.12
  -1  -1  -7    2.01    0.07
  -1  -1  -7    1.95    0.08
  -1  -1  -7    2.09    0.07
  -1  -1  -7    1.99    0.07
  -1  -1  -7    2.01    0.07
  -1  -1  -7    2.06    0.08
   1   1   7    1.93    0.10
   1   1   7    2.00    0.08
  -2  -1  -7    0.23    0.04
  -2  -1  -7    0.25    0.03
  -2  -1  -7    0.24    0.03
  -2  -1  -7    0.25    0.03
  -2  -1  -7    0.20    0.03
  -2  -1  -7    0.28    0.03
   2   1   7    0.24    0.04
  -3  -1  -7    5.02    0.14
  -3  -1  -7    5.05    0.13
  -3  -1  -7    5.08    0.13
  -3  -1  -7    5.09    0.15
  -3  -1  -7    5.00    0.13
  -3  -1  -7    5.14    0.14
  -4  -1  -7    1.86    0.07
  -4  -1  -7    1.82    0.08
  -4  -1  -7    1.89    0.08
  -4  -1  -7    1.80    0.08
  -4  -1  -7    1.89    0.07
  -4  -1  -7    2.03    0.11
  -5  -1  -7    0.36    0.04
  -5  -1  -7    0.29    0.03
  -5  -1  -7    0.27    0.04
  -5  -1  -7    0.28    0.04
  -5  -1  -7    0.23    0.03
  -6  -1  -7    0.03    0.02
  -6  -1  -7    0.06    0.03
  -6  -1  -7    0.07    0.02
  -6  -1  -7    0.05    0.02
  -6  -1  -7    0.08    0.03
   4  -2  -7    2.55    0.07
   4  -2  -7    2.51    0.08
   4  -2  -7    2.56    0.08
   4  -2  -7    2.44    0.08
   4  -2  -7    2.54    0.08
   4  -2  -7    2.49    0.09
  -4   2   7    2.45    0.10
  -4   2   7    2.49    0.08
  -4   2   7    2.42    0.09
   3  -2  -7    2.30    0.08
   3  -2  -7    2.13    0.07
   3  -2  -7    2.22    0.07
   3  -2  -7    2.21    0.07
   3  -2  -7    2.20    0.08
   3  -2  -7    2.26    0.09
  -3   2   7    2.76    0.11
  -3   2   7    2.74    0.09
   2  -2  -7    0.00    0.02
   2  -2  -7    0.02    0.02
   2  -2  -7    0.00    0.02
   2  -2  -7    0.00    0.02
   2  -2  -7    0.00    0.02
   2  -2  -7    0.02    0.02
  -2   2   7    0.02    0.02
  -2   2   7    0.01    0.02
   1  -2  -7    5.91    0.14
   1  -2  -7    5.98    0.15
   1  -2  -7    5.74    0.15
   1  -2  -7    5.72    0.14
   1  -2  -7    5.82    0.14
   1  -2  -7    5.90    0.13
  -1   2   7    5.87    0.15
  -1   2   7    5.96    0.18
   0  -2  -7    3.66    0.12
   0  -2  -7    3.55    0.10
   0  -2  -7    3.61    0.11
   0  -2  -7    3.60    0.10
   0  -2  -7    3.59    0.10
   0  -2  -7    3.53    0.10
   0   2   7    3.56    0.14
  -1  -2  -7    0.08    0.02
  -1  -2  -7    0.09    0.02
  -1  -2  -7    0.04    0.02
  -1  -2  -7    0.06    0.02
  -1  -2  -7    0.06    0.03
  -1  -2  -7    0.11    0.03
   1   2   7    0.09    0.04
  -2  -2  -7    1.61    0.08
  -2  -2  -7    1.56    0.07
  -2  -2  -7    1.55    0.08
  -2  -2  -7    1.54    0.07
  -2  -2  -7    1.70    0.07
  -2  -2  -7    1.67    0.07
  -3  -2  -7   10.54    0.24
  -3  -2  -7   10.63    0.22
  -3  -2  -7   10.64    0.23
  -3  -2  -7   10.54    0.23
  -3  -2  -7   10.65    0.23
  -4  -2  -7    1.78    0.07
  -4  -2  -7    1.70    0.08
  -4  -2  -7    1.61    0.07
  -4  -2  -7    1.66    0.07
  -4  -2  -7    1.66    0.08
  -5  -2  -7    0.01    0.02
  -5  -2  -7    0.00    0.02
  -5  -2  -7   -0.03    0.02
  -5  -2  -7    0.00    0.02
  -5  -2  -7    0.00    0.02
  -6  -2  -7    0.22    0.04
  -6  -2  -7    0.22    0.04
  -6  -2  -7    0.23    0.04
  -6  -2  -7    0.24    0.03
  -6  -2  -7    0.21    0.04
   4  -3  -7    3.54    0.10
   4  -3  -7    3.53    0.10
   4  -3  -7    3.54    0.10
   4  -3  -7    3.60    0.11
   4  -3  -7    3.53    0.11
   4  -3  -7    3.54    0.09
  -4   3   7    3.55    0.17
   3  -3  -7    5.75    0.14
   3  -3  -7    5.80    0.15
   3  -3  -7    6.11    0.14
   3  -3  -7    6.09    0.14
   3  -3  -7    5.82    0.13
   3  -3  -7    5.82    0.15
   2  -3  -7    0.70    0.05
   2  -3  -7    0.74    0.05
   2  -3  -7    0.71    0.04
   2  -3  -7    0.74    0.05
   2  -3  -7    0.69    0.05
   2  -3  -7    0.73    0.05
  -2   3   7    0.61    0.06
   1  -3  -7    3.11    0.10
   1  -3  -7    3.00    0.11
   1  -3  -7    2.99    0.09
   1  -3  -7    2.97    0.09
   1  -3  -7    3.13    0.10
   0  -3  -7    4.82    0.14
   0  -3  -7    4.88    0.13
   0  -3  -7    5.03    0.12
   0  -3  -7    4.95    0.13
   0  -3  -7    4.94    0.13
   0  -3  -7    4.68    0.13
  -1  -3  -7   11.99    0.28
  -1  -3  -7   12.14    0.25
  -1  -3  -7   11.97    0.26
  -1  -3  -7   12.08    0.26
  -1  -3  -7   12.27    0.26
  -1  -3  -7   12.23    0.25
  -2  -3  -7    1.19    0.06
  -2  -3  -7    1.11    0.06
  -2  -3  -7    1.08    0.07
  -2  -3  -7    1.22    0.07
  -2  -3  -7    1.15    0.07
  -3  -3  -7    1.19    0.07
  -3  -3  -7    1.03    0.07
  -3  -3  -7    1.15    0.07
  -3  -3  -7    1.15    0.06
  -3  -3  -7    1.17    0.06
  -4  -3  -7    0.80    0.06
  -4  -3  -7    0.71    0.06
  -4  -3  -7    0.82    0.06
  -4  -3  -7    0.74    0.06
  -4  -3  -7    0.71    0.05
  -5  -3  -7    2.81    0.11
  -5  -3  -7    2.70    0.10
  -5  -3  -7    2.74    0.10
  -5  -3  -7    2.71    0.10
  -5  -3  -7    2.76    0.10
  -6  -3  -7    0.74    0.06
  -6  -3  -7    0.82    0.07
  -6  -3  -7    0.77    0.06
  -6  -3  -7    0.77    0.06
  -6  -3  -7    0.66    0.07
   7   3   7    0.43    0.06
   7   3   7    0.35    0.06
   4  -4  -7    0.38    0.04
   4  -4  -7    0.33    0.04
   4  -4  -7    0.47    0.04
   4  -4  -7    0.35    0.03
   4  -4  -7    0.52    0.04
   2  -4  -7    3.17    0.09
   2  -4  -7    3.09    0.10
   2  -4  -7    2.99    0.11
   2  -4  -7    3.30    0.11
   2  -4  -7    3.05    0.10
   2  -4  -7    2.96    0.10
   1  -4  -7    1.70    0.08
   1  -4  -7    1.76    0.07
   1  -4  -7    1.63    0.07
   1  -4  -7    1.82    0.08
   1  -4  -7    1.74    0.08
   1  -4  -7    1.73    0.09
   0  -4  -7    2.83    0.10
   0  -4  -7    2.94    0.11
   0  -4  -7    2.91    0.09
   0  -4  -7    2.80    0.10
   0  -4  -7    3.08    0.10
  -1  -4  -7    1.13    0.06
  -1  -4  -7    1.07    0.07
  -1  -4  -7    1.04    0.06
  -1  -4  -7    1.04    0.07
  -1  -4  -7    1.13    0.07
  -2  -4  -7    2.11    0.10
  -2  -4  -7    2.17    0.09
  -2  -4  -7    2.17    0.09
  -2  -4  -7    2.23    0.09
  -2  -4  -7    2.17    0.08
  -3  -4  -7    8.14    0.20
  -3  -4  -7    8.02    0.20
  -3  -4  -7    8.07    0.21
  -3  -4  -7    7.90    0.19
  -3  -4  -7    8.01    0.19
  -4  -4  -7    4.48    0.13
  -4  -4  -7    4.33    0.13
  -4  -4  -7    4.45    0.14
  -4  -4  -7    4.58    0.15
  -4  -4  -7    4.13    0.14
  -5  -4  -7    0.65    0.06
  -5  -4  -7    0.67    0.06
  -5  -4  -7    0.56    0.06
  -5  -4  -7    0.47    0.05
  -5  -4  -7    0.60    0.06
  -6  -4  -7    0.29    0.04
  -6  -4  -7    0.22    0.04
  -6  -4  -7    0.22    0.05
  -6  -4  -7    0.22    0.04
   6   4   7    0.31    0.06
   6   4   7    0.30    0.05
   2  -5  -7   11.03    0.25
   2  -5  -7   11.00    0.24
   2  -5  -7   10.82    0.24
   2  -5  -7   11.01    0.24
   2  -5  -7   11.01    0.23
   1  -5  -7    0.85    0.06
   1  -5  -7    0.89    0.06
   1  -5  -7    0.87    0.07
   1  -5  -7    0.81    0.06
   1  -5  -7    0.86    0.06
   0  -5  -7    3.63    0.11
   0  -5  -7    3.67    0.13
   0  -5  -7    3.81    0.12
   0  -5  -7    3.71    0.12
   0  -5  -7    3.50    0.11
  -1  -5  -7    1.20    0.07
  -1  -5  -7    1.22    0.07
  -1  -5  -7    1.32    0.07
  -1  -5  -7    1.19    0.08
  -1  -5  -7    1.16    0.07
  -2  -5  -7   10.94    0.25
  -2  -5  -7   10.85    0.24
  -2  -5  -7   10.85    0.26
  -2  -5  -7   10.85    0.25
  -2  -5  -7   10.76    0.25
  -3  -5  -7    0.23    0.04
  -3  -5  -7    0.23    0.04
  -3  -5  -7    0.25    0.04
  -3  -5  -7    0.20    0.04
  -3  -5  -7    0.29    0.04
  -4  -5  -7   -0.01    0.03
  -4  -5  -7    0.00    0.02
  -4  -5  -7    0.02    0.02
  -4  -5  -7    0.02    0.03
  -5  -5  -7    0.05    0.03
  -5  -5  -7    0.00    0.03
   5   5   7   -0.01    0.03
   5   5   7    0.02    0.03
   3  -6  -7    0.01    0.01
   3  -6  -7   -0.01    0.01
   3  -6  -7    0.01    0.01
   3  -6  -7    0.00    0.01
   3  -6  -7    0.00    0.01
   2  -6  -7    0.80    0.06
   2  -6  -7    0.93    0.07
   2  -6  -7    0.83    0.07
   2  -6  -7    0.83    0.06
   2  -6  -7    0.78    0.07
   1  -6  -7    1.32    0.08
   1  -6  -7    1.50    0.08
   1  -6  -7    1.40    0.08
   1  -6  -7    1.41    0.07
   1  -6  -7    1.50    0.08
   0  -6  -7    0.99    0.06
   0  -6  -7    1.09    0.07
   0  -6  -7    0.98    0.07
   0  -6  -7    1.07    0.07
   0  -6  -7    1.00    0.07
  -1  -6  -7    0.83    0.07
  -1  -6  -7    0.81    0.06
  -1  -6  -7    0.81    0.07
  -1  -6  -7    0.59    0.06
  -1  -6  -7    0.80    0.06
  -2  -6  -7    2.29    0.11
  -2  -6  -7    2.29    0.10
  -2  -6  -7    2.53    0.11
  -2  -6  -7    2.36    0.10
  -2  -6  -7    2.58    0.10
  -3  -6  -7    0.14    0.04
  -3  -6  -7    0.14    0.04
  -3  -6  -7    0.17    0.04
  -3  -6  -7    0.13    0.03
   3   6   7    0.10    0.04
   3   6   7    0.10    0.04
  -4  -6  -7    1.21    0.08
  -4  -6  -7    1.25    0.09
   4   6   7    1.26    0.09
   4   6   7    0.97    0.09
  -5  -6  -7    0.80    0.09
   5   6   7    0.87    0.08
   5   6   7    0.84    0.09
  -3   7   7    0.97    0.07
  -3   7   7    1.13    0.08
   2  -7  -7    1.96    0.09
   2  -7  -7    1.95    0.10
   2  -7  -7    1.86    0.09
   2  -7  -7    1.98    0.10
   2  -7  -7    1.99    0.10
  -2   7   7    1.96    0.10
  -2   7   7    1.79    0.09
   1  -7  -7    0.22    0.04
   1  -7  -7    0.23    0.04
  -1   7   7    0.30    0.05
  -1   7   7    0.38    0.06
   0  -7  -7    2.30    0.13
   0  -7  -7    2.20    0.10
   0  -7  -7    2.00    0.09
   0  -7  -7    2.14    0.10
   0  -7  -7    2.30    0.10
   0   7   7    2.18    0.11
   0   7   7    2.15    0.11
  -1  -7  -7    5.38    0.16
  -1  -7  -7    5.29    0.17
  -1  -7  -7    5.52    0.18
  -1  -7  -7    5.41    0.16
   1   7   7    5.29    0.18
   1   7   7    5.29    0.18
  -2  -7  -7    2.82    0.13
  -2  -7  -7    2.67    0.12
   2   7   7    2.80    0.13
   2   7   7    2.82    0.13
  -3  -7  -7    2.66    0.13
   3   7   7    2.63    0.13
   3   7   7    2.59    0.13
   2  -8  -7    0.14    0.04
   2  -8  -7    0.05    0.03
   2  -8  -7    0.08    0.04
   2  -8  -7    0.09    0.04
  -2   8   7    0.01    0.04
  -2   8   7    0.10    0.04
   1  -8  -7    0.51    0.06
   1  -8  -7    0.52    0.07
  -1   8   7    0.47    0.06
  -1   8   7    0.60    0.07
   0  -8  -7    1.12    0.08
   0  -8  -7    1.03    0.09
   0   8   7    0.99    0.09
   0   8   7    1.20    0.09
  -1  -8  -7    0.23    0.06
   1   8   7    0.24    0.05
   1   8   7    0.29    0.06
  -2  -8  -7    1.47    0.11
   2   8   7    1.62    0.11
   2   8   7    1.37    0.10
   2  10  -8    1.23    0.09
   2  10  -8    1.16    0.10
   2  10  -8    1.08    0.09
  -2 -10   8    1.33    0.10
   1  10  -8    1.43    0.10
   1  10  -8    1.51    0.10
   1  10  -8    1.38    0.09
  -1 -10   8    1.58    0.10
  -1 -10   8    1.45    0.10
   0  10  -8    0.89    0.08
   0  10  -8    0.99    0.09
   0  10  -8    0.87    0.08
   0 -10   8    1.05    0.09
   0 -10   8    0.97    0.09
  -1  10  -8    0.45    0.06
  -1  10  -8    0.38    0.06
  -1  10  -8    0.42    0.07
  -1  10  -8    0.44    0.06
   1 -10   8    0.36    0.06
   1 -10   8    0.40    0.07
   1 -10   8    0.48    0.07
   4   9  -8    0.80    0.09
   4   9  -8    0.83    0.08
   4   9  -8    0.86    0.09
  -4  -9   8    0.88    0.09
   3   9  -8    0.10    0.04
   3   9  -8   -0.01    0.03
   3   9  -8    0.05    0.03
  -3  -9   8    0.03    0.04
   2   9  -8    0.02    0.03
   2   9  -8   -0.01    0.03
   2   9  -8    0.00    0.03
   2   9  -8    0.02    0.03
  -2  -9   8    0.02    0.03
  -2  -9   8    0.00    0.03
   1   9  -8    0.97    0.07
   1   9  -8    1.11    0.08
   1   9  -8    1.04    0.08
   1   9  -8    1.00    0.08
  -1  -9   8    1.05    0.08
  -1  -9   8    0.96    0.08
  -1  -9   8    1.03    0.08
   0   9  -8    3.72    0.14
   0   9  -8    3.96    0.13
   0   9  -8    3.92    0.15
   0   9  -8    3.72    0.15
   0   9  -8    4.01    0.13
   0   9  -8    3.90    0.14
   0  -9   8    3.61    0.14
   0  -9   8    3.75    0.13
   0  -9   8    3.72    0.14
   0  -9   8    3.80    0.13
   0  -9   8    3.70    0.14
  -1   9  -8    0.37    0.05
  -1   9  -8    0.31    0.04
  -1   9  -8    0.28    0.04
  -1   9  -8    0.29    0.04
  -1   9  -8    0.23    0.04
  -1   9  -8    0.30    0.05
   1  -9   8    0.35    0.06
   1  -9   8    0.31    0.05
   1  -9   8    0.30    0.05
   1  -9   8    0.32    0.05
   1  -9   8    0.31    0.05
  -2   9  -8    0.22    0.04
  -2   9  -8    0.19    0.04
  -2   9  -8    0.28    0.05
  -2   9  -8    0.20    0.04
  -2   9  -8    0.18    0.03
  -2   9  -8    0.16    0.03
   2  -9   8    0.26    0.04
   2  -9   8    0.17    0.04
   2  -9   8    0.18    0.04
   2  -9   8    0.18    0.04
   2  -9   8    0.20    0.04
  -3   9  -8    2.45    0.11
  -3   9  -8    2.37    0.11
   5   8  -8    1.31    0.10
   5   8  -8    1.40    0.10
   5   8  -8    1.49    0.11
  -5  -8   8    1.45    0.10
   4   8  -8    0.65    0.07
   4   8  -8    0.53    0.07
   4   8  -8    0.60    0.06
   4   8  -8    0.58    0.07
  -4  -8   8    0.62    0.07
  -4  -8   8    0.63    0.07
   3   8  -8    3.30    0.13
   3   8  -8    3.27    0.12
   3   8  -8    3.52    0.14
   3   8  -8    3.37    0.14
   3   8  -8    3.42    0.12
   3   8  -8    3.43    0.13
  -3  -8   8    3.45    0.14
  -3  -8   8    3.33    0.13
  -3  -8   8    3.26    0.13
  -3  -8   8    3.40    0.12
   2   8  -8    0.13    0.03
   2   8  -8    0.19    0.04
   2   8  -8    0.15    0.03
   2   8  -8    0.20    0.04
   2   8  -8    0.16    0.04
   2   8  -8    0.18    0.04
  -2  -8   8    0.11    0.04
  -2  -8   8    0.21    0.04
  -2  -8   8    0.17    0.04
  -2  -8   8    0.13    0.04
  -2  -8   8    0.14    0.04
   1   8  -8    2.98    0.12
   1   8  -8    2.75    0.12
   1   8  -8    2.83    0.10
   1   8  -8    2.77    0.12
   1   8  -8    2.87    0.11
   1   8  -8    2.79    0.12
  -1  -8   8    2.90    0.11
  -1  -8   8    2.90    0.11
  -1  -8   8    2.72    0.12
  -1  -8   8    2.81    0.12
  -1  -8   8    2.73    0.11
   0   8  -8    0.82    0.07
   0   8  -8    0.83    0.06
   0   8  -8    0.68    0.07
   0   8  -8    0.75    0.05
   0   8  -8    0.84    0.06
   0   8  -8    0.79    0.07
   0  -8   8    0.76    0.07
   0  -8   8    0.72    0.06
   0  -8   8    0.77    0.06
   0  -8   8    0.69    0.07
   0  -8   8    0.78    0.07
  -1   8  -8    1.26    0.07
  -1   8  -8    1.23    0.08
  -1   8  -8    1.18    0.06
  -1   8  -8    1.24    0.08
  -1   8  -8    1.14    0.08
  -1   8  -8    1.32    0.07
   1  -8   8    1.43    0.08
   1  -8   8    1.25    0.08
   1  -8   8    1.31    0.07
   1  -8   8    1.35    0.08
  -2   8  -8    0.23    0.04
  -2   8  -8    0.19    0.03
  -2   8  -8    0.18    0.03
  -2   8  -8    0.22    0.04
  -2   8  -8    0.19    0.04
  -2   8  -8    0.20    0.04
   2  -8   8    0.26    0.05
   2  -8   8    0.21    0.04
   2  -8   8    0.24    0.04
   2  -8   8    0.27    0.04
  -3   8  -8    1.93    0.09
  -3   8  -8    2.04    0.09
  -3   8  -8    2.04    0.10
  -3   8  -8    2.08    0.10
  -3   8  -8    1.98    0.09
  -3   8  -8    2.11    0.09
   3  -8   8    1.83    0.09
   3  -8   8    1.93    0.08
   3  -8   8    1.85    0.09
   3  -8   8    1.90    0.10
   6   7  -8    0.08    0.04
   6   7  -8    0.02    0.03
   6   7  -8    0.10    0.04
   6   7  -8    0.06    0.04
  -6  -7   8    0.05    0.04
  -6  -7   8    0.02    0.03
  -6  -7   8    0.00    0.04
   5   7  -8    0.08    0.03
   5   7  -8    0.05    0.03
   5   7  -8    0.12    0.04
   5   7  -8    0.05    0.03
   5   7  -8    0.05    0.03
   5   7  -8    0.06    0.03
  -5  -7   8    0.04    0.03
  -5  -7   8    0.11    0.04
  -5  -7   8    0.16    0.04
  -5  -7   8    0.11    0.04
  -5  -7   8    0.05    0.04
   4   7  -8    0.00    0.02
   4   7  -8    0.00    0.02
   4   7  -8   -0.01    0.02
   4   7  -8    0.02    0.03
   4   7  -8    0.02    0.03
   4   7  -8    0.03    0.03
  -4  -7   8    0.00    0.03
  -4  -7   8    0.02    0.03
  -4  -7   8    0.06    0.04
  -4  -7   8    0.06    0.03
  -4  -7   8    0.03    0.03
   3   7  -8    2.85    0.10
   3   7  -8    2.77    0.12
   3   7  -8    2.65    0.11
   3   7  -8    2.79    0.12
   3   7  -8    2.87    0.12
   3   7  -8    2.56    0.11
  -3  -7   8    2.79    0.12
  -3  -7   8    2.85    0.11
  -3  -7   8    2.78    0.12
  -3  -7   8    2.81    0.11
  -3  -7   8    2.74    0.11
   2   7  -8    1.68    0.09
   2   7  -8    1.67    0.09
   2   7  -8    1.56    0.08
   2   7  -8    1.71    0.09
   2   7  -8    1.68    0.08
   2   7  -8    1.55    0.09
  -2  -7   8    1.48    0.08
  -2  -7   8    1.56    0.09
  -2  -7   8    1.72    0.08
  -2  -7   8    1.75    0.08
   1   7  -8   -0.02    0.02
   1   7  -8   -0.01    0.02
   1   7  -8   -0.03    0.02
   1   7  -8    0.00    0.02
   1   7  -8    0.03    0.03
   1   7  -8   -0.01    0.02
  -1  -7   8    0.00    0.03
  -1  -7   8   -0.02    0.02
  -1  -7   8   -0.03    0.02
  -1  -7   8   -0.02    0.02
   0   7  -8    4.26    0.12
   0   7  -8    4.21    0.14
   0   7  -8    4.27    0.14
   0   7  -8    4.29    0.13
   0   7  -8    4.33    0.13
   0   7  -8    4.38    0.14
   0  -7   8    4.13    0.12
   0  -7   8    4.09    0.13
   0  -7   8    4.08    0.14
  -1   7  -8    4.35    0.13
  -1   7  -8    4.32    0.14
  -1   7  -8    4.27    0.14
  -1   7  -8    4.36    0.12
  -1   7  -8    4.27    0.13
  -1   7  -8    4.40    0.14
   1  -7   8    4.37    0.13
   1  -7   8    4.29    0.13
   1  -7   8    4.23    0.14
  -2   7  -8    0.09    0.03
  -2   7  -8    0.05    0.02
  -2   7  -8    0.06    0.02
  -2   7  -8    0.05    0.03
  -2   7  -8    0.05    0.02
  -2   7  -8    0.06    0.03
   2  -7   8    0.07    0.03
  -3   7  -8    0.94    0.06
  -3   7  -8    0.88    0.06
  -3   7  -8    0.90    0.07
  -3   7  -8    1.02    0.07
  -3   7  -8    0.86    0.06
  -3   7  -8    0.92    0.06
   3  -7   8    0.96    0.07
   7   6  -8    0.02    0.03
   7   6  -8   -0.04    0.03
   7   6  -8    0.00    0.03
   7   6  -8   -0.04    0.03
  -7  -6   8    0.01    0.04
  -7  -6   8    0.03    0.04
  -7  -6   8    0.01    0.04
   6   6  -8    0.00    0.03
   6   6  -8    0.02    0.03
   6   6  -8   -0.02    0.03
   6   6  -8   -0.02    0.02
   6   6  -8    0.01    0.03
   6   6  -8    0.00    0.03
  -6  -6   8    0.00    0.03
  -6  -6   8   -0.03    0.02
  -6  -6   8    0.00    0.03
  -6  -6   8   -0.01    0.03
  -6  -6   8    0.00    0.03
   5   6  -8    1.45    0.08
   5   6  -8    1.42    0.09
   5   6  -8    1.47    0.08
   5   6  -8    1.67    0.09
   5   6  -8    1.45    0.08
   5   6  -8    1.53    0.09
  -5  -6   8    1.52    0.09
  -5  -6   8    1.43    0.09
  -5  -6   8    1.48    0.08
  -5  -6   8    1.60    0.09
  -5  -6   8    1.58    0.08
   4   6  -8    5.14    0.16
   4   6  -8    5.12    0.15
   4   6  -8    5.18    0.16
   4   6  -8    4.93    0.16
   4   6  -8    5.14    0.15
   4   6  -8    5.25    0.16
  -4  -6   8    5.13    0.15
  -4  -6   8    5.23    0.16
  -4  -6   8    5.18    0.15
  -4  -6   8    5.30    0.16
  -4  -6   8    5.14    0.16
   3   6  -8    0.16    0.04
   3   6  -8    0.14    0.04
   3   6  -8    0.14    0.03
   3   6  -8    0.13    0.03
   3   6  -8    0.16    0.03
   3   6  -8    0.20    0.04
  -3  -6   8    0.16    0.03
  -3  -6   8    0.09    0.03
  -3  -6   8    0.15    0.03
  -3  -6   8    0.16    0.04
   2   6  -8   23.39    0.46
   2   6  -8   23.26    0.47
   2   6  -8   23.86    0.46
   2   6  -8   23.77    0.45
   2   6  -8   23.59    0.47
   2   6  -8   23.47    0.47
  -2  -6   8   23.93    0.47
  -2  -6   8   23.42    0.46
  -2  -6   8   23.77    0.45
   1   6  -8    3.35    0.12
   1   6  -8    3.45    0.12
   1   6  -8    3.52    0.11
   1   6  -8    3.45    0.12
   1   6  -8    3.60    0.12
   1   6  -8    3.61    0.11
  -1  -6   8    3.35    0.12
   0   6  -8    0.13    0.03
   0   6  -8    0.04    0.02
   0   6  -8    0.09    0.03
   0   6  -8    0.10    0.03
   0   6  -8    0.10    0.03
   0   6  -8    0.08    0.03
   0  -6   8    0.09    0.03
  -1   6  -8    0.79    0.06
  -1   6  -8    0.82    0.06
  -1   6  -8    0.77    0.06
  -1   6  -8    0.76    0.05
  -1   6  -8    0.82    0.05
  -1   6  -8    0.73    0.05
   1  -6   8    0.72    0.06
  -2   6  -8    1.77    0.08
  -2   6  -8    1.79    0.08
  -2   6  -8    2.23    0.09
  -2   6  -8    1.89    0.09
  -2   6  -8    1.88    0.08
  -2   6  -8    1.89    0.07
   2  -6   8    1.75    0.09
  -3   6  -8    2.48    0.09
  -3   6  -8    2.60    0.12
  -3   6  -8    2.41    0.09
  -3   6  -8    2.38    0.13
  -3   6  -8    2.31    0.08
  -3   6  -8    2.36    0.09
   3  -6   8    2.55    0.10
  -4   6  -8    3.59    0.13
   4  -6   8    3.42    0.12
   7   5  -8    0.08    0.04
   7   5  -8    0.06    0.03
   7   5  -8    0.05    0.03
  -7  -5   8   -0.01    0.03
   6   5  -8    1.03    0.07
   6   5  -8    1.07    0.08
   6   5  -8    1.18    0.07
   6   5  -8    1.20    0.08
   6   5  -8    1.08    0.07
   6   5  -8    1.17    0.08
  -6  -5   8    1.17    0.07
  -6  -5   8    1.38    0.09
  -6  -5   8    1.23    0.08
  -6  -5   8    1.07    0.07
  -6  -5   8    1.10    0.07
   5   5  -8    0.10    0.03
   5   5  -8    0.11    0.03
   5   5  -8    0.13    0.03
   5   5  -8    0.11    0.03
   5   5  -8    0.07    0.03
   5   5  -8    0.10    0.03
  -5  -5   8    0.12    0.04
  -5  -5   8    0.10    0.03
  -5  -5   8    0.13    0.03
  -5  -5   8    0.10    0.03
  -5  -5   8    0.09    0.04
   4   5  -8    0.44    0.04
   4   5  -8    0.44    0.05
   4   5  -8    0.39    0.05
   4   5  -8    0.40    0.05
   4   5  -8    0.49    0.05
   4   5  -8    0.44    0.05
  -4  -5   8    0.41    0.05
  -4  -5   8    0.42    0.04
  -4  -5   8    0.43    0.05
  -4  -5   8    0.39    0.05
   3   5  -8    1.27    0.06
   3   5  -8    1.23    0.07
   3   5  -8    1.17    0.07
   3   5  -8    1.20    0.07
   3   5  -8    1.24    0.08
   3   5  -8    1.18    0.07
  -3  -5   8    1.25    0.08
   2   5  -8   18.59    0.37
   2   5  -8   18.69    0.37
   2   5  -8   18.91    0.39
   2   5  -8   18.76    0.38
   2   5  -8   19.35    0.43
   2   5  -8   19.21    0.39
   2   5  -8   19.27    0.46
   2   5  -8   18.90    0.39
  -2  -5   8   18.49    0.39
   1   5  -8    4.99    0.15
   1   5  -8    4.90    0.14
   1   5  -8    4.95    0.15
   1   5  -8    4.94    0.16
   1   5  -8    5.02    0.13
   1   5  -8    4.87    0.14
   1   5  -8    5.19    0.15
   1   5  -8    4.84    0.14
  -1  -5   8    4.97    0.15
   0   5  -8    1.99    0.08
   0   5  -8    1.96    0.09
   0   5  -8    1.98    0.08
   0   5  -8    1.95    0.09
   0   5  -8    2.04    0.09
   0   5  -8    2.00    0.08
   0   5  -8    1.89    0.07
   0   5  -8    1.83    0.09
   0  -5   8    1.83    0.09
  -1   5  -8    0.04    0.03
  -1   5  -8    0.10    0.03
  -1   5  -8    0.06    0.02
  -1   5  -8    0.10    0.03
  -1   5  -8    0.11    0.03
  -1   5  -8    0.08    0.03
  -1   5  -8    0.11    0.02
  -1   5  -8    0.10    0.03
  -1   5  -8    0.07    0.02
   1  -5   8    0.10    0.03
  -2   5  -8    6.37    0.16
  -2   5  -8    6.62    0.16
  -2   5  -8    6.08    0.18
  -2   5  -8    6.15    0.16
  -2   5  -8    6.41    0.16
  -2   5  -8    6.37    0.15
  -2   5  -8    6.01    0.16
   2  -5   8    6.37    0.17
  -3   5  -8    0.03    0.02
  -3   5  -8    0.06    0.02
  -3   5  -8    0.01    0.02
  -3   5  -8    0.01    0.02
  -3   5  -8    0.02    0.02
  -3   5  -8    0.04    0.02
  -3   5  -8    0.01    0.02
   3  -5   8    0.03    0.02
  -4   5  -8    0.17    0.03
  -4   5  -8    0.18    0.03
  -4   5  -8    0.22    0.03
  -4   5  -8    0.19    0.03
  -4   5  -8    0.17    0.03
   4  -5   8    0.21    0.04
   6   4  -8    0.75    0.06
   6   4  -8    0.69    0.05
   6   4  -8    0.82    0.07
   6   4  -8    0.76    0.06
   6   4  -8    0.74    0.06
   6   4  -8    0.72    0.06
  -6  -4   8    0.70    0.06
  -6  -4   8    0.70    0.07
  -6  -4   8    0.67    0.06
  -6  -4   8    0.75    0.07
  -6  -4   8    0.59    0.06
   5   4  -8    2.19    0.09
   5   4  -8    2.10    0.10
   5   4  -8    2.19    0.09
   5   4  -8    2.15    0.09
   5   4  -8    2.22    0.10
   5   4  -8    2.19    0.08
  -5  -4   8    2.25    0.10
  -5  -4   8    2.13    0.08
  -5  -4   8    2.19    0.09
  -5  -4   8    2.17    0.09
   4   4  -8    2.80    0.11
   4   4  -8    2.97    0.10
   4   4  -8    2.92    0.10
   4   4  -8    2.85    0.12
   4   4  -8    2.91    0.11
   4   4  -8    2.84    0.10
   4   4  -8    2.86    0.11
   4   4  -8    2.84    0.11
  -4  -4   8    2.77    0.11
   3   4  -8    0.89    0.06
   3   4  -8    0.95    0.06
   3   4  -8    0.97    0.06
   3   4  -8    0.86    0.07
   3   4  -8    0.86    0.05
   3   4  -8    0.93    0.06
   3   4  -8    1.03    0.07
   3   4  -8    0.91    0.06
  -3  -4   8    0.94    0.07
   2   4  -8    5.87    0.15
   2   4  -8    6.07    0.16
   2   4  -8    6.12    0.16
   2   4  -8    6.05    0.15
   2   4  -8    6.21    0.16
   2   4  -8    5.89    0.17
   2   4  -8    6.18    0.16
   2   4  -8    5.82    0.16
   2   4  -8    6.11    0.19
  -2  -4   8    5.99    0.16
   1   4  -8   10.07    0.22
   1   4  -8    9.82    0.24
   1   4  -8    9.97    0.22
   1   4  -8   10.04    0.23
   1   4  -8    9.84    0.23
   1   4  -8    9.92    0.23
   1   4  -8    9.86    0.22
   1   4  -8    9.91    0.24
   1   4  -8    9.91    0.23
   1   4  -8   10.02    0.21
  -1  -4   8    9.53    0.23
   0   4  -8    2.76    0.10
   0   4  -8    2.81    0.11
   0   4  -8    2.85    0.09
   0   4  -8    2.65    0.10
   0   4  -8    2.83    0.09
   0   4  -8    2.74    0.09
   0   4  -8    2.78    0.09
   0   4  -8    2.73    0.10
   0  -4   8    2.67    0.10
  -1   4  -8    0.57    0.04
  -1   4  -8    0.59    0.05
  -1   4  -8    0.51    0.04
  -1   4  -8    0.55    0.04
  -1   4  -8    0.56    0.05
  -1   4  -8    0.53    0.05
   1  -4   8    0.48    0.05
  -2   4  -8    1.36    0.07
  -2   4  -8    1.41    0.06
  -2   4  -8    1.40    0.06
  -2   4  -8    1.37    0.06
  -2   4  -8    1.38    0.07
  -2   4  -8    1.42    0.07
   2  -4   8    1.36    0.07
  -3   4  -8    4.84    0.15
  -3   4  -8    4.98    0.14
  -3   4  -8    5.14    0.14
  -3   4  -8    5.02    0.13
  -3   4  -8    5.12    0.14
  -3   4  -8    5.04    0.13
   3  -4   8    4.97    0.14
  -4   4  -8    0.06    0.02
  -4   4  -8    0.04    0.02
  -4   4  -8    0.08    0.02
  -4   4  -8    0.02    0.02
  -4   4  -8    0.00    0.02
  -4   4  -8    0.02    0.02
   4  -4   8    0.02    0.02
   6   3  -8    0.52    0.05
   6   3  -8    0.59    0.06
  -6  -3   8    0.56    0.05
  -6  -3   8    0.55    0.05
  -6  -3   8    0.61    0.06
  -6  -3   8    0.56    0.05
   5   3  -8    0.89    0.06
   5   3  -8    1.00    0.07
   5   3  -8    0.91    0.06
   5   3  -8    0.97    0.06
   5   3  -8    0.94    0.06
   5   3  -8    0.97    0.06
   5   3  -8    0.98    0.07
   5   3  -8    0.88    0.06
  -5  -3   8    0.93    0.07
   4   3  -8    4.13    0.12
   4   3  -8    4.04    0.14
   4   3  -8    4.09    0.13
   4   3  -8    3.87    0.12
   4   3  -8    4.00    0.11
   4   3  -8    3.93    0.12
   4   3  -8    4.00    0.12
   4   3  -8    3.94    0.12
   4   3  -8    3.91    0.13
  -4  -3   8    3.99    0.13
   3   3  -8    6.35    0.18
   3   3  -8    6.23    0.16
   3   3  -8    6.23    0.15
   3   3  -8    6.38    0.16
   3   3  -8    6.33    0.17
   3   3  -8    6.14    0.16
   3   3  -8    6.45    0.16
   3   3  -8    6.39    0.15
   3   3  -8    6.15    0.16
   3   3  -8    6.28    0.17
  -3  -3   8    6.07    0.16
   2   3  -8    3.08    0.09
   2   3  -8    3.08    0.10
   2   3  -8    3.07    0.10
   2   3  -8    3.02    0.11
   2   3  -8    3.12    0.10
   2   3  -8    3.01    0.11
   2   3  -8    3.12    0.10
   2   3  -8    2.94    0.09
  -2  -3   8    3.03    0.11
   1   3  -8   13.56    0.27
   1   3  -8   13.63    0.28
   1   3  -8   13.61    0.28
   1   3  -8   13.53    0.28
   1   3  -8   13.78    0.27
   1   3  -8   13.83    0.29
   1   3  -8   13.53    0.28
   1   3  -8   13.45    0.29
  -1  -3   8   13.25    0.29
   0   3  -8    7.78    0.17
   0   3  -8    7.89    0.18
   0   3  -8    7.76    0.19
   0   3  -8    8.00    0.18
   0   3  -8    7.82    0.18
   0   3  -8    7.71    0.19
   0  -3   8    7.76    0.19
  -1   3  -8    4.80    0.13
  -1   3  -8    5.09    0.14
  -1   3  -8    4.89    0.13
  -1   3  -8    4.65    0.12
  -1   3  -8    4.81    0.13
  -1   3  -8    4.86    0.13
   1  -3   8    4.67    0.13
  -2   3  -8    0.99    0.05
  -2   3  -8    0.94    0.06
  -2   3  -8    0.93    0.06
  -2   3  -8    0.98    0.05
  -2   3  -8    1.05    0.05
  -2   3  -8    0.98    0.05
   2  -3   8    1.02    0.06
  -3   3  -8    7.58    0.17
  -3   3  -8    7.67    0.18
  -3   3  -8    7.44    0.19
  -3   3  -8    7.36    0.18
  -3   3  -8    7.35    0.18
  -3   3  -8    7.48    0.17
   3  -3   8    7.40    0.18
  -4   3  -8    0.15    0.03
  -4   3  -8    0.16    0.03
  -4   3  -8    0.23    0.03
  -4   3  -8    0.20    0.03
  -4   3  -8    0.15    0.03
  -4   3  -8    0.19    0.03
   4  -3   8    0.20    0.04
  -5   3  -8    1.04    0.08
  -5   3  -8    0.99    0.06
   5  -3   8    1.10    0.07
   6   2  -8   -0.01    0.02
   6   2  -8    0.00    0.02
   6   2  -8   -0.02    0.02
   6   2  -8    0.01    0.02
  -6  -2   8    0.03    0.02
   5   2  -8    1.10    0.07
   5   2  -8    1.06    0.06
   5   2  -8    1.20    0.06
   5   2  -8    1.12    0.06
   5   2  -8    1.07    0.07
   5   2  -8    1.17    0.05
   5   2  -8    1.07    0.06
   4   2  -8    1.39    0.07
   4   2  -8    1.31    0.07
   4   2  -8    1.36    0.07
   4   2  -8    1.34    0.08
   4   2  -8    1.41    0.06
   4   2  -8    1.50    0.07
   4   2  -8    1.32    0.07
   4   2  -8    1.42    0.08
   4   2  -8    1.47    0.07
   4   2  -8    1.40    0.06
  -4  -2   8    1.28    0.07
   3   2  -8    1.33    0.06
   3   2  -8    1.31    0.07
   3   2  -8    1.39    0.06
   3   2  -8    1.34    0.06
   3   2  -8    1.31    0.07
   3   2  -8    1.40    0.07
  -3  -2   8    1.39    0.07
   2   2  -8    0.65    0.05
   2   2  -8    0.63    0.04
   2   2  -8    0.64    0.05
   2   2  -8    0.62    0.05
   2   2  -8    0.65    0.05
   2   2  -8    0.61    0.04
  -2  -2   8    0.67    0.05
   1   2  -8   12.00    0.26
   1   2  -8   11.88    0.24
   1   2  -8   12.00    0.25
   1   2  -8   11.89    0.25
   1   2  -8   11.70    0.24
   1   2  -8   11.75    0.25
  -1  -2   8   11.73    0.25
   0   2  -8    2.54    0.10
   0   2  -8    2.60    0.09
   0   2  -8    2.44    0.08
   0   2  -8    2.51    0.08
   0   2  -8    2.46    0.09
   0   2  -8    2.57    0.08
   0  -2   8    2.54    0.09
  -1   2  -8    0.59    0.05
  -1   2  -8    0.58    0.05
  -1   2  -8    0.58    0.04
  -1   2  -8    0.57    0.05
  -1   2  -8    0.58    0.05
  -1   2  -8    0.59    0.04
   1  -2   8    0.70    0.05
   1  -2   8    0.52    0.06
  -2   2  -8    0.03    0.02
  -2   2  -8    0.04    0.02
  -2   2  -8    0.04    0.02
  -2   2  -8    0.05    0.02
  -2   2  -8    0.03    0.02
  -2   2  -8    0.00    0.02
   2  -2   8    0.09    0.03
  -3   2  -8   13.87    0.28
  -3   2  -8   13.81    0.28
  -3   2  -8   13.45    0.29
  -3   2  -8   13.89    0.27
  -3   2  -8   13.98    0.28
  -3   2  -8   13.67    0.30
   3  -2   8   13.87    0.29
  -4   2  -8    0.89    0.06
  -4   2  -8    0.96    0.06
  -4   2  -8    0.90    0.05
  -4   2  -8    0.96    0.06
  -4   2  -8    0.92    0.06
  -4   2  -8    0.85    0.05
   4  -2   8    0.90    0.06
  -5   2  -8    0.03    0.02
  -5   2  -8    0.01    0.02
  -5   2  -8    0.02    0.02
  -5   2  -8   -0.02    0.02
  -5   2  -8    0.00    0.02
   5   1  -8    6.21    0.16
   5   1  -8    6.01    0.15
   5   1  -8    6.21    0.14
   5   1  -8    6.14    0.16
   5   1  -8    6.17    0.17
   5   1  -8    5.85    0.17
   5   1  -8    5.94    0.15
   5   1  -8    5.99    0.15
  -5  -1   8    6.20    0.16
   4   1  -8    0.09    0.03
   4   1  -8    0.14    0.03
   4   1  -8    0.15    0.03
   4   1  -8    0.12    0.03
   4   1  -8    0.15    0.03
   4   1  -8    0.08    0.02
  -4  -1   8    0.14    0.03
   3   1  -8    3.12    0.09
   3   1  -8    3.12    0.10
   3   1  -8    3.18    0.10
   3   1  -8    3.14    0.11
   3   1  -8    3.15    0.10
   3   1  -8    3.12    0.09
  -3  -1   8    3.15    0.10
   2   1  -8    2.98    0.09
   2   1  -8    2.93    0.10
   2   1  -8    3.03    0.09
   2   1  -8    2.91    0.10
   2   1  -8    2.94    0.09
   2   1  -8    3.00    0.09
  -2  -1   8    2.93    0.10
  -2  -1   8    2.95    0.12
   1   1  -8    1.90    0.08
   1   1  -8    1.96    0.07
   1   1  -8    2.00    0.08
   1   1  -8    1.88    0.07
   1   1  -8    1.80    0.07
   1   1  -8    1.84    0.07
  -1  -1   8    1.86    0.10
  -1  -1   8    1.92    0.08
   0   1  -8    1.45    0.06
   0   1  -8    1.43    0.06
   0   1  -8    1.52    0.06
   0   1  -8    1.47    0.06
   0   1  -8    1.49    0.07
   0   1  -8    1.42    0.07
   0  -1   8    1.46    0.07
   0  -1   8    1.64    0.09
  -1   1  -8   34.32    0.63
  -1   1  -8   34.16    0.61
  -1   1  -8   34.61    0.62
  -1   1  -8   34.21    0.64
  -1   1  -8   35.00    0.62
  -1   1  -8   34.13    0.62
   1  -1   8   34.87    0.68
   1  -1   8   35.05    0.63
  -2   1  -8   22.93    0.43
  -2   1  -8   22.95    0.42
  -2   1  -8   23.11    0.43
  -2   1  -8   22.78    0.43
  -2   1  -8   23.20    0.45
  -2   1  -8   22.92    0.44
   2  -1   8   23.28    0.44
  -3   1  -8    5.33    0.14
  -3   1  -8    5.25    0.13
  -3   1  -8    5.18    0.14
  -3   1  -8    5.09    0.15
  -3   1  -8    5.25    0.14
  -3   1  -8    5.13    0.13
   3  -1   8    5.18    0.15
  -4   1  -8    8.89    0.21
  -4   1  -8    8.98    0.19
  -4   1  -8    8.55    0.20
  -4   1  -8    9.05    0.20
  -4   1  -8    8.61    0.20
   4  -1   8    9.15    0.21
  -5   1  -8    3.55    0.10
  -5   1  -8    3.62    0.11
  -5   1  -8    3.47    0.11
  -5   1  -8    3.52    0.11
  -5   1  -8    3.52    0.12
   5   0  -8    0.53    0.05
   5   0  -8    0.55    0.05
  -5   0   8    0.35    0.04
   4   0  -8    0.26    0.03
   4   0  -8    0.29    0.04
   4   0  -8    0.30    0.03
   4   0  -8    0.28    0.03
   4   0  -8    0.25    0.03
   4   0  -8    0.32    0.03
  -4   0   8    0.46    0.05
  -4   0   8    0.40    0.05
   3   0  -8    0.02    0.02
   3   0  -8   -0.02    0.02
   3   0  -8    0.01    0.02
   3   0  -8    0.02    0.02
   3   0  -8    0.02    0.02
   3   0  -8    0.01    0.02
  -3   0   8    0.02    0.02
  -3   0   8    0.03    0.02
   2   0  -8    2.38    0.09
   2   0  -8    2.42    0.08
   2   0  -8    2.48    0.09
   2   0  -8    2.47    0.08
   2   0  -8    2.42    0.08
   2   0  -8    2.50    0.08
  -2   0   8    2.34    0.09
  -2   0   8    2.32    0.11
   1   0  -8    0.71    0.04
   1   0  -8    0.68    0.05
   1   0  -8    0.67    0.04
   1   0  -8    0.69    0.05
   1   0  -8    0.74    0.05
   1   0  -8    0.69    0.05
  -1   0   8    0.73    0.05
  -1   0   8    0.76    0.06
   0   0  -8    9.88    0.22
   0   0  -8   10.04    0.23
   0   0  -8    9.81    0.21
   0   0  -8    9.83    0.20
   0   0  -8   10.01    0.21
   0   0  -8    9.81    0.21
   0   0   8    9.85    0.26
   0   0   8   10.21    0.22
  -1   0  -8   -0.01    0.02
  -1   0  -8    0.01    0.02
  -1   0  -8    0.00    0.02
  -1   0  -8   -0.01    0.02
  -1   0  -8   -0.02    0.02
  -1   0  -8    0.01    0.02
   1   0   8    0.05    0.03
  -2   0  -8    0.34    0.04
  -2   0  -8    0.32    0.03
  -2   0  -8    0.27    0.04
  -2   0  -8    0.25    0.03
  -2   0  -8    0.27    0.04
  -2   0  -8    0.35    0.04
   2   0   8    0.33    0.04
  -3   0  -8    0.36    0.04
  -3   0  -8    0.32    0.04
  -3   0  -8    0.33    0.04
  -3   0  -8    0.26    0.04
  -3   0  -8    0.31    0.04
   3   0   8    0.44    0.05
  -4   0  -8    9.71    0.23
  -4   0  -8    9.64    0.21
  -4   0  -8    9.53    0.22
  -4   0  -8    9.62    0.22
  -4   0  -8    9.65    0.21
  -5   0  -8    0.03    0.02
  -5   0  -8    0.01    0.02
  -5   0  -8    0.03    0.02
  -5   0  -8    0.03    0.02
  -5   0  -8    0.02    0.02
  -6   0  -8    0.05    0.05
   5  -1  -8    5.16    0.13
   5  -1  -8    5.20    0.13
   5  -1  -8    5.14    0.13
   5  -1  -8    5.11    0.13
   5  -1  -8    5.33    0.14
  -5   1   8    5.12    0.14
   4  -1  -8    1.57    0.08
   4  -1  -8    1.62    0.07
   4  -1  -8    1.58    0.07
   4  -1  -8    1.64    0.06
   4  -1  -8    1.67    0.07
   4  -1  -8    1.65    0.07
  -4   1   8    2.09    0.08
  -4   1   8    2.06    0.10
   3  -1  -8    0.44    0.04
   3  -1  -8    0.49    0.04
   3  -1  -8    0.46    0.04
   3  -1  -8    0.47    0.04
   3  -1  -8    0.51    0.05
   3  -1  -8    0.55    0.04
  -3   1   8    0.47    0.04
  -3   1   8    0.43    0.05
   2  -1  -8   10.95    0.24
   2  -1  -8   10.79    0.23
   2  -1  -8   11.09    0.25
   2  -1  -8   11.10    0.23
   2  -1  -8   11.07    0.22
   2  -1  -8   11.02    0.23
  -2   1   8   10.88    0.24
  -2   1   8   10.89    0.28
   1  -1  -8    1.59    0.07
   1  -1  -8    1.41    0.06
   1  -1  -8    1.57    0.07
   1  -1  -8    1.53    0.06
   1  -1  -8    1.45    0.07
   1  -1  -8    1.47    0.06
  -1   1   8    1.52    0.07
  -1   1   8    1.55    0.09
   0  -1  -8    3.86    0.12
   0  -1  -8    3.87    0.11
   0  -1  -8    3.92    0.11
   0  -1  -8    3.88    0.10
   0  -1  -8    3.81    0.12
   0  -1  -8    3.96    0.11
   0   1   8    3.92    0.12
  -1  -1  -8   28.36    0.55
  -1  -1  -8   28.51    0.53
  -1  -1  -8   28.59    0.52
  -1  -1  -8   28.77    0.53
  -1  -1  -8   28.94    0.52
  -1  -1  -8   29.11    0.53
   1   1   8   28.23    0.54
  -2  -1  -8   50.57    0.87
  -2  -1  -8   48.89    0.88
  -2  -1  -8   50.20    0.88
  -2  -1  -8   50.03    0.87
  -2  -1  -8   49.95    0.88
  -3  -1  -8    0.09    0.03
  -3  -1  -8    0.10    0.03
  -3  -1  -8    0.13    0.03
  -3  -1  -8    0.10    0.03
  -3  -1  -8    0.10    0.03
  -4  -1  -8    1.28    0.06
  -4  -1  -8    1.36    0.07
  -4  -1  -8    1.43    0.07
  -4  -1  -8    1.21    0.07
  -4  -1  -8    1.35    0.07
  -5  -1  -8    0.29    0.04
  -5  -1  -8    0.25    0.04
  -5  -1  -8    0.38    0.05
  -5  -1  -8    0.37    0.04
  -5  -1  -8    0.34    0.04
  -6  -1  -8    7.48    0.19
  -6  -1  -8    7.64    0.19
  -6  -1  -8    7.42    0.18
  -6  -1  -8    7.50    0.20
  -6  -1  -8    7.76    0.23
   4  -2  -8    8.34    0.18
   4  -2  -8    8.30    0.19
   4  -2  -8    8.38    0.19
   4  -2  -8    8.43    0.20
   4  -2  -8    8.43    0.18
   4  -2  -8    8.50    0.19
  -4   2   8    8.12    0.19
  -4   2   8    8.02    0.23
   3  -2  -8    1.91    0.09
   3  -2  -8    2.00    0.08
   3  -2  -8    1.87    0.08
   3  -2  -8    1.90    0.07
   3  -2  -8    1.87    0.07
   3  -2  -8    1.94    0.07
  -3   2   8    1.93    0.08
  -3   2   8    1.89    0.10
   2  -2  -8    0.03    0.02
   2  -2  -8    0.06    0.02
   2  -2  -8    0.03    0.02
   2  -2  -8    0.02    0.02
   2  -2  -8    0.05    0.02
   2  -2  -8    0.07    0.03
  -2   2   8    0.03    0.02
   1  -2  -8    3.33    0.11
   1  -2  -8    3.42    0.10
   1  -2  -8    3.53    0.11
   1  -2  -8    3.48    0.10
   1  -2  -8    3.49    0.12
   1  -2  -8    3.43    0.11
  -1   2   8    3.15    0.11
   0  -2  -8    3.82    0.11
   0  -2  -8    3.68    0.11
   0  -2  -8    3.80    0.13
   0  -2  -8    3.84    0.11
   0  -2  -8    3.77    0.12
   0  -2  -8    3.82    0.11
  -1  -2  -8    4.50    0.13
  -1  -2  -8    4.41    0.13
  -1  -2  -8    4.24    0.12
  -1  -2  -8    4.34    0.13
  -1  -2  -8    4.30    0.12
  -2  -2  -8    0.18    0.03
  -2  -2  -8    0.24    0.04
  -2  -2  -8    0.25    0.04
  -2  -2  -8    0.20    0.03
  -2  -2  -8    0.25    0.04
  -3  -2  -8    0.90    0.06
  -3  -2  -8    0.94    0.06
  -3  -2  -8    0.98    0.05
  -3  -2  -8    0.94    0.07
  -3  -2  -8    1.00    0.06
  -4  -2  -8    0.92    0.06
  -4  -2  -8    0.98    0.06
  -4  -2  -8    1.00    0.07
  -4  -2  -8    0.86    0.06
  -4  -2  -8    0.94    0.06
  -5  -2  -8    4.85    0.15
  -5  -2  -8    4.74    0.14
  -5  -2  -8    4.91    0.14
  -5  -2  -8    4.80    0.15
  -5  -2  -8    4.89    0.14
  -6  -2  -8    0.00    0.02
  -6  -2  -8   -0.01    0.03
  -6  -2  -8   -0.02    0.02
  -6  -2  -8    0.02    0.02
  -6  -2  -8    0.00    0.02
   4  -3  -8    2.37    0.11
   4  -3  -8    2.16    0.08
   4  -3  -8    2.16    0.08
   4  -3  -8    2.13    0.07
   4  -3  -8    2.08    0.09
   4  -3  -8    2.01    0.08
   3  -3  -8    1.87    0.07
   3  -3  -8    1.76    0.08
   3  -3  -8    1.90    0.07
   3  -3  -8    1.87    0.08
   3  -3  -8    1.85    0.08
   3  -3  -8    1.87    0.08
   2  -3  -8    0.01    0.02
   2  -3  -8    0.03    0.02
   2  -3  -8    0.01    0.02
   2  -3  -8    0.02    0.02
   2  -3  -8    0.02    0.02
   2  -3  -8    0.02    0.02
   1  -3  -8    2.06    0.07
   1  -3  -8    1.90    0.08
   1  -3  -8    2.11    0.08
   1  -3  -8    1.87    0.08
   1  -3  -8    1.99    0.08
   0  -3  -8    0.02    0.02
   0  -3  -8    0.08    0.03
   0  -3  -8    0.06    0.02
   0  -3  -8    0.05    0.03
   0  -3  -8    0.02    0.02
  -1  -3  -8    1.26    0.07
  -1  -3  -8    1.19    0.07
  -1  -3  -8    1.14    0.07
  -1  -3  -8    1.15    0.06
  -1  -3  -8    1.12    0.07
  -2  -3  -8    5.74    0.16
  -2  -3  -8    5.72    0.15
  -2  -3  -8    5.74    0.15
  -2  -3  -8    5.86    0.16
  -2  -3  -8    5.82    0.17
  -3  -3  -8    0.73    0.05
  -3  -3  -8    0.66    0.05
  -3  -3  -8    0.71    0.06
  -3  -3  -8    0.69    0.06
  -3  -3  -8    0.72    0.06
  -4  -3  -8    0.00    0.02
  -4  -3  -8   -0.02    0.02
  -4  -3  -8   -0.01    0.02
  -4  -3  -8    0.01    0.02
  -4  -3  -8    0.00    0.03
  -5  -3  -8    0.57    0.06
  -5  -3  -8    0.59    0.06
  -5  -3  -8    0.63    0.06
  -5  -3  -8    0.61    0.06
  -5  -3  -8    0.55    0.06
  -6  -3  -8    0.01    0.03
  -6  -3  -8    0.03    0.03
  -6  -3  -8    0.02    0.03
  -6  -3  -8    0.00    0.03
   4  -4  -8    0.14    0.03
   4  -4  -8    0.19    0.03
   4  -4  -8    0.14    0.05
   4  -4  -8    0.16    0.03
   3  -4  -8    4.38    0.13
   3  -4  -8    4.26    0.12
   3  -4  -8    4.51    0.13
   3  -4  -8    4.27    0.12
   3  -4  -8    4.13    0.12
   2  -4  -8    1.62    0.08
   2  -4  -8    1.59    0.07
   2  -4  -8    1.46    0.07
   2  -4  -8    1.44    0.07
   2  -4  -8    1.49    0.07
   1  -4  -8    2.46    0.09
   1  -4  -8    2.43    0.10
   1  -4  -8    2.39    0.10
   1  -4  -8    2.56    0.09
   1  -4  -8    2.65    0.10
   0  -4  -8    0.54    0.06
   0  -4  -8    0.54    0.06
   0  -4  -8    0.46    0.05
   0  -4  -8    0.56    0.05
   0  -4  -8    0.51    0.05
  -1  -4  -8    4.53    0.13
  -1  -4  -8    4.40    0.14
  -1  -4  -8    4.52    0.15
  -1  -4  -8    4.54    0.13
  -1  -4  -8    4.54    0.14
  -2  -4  -8    0.16    0.03
  -2  -4  -8    0.14    0.04
  -2  -4  -8    0.24    0.04
  -2  -4  -8    0.21    0.05
  -2  -4  -8    0.22    0.04
  -3  -4  -8    2.16    0.10
  -3  -4  -8    2.17    0.10
  -3  -4  -8    2.09    0.09
  -3  -4  -8    2.10    0.10
  -3  -4  -8    2.02    0.09
  -4  -4  -8    0.21    0.04
  -4  -4  -8    0.25    0.04
  -4  -4  -8    0.42    0.07
  -4  -4  -8    0.30    0.05
  -4  -4  -8    0.30    0.05
  -5  -4  -8    0.17    0.05
  -5  -4  -8    0.22    0.04
  -5  -4  -8    0.19    0.04
   3  -5  -8    0.11    0.03
   3  -5  -8    0.11    0.03
   3  -5  -8    0.14    0.03
   3  -5  -8    0.07    0.03
   3  -5  -8    0.09    0.03
   2  -5  -8    0.16    0.03
   2  -5  -8    0.16    0.04
   2  -5  -8    0.25    0.04
   2  -5  -8    0.19    0.03
   2  -5  -8    0.16    0.04
   1  -5  -8    1.08    0.07
   1  -5  -8    0.91    0.06
   1  -5  -8    0.98    0.07
   1  -5  -8    0.90    0.06
   1  -5  -8    0.92    0.07
   0  -5  -8    0.01    0.03
   0  -5  -8    0.03    0.03
   0  -5  -8    0.13    0.04
   0  -5  -8    0.05    0.03
   0  -5  -8    0.10    0.03
  -1  -5  -8    0.75    0.06
  -1  -5  -8    0.44    0.06
  -1  -5  -8    0.59    0.06
  -1  -5  -8    0.66    0.06
  -1  -5  -8    0.58    0.06
  -2  -5  -8    0.77    0.07
  -2  -5  -8    0.75    0.07
  -2  -5  -8    0.71    0.07
  -2  -5  -8    0.79    0.06
  -2  -5  -8    0.75    0.06
  -3  -5  -8    0.15    0.04
  -3  -5  -8    0.25    0.04
  -3  -5  -8    0.18    0.04
  -3  -5  -8    0.11    0.04
  -4  -5  -8    0.55    0.07
  -4  -5  -8    0.53    0.06
  -5  -5  -8    0.02    0.04
   5   5   8    0.09    0.04
   5   5   8    0.09    0.04
   3  -6  -8    1.01    0.07
   3  -6  -8    0.95    0.07
   3  -6  -8    1.06    0.07
   3  -6  -8    1.06    0.06
   3  -6  -8    1.15    0.07
   2  -6  -8    1.81    0.09
   2  -6  -8    1.78    0.08
   2  -6  -8    1.86    0.10
   2  -6  -8    1.65    0.08
   2  -6  -8    1.81    0.09
   1  -6  -8    0.05    0.03
   1  -6  -8    0.01    0.03
   1  -6  -8    0.04    0.03
   1  -6  -8    0.03    0.03
   1  -6  -8    0.01    0.03
   0  -6  -8    2.91    0.12
   0  -6  -8    2.81    0.11
   0  -6  -8    2.76    0.11
   0  -6  -8    2.76    0.12
   0  -6  -8    2.78    0.12
  -1  -6  -8    0.21    0.04
  -1  -6  -8    0.14    0.04
  -1  -6  -8    0.19    0.04
  -1  -6  -8    0.19    0.04
  -2  -6  -8    1.61    0.10
  -2  -6  -8    1.66    0.09
  -3  -6  -8    0.30    0.07
  -3  -6  -8    0.31    0.06
  -4  -6  -8    1.04    0.09
   4   6   8    1.12    0.09
   4   6   8    1.04    0.09
  -3   7   8    0.99    0.08
  -3   7   8    0.90    0.08
   2  -7  -8    0.24    0.05
   2  -7  -8    0.33    0.05
   2  -7  -8    0.31    0.05
   2  -7  -8    0.41    0.05
   1  -7  -8    1.00    0.08
   1  -7  -8    1.02    0.08
   1  -7  -8    1.03    0.08
   1  -7  -8    1.05    0.08
   0  -7  -8    0.26    0.05
   0  -7  -8    0.34    0.06
  -1  -7  -8    2.09    0.11
  -1  -7  -8    2.17    0.12
   1   7   8    2.04    0.12
   1   7   8    2.06    0.11
  -2  -7  -8    0.51    0.06
   2   7   8    0.67    0.08
   2   7   8    0.64    0.08
   1  -8  -8    0.05    0.04
  -1   8   8    0.13    0.05
  -1   8   8    0.17    0.05
   3   9  -9    0.38    0.06
   3   9  -9    0.42    0.06
   3   9  -9    0.48    0.07
  -3  -9   9    0.34    0.06
  -3  -9   9    0.43    0.07
   2   9  -9    4.60    0.17
   2   9  -9    4.46    0.17
   2   9  -9    4.23    0.16
  -2  -9   9    4.46    0.17
  -2  -9   9    4.30    0.17
   1   9  -9    0.28    0.05
   1   9  -9    0.22    0.05
   1   9  -9    0.24    0.05
   1   9  -9    0.22    0.05
  -1  -9   9    0.38    0.06
  -1  -9   9    0.36    0.06
  -1  -9   9    0.31    0.06
   0   9  -9    0.51    0.06
   0   9  -9    0.58    0.07
   0   9  -9    0.57    0.06
   0   9  -9    0.65    0.07
   0  -9   9    0.82    0.08
   0  -9   9    0.53    0.07
   0  -9   9    0.63    0.07
  -1   9  -9    0.18    0.04
  -1   9  -9    0.16    0.04
  -1   9  -9    0.20    0.04
  -1   9  -9    0.16    0.04
   1  -9   9    0.16    0.04
   1  -9   9    0.17    0.04
   1  -9   9    0.16    0.04
  -2   9  -9    3.19    0.12
  -2   9  -9    3.06    0.13
  -2   9  -9    3.03    0.13
  -2   9  -9    3.21    0.13
   2  -9   9    3.33    0.14
   2  -9   9    3.31    0.13
   2  -9   9    3.18    0.13
   5   8  -9    0.99    0.09
   5   8  -9    0.99    0.09
   5   8  -9    0.99    0.10
  -5  -8   9    0.75    0.08
  -5  -8   9    1.00    0.09
   4   8  -9    0.35    0.06
   4   8  -9    0.40    0.06
   4   8  -9    0.31    0.06
  -4  -8   9    0.34    0.06
  -4  -8   9    0.34    0.06
   3   8  -9    0.14    0.04
   3   8  -9    0.23    0.05
   3   8  -9    0.14    0.04
   3   8  -9    0.13    0.04
  -3  -8   9    0.17    0.05
  -3  -8   9    0.17    0.05
  -3  -8   9    0.19    0.04
   2   8  -9    0.14    0.03
   2   8  -9    0.11    0.04
   2   8  -9    0.09    0.04
   2   8  -9    0.08    0.04
   2   8  -9    0.11    0.04
   2   8  -9    0.10    0.03
  -2  -8   9    0.16    0.04
  -2  -8   9    0.10    0.04
  -2  -8   9    0.15    0.05
  -2  -8   9    0.12    0.04
  -2  -8   9    0.15    0.04
   1   8  -9    1.95    0.11
   1   8  -9    1.92    0.10
   1   8  -9    1.82    0.09
   1   8  -9    1.97    0.09
   1   8  -9    1.96    0.10
   1   8  -9    1.91    0.10
  -1  -8   9    1.99    0.10
  -1  -8   9    1.84    0.10
  -1  -8   9    1.78    0.09
  -1  -8   9    1.83    0.09
   0   8  -9    0.30    0.05
   0   8  -9    0.38    0.06
   0   8  -9    0.38    0.05
   0   8  -9    0.36    0.05
   0   8  -9    0.25    0.04
   0   8  -9    0.39    0.06
   0  -8   9    0.39    0.05
   0  -8   9    0.31    0.05
   0  -8   9    0.43    0.06
   0  -8   9    0.33    0.04
  -1   8  -9    1.72    0.09
  -1   8  -9    1.79    0.08
  -1   8  -9    1.83    0.10
  -1   8  -9    1.71    0.09
  -1   8  -9    1.95    0.10
  -1   8  -9    1.67    0.08
   1  -8   9    1.84    0.09
   1  -8   9    1.87    0.10
   1  -8   9    1.73    0.09
   1  -8   9    1.80    0.09
  -2   8  -9    3.17    0.12
  -2   8  -9    3.36    0.13
  -2   8  -9    3.31    0.11
  -2   8  -9    3.27    0.12
  -2   8  -9    3.31    0.13
  -2   8  -9    3.20    0.13
   2  -8   9    3.40    0.13
   2  -8   9    3.29    0.12
   2  -8   9    3.22    0.12
   2  -8   9    3.45    0.12
  -3   8  -9    0.74    0.07
  -3   8  -9    0.80    0.06
  -3   8  -9    0.87    0.07
  -3   8  -9    0.79    0.07
  -3   8  -9    0.70    0.08
  -3   8  -9    0.71    0.08
   3  -8   9    0.77    0.07
   3  -8   9    0.81    0.07
   3  -8   9    0.90    0.07
   3  -8   9    0.76    0.07
   5   7  -9    0.33    0.06
   5   7  -9    0.28    0.05
   5   7  -9    0.37    0.05
   5   7  -9    0.27    0.05
  -5  -7   9    0.30    0.05
  -5  -7   9    0.30    0.06
  -5  -7   9    0.31    0.05
   4   7  -9    6.22    0.19
   4   7  -9    6.18    0.19
   4   7  -9    6.05    0.20
   4   7  -9    6.21    0.19
   4   7  -9    6.02    0.18
   4   7  -9    5.92    0.17
  -4  -7   9    6.18    0.17
  -4  -7   9    6.13    0.20
  -4  -7   9    6.16    0.20
  -4  -7   9    6.19    0.18
  -4  -7   9    6.12    0.19
   3   7  -9    6.01    0.18
   3   7  -9    5.93    0.19
   3   7  -9    5.83    0.16
   3   7  -9    5.81    0.17
   3   7  -9    5.87    0.19
   3   7  -9    5.96    0.18
  -3  -7   9    5.67    0.17
  -3  -7   9    5.90    0.19
  -3  -7   9    5.89    0.17
  -3  -7   9    5.83    0.18
   2   7  -9    0.00    0.03
   2   7  -9    0.04    0.03
   2   7  -9    0.02    0.03
   2   7  -9    0.05    0.03
   2   7  -9    0.01    0.02
   2   7  -9    0.03    0.02
  -2  -7   9    0.00    0.03
  -2  -7   9    0.05    0.03
  -2  -7   9    0.02    0.03
  -2  -7   9    0.02    0.03
   1   7  -9    5.07    0.16
   1   7  -9    4.96    0.14
   1   7  -9    4.75    0.15
   1   7  -9    4.91    0.15
   1   7  -9    5.05    0.16
   1   7  -9    4.98    0.16
  -1  -7   9    4.83    0.15
  -1  -7   9    4.79    0.14
  -1  -7   9    4.98    0.16
   0   7  -9    1.27    0.07
   0   7  -9    1.21    0.08
   0   7  -9    1.35    0.08
   0   7  -9    1.34    0.07
   0   7  -9    1.24    0.07
   0   7  -9    1.34    0.08
   0  -7   9    1.34    0.08
  -1   7  -9    1.97    0.08
  -1   7  -9    2.23    0.10
  -1   7  -9    2.18    0.10
  -1   7  -9    2.14    0.10
  -1   7  -9    2.11    0.09
  -1   7  -9    2.25    0.10
   1  -7   9    2.08    0.10
  -2   7  -9    1.52    0.07
  -2   7  -9    1.55    0.09
  -2   7  -9    1.62    0.09
  -2   7  -9    1.45    0.08
  -2   7  -9    1.48    0.08
  -2   7  -9    1.52    0.09
   2  -7   9    1.59    0.09
  -3   7  -9    7.86    0.20
  -3   7  -9    7.91    0.19
  -3   7  -9    7.61    0.21
  -3   7  -9    8.00    0.20
   3  -7   9    7.91    0.21
   6   6  -9    0.15    0.04
   6   6  -9    0.12    0.04
   6   6  -9    0.08    0.04
   6   6  -9    0.14    0.04
   6   6  -9    0.10    0.04
   6   6  -9    0.14    0.04
  -6  -6   9    0.20    0.05
  -6  -6   9    0.13    0.04
  -6  -6   9    0.14    0.04
  -6  -6   9    0.10    0.03
  -6  -6   9    0.12    0.04
   5   6  -9    2.90    0.12
   5   6  -9    2.76    0.11
   5   6  -9    2.80    0.12
   5   6  -9    2.80    0.11
   5   6  -9    3.01    0.13
   5   6  -9    2.85    0.13
  -5  -6   9    2.96    0.12
  -5  -6   9    2.66    0.11
  -5  -6   9    3.10    0.12
  -5  -6   9    3.05    0.13
  -5  -6   9    3.01    0.13
   4   6  -9    1.49    0.09
   4   6  -9    1.41    0.09
   4   6  -9    1.36    0.08
   4   6  -9    1.34    0.08
   4   6  -9    1.47    0.09
   4   6  -9    1.54    0.09
  -4  -6   9    1.43    0.08
  -4  -6   9    1.46    0.09
  -4  -6   9    1.35    0.09
  -4  -6   9    1.35    0.08
   3   6  -9    8.69    0.22
   3   6  -9    8.88    0.22
   3   6  -9    8.72    0.23
   3   6  -9    8.73    0.21
   3   6  -9    8.85    0.23
   3   6  -9    8.85    0.23
  -3  -6   9    8.79    0.22
  -3  -6   9    8.86    0.23
  -3  -6   9    9.04    0.21
   2   6  -9   -0.03    0.02
   2   6  -9    0.02    0.02
   2   6  -9   -0.02    0.02
   2   6  -9    0.04    0.03
   2   6  -9   -0.02    0.02
   2   6  -9    0.03    0.03
  -2  -6   9    0.01    0.03
   1   6  -9    0.02    0.02
   1   6  -9   -0.04    0.02
   1   6  -9    0.01    0.02
   1   6  -9   -0.01    0.02
   1   6  -9   -0.01    0.02
   1   6  -9    0.04    0.02
  -1  -6   9    0.02    0.03
   0   6  -9    0.70    0.06
   0   6  -9    0.71    0.06
   0   6  -9    0.70    0.06
   0   6  -9    0.71    0.06
   0   6  -9    0.73    0.05
   0   6  -9    0.76    0.06
   0  -6   9    0.77    0.06
  -1   6  -9    0.49    0.06
  -1   6  -9    0.54    0.06
  -1   6  -9    0.50    0.05
  -1   6  -9    0.50    0.06
  -1   6  -9    0.48    0.05
  -1   6  -9    0.57    0.05
   1  -6   9    0.46    0.06
  -2   6  -9    2.46    0.09
  -2   6  -9    2.62    0.10
  -2   6  -9    2.63    0.11
  -2   6  -9    2.62    0.10
   2  -6   9    2.67    0.11
  -3   6  -9    1.67    0.08
  -3   6  -9    1.75    0.07
  -3   6  -9    1.71    0.09
  -3   6  -9    1.76    0.08
   3  -6   9    1.71    0.09
  -4   6  -9    0.37    0.07
   4  -6   9    0.39    0.05
   7   5  -9    0.40    0.06
   7   5  -9    0.39    0.06
   6   5  -9    0.00    0.02
   6   5  -9    0.00    0.02
   6   5  -9    0.00    0.03
   6   5  -9    0.00    0.03
   6   5  -9    0.01    0.02
   6   5  -9    0.03    0.03
  -6  -5   9    0.00    0.03
  -6  -5   9    0.02    0.03
  -6  -5   9    0.05    0.03
  -6  -5   9    0.01    0.03
  -6  -5   9    0.04    0.03
   5   5  -9    3.08    0.11
   5   5  -9    3.00    0.11
   5   5  -9    3.00    0.12
   5   5  -9    3.17    0.12
   5   5  -9    3.04    0.12
   5   5  -9    3.28    0.13
  -5  -5   9    3.03    0.13
  -5  -5   9    3.07    0.11
  -5  -5   9    3.05    0.12
  -5  -5   9    3.13    0.11
   4   5  -9    1.30    0.08
   4   5  -9    1.19    0.07
   4   5  -9    1.33    0.08
   4   5  -9    1.36    0.08
   4   5  -9    1.30    0.07
   4   5  -9    1.37    0.08
  -4  -5   9    1.30    0.09
   3   5  -9   -0.01    0.02
   3   5  -9    0.03    0.03
   3   5  -9   -0.01    0.02
   3   5  -9    0.02    0.03
   3   5  -9   -0.01    0.02
   3   5  -9   -0.02    0.02
  -3  -5   9   -0.02    0.03
   2   5  -9    6.79    0.18
   2   5  -9    6.90    0.19
   2   5  -9    6.70    0.17
   2   5  -9    6.65    0.19
   2   5  -9    6.88    0.19
   2   5  -9    6.85    0.18
  -2  -5   9    6.89    0.19
   1   5  -9    0.56    0.06
   1   5  -9    0.56    0.05
   1   5  -9    0.45    0.05
   1   5  -9    0.43    0.05
   1   5  -9    0.51    0.05
   1   5  -9    0.62    0.05
  -1  -5   9    0.46    0.05
   0   5  -9    0.28    0.04
   0   5  -9    0.24    0.04
   0   5  -9    0.25    0.04
   0   5  -9    0.32    0.04
   0   5  -9    0.17    0.04
   0   5  -9    0.32    0.04
   0   5  -9    0.33    0.04
   0  -5   9    0.31    0.05
  -1   5  -9    7.61    0.18
  -1   5  -9    7.75    0.20
  -1   5  -9    7.47    0.19
  -1   5  -9    7.65    0.20
  -1   5  -9    7.48    0.18
  -1   5  -9    7.61    0.20
  -1   5  -9    7.47    0.19
   1  -5   9    7.38    0.20
  -2   5  -9   12.28    0.28
  -2   5  -9   12.47    0.27
  -2   5  -9   12.11    0.27
  -2   5  -9   12.50    0.26
  -2   5  -9   12.43    0.26
   2  -5   9   12.06    0.28
  -3   5  -9    0.32    0.04
  -3   5  -9    0.34    0.05
  -3   5  -9    0.27    0.04
  -3   5  -9    0.32    0.04
  -3   5  -9    0.31    0.04
   3  -5   9    0.35    0.05
  -4   5  -9    1.90    0.08
  -4   5  -9    1.97    0.08
  -4   5  -9    1.87    0.08
  -4   5  -9    1.78    0.09
  -4   5  -9    1.98    0.08
   4  -5   9    1.99    0.09
   6   4  -9    1.23    0.08
   6   4  -9    1.26    0.07
   6   4  -9    1.07    0.08
   6   4  -9    1.13    0.07
   6   4  -9    1.13    0.08
   6   4  -9    1.10    0.07
  -6  -4   9    1.21    0.07
  -6  -4   9    1.20    0.07
  -6  -4   9    1.15    0.08
  -6  -4   9    1.24    0.08
   5   4  -9    0.02    0.03
   5   4  -9    0.06    0.03
   5   4  -9    0.00    0.02
   5   4  -9    0.00    0.02
   5   4  -9    0.02    0.02
   5   4  -9    0.03    0.03
  -5  -4   9    0.04    0.03
   4   4  -9    0.29    0.04
   4   4  -9    0.25    0.04
   4   4  -9    0.31    0.05
   4   4  -9    0.31    0.05
   4   4  -9    0.32    0.04
   4   4  -9    0.26    0.04
  -4  -4   9    0.27    0.04
   3   4  -9    0.15    0.03
   3   4  -9    0.17    0.04
   3   4  -9    0.12    0.03
   3   4  -9    0.08    0.03
   3   4  -9    0.15    0.03
   3   4  -9    0.18    0.04
  -3  -4   9    0.14    0.03
   2   4  -9    1.69    0.07
   2   4  -9    1.63    0.08
   2   4  -9    1.76    0.08
   2   4  -9    1.79    0.09
   2   4  -9    1.61    0.08
   2   4  -9    1.68    0.08
   2   4  -9    1.74    0.08
  -2  -4   9    1.65    0.09
   1   4  -9    0.19    0.04
   1   4  -9    0.25    0.03
   1   4  -9    0.18    0.03
   1   4  -9    0.25    0.04
   1   4  -9    0.26    0.04
   1   4  -9    0.26    0.04
   1   4  -9    0.23    0.04
  -1  -4   9    0.23    0.04
   0   4  -9    6.27    0.17
   0   4  -9    6.11    0.15
   0   4  -9    6.24    0.16
   0   4  -9    6.32    0.16
   0   4  -9    6.33    0.16
   0  -4   9    6.28    0.17
  -1   4  -9    1.16    0.06
  -1   4  -9    1.16    0.06
  -1   4  -9    1.14    0.06
  -1   4  -9    1.15    0.07
  -1   4  -9    1.11    0.06
   1  -4   9    1.21    0.07
  -2   4  -9    1.16    0.06
  -2   4  -9    1.22    0.06
  -2   4  -9    1.08    0.07
  -2   4  -9    1.14    0.06
  -2   4  -9    1.15    0.06
   2  -4   9    1.25    0.07
  -3   4  -9    6.21    0.16
  -3   4  -9    5.94    0.16
  -3   4  -9    5.97    0.17
  -3   4  -9    6.07    0.15
  -3   4  -9    5.91    0.15
   3  -4   9    6.05    0.17
  -4   4  -9    6.06    0.16
  -4   4  -9    5.99    0.17
  -4   4  -9    5.94    0.15
  -4   4  -9    5.84    0.15
  -4   4  -9    5.97    0.16
   4  -4   9    6.07    0.17
   6   3  -9    1.14    0.06
   6   3  -9    1.03    0.06
   6   3  -9    1.10    0.07
   6   3  -9    1.04    0.06
   5   3  -9    0.75    0.06
   5   3  -9    0.70    0.06
   5   3  -9    0.68    0.06
   5   3  -9    0.63    0.06
   5   3  -9    0.70    0.05
   5   3  -9    0.61    0.06
  -5  -3   9    0.71    0.06
   4   3  -9    6.11    0.17
   4   3  -9    5.79    0.16
   4   3  -9    5.79    0.15
   4   3  -9    5.98    0.15
   4   3  -9    5.85    0.17
   4   3  -9    5.77    0.16
  -4  -3   9    5.84    0.17
   3   3  -9    2.69    0.10
   3   3  -9    2.58    0.10
   3   3  -9    2.67    0.10
   3   3  -9    2.59    0.10
   3   3  -9    2.58    0.09
   3   3  -9    2.60    0.09
   3   3  -9    2.48    0.10
   3   3  -9    2.47    0.11
   3   3  -9    2.58    0.10
  -3  -3   9    2.51    0.10
   2   3  -9    1.73    0.07
   2   3  -9    1.69    0.07
   2   3  -9    1.70    0.08
   2   3  -9    1.74    0.08
   2   3  -9    1.65    0.08
  -2  -3   9    1.71    0.08
   1   3  -9    1.27    0.06
   1   3  -9    1.36    0.07
   1   3  -9    1.33    0.07
   1   3  -9    1.40    0.06
   1   3  -9    1.32    0.07
  -1  -3   9    1.27    0.07
   0   3  -9    0.86    0.06
   0   3  -9    0.92    0.05
   0   3  -9    0.85    0.06
   0   3  -9    0.86    0.05
   0   3  -9    0.87    0.06
   0  -3   9    0.81    0.06
  -1   3  -9    2.85    0.10
  -1   3  -9    2.94    0.09
  -1   3  -9    2.81    0.09
  -1   3  -9    2.71    0.10
  -1   3  -9    2.82    0.10
   1  -3   9    2.73    0.10
  -2   3  -9   14.70    0.30
  -2   3  -9   14.60    0.31
  -2   3  -9   14.36    0.29
  -2   3  -9   14.22    0.29
  -2   3  -9   14.60    0.30
   2  -3   9   14.00    0.31
  -3   3  -9    0.48    0.05
  -3   3  -9    0.51    0.04
  -3   3  -9    0.49    0.05
  -3   3  -9    0.48    0.04
  -3   3  -9    0.51    0.05
   3  -3   9    0.47    0.05
  -4   3  -9    0.06    0.03
  -4   3  -9    0.10    0.03
  -4   3  -9    0.11    0.03
  -4   3  -9    0.14    0.03
  -4   3  -9    0.13    0.03
   4  -3   9    0.13    0.03
  -5   3  -9    0.19    0.04
   5  -3   9    0.22    0.05
   6   2  -9    0.69    0.06
   6   2  -9    0.72    0.06
  -6  -2   9    0.67    0.06
   5   2  -9    0.04    0.02
   5   2  -9    0.00    0.03
   5   2  -9    0.02    0.03
   5   2  -9    0.04    0.02
   5   2  -9    0.05    0.02
   5   2  -9    0.07    0.03
  -5  -2   9    0.03    0.03
   4   2  -9    2.18    0.08
   4   2  -9    2.07    0.08
   4   2  -9    2.29    0.10
   4   2  -9    2.22    0.09
   4   2  -9    2.13    0.09
  -4  -2   9    2.17    0.09
   3   2  -9    2.20    0.08
   3   2  -9    2.10    0.08
   3   2  -9    1.97    0.09
   3   2  -9    2.24    0.09
   3   2  -9    2.17    0.09
  -3  -2   9    2.21    0.09
   2   2  -9    0.75    0.05
   2   2  -9    0.82    0.06
   2   2  -9    0.86    0.06
   2   2  -9    0.85    0.05
   2   2  -9    0.86    0.05
  -2  -2   9    0.83    0.06
   1   2  -9    1.63    0.08
   1   2  -9    1.62    0.07
   1   2  -9    1.56    0.07
   1   2  -9    1.62    0.07
   1   2  -9    1.74    0.07
  -1  -2   9    1.64    0.08
   0   2  -9    0.10    0.03
   0   2  -9    0.10    0.03
   0   2  -9    0.14    0.03
   0   2  -9    0.08    0.02
   0   2  -9    0.08    0.03
   0  -2   9    0.14    0.03
  -1   2  -9    4.90    0.14
  -1   2  -9    4.97    0.14
  -1   2  -9    4.95    0.13
  -1   2  -9    4.99    0.14
  -1   2  -9    5.05    0.13
   1  -2   9    4.97    0.14
  -2   2  -9    0.06    0.02
  -2   2  -9    0.04    0.03
  -2   2  -9    0.07    0.03
  -2   2  -9    0.03    0.02
  -2   2  -9    0.08    0.03
   2  -2   9    0.05    0.03
  -3   2  -9    0.50    0.05
  -3   2  -9    0.43    0.04
  -3   2  -9    0.50    0.04
  -3   2  -9    0.55    0.05
  -3   2  -9    0.57    0.05
   3  -2   9    0.47    0.05
  -4   2  -9    0.47    0.05
  -4   2  -9    0.42    0.04
  -4   2  -9    0.45    0.05
  -4   2  -9    0.42    0.05
  -4   2  -9    0.34    0.04
   4  -2   9    0.49    0.06
  -5   2  -9    5.63    0.16
  -5   2  -9    5.63    0.16
  -5   2  -9    5.65    0.15
  -5   2  -9    5.79    0.15
  -5   2  -9    5.46    0.16
   5   1  -9    0.02    0.01
   5   1  -9    0.01    0.01
   5   1  -9    0.00    0.01
   5   1  -9   -0.01    0.01
   5   1  -9    0.00    0.01
   5   1  -9    0.02    0.01
   5   1  -9    0.03    0.01
  -5  -1   9    0.10    0.03
   4   1  -9    0.70    0.06
   4   1  -9    0.64    0.07
   4   1  -9    0.57    0.05
   4   1  -9    0.56    0.05
   4   1  -9    0.65    0.06
   4   1  -9    0.56    0.05
  -4  -1   9    0.63    0.06
   3   1  -9    0.58    0.05
   3   1  -9    0.55    0.05
   3   1  -9    0.62    0.06
   3   1  -9    0.56    0.05
   3   1  -9    0.65    0.06
   3   1  -9    0.60    0.05
  -3  -1   9    0.69    0.06
   2   1  -9    1.90    0.08
   2   1  -9    1.74    0.07
   2   1  -9    1.83    0.08
   2   1  -9    1.88    0.08
   2   1  -9    1.90    0.09
   2   1  -9    1.83    0.08
  -2  -1   9    1.88    0.08
   1   1  -9   10.11    0.22
   1   1  -9   10.30    0.24
   1   1  -9   10.15    0.23
   1   1  -9   10.07    0.22
   1   1  -9   10.09    0.22
   1   1  -9    9.82    0.21
  -1  -1   9   10.14    0.23
   0   1  -9   10.57    0.23
   0   1  -9   10.30    0.23
   0   1  -9   10.47    0.23
   0   1  -9   10.55    0.22
   0   1  -9   10.40    0.24
   0  -1   9   10.30    0.24
  -1   1  -9    2.36    0.09
  -1   1  -9    2.34    0.09
  -1   1  -9    2.34    0.09
  -1   1  -9    2.35    0.09
  -1   1  -9    2.41    0.08
   1  -1   9    2.36    0.09
  -2   1  -9   19.78    0.39
  -2   1  -9   19.13    0.38
  -2   1  -9   19.37    0.37
  -2   1  -9   19.65    0.38
  -2   1  -9   19.68    0.38
   2  -1   9   19.20    0.39
  -3   1  -9    1.71    0.08
  -3   1  -9    1.85    0.08
  -3   1  -9    1.78    0.08
  -3   1  -9    1.74    0.08
  -3   1  -9    1.86    0.07
   3  -1   9    1.76    0.09
  -4   1  -9    0.67    0.06
  -4   1  -9    0.79    0.06
  -4   1  -9    0.77    0.06
  -4   1  -9    0.76    0.05
  -4   1  -9    0.76    0.05
   4  -1   9    0.81    0.06
  -5   1  -9    1.83    0.09
  -5   1  -9    1.81    0.08
  -5   1  -9    1.80    0.09
  -5   1  -9    1.78    0.08
  -5   1  -9    1.86    0.08
   5   0  -9    0.18    0.03
   5   0  -9    0.18    0.03
   5   0  -9    0.16    0.03
   5   0  -9    0.21    0.04
   5   0  -9    0.20    0.03
  -5   0   9    0.26    0.04
   4   0  -9    2.27    0.09
   4   0  -9    2.19    0.09
   4   0  -9    1.97    0.09
   4   0  -9    2.22    0.08
   4   0  -9    2.17    0.08
   4   0  -9    2.18    0.09
  -4   0   9    2.17    0.09
   3   0  -9    0.15    0.04
   3   0  -9    0.13    0.03
   3   0  -9    0.18    0.03
   3   0  -9    0.19    0.04
   3   0  -9    0.15    0.03
   3   0  -9    0.26    0.04
  -3   0   9    0.21    0.04
   2   0  -9    4.44    0.13
   2   0  -9    4.45    0.12
   2   0  -9    4.75    0.12
   2   0  -9    4.49    0.14
   2   0  -9    4.62    0.13
   2   0  -9    4.60    0.13
  -2   0   9    4.53    0.14
   1   0  -9    1.36    0.07
   1   0  -9    1.62    0.11
   1   0  -9    1.47    0.07
   1   0  -9    1.34    0.07
   1   0  -9    1.41    0.06
   1   0  -9    1.41    0.07
  -1   0   9    1.42    0.07
   0   0  -9    4.75    0.12
   0   0  -9    4.92    0.14
   0   0  -9    4.84    0.13
   0   0  -9    4.92    0.13
   0   0  -9    4.81    0.13
   0   0   9    4.77    0.14
  -1   0  -9    0.61    0.06
  -1   0  -9    0.61    0.05
  -1   0  -9    0.71    0.05
  -1   0  -9    0.68    0.05
  -1   0  -9    0.56    0.05
   1   0   9    0.61    0.06
  -2   0  -9    5.00    0.14
  -2   0  -9    4.95    0.15
  -2   0  -9    4.97    0.14
  -2   0  -9    4.87    0.13
  -2   0  -9    4.79    0.13
   2   0   9    4.78    0.15
  -3   0  -9    0.02    0.02
  -3   0  -9    0.05    0.03
  -3   0  -9    0.05    0.02
  -3   0  -9    0.04    0.02
  -3   0  -9    0.00    0.02
  -4   0  -9    1.89    0.08
  -4   0  -9    1.75    0.09
  -4   0  -9    1.94    0.08
  -4   0  -9    1.81    0.07
  -4   0  -9    1.76    0.08
  -5   0  -9    0.03    0.02
  -5   0  -9    0.01    0.02
  -5   0  -9    0.07    0.03
  -5   0  -9   -0.01    0.03
  -5   0  -9    0.06    0.03
   5  -1  -9    0.05    0.03
   5  -1  -9    0.04    0.03
   5  -1  -9    0.02    0.03
   5  -1  -9    0.02    0.03
  -5   1   9    0.06    0.03
   4  -1  -9    0.31    0.04
   4  -1  -9    0.27    0.04
   4  -1  -9    0.33    0.05
   4  -1  -9    0.32    0.04
   4  -1  -9    0.26    0.04
   4  -1  -9    0.31    0.04
  -4   1   9    0.43    0.05
   3  -1  -9    0.43    0.04
   3  -1  -9    0.41    0.04
   3  -1  -9    0.51    0.05
   3  -1  -9    0.59    0.05
   3  -1  -9    0.40    0.04
   3  -1  -9    0.54    0.06
  -3   1   9    0.54    0.05
   2  -1  -9    0.86    0.06
   2  -1  -9    0.90    0.06
   2  -1  -9    0.88    0.05
   2  -1  -9    0.77    0.05
   2  -1  -9    0.76    0.05
  -2   1   9    0.79    0.06
   1  -1  -9    0.02    0.03
   1  -1  -9    0.01    0.02
   1  -1  -9    0.04    0.02
   1  -1  -9    0.03    0.02
   1  -1  -9    0.02    0.02
  -1   1   9    0.05    0.03
   0  -1  -9    0.98    0.06
   0  -1  -9    1.07    0.07
   0  -1  -9    1.08    0.06
   0  -1  -9    0.98    0.06
   0  -1  -9    1.05    0.06
   0   1   9    1.08    0.07
  -1  -1  -9    1.31    0.07
  -1  -1  -9    1.45    0.08
  -1  -1  -9    1.43    0.07
  -1  -1  -9    1.20    0.06
  -1  -1  -9    1.24    0.07
   1   1   9    1.35    0.08
  -2  -1  -9    0.07    0.03
  -2  -1  -9    0.07    0.02
  -2  -1  -9    0.08    0.03
  -2  -1  -9    0.07    0.03
  -2  -1  -9    0.11    0.03
  -3  -1  -9   -0.04    0.02
  -3  -1  -9    0.03    0.02
  -3  -1  -9   -0.02    0.02
  -3  -1  -9    0.00    0.02
  -3  -1  -9   -0.02    0.02
  -4  -1  -9    0.50    0.05
  -4  -1  -9    0.50    0.05
  -4  -1  -9    0.58    0.05
  -4  -1  -9    0.53    0.06
  -4  -1  -9    0.47    0.05
  -5  -1  -9    2.85    0.10
  -5  -1  -9    2.53    0.10
  -5  -1  -9    2.75    0.11
  -5  -1  -9    2.67    0.11
  -5  -1  -9    2.67    0.11
  -6  -1  -9    0.03    0.03
  -6  -1  -9    0.02    0.03
  -6  -1  -9    0.00    0.03
  -6  -1  -9    0.01    0.04
   4  -2  -9    0.04    0.02
   4  -2  -9    0.04    0.02
   4  -2  -9    0.03    0.01
   4  -2  -9    0.03    0.01
   4  -2  -9    0.02    0.01
   3  -2  -9    0.73    0.06
   3  -2  -9    0.65    0.05
   3  -2  -9    0.65    0.05
   3  -2  -9    0.63    0.05
   3  -2  -9    0.66    0.05
  -3   2   9    0.61    0.05
   2  -2  -9    3.95    0.11
   2  -2  -9    3.84    0.12
   2  -2  -9    3.94    0.12
   2  -2  -9    3.81    0.12
   2  -2  -9    3.83    0.11
  -2   2   9    3.79    0.12
   1  -2  -9    1.64    0.08
   1  -2  -9    1.61    0.07
   1  -2  -9    1.64    0.08
   1  -2  -9    1.68    0.08
   1  -2  -9    1.59    0.07
   0  -2  -9    2.02    0.08
   0  -2  -9    2.01    0.08
   0  -2  -9    2.11    0.09
   0  -2  -9    2.00    0.09
   0  -2  -9    2.00    0.09
  -1  -2  -9    4.55    0.13
  -1  -2  -9    4.70    0.15
  -1  -2  -9    4.71    0.14
  -1  -2  -9    4.69    0.13
  -1  -2  -9    4.86    0.14
  -2  -2  -9    2.15    0.09
  -2  -2  -9    2.00    0.08
  -2  -2  -9    2.02    0.09
  -2  -2  -9    2.00    0.09
  -2  -2  -9    2.03    0.08
  -3  -2  -9    0.00    0.02
  -3  -2  -9    0.00    0.02
  -3  -2  -9    0.03    0.02
  -3  -2  -9    0.02    0.03
  -3  -2  -9    0.00    0.02
  -4  -2  -9    0.59    0.06
  -4  -2  -9    0.59    0.05
  -4  -2  -9    0.51    0.06
  -4  -2  -9    0.66    0.05
  -4  -2  -9    0.73    0.06
  -5  -2  -9    0.30    0.05
  -5  -2  -9    0.36    0.04
  -5  -2  -9    0.33    0.04
  -5  -2  -9    0.39    0.06
  -6  -2  -9    0.34    0.05
  -6  -2  -9    0.38    0.05
   4  -3  -9    0.11    0.03
   4  -3  -9    0.11    0.03
   4  -3  -9    0.17    0.03
   4  -3  -9    0.08    0.03
   4  -3  -9    0.14    0.03
   3  -3  -9    0.61    0.06
   3  -3  -9    0.71    0.05
   3  -3  -9    0.61    0.05
   3  -3  -9    0.71    0.05
   3  -3  -9    0.55    0.05
   2  -3  -9    0.39    0.04
   2  -3  -9    0.41    0.05
   2  -3  -9    0.40    0.04
   2  -3  -9    0.39    0.04
   2  -3  -9    0.43    0.05
   1  -3  -9    3.03    0.10
   1  -3  -9    3.12    0.11
   1  -3  -9    3.18    0.12
   1  -3  -9    3.23    0.11
   1  -3  -9    3.08    0.10
   0  -3  -9    0.52    0.05
   0  -3  -9    0.48    0.05
   0  -3  -9    0.61    0.05
   0  -3  -9    0.48    0.05
   0  -3  -9    0.49    0.05
  -1  -3  -9    0.70    0.06
  -1  -3  -9    0.82    0.06
  -1  -3  -9    0.65    0.06
  -1  -3  -9    0.73    0.06
  -1  -3  -9    0.69    0.05
  -2  -3  -9    0.15    0.03
  -2  -3  -9    0.11    0.03
  -2  -3  -9    0.06    0.03
  -2  -3  -9    0.11    0.03
  -2  -3  -9    0.17    0.04
  -3  -3  -9    1.83    0.09
  -3  -3  -9    2.05    0.09
  -3  -3  -9    2.01    0.08
  -3  -3  -9    1.99    0.09
  -3  -3  -9    2.03    0.10
  -4  -3  -9    0.40    0.05
  -4  -3  -9    0.51    0.06
  -4  -3  -9    0.57    0.05
  -4  -3  -9    0.50    0.05
  -5  -3  -9    0.75    0.07
  -5  -3  -9    0.74    0.07
   4  -4  -9    0.33    0.05
   4  -4  -9    0.27    0.07
   3  -4  -9    0.83    0.06
   3  -4  -9    0.83    0.06
   3  -4  -9    0.86    0.06
   3  -4  -9    0.77    0.06
   3  -4  -9    0.77    0.06
   2  -4  -9    0.55    0.05
   2  -4  -9    0.54    0.05
   2  -4  -9    0.55    0.06
   2  -4  -9    0.56    0.05
   2  -4  -9    0.50    0.05
   1  -4  -9    0.07    0.03
   1  -4  -9    0.09    0.03
   1  -4  -9    0.10    0.04
   1  -4  -9    0.11    0.03
   1  -4  -9    0.04    0.03
   0  -4  -9    0.02    0.03
   0  -4  -9    0.07    0.03
   0  -4  -9    0.11    0.03
   0  -4  -9    0.09    0.04
   0  -4  -9    0.07    0.03
  -1  -4  -9    9.51    0.23
  -1  -4  -9    9.45    0.24
  -1  -4  -9    9.66    0.23
  -1  -4  -9    9.52    0.23
  -1  -4  -9    9.16    0.22
  -2  -4  -9    2.57    0.11
  -2  -4  -9    2.33    0.09
  -2  -4  -9    2.64    0.10
  -2  -4  -9    2.50    0.11
  -2  -4  -9    2.52    0.11
  -3  -4  -9    0.33    0.04
  -3  -4  -9    0.33    0.04
  -3  -4  -9    0.30    0.05
  -3  -4  -9    0.34    0.05
  -4  -4  -9    0.04    0.04
  -4  -4  -9    0.00    0.03
  -5  -4  -9    5.47    0.18
   3  -5  -9    0.83    0.06
   3  -5  -9    0.87    0.07
   3  -5  -9    0.91    0.07
   3  -5  -9    1.03    0.07
   3  -5  -9    0.93    0.06
   2  -5  -9    1.05    0.08
   2  -5  -9    1.00    0.07
   2  -5  -9    1.14    0.07
   2  -5  -9    1.00    0.07
   2  -5  -9    1.08    0.07
   1  -5  -9    0.14    0.04
   1  -5  -9    0.21    0.04
   1  -5  -9    0.17    0.04
   1  -5  -9    0.18    0.04
   1  -5  -9    0.23    0.04
   0  -5  -9    5.41    0.16
   0  -5  -9    5.57    0.17
   0  -5  -9    5.55    0.16
   0  -5  -9    5.72    0.17
   0  -5  -9    5.58    0.17
  -1  -5  -9    0.23    0.04
  -1  -5  -9    0.22    0.05
  -1  -5  -9    0.20    0.04
  -1  -5  -9    0.24    0.04
  -2  -5  -9    0.09    0.04
  -2  -5  -9    0.12    0.04
  -3  -5  -9    0.59    0.06
  -3  -5  -9    0.61    0.07
  -4  -5  -9    1.71    0.11
   3  -6  -9    0.89    0.07
   3  -6  -9    0.77    0.07
   3  -6  -9    0.82    0.07
   3  -6  -9    0.87    0.08
   2  -6  -9   -0.01    0.03
   2  -6  -9    0.02    0.04
   2  -6  -9    0.03    0.03
   2  -6  -9    0.05    0.03
   2  -6  -9    0.03    0.03
   1  -6  -9    0.19    0.05
   1  -6  -9    0.15    0.04
   1  -6  -9    0.19    0.04
   1  -6  -9    0.16    0.04
   0  -6  -9    1.37    0.09
   0  -6  -9    1.41    0.09
  -1  -6  -9    0.07    0.04
  -1  -6  -9    0.09    0.04
  -2  -6  -9    1.54    0.10
  -3  -6  -9    0.33    0.06
   2  -7  -9    1.26    0.09
   2  -7  -9    1.37    0.09
   1  -7  -9    2.62    0.13
   0  -7  -9    1.42    0.10
  -1  -7  -9    2.01    0.12
   2   9 -10    1.26    0.09
   2   9 -10    1.24    0.10
   2   9 -10    1.37    0.10
  -2  -9  10    0.96    0.09
  -2  -9  10    1.40    0.10
   1   9 -10    0.10    0.04
   1   9 -10    0.09    0.04
   1   9 -10    0.03    0.03
  -1  -9  10    0.08    0.04
  -1  -9  10    0.05    0.04
   0   9 -10    0.74    0.08
   0   9 -10    0.72    0.08
   0   9 -10    0.66    0.07
   0  -9  10    0.72    0.08
   0  -9  10    0.69    0.08
  -1   9 -10    1.96    0.11
  -1   9 -10    2.04    0.11
  -1   9 -10    1.99    0.11
   1  -9  10    2.09    0.11
   1  -9  10    2.14    0.11
   4   8 -10    0.13    0.05
   4   8 -10    0.14    0.05
   4   8 -10    0.08    0.04
  -4  -8  10    0.09    0.04
  -4  -8  10    0.08    0.05
   3   8 -10    0.84    0.09
   3   8 -10    0.91    0.09
   3   8 -10    0.75    0.08
  -3  -8  10    0.82    0.09
  -3  -8  10    0.80    0.09
   2   8 -10    0.50    0.06
   2   8 -10    0.60    0.07
   2   8 -10    0.69    0.07
   2   8 -10    0.61    0.07
  -2  -8  10    0.66    0.07
  -2  -8  10    0.59    0.07
   1   8 -10    0.89    0.08
   1   8 -10    0.84    0.07
   1   8 -10    0.98    0.08
   1   8 -10    0.95    0.08
  -1  -8  10    0.94    0.08
  -1  -8  10    0.87    0.08
   0   8 -10    0.53    0.06
   0   8 -10    0.51    0.06
   0   8 -10    0.47    0.06
   0   8 -10    0.55    0.06
   0  -8  10    0.59    0.07
   0  -8  10    0.59    0.07
  -1   8 -10    0.09    0.04
  -1   8 -10    0.08    0.03
  -1   8 -10    0.08    0.04
  -1   8 -10    0.08    0.04
   1  -8  10    0.17    0.05
   1  -8  10    0.15    0.05
   1  -8  10    0.10    0.04
  -2   8 -10   -0.01    0.02
  -2   8 -10   -0.01    0.03
  -2   8 -10   -0.01    0.02
  -2   8 -10   -0.01    0.03
  -2   8 -10    0.01    0.03
  -2   8 -10    0.01    0.02
   2  -8  10    0.03    0.03
   2  -8  10    0.03    0.03
   2  -8  10    0.01    0.03
  -3   8 -10    0.04    0.03
  -3   8 -10    0.00    0.03
   3  -8  10    0.04    0.03
   5   7 -10    0.94    0.09
   5   7 -10    1.04    0.10
   5   7 -10    0.97    0.09
  -5  -7  10    1.10    0.10
  -5  -7  10    1.01    0.10
   4   7 -10    2.04    0.11
   4   7 -10    2.00    0.11
   4   7 -10    2.06    0.12
   4   7 -10    2.04    0.11
  -4  -7  10    2.04    0.12
  -4  -7  10    2.04    0.11
  -4  -7  10    2.05    0.12
   3   7 -10    0.01    0.03
   3   7 -10    0.05    0.04
   3   7 -10    0.00    0.03
   3   7 -10    0.04    0.03
  -3  -7  10    0.00    0.03
  -3  -7  10    0.05    0.04
   2   7 -10    0.30    0.05
   2   7 -10    0.25    0.05
   2   7 -10    0.37    0.06
   2   7 -10    0.24    0.04
   2   7 -10    0.36    0.05
   2   7 -10    0.25    0.05
  -2  -7  10    0.32    0.05
  -2  -7  10    0.28    0.05
  -2  -7  10    0.26    0.05
   1   7 -10    0.64    0.07
   1   7 -10    0.61    0.06
   1   7 -10    0.64    0.06
   1   7 -10    0.66    0.06
   1   7 -10    0.68    0.07
   1   7 -10    0.62    0.07
  -1  -7  10    0.56    0.07
   0   7 -10    0.33    0.05
   0   7 -10    0.38    0.06
   0   7 -10    0.41    0.05
   0   7 -10    0.30    0.04
   0   7 -10    0.42    0.06
   0   7 -10    0.36    0.05
   0  -7  10    0.31    0.05
  -1   7 -10    1.06    0.07
  -1   7 -10    0.95    0.07
  -1   7 -10    0.99    0.08
  -1   7 -10    1.11    0.08
  -1   7 -10    1.03    0.07
  -1   7 -10    1.00    0.08
   1  -7  10    1.03    0.08
  -2   7 -10    1.31    0.08
  -2   7 -10    1.21    0.08
  -2   7 -10    1.30    0.08
  -2   7 -10    1.29    0.07
   2  -7  10    1.32    0.09
  -3   7 -10    2.94    0.11
  -3   7 -10    2.97    0.11
  -3   7 -10    2.99    0.11
  -3   7 -10    2.93    0.12
   3  -7  10    2.95    0.12
   6   6 -10    2.91    0.16
   6   6 -10    2.82    0.13
   6   6 -10    2.83    0.13
   6   6 -10    2.78    0.13
  -6  -6  10    2.83    0.14
  -6  -6  10    3.04    0.14
  -6  -6  10    2.74    0.15
   5   6 -10    0.50    0.06
   5   6 -10    0.39    0.05
   5   6 -10    0.50    0.07
   5   6 -10    0.39    0.06
  -5  -6  10    0.42    0.06
  -5  -6  10    0.42    0.07
   4   6 -10    4.66    0.15
   4   6 -10    4.69    0.16
   4   6 -10    4.63    0.14
   4   6 -10    4.61    0.16
   4   6 -10    4.62    0.16
   4   6 -10    4.79    0.17
  -4  -6  10    4.75    0.16
  -4  -6  10    4.68    0.16
  -4  -6  10    4.72    0.15
  -4  -6  10    4.81    0.17
   3   6 -10    1.20    0.09
   3   6 -10    1.29    0.09
   3   6 -10    1.21    0.08
   3   6 -10    1.19    0.08
   3   6 -10    1.32    0.09
   3   6 -10    1.30    0.07
  -3  -6  10    1.28    0.09
   2   6 -10    0.19    0.04
   2   6 -10    0.21    0.04
   2   6 -10    0.16    0.04
   2   6 -10    0.11    0.04
   2   6 -10    0.16    0.04
   2   6 -10    0.26    0.05
  -2  -6  10    0.27    0.05
   1   6 -10    1.17    0.08
   1   6 -10    1.13    0.08
   1   6 -10    1.09    0.08
   1   6 -10    1.16    0.07
   1   6 -10    1.15    0.07
   1   6 -10    1.23    0.07
  -1  -6  10    1.18    0.08
   0   6 -10    0.18    0.04
   0   6 -10    0.19    0.04
   0   6 -10    0.23    0.05
   0   6 -10    0.12    0.04
   0   6 -10    0.12    0.04
   0   6 -10    0.15    0.03
   0  -6  10    0.17    0.04
  -1   6 -10    2.82    0.10
  -1   6 -10    2.86    0.12
  -1   6 -10    2.79    0.10
  -1   6 -10    2.68    0.11
  -1   6 -10    2.83    0.11
  -1   6 -10    2.78    0.11
   1  -6  10    2.78    0.12
  -2   6 -10    3.15    0.11
  -2   6 -10    3.22    0.12
  -2   6 -10    2.84    0.12
  -2   6 -10    3.06    0.11
   2  -6  10    3.12    0.12
  -3   6 -10   -0.03    0.02
  -3   6 -10   -0.03    0.02
  -3   6 -10    0.00    0.02
  -3   6 -10    0.01    0.02
   3  -6  10    0.00    0.02
   4  -6  10    0.76    0.07
   6   5 -10    0.53    0.06
   6   5 -10    0.49    0.06
   6   5 -10    0.49    0.06
   6   5 -10    0.54    0.06
   6   5 -10    0.55    0.06
   6   5 -10    0.58    0.07
  -6  -5  10    0.49    0.06
  -6  -5  10    0.50    0.06
  -6  -5  10    0.48    0.06
  -6  -5  10    0.53    0.07
  -6  -5  10    0.59    0.07
   5   5 -10    0.85    0.08
   5   5 -10    0.77    0.07
   5   5 -10    0.80    0.07
   5   5 -10    0.68    0.07
   5   5 -10    0.82    0.06
   5   5 -10    0.76    0.07
  -5  -5  10    0.71    0.06
  -5  -5  10    0.83    0.07
  -5  -5  10    0.87    0.08
   4   5 -10    6.75    0.20
   4   5 -10    7.00    0.18
   4   5 -10    6.88    0.19
   4   5 -10    7.16    0.20
   4   5 -10    6.94    0.20
   4   5 -10    6.97    0.19
  -4  -5  10    7.04    0.20
   3   5 -10    0.89    0.08
   3   5 -10    0.97    0.07
   3   5 -10    0.88    0.07
   3   5 -10    0.96    0.06
   3   5 -10    0.90    0.08
   3   5 -10    0.88    0.07
  -3  -5  10    0.92    0.08
   2   5 -10    1.49    0.08
   2   5 -10    1.28    0.08
   2   5 -10    1.48    0.09
   2   5 -10    1.31    0.08
   2   5 -10    1.30    0.08
   2   5 -10    1.30    0.07
  -2  -5  10    1.44    0.09
   1   5 -10    1.12    0.06
   1   5 -10    1.10    0.08
   1   5 -10    0.98    0.07
   1   5 -10    1.12    0.08
   1   5 -10    1.04    0.07
   1   5 -10    1.00    0.07
  -1  -5  10    1.02    0.07
   0   5 -10    3.93    0.13
   0   5 -10    3.85    0.13
   0   5 -10    3.82    0.12
   0   5 -10    3.66    0.13
   0   5 -10    3.98    0.12
   0  -5  10    3.62    0.13
  -1   5 -10    0.03    0.02
  -1   5 -10    0.11    0.03
  -1   5 -10    0.09    0.03
  -1   5 -10    0.03    0.03
  -1   5 -10    0.06    0.03
   1  -5  10    0.04    0.03
  -2   5 -10    0.62    0.06
  -2   5 -10    0.68    0.06
  -2   5 -10    0.74    0.05
  -2   5 -10    0.72    0.06
  -2   5 -10    0.69    0.06
   2  -5  10    0.68    0.06
  -3   5 -10    0.34    0.04
  -3   5 -10    0.29    0.04
  -3   5 -10    0.20    0.04
  -3   5 -10    0.27    0.04
  -3   5 -10    0.32    0.04
   3  -5  10    0.24    0.04
  -4   5 -10    1.41    0.08
  -4   5 -10    1.19    0.07
  -4   5 -10    1.28    0.07
  -4   5 -10    1.21    0.07
  -4   5 -10    1.32    0.08
   4  -5  10    1.19    0.08
   6   4 -10    0.34    0.05
   6   4 -10    0.35    0.05
   6   4 -10    0.32    0.05
   6   4 -10    0.34    0.05
   6   4 -10    0.39    0.06
   6   4 -10    0.25    0.05
  -6  -4  10    0.39    0.05
  -6  -4  10    0.25    0.04
  -6  -4  10    0.38    0.06
  -6  -4  10    0.29    0.04
   5   4 -10    0.35    0.04
   5   4 -10    0.37    0.05
   5   4 -10    0.34    0.05
   5   4 -10    0.37    0.05
   5   4 -10    0.36    0.05
   5   4 -10    0.34    0.05
  -5  -4  10    0.40    0.06
   4   4 -10    0.89    0.07
   4   4 -10    1.00    0.06
   4   4 -10    1.00    0.07
   4   4 -10    0.97    0.08
   4   4 -10    0.91    0.07
   4   4 -10    0.81    0.07
  -4  -4  10    0.92    0.08
   3   4 -10    2.55    0.11
   3   4 -10    2.40    0.09
   3   4 -10    2.73    0.11
   3   4 -10    2.50    0.10
   3   4 -10    2.61    0.11
   3   4 -10    2.58    0.10
  -3  -4  10    2.60    0.11
   2   4 -10    2.28    0.10
   2   4 -10    2.39    0.09
   2   4 -10    2.29    0.09
   2   4 -10    2.30    0.10
   2   4 -10    2.33    0.10
   2   4 -10    2.31    0.10
   2   4 -10    2.42    0.10
  -2  -4  10    2.34    0.10
   1   4 -10    0.23    0.04
   1   4 -10    0.23    0.04
   1   4 -10    0.21    0.04
   1   4 -10    0.25    0.04
   1   4 -10    0.22    0.04
  -1  -4  10    0.23    0.04
   0   4 -10    0.07    0.02
   0   4 -10    0.09    0.03
   0   4 -10    0.09    0.02
   0   4 -10    0.10    0.03
   0   4 -10    0.07    0.03
   0  -4  10    0.08    0.03
  -1   4 -10    1.21    0.06
  -1   4 -10    1.32    0.07
  -1   4 -10    1.17    0.07
  -1   4 -10    1.26    0.07
  -1   4 -10    1.17    0.07
   1  -4  10    1.21    0.08
  -2   4 -10    0.44    0.05
  -2   4 -10    0.43    0.05
  -2   4 -10    0.46    0.05
  -2   4 -10    0.44    0.04
  -2   4 -10    0.47    0.05
   2  -4  10    0.46    0.05
  -3   4 -10    2.54    0.10
  -3   4 -10    2.52    0.10
  -3   4 -10    2.46    0.10
  -3   4 -10    2.55    0.10
  -3   4 -10    2.52    0.09
   3  -4  10    2.55    0.11
  -4   4 -10    1.18    0.07
  -4   4 -10    1.20    0.07
  -4   4 -10    1.15    0.07
  -4   4 -10    1.14    0.06
  -4   4 -10    1.16    0.07
   4  -4  10    1.20    0.08
   6   3 -10    0.72    0.06
   6   3 -10    0.70    0.06
   6   3 -10    0.65    0.07
   6   3 -10    0.71    0.06
  -6  -3  10    0.78    0.07
   5   3 -10    0.77    0.07
   5   3 -10    0.78    0.06
   5   3 -10    0.71    0.06
   5   3 -10    0.71    0.06
  -5  -3  10    0.76    0.07
   4   3 -10    0.09    0.03
   4   3 -10    0.15    0.03
   4   3 -10    0.06    0.03
   4   3 -10    0.06    0.03
  -4  -3  10    0.10    0.04
   3   3 -10    3.87    0.13
   3   3 -10    3.38    0.11
   3   3 -10    3.57    0.11
   3   3 -10    3.40    0.12
   3   3 -10    3.60    0.12
  -3  -3  10    3.60    0.13
   2   3 -10    2.69    0.10
   2   3 -10    2.64    0.10
   2   3 -10    2.83    0.11
   2   3 -10    2.67    0.09
   2   3 -10    2.53    0.10
  -2  -3  10    2.61    0.11
   1   3 -10    0.35    0.04
   1   3 -10    0.34    0.04
   1   3 -10    0.36    0.05
   1   3 -10    0.28    0.04
   1   3 -10    0.32    0.04
  -1  -3  10    0.39    0.05
   0   3 -10    1.78    0.08
   0   3 -10    1.76    0.07
   0   3 -10    1.83    0.09
   0   3 -10    1.75    0.08
   0   3 -10    1.83    0.08
   0  -3  10    1.78    0.09
  -1   3 -10    3.98    0.13
  -1   3 -10    3.99    0.13
  -1   3 -10    4.08    0.12
  -1   3 -10    4.02    0.13
  -1   3 -10    4.03    0.12
   1  -3  10    4.28    0.14
  -2   3 -10    0.04    0.03
  -2   3 -10    0.06    0.02
  -2   3 -10    0.07    0.03
  -2   3 -10    0.02    0.02
  -2   3 -10    0.07    0.02
   2  -3  10    0.07    0.03
  -3   3 -10    0.19    0.03
  -3   3 -10    0.15    0.03
  -3   3 -10    0.15    0.03
  -3   3 -10    0.25    0.04
  -3   3 -10    0.19    0.04
   3  -3  10    0.26    0.04
  -4   3 -10   -0.01    0.02
  -4   3 -10   -0.01    0.02
  -4   3 -10    0.00    0.02
  -4   3 -10    0.02    0.02
  -4   3 -10    0.02    0.02
   4  -3  10   -0.02    0.02
   5  -3  10    2.29    0.11
   6   2 -10    0.41    0.07
   5   2 -10   -0.01    0.03
   5   2 -10    0.00    0.02
   5   2 -10    0.03    0.03
   5   2 -10    0.01    0.02
  -5  -2  10   -0.01    0.03
   4   2 -10    0.11    0.03
   4   2 -10    0.16    0.03
   4   2 -10    0.11    0.03
   4   2 -10    0.11    0.03
   4   2 -10    0.10    0.03
  -4  -2  10    0.15    0.04
   3   2 -10    2.13    0.10
   3   2 -10    2.07    0.09
   3   2 -10    2.04    0.08
   3   2 -10    1.89    0.09
   3   2 -10    2.14    0.09
  -3  -2  10    2.04    0.10
   2   2 -10    2.51    0.10
   2   2 -10    2.46    0.10
   2   2 -10    2.53    0.10
   2   2 -10    2.47    0.09
   2   2 -10    2.37    0.09
  -2  -2  10    2.49    0.10
   1   2 -10    2.59    0.10
   1   2 -10    2.74    0.10
   1   2 -10    2.60    0.10
   1   2 -10    2.59    0.09
   1   2 -10    2.65    0.10
  -1  -2  10    2.52    0.11
   0   2 -10    0.05    0.03
   0   2 -10    0.04    0.03
   0   2 -10   -0.01    0.02
   0   2 -10    0.05    0.02
   0   2 -10    0.04    0.03
   0  -2  10    0.01    0.03
  -1   2 -10    7.08    0.18
  -1   2 -10    7.06    0.17
  -1   2 -10    7.04    0.18
  -1   2 -10    7.09    0.18
  -1   2 -10    7.09    0.19
   1  -2  10    7.04    0.19
  -2   2 -10    0.65    0.06
  -2   2 -10    0.68    0.07
  -2   2 -10    0.63    0.05
  -2   2 -10    0.60    0.06
  -2   2 -10    0.59    0.05
   2  -2  10    0.66    0.06
  -3   2 -10   -0.03    0.02
  -3   2 -10   -0.02    0.02
  -3   2 -10   -0.01    0.02
  -3   2 -10   -0.03    0.02
  -3   2 -10   -0.01    0.02
   3  -2  10   -0.01    0.02
  -4   2 -10    0.04    0.03
  -4   2 -10    0.03    0.02
  -4   2 -10    0.06    0.03
  -4   2 -10    0.06    0.03
  -4   2 -10    0.06    0.03
   4  -2  10    0.06    0.03
  -5   2 -10    0.59    0.05
  -5   2 -10    0.63    0.06
  -5   2 -10    0.68    0.08
  -5   2 -10    0.59    0.06
  -5   2 -10    0.70    0.06
   5   1 -10    0.68    0.06
   5   1 -10    0.70    0.06
   5   1 -10    0.69    0.06
   5   1 -10    0.68    0.05
   5   1 -10    0.75    0.06
  -5  -1  10    0.76    0.06
   4   1 -10    0.59    0.05
   4   1 -10    0.54    0.05
   4   1 -10    0.68    0.06
   4   1 -10    0.69    0.06
   4   1 -10    0.60    0.05
  -4  -1  10    0.72    0.06
   3   1 -10   -0.01    0.02
   3   1 -10   -0.01    0.02
   3   1 -10   -0.05    0.02
   3   1 -10   -0.04    0.02
   3   1 -10    0.00    0.02
  -3  -1  10    0.00    0.02
   2   1 -10    0.01    0.02
   2   1 -10    0.01    0.02
   2   1 -10    0.02    0.02
   2   1 -10    0.03    0.03
   2   1 -10    0.01    0.02
  -2  -1  10   -0.01    0.02
   1   1 -10   13.25    0.29
   1   1 -10   13.79    0.29
   1   1 -10   13.29    0.27
   1   1 -10   13.31    0.28
   1   1 -10   13.14    0.28
  -1  -1  10   12.93    0.29
   0   1 -10    9.92    0.23
   0   1 -10   10.04    0.24
   0   1 -10    9.73    0.22
   0   1 -10   10.15    0.23
   0   1 -10    9.97    0.23
   0  -1  10    9.96    0.24
  -1   1 -10    1.98    0.09
  -1   1 -10    1.88    0.09
  -1   1 -10    1.77    0.08
  -1   1 -10    1.92    0.08
  -1   1 -10    1.83    0.08
   1  -1  10    1.91    0.09
  -2   1 -10    2.59    0.10
  -2   1 -10    2.56    0.10
  -2   1 -10    2.70    0.11
  -2   1 -10    2.77    0.09
  -2   1 -10    2.57    0.10
   2  -1  10    2.70    0.11
  -3   1 -10    1.82    0.08
  -3   1 -10    1.97    0.09
  -3   1 -10    1.81    0.08
  -3   1 -10    1.85    0.09
  -3   1 -10    1.94    0.08
   3  -1  10    2.00    0.10
  -4   1 -10    2.28    0.10
  -4   1 -10    2.43    0.10
  -4   1 -10    2.30    0.10
  -4   1 -10    2.23    0.09
  -4   1 -10    2.20    0.10
  -5   1 -10    0.05    0.03
  -5   1 -10    0.06    0.03
  -5   1 -10    0.08    0.03
  -5   1 -10    0.14    0.04
  -5   1 -10    0.06    0.03
   5   0 -10   -0.04    0.01
   5   0 -10    0.00    0.02
   5   0 -10    0.00    0.02
   5   0 -10    0.01    0.01
   5   0 -10    0.00    0.02
  -5   0  10   -0.02    0.02
   4   0 -10    0.21    0.04
   4   0 -10    0.21    0.04
   4   0 -10    0.22    0.03
   4   0 -10    0.30    0.04
   4   0 -10    0.21    0.04
  -4   0  10    0.28    0.04
   3   0 -10    0.47    0.05
   3   0 -10    0.45    0.05
   3   0 -10    0.49    0.05
   3   0 -10    0.43    0.04
   3   0 -10    0.47    0.05
  -3   0  10    0.50    0.06
   2   0 -10    1.62    0.07
   2   0 -10    1.59    0.07
   2   0 -10    1.55    0.08
   2   0 -10    1.56    0.08
   2   0 -10    1.56    0.08
  -2   0  10    1.56    0.08
   1   0 -10   -0.04    0.02
   1   0 -10   -0.04    0.02
   1   0 -10    0.00    0.03
   1   0 -10    0.01    0.02
   1   0 -10   -0.03    0.02
  -1   0  10   -0.01    0.02
   0   0 -10    1.36    0.07
   0   0 -10    1.29    0.07
   0   0 -10    1.37    0.08
   0   0 -10    1.36    0.07
   0   0 -10    1.33    0.07
   0   0  10    1.32    0.08
  -1   0 -10    0.76    0.06
  -1   0 -10    0.66    0.06
  -1   0 -10    0.78    0.06
  -1   0 -10    0.71    0.05
  -1   0 -10    0.83    0.07
   1   0  10    0.75    0.06
  -2   0 -10    4.41    0.13
  -2   0 -10    4.27    0.12
  -2   0 -10    4.20    0.13
  -2   0 -10    4.27    0.13
  -2   0 -10    4.37    0.14
   2   0  10    4.34    0.14
  -3   0 -10    0.01    0.02
  -3   0 -10    0.00    0.02
  -3   0 -10   -0.01    0.02
  -3   0 -10    0.00    0.02
  -3   0 -10    0.01    0.02
  -4   0 -10    0.87    0.06
  -4   0 -10    0.95    0.07
  -4   0 -10    0.94    0.07
  -4   0 -10    0.88    0.07
  -4   0 -10    1.00    0.07
  -5   0 -10    0.14    0.04
  -5   0 -10    0.13    0.03
  -5   0 -10    0.09    0.03
  -5   0 -10    0.13    0.04
  -5   0 -10    0.12    0.03
   5  -1 -10   -0.04    0.03
  -5   1  10    0.00    0.02
   4  -1 -10    1.77    0.09
   4  -1 -10    1.70    0.08
   4  -1 -10    1.71    0.08
   4  -1 -10    1.72    0.08
   4  -1 -10    1.71    0.07
  -4   1  10    1.68    0.08
   3  -1 -10    3.80    0.13
   3  -1 -10    4.03    0.12
   3  -1 -10    4.05    0.12
   3  -1 -10    3.96    0.12
   3  -1 -10    3.77    0.12
  -3   1  10    3.76    0.13
   2  -1 -10    3.89    0.12
   2  -1 -10    4.11    0.13
   2  -1 -10    3.99    0.13
   2  -1 -10    3.96    0.12
   2  -1 -10    4.01    0.12
  -2   1  10    4.05    0.13
   1  -1 -10   12.53    0.27
   1  -1 -10   12.47    0.26
   1  -1 -10   12.60    0.27
   1  -1 -10   12.51    0.27
   1  -1 -10   12.80    0.28
  -1   1  10   12.23    0.28
   0  -1 -10   26.39    0.50
   0  -1 -10   26.67    0.50
   0  -1 -10   26.60    0.51
   0  -1 -10   26.30    0.50
   0  -1 -10   26.16    0.49
   0   1  10   25.68    0.51
  -1  -1 -10    0.01    0.03
  -1  -1 -10   -0.01    0.02
  -1  -1 -10   -0.02    0.02
  -1  -1 -10   -0.03    0.02
  -1  -1 -10   -0.03    0.02
   1   1  10   -0.02    0.02
  -2  -1 -10    0.07    0.03
  -2  -1 -10    0.04    0.03
  -2  -1 -10    0.04    0.03
  -2  -1 -10    0.02    0.02
  -2  -1 -10    0.04    0.02
  -3  -1 -10    0.01    0.02
  -3  -1 -10   -0.01    0.02
  -3  -1 -10    0.01    0.02
  -3  -1 -10   -0.01    0.02
  -3  -1 -10    0.01    0.03
  -4  -1 -10    9.40    0.23
  -4  -1 -10    9.24    0.23
  -4  -1 -10    9.28    0.22
  -4  -1 -10    9.42    0.23
  -4  -1 -10    9.48    0.24
  -5  -1 -10    2.14    0.10
  -5  -1 -10    2.08    0.10
  -5  -1 -10    2.04    0.11
  -5  -1 -10    2.02    0.09
   4  -2 -10    0.18    0.04
   4  -2 -10    0.23    0.04
   4  -2 -10    0.15    0.04
   4  -2 -10    0.19    0.03
   4  -2 -10    0.24    0.04
  -4   2  10    0.24    0.04
   3  -2 -10    1.91    0.09
   3  -2 -10    1.77    0.08
   3  -2 -10    1.90    0.09
   3  -2 -10    1.95    0.09
   3  -2 -10    1.79    0.08
  -3   2  10    1.84    0.09
   2  -2 -10    1.48    0.08
   2  -2 -10    1.62    0.08
   2  -2 -10    1.60    0.07
   2  -2 -10    1.58    0.08
   2  -2 -10    1.54    0.08
  -2   2  10    1.45    0.08
   1  -2 -10    4.62    0.14
   1  -2 -10    4.56    0.14
   1  -2 -10    4.64    0.15
   1  -2 -10    4.50    0.14
   1  -2 -10    4.43    0.13
   0  -2 -10    0.22    0.04
   0  -2 -10    0.20    0.04
   0  -2 -10    0.14    0.03
   0  -2 -10    0.19    0.03
   0  -2 -10    0.22    0.04
  -1  -2 -10    1.20    0.08
  -1  -2 -10    1.11    0.07
  -1  -2 -10    1.12    0.07
  -1  -2 -10    1.19    0.07
  -1  -2 -10    1.11    0.07
  -2  -2 -10    1.53    0.07
  -2  -2 -10    1.36    0.08
  -2  -2 -10    1.55    0.09
  -2  -2 -10    1.63    0.08
  -2  -2 -10    1.60    0.08
  -3  -2 -10    4.13    0.13
  -3  -2 -10    4.08    0.14
  -3  -2 -10    3.98    0.13
  -3  -2 -10    3.99    0.14
  -3  -2 -10    4.12    0.14
  -4  -2 -10    0.06    0.03
  -4  -2 -10    0.02    0.03
  -4  -2 -10    0.02    0.03
  -4  -2 -10    0.05    0.03
  -5  -2 -10    0.07    0.03
  -5  -2 -10    0.01    0.03
   4  -3 -10    0.00    0.02
   4  -3 -10    0.00    0.02
   4  -3 -10    0.08    0.02
   4  -3 -10    0.01    0.02
   4  -3 -10    0.05    0.03
   3  -3 -10    1.59    0.08
   3  -3 -10    1.60    0.08
   3  -3 -10    1.52    0.08
   3  -3 -10    1.56    0.09
   3  -3 -10    1.59    0.07
   2  -3 -10    0.47    0.05
   2  -3 -10    0.49    0.05
   2  -3 -10    0.47    0.06
   2  -3 -10    0.46    0.05
   2  -3 -10    0.41    0.05
   1  -3 -10    0.11    0.03
   1  -3 -10    0.11    0.03
   1  -3 -10    0.16    0.04
   1  -3 -10    0.13    0.04
   1  -3 -10    0.12    0.04
   0  -3 -10    4.10    0.13
   0  -3 -10    4.16    0.14
   0  -3 -10    4.16    0.14
   0  -3 -10    4.08    0.13
   0  -3 -10    4.05    0.13
  -1  -3 -10    1.20    0.08
  -1  -3 -10    1.17    0.07
  -1  -3 -10    1.13    0.08
  -1  -3 -10    1.14    0.08
  -1  -3 -10    1.28    0.07
  -2  -3 -10    0.06    0.03
  -2  -3 -10    0.07    0.03
  -2  -3 -10    0.09    0.03
  -2  -3 -10    0.06    0.03
  -3  -3 -10    0.13    0.04
  -3  -3 -10    0.15    0.04
  -3  -3 -10    0.12    0.03
  -3  -3 -10    0.04    0.03
  -4  -3 -10    0.04    0.04
  -4  -3 -10    0.07    0.03
   3  -4 -10    0.89    0.07
   3  -4 -10    1.13    0.07
   3  -4 -10    1.14    0.08
   3  -4 -10    1.15    0.07
   3  -4 -10    1.15    0.07
   2  -4 -10    0.69    0.06
   2  -4 -10    0.73    0.06
   2  -4 -10    0.69    0.06
   2  -4 -10    0.72    0.07
   2  -4 -10    0.72    0.06
   1  -4 -10    0.96    0.07
   1  -4 -10    0.99    0.07
   1  -4 -10    1.02    0.08
   1  -4 -10    1.01    0.07
   1  -4 -10    0.97    0.07
   0  -4 -10    1.13    0.08
   0  -4 -10    1.11    0.08
   0  -4 -10    1.19    0.10
   0  -4 -10    1.18    0.09
   0  -4 -10    1.09    0.07
  -1  -4 -10    0.99    0.08
  -1  -4 -10    0.94    0.07
  -1  -4 -10    0.88    0.07
  -1  -4 -10    0.94    0.07
  -2  -4 -10    0.21    0.05
  -2  -4 -10    0.20    0.04
  -3  -4 -10    0.15    0.04
  -4  -4 -10    5.09    0.18
   3  -5 -10    0.06    0.03
   3  -5 -10   -0.02    0.03
   3  -5 -10    0.03    0.03
   3  -5 -10    0.07    0.04
   3  -5 -10    0.06    0.03
   2  -5 -10    0.06    0.04
   2  -5 -10    0.09    0.03
   2  -5 -10    0.09    0.03
   2  -5 -10    0.10    0.03
   1  -5 -10    0.40    0.06
   1  -5 -10    0.32    0.05
   1  -5 -10    0.33    0.04
   1  -5 -10    0.34    0.05
   0  -5 -10    0.34    0.05
   0  -5 -10    0.46    0.06
  -1  -5 -10    0.10    0.04
  -1  -5 -10    0.04    0.03
  -2  -5 -10    0.92    0.08
  -3  -5 -10    0.59    0.07
   3  -6 -10   -0.03    0.03
   2  -6 -10    1.38    0.09
   2  -6 -10    1.24    0.08
   1  -6 -10    0.06    0.04
   1  -6 -10    0.10    0.07
   0  -6 -10    0.87    0.09
  -1  -6 -10    0.21    0.06
   2   8 -11    0.14    0.04
   2   8 -11    0.13    0.05
   2   8 -11    0.12    0.04
  -2  -8  11    0.12    0.05
   1   8 -11    0.67    0.08
   1   8 -11    0.86    0.08
   1   8 -11    0.81    0.09
  -1  -8  11    0.71    0.08
   0   8 -11    2.04    0.11
   0   8 -11    2.31    0.12
   0   8 -11    2.10    0.11
   0  -8  11    2.28    0.12
  -1   8 -11    0.01    0.03
  -1   8 -11    0.04    0.04
  -1   8 -11    0.03    0.04
   1  -8  11    0.05    0.04
   4   7 -11   -0.02    0.03
   4   7 -11    0.05    0.04
   4   7 -11   -0.02    0.03
  -4  -7  11    0.02    0.04
   3   7 -11    2.23    0.12
   3   7 -11    2.15    0.12
   3   7 -11    2.07    0.12
  -3  -7  11    2.26    0.12
   2   7 -11    0.25    0.05
   2   7 -11    0.25    0.05
   2   7 -11    0.34    0.06
   2   7 -11    0.22    0.04
  -2  -7  11    0.27    0.05
   1   7 -11    0.96    0.08
   1   7 -11    1.04    0.08
   1   7 -11    1.04    0.08
   1   7 -11    1.11    0.09
  -1  -7  11    0.93    0.08
   0   7 -11    1.10    0.09
   0   7 -11    0.95    0.07
   0   7 -11    1.15    0.09
   0   7 -11    1.02    0.08
   0  -7  11    1.02    0.08
  -1   7 -11    6.81    0.20
  -1   7 -11    6.98    0.20
   1  -7  11    6.94    0.21
  -2   7 -11    0.13    0.04
  -2   7 -11    0.13    0.04
   2  -7  11    0.12    0.04
  -3   7 -11    0.01    0.03
  -3   7 -11    0.03    0.03
   3  -7  11    0.03    0.03
   5   6 -11    2.37    0.13
   5   6 -11    2.35    0.12
   5   6 -11    2.31    0.12
  -5  -6  11    2.49    0.13
   4   6 -11    0.02    0.03
   4   6 -11   -0.04    0.03
   4   6 -11    0.04    0.04
   4   6 -11    0.00    0.03
  -4  -6  11   -0.01    0.04
   3   6 -11    0.01    0.03
   3   6 -11    0.00    0.03
   3   6 -11    0.01    0.03
   3   6 -11    0.02    0.03
  -3  -6  11    0.03    0.04
   2   6 -11    2.38    0.12
   2   6 -11    2.55    0.12
   2   6 -11    2.52    0.11
   2   6 -11    2.44    0.12
   2   6 -11    2.51    0.10
   2   6 -11    2.47    0.11
  -2  -6  11    2.63    0.12
   1   6 -11    0.36    0.05
   1   6 -11    0.47    0.06
   1   6 -11    0.40    0.05
   1   6 -11    0.34    0.05
   1   6 -11    0.43    0.05
   1   6 -11    0.37    0.05
  -1  -6  11    0.42    0.06
   0   6 -11    1.40    0.08
   0   6 -11    1.40    0.09
   0   6 -11    1.42    0.08
   0   6 -11    1.43    0.08
   0  -6  11    1.31    0.09
  -1   6 -11    1.22    0.08
  -1   6 -11    1.32    0.09
  -1   6 -11    1.40    0.08
  -1   6 -11    1.32    0.07
   1  -6  11    1.40    0.09
  -2   6 -11    0.72    0.07
  -2   6 -11    0.65    0.06
  -2   6 -11    0.61    0.07
  -2   6 -11    0.71    0.06
   2  -6  11    0.70    0.07
  -3   6 -11    0.47    0.06
  -3   6 -11    0.43    0.06
  -3   6 -11    0.48    0.05
  -3   6 -11    0.41    0.05
   3  -6  11    0.55    0.07
   4  -6  11    1.07    0.09
   5   5 -11    0.07    0.04
   5   5 -11    0.03    0.03
   5   5 -11    0.07    0.04
   5   5 -11    0.06    0.04
  -5  -5  11    0.06    0.04
   4   5 -11    0.52    0.07
   4   5 -11    0.55    0.07
   4   5 -11    0.48    0.06
   4   5 -11    0.44    0.06
   4   5 -11    0.52    0.06
   4   5 -11    0.65    0.06
  -4  -5  11    0.58    0.07
   3   5 -11    0.87    0.08
   3   5 -11    0.83    0.08
   3   5 -11    0.90    0.08
   3   5 -11    0.67    0.07
   3   5 -11    0.84    0.07
   3   5 -11    0.77    0.06
  -3  -5  11    0.86    0.08
   2   5 -11    0.14    0.04
   2   5 -11    0.13    0.04
   2   5 -11    0.12    0.03
   2   5 -11    0.16    0.04
   2   5 -11    0.16    0.04
   2   5 -11    0.19    0.04
  -2  -5  11    0.19    0.04
   1   5 -11    4.08    0.13
   1   5 -11    4.08    0.14
   1   5 -11    4.14    0.15
   1   5 -11    3.98    0.13
   1   5 -11    4.00    0.14
  -1  -5  11    4.01    0.15
   0   5 -11    5.54    0.16
   0   5 -11    5.72    0.16
   0   5 -11    5.41    0.17
   0   5 -11    5.41    0.15
   0   5 -11    5.21    0.16
   0  -5  11    5.60    0.17
  -1   5 -11    0.24    0.04
  -1   5 -11    0.28    0.04
  -1   5 -11    0.32    0.04
  -1   5 -11    0.27    0.04
  -1   5 -11    0.27    0.04
   1  -5  11    0.36    0.06
  -2   5 -11    2.07    0.09
  -2   5 -11    2.14    0.10
  -2   5 -11    2.16    0.10
  -2   5 -11    2.21    0.10
  -2   5 -11    2.20    0.11
   2  -5  11    2.21    0.10
  -3   5 -11    0.09    0.03
  -3   5 -11    0.13    0.04
  -3   5 -11    0.11    0.03
  -3   5 -11    0.12    0.04
  -3   5 -11    0.14    0.03
   3  -5  11    0.13    0.04
  -4   5 -11    0.44    0.06
  -4   5 -11    0.46    0.06
  -4   5 -11    0.53    0.06
  -4   5 -11    0.43    0.05
   4  -5  11    0.41    0.06
   6   4 -11    0.06    0.04
   6   4 -11    0.06    0.03
   6   4 -11    0.03    0.03
   6   4 -11    0.06    0.04
  -6  -4  11    0.07    0.04
  -6  -4  11    0.05    0.04
  -6  -4  11    0.03    0.03
   5   4 -11    0.03    0.04
   5   4 -11    0.01    0.03
   5   4 -11    0.07    0.03
   5   4 -11    0.12    0.03
  -5  -4  11    0.05    0.04
   4   4 -11    0.17    0.04
   4   4 -11    0.16    0.04
   4   4 -11    0.18    0.04
   4   4 -11    0.34    0.04
  -4  -4  11    0.26    0.05
   3   4 -11    0.07    0.03
   3   4 -11    0.06    0.03
   3   4 -11    0.13    0.03
   3   4 -11    0.09    0.04
  -3  -4  11    0.06    0.04
   2   4 -11    1.95    0.08
   2   4 -11    1.93    0.09
   2   4 -11    1.94    0.10
   2   4 -11    1.87    0.09
   2   4 -11    1.96    0.09
  -2  -4  11    1.91    0.10
   1   4 -11    0.10    0.03
   1   4 -11    0.21    0.05
   1   4 -11    0.14    0.03
   1   4 -11    0.18    0.04
   1   4 -11    0.19    0.04
  -1  -4  11    0.15    0.04
   0   4 -11   -0.02    0.02
   0   4 -11   -0.02    0.02
   0   4 -11    0.00    0.02
   0   4 -11    0.00    0.03
   0   4 -11   -0.05    0.02
   0  -4  11   -0.01    0.03
  -1   4 -11    5.37    0.17
  -1   4 -11    5.36    0.16
  -1   4 -11    5.38    0.15
  -1   4 -11    5.47    0.16
  -1   4 -11    5.46    0.16
   1  -4  11    5.51    0.17
  -2   4 -11    4.05    0.13
  -2   4 -11    3.97    0.14
  -2   4 -11    4.29    0.14
  -2   4 -11    4.05    0.12
  -2   4 -11    4.30    0.14
   2  -4  11    4.20    0.15
  -3   4 -11    0.07    0.03
  -3   4 -11    0.14    0.03
  -3   4 -11    0.12    0.03
  -3   4 -11    0.11    0.03
  -3   4 -11    0.12    0.03
   3  -4  11    0.17    0.04
  -4   4 -11   -0.02    0.02
  -4   4 -11    0.06    0.03
  -4   4 -11    0.00    0.02
  -4   4 -11   -0.02    0.02
  -4   4 -11    0.02    0.02
   4  -4  11    0.02    0.03
   6   3 -11    1.87    0.11
   6   3 -11    1.99    0.11
  -6  -3  11    1.66    0.10
   5   3 -11    0.80    0.08
   5   3 -11    0.54    0.06
   5   3 -11    0.58    0.05
   5   3 -11    0.53    0.06
  -5  -3  11    0.66    0.07
   4   3 -11    1.40    0.07
   4   3 -11    1.33    0.08
   4   3 -11    1.47    0.08
   4   3 -11    1.31    0.09
   4   3 -11    1.15    0.08
  -4  -3  11    1.23    0.08
   3   3 -11    1.15    0.08
   3   3 -11    1.09    0.08
   3   3 -11    1.04    0.07
   3   3 -11    1.04    0.07
   3   3 -11    1.19    0.08
  -3  -3  11    1.19    0.08
   2   3 -11    0.02    0.03
   2   3 -11    0.00    0.02
   2   3 -11    0.01    0.02
   2   3 -11    0.00    0.02
   2   3 -11   -0.01    0.02
  -2  -3  11    0.02    0.03
   1   3 -11    1.95    0.09
   1   3 -11    1.99    0.09
   1   3 -11    1.95    0.08
   1   3 -11    1.91    0.09
   1   3 -11    1.91    0.10
  -1  -3  11    2.04    0.10
   0   3 -11   10.25    0.24
   0   3 -11   10.31    0.24
   0   3 -11   10.24    0.23
   0   3 -11   10.06    0.25
   0   3 -11   10.02    0.24
   0  -3  11   10.06    0.25
  -1   3 -11    0.40    0.05
  -1   3 -11    0.46    0.04
  -1   3 -11    0.46    0.05
  -1   3 -11    0.46    0.05
  -1   3 -11    0.46    0.05
   1  -3  11    0.55    0.06
  -2   3 -11    0.11    0.03
  -2   3 -11    0.12    0.03
  -2   3 -11    0.12    0.03
  -2   3 -11    0.05    0.02
  -2   3 -11    0.10    0.03
   2  -3  11    0.10    0.04
  -3   3 -11    0.49    0.05
  -3   3 -11    0.50    0.05
  -3   3 -11    0.48    0.05
  -3   3 -11    0.56    0.05
  -3   3 -11    0.48    0.06
   3  -3  11    0.54    0.07
  -4   3 -11    1.22    0.08
  -4   3 -11    1.22    0.08
  -4   3 -11    1.29    0.07
  -4   3 -11    1.32    0.08
  -4   3 -11    1.21    0.07
   4  -3  11    1.34    0.09
   5  -3  11    0.09    0.04
   5   2 -11    0.63    0.06
   5   2 -11    0.75    0.07
   5   2 -11    0.67    0.06
   5   2 -11    0.66    0.06
  -5  -2  11    0.74    0.07
   4   2 -11    0.17    0.04
   4   2 -11    0.17    0.04
   4   2 -11    0.15    0.04
   4   2 -11    0.17    0.04
   4   2 -11    0.23    0.04
  -4  -2  11    0.19    0.05
   3   2 -11    0.85    0.07
   3   2 -11    0.76    0.07
   3   2 -11    0.86    0.08
   3   2 -11    0.77    0.06
   3   2 -11    0.73    0.06
  -3  -2  11    0.82    0.07
   2   2 -11    0.06    0.03
   2   2 -11    0.08    0.03
   2   2 -11    0.08    0.03
   2   2 -11    0.07    0.04
   2   2 -11    0.06    0.03
  -2  -2  11    0.04    0.04
   1   2 -11    5.08    0.14
   1   2 -11    5.01    0.15
   1   2 -11    4.91    0.15
   1   2 -11    4.87    0.16
   1   2 -11    4.97    0.14
  -1  -2  11    5.10    0.16
   0   2 -11   -0.02    0.02
   0   2 -11   -0.03    0.02
   0   2 -11   -0.03    0.02
   0   2 -11   -0.01    0.03
   0   2 -11   -0.05    0.02
   0  -2  11   -0.02    0.03
  -1   2 -11    0.53    0.05
  -1   2 -11    0.51    0.05
  -1   2 -11    0.62    0.06
  -1   2 -11    0.52    0.06
  -1   2 -11    0.51    0.05
   1  -2  11    0.58    0.06
  -2   2 -11    0.11    0.03
  -2   2 -11    0.12    0.04
  -2   2 -11    0.13    0.03
  -2   2 -11    0.19    0.04
  -2   2 -11    0.10    0.03
   2  -2  11    0.13    0.04
  -3   2 -11    4.80    0.15
  -3   2 -11    4.85    0.14
  -3   2 -11    4.62    0.15
  -3   2 -11    4.76    0.15
  -3   2 -11    4.83    0.16
   3  -2  11    4.80    0.16
  -4   2 -11    0.03    0.03
  -4   2 -11   -0.03    0.02
  -4   2 -11    0.00    0.03
  -4   2 -11   -0.01    0.03
  -4   2 -11    0.00    0.03
   4  -2  11   -0.03    0.03
  -5   2 -11   -0.03    0.03
  -5   2 -11   -0.06    0.03
   5   1 -11    0.23    0.04
   5   1 -11    0.29    0.05
   5   1 -11    0.25    0.04
   5   1 -11    0.20    0.03
   5   1 -11    0.22    0.04
  -5  -1  11    0.20    0.04
   4   1 -11    0.10    0.03
   4   1 -11    0.08    0.04
   4   1 -11    0.15    0.04
   4   1 -11    0.18    0.04
   4   1 -11    0.17    0.04
  -4  -1  11    0.19    0.04
   3   1 -11    8.98    0.21
   3   1 -11    9.06    0.22
   3   1 -11    9.13    0.23
   3   1 -11    9.14    0.22
   3   1 -11    9.12    0.22
  -3  -1  11    9.16    0.23
   2   1 -11    8.27    0.20
   2   1 -11    8.06    0.19
   2   1 -11    7.86    0.20
   2   1 -11    8.24    0.21
   2   1 -11    7.96    0.21
  -2  -1  11    7.99    0.21
   1   1 -11    1.48    0.09
   1   1 -11    1.43    0.07
   1   1 -11    1.50    0.08
   1   1 -11    1.53    0.08
   1   1 -11    1.64    0.08
  -1  -1  11    1.47    0.09
   0   1 -11   12.34    0.27
   0   1 -11   12.09    0.27
   0   1 -11   12.33    0.26
   0   1 -11   12.27    0.28
   0   1 -11   11.93    0.28
   0  -1  11   11.84    0.28
  -1   1 -11    2.42    0.10
  -1   1 -11    2.36    0.11
  -1   1 -11    2.41    0.10
  -1   1 -11    2.44    0.09
  -1   1 -11    2.37    0.10
   1  -1  11    2.30    0.11
  -2   1 -11    2.39    0.10
  -2   1 -11    2.23    0.10
  -2   1 -11    2.29    0.10
  -2   1 -11    2.25    0.09
  -2   1 -11    2.09    0.09
   2  -1  11    2.28    0.11
  -3   1 -11    3.92    0.12
  -3   1 -11    3.88    0.13
  -3   1 -11    3.93    0.14
  -3   1 -11    3.88    0.13
  -3   1 -11    3.96    0.14
   3  -1  11    4.00    0.15
  -4   1 -11    3.74    0.14
  -4   1 -11    3.74    0.13
  -4   1 -11    3.85    0.13
  -4   1 -11    3.86    0.14
  -5   1 -11    5.10    0.19
  -5   1 -11    5.12    0.16
  -5   1 -11    5.19    0.17
  -5   1 -11    4.87    0.19
   5   0 -11    0.00    0.02
   5   0 -11    0.03    0.03
   5   0 -11    0.00    0.03
   5   0 -11    0.01    0.03
   5   0 -11   -0.01    0.04
  -5   0  11    0.03    0.03
   4   0 -11    4.18    0.13
   4   0 -11    3.97    0.13
   4   0 -11    4.16    0.12
   4   0 -11    4.00    0.13
   4   0 -11    4.24    0.14
  -4   0  11    4.00    0.14
   3   0 -11    1.27    0.08
   3   0 -11    1.20    0.08
   3   0 -11    1.24    0.07
   3   0 -11    1.15    0.08
   3   0 -11    1.23    0.07
  -3   0  11    1.12    0.08
   2   0 -11    5.54    0.17
   2   0 -11    5.56    0.15
   2   0 -11    5.45    0.16
   2   0 -11    5.32    0.15
   2   0 -11    5.56    0.16
  -2   0  11    5.27    0.16
   1   0 -11    0.55    0.06
   1   0 -11    0.51    0.05
   1   0 -11    0.50    0.05
   1   0 -11    0.51    0.06
   1   0 -11    0.54    0.06
  -1   0  11    0.59    0.06
   0   0 -11   -0.04    0.03
   0   0 -11    0.00    0.02
   0   0 -11    0.01    0.02
   0   0 -11   -0.04    0.02
   0   0 -11   -0.03    0.03
   0   0  11   -0.02    0.03
  -1   0 -11    0.33    0.04
  -1   0 -11    0.28    0.05
  -1   0 -11    0.33    0.04
  -1   0 -11    0.34    0.04
  -1   0 -11    0.29    0.04
   1   0  11    0.35    0.05
  -2   0 -11    0.14    0.03
  -2   0 -11    0.06    0.03
  -2   0 -11    0.12    0.04
  -2   0 -11    0.09    0.03
  -2   0 -11    0.10    0.03
   2   0  11    0.10    0.04
  -3   0 -11    0.11    0.04
  -3   0 -11    0.18    0.04
  -3   0 -11    0.14    0.03
  -3   0 -11    0.10    0.03
  -3   0 -11    0.15    0.05
  -4   0 -11    4.33    0.15
  -4   0 -11    4.31    0.14
  -4   0 -11    4.06    0.15
  -4   0 -11    4.35    0.14
  -5   0 -11   -0.02    0.03
  -5   0 -11    0.01    0.03
   4  -1 -11    0.29    0.04
   4  -1 -11    0.28    0.05
   4  -1 -11    0.25    0.04
   4  -1 -11    0.21    0.04
   4  -1 -11    0.23    0.04
  -4   1  11    0.22    0.04
   3  -1 -11    0.59    0.05
   3  -1 -11    0.61    0.06
   3  -1 -11    0.64    0.06
   3  -1 -11    0.63    0.06
   3  -1 -11    0.58    0.06
  -3   1  11    0.65    0.07
   2  -1 -11    2.04    0.09
   2  -1 -11    1.95    0.09
   2  -1 -11    2.01    0.10
   2  -1 -11    2.10    0.09
   2  -1 -11    1.99    0.09
  -2   1  11    1.88    0.10
   1  -1 -11    0.19    0.04
   1  -1 -11    0.15    0.04
   1  -1 -11    0.08    0.03
   1  -1 -11    0.17    0.04
   1  -1 -11    0.18    0.04
  -1   1  11    0.14    0.04
   0  -1 -11    0.06    0.03
   0  -1 -11    0.00    0.02
   0  -1 -11   -0.03    0.02
   0  -1 -11    0.00    0.02
   0  -1 -11   -0.01    0.03
   0   1  11   -0.02    0.03
  -1  -1 -11    0.12    0.04
  -1  -1 -11    0.08    0.03
  -1  -1 -11    0.13    0.03
  -1  -1 -11    0.11    0.03
  -1  -1 -11    0.15    0.03
  -2  -1 -11    2.07    0.10
  -2  -1 -11    2.10    0.09
  -2  -1 -11    1.96    0.09
  -2  -1 -11    2.04    0.12
  -2  -1 -11    2.07    0.10
  -3  -1 -11    4.22    0.15
  -3  -1 -11    4.41    0.14
  -3  -1 -11    3.98    0.14
  -3  -1 -11    4.22    0.13
  -4  -1 -11   -0.02    0.03
  -4  -1 -11    0.05    0.03
   4  -2 -11    1.75    0.09
   4  -2 -11    1.71    0.09
   4  -2 -11    1.85    0.08
   4  -2 -11    1.75    0.09
   4  -2 -11    1.70    0.08
   3  -2 -11    1.18    0.07
   3  -2 -11    1.25    0.07
   3  -2 -11    1.15    0.08
   3  -2 -11    1.31    0.08
   3  -2 -11    1.18    0.08
   2  -2 -11    1.10    0.07
   2  -2 -11    1.27    0.08
   2  -2 -11    1.19    0.08
   2  -2 -11    1.32    0.09
   2  -2 -11    1.19    0.07
   1  -2 -11    0.83    0.06
   1  -2 -11    0.83    0.06
   1  -2 -11    0.81    0.07
   1  -2 -11    0.95    0.08
   1  -2 -11    0.89    0.07
   0  -2 -11    0.95    0.07
   0  -2 -11    0.94    0.08
   0  -2 -11    0.77    0.07
   0  -2 -11    0.91    0.07
   0  -2 -11    0.93    0.06
  -1  -2 -11    0.07    0.03
  -1  -2 -11    0.08    0.03
  -1  -2 -11    0.10    0.03
  -1  -2 -11    0.10    0.03
  -2  -2 -11    0.34    0.05
  -2  -2 -11    0.39    0.06
  -2  -2 -11    0.40    0.05
  -2  -2 -11    0.49    0.05
  -3  -2 -11    0.37    0.06
  -3  -2 -11    0.40    0.06
  -4  -2 -11    0.44    0.06
   4  -3 -11    0.04    0.03
   4  -3 -11    0.01    0.05
   4  -3 -11    0.01    0.03
   3  -3 -11    0.24    0.04
   3  -3 -11    0.18    0.04
   3  -3 -11    0.19    0.04
   3  -3 -11    0.15    0.04
   3  -3 -11    0.23    0.04
   2  -3 -11    0.04    0.03
   2  -3 -11    0.05    0.04
   2  -3 -11    0.04    0.03
   2  -3 -11    0.00    0.03
   2  -3 -11   -0.01    0.02
   1  -3 -11    0.23    0.04
   1  -3 -11    0.18    0.05
   1  -3 -11    0.18    0.04
   1  -3 -11    0.13    0.03
   0  -3 -11    0.60    0.06
   0  -3 -11    0.61    0.06
   0  -3 -11    0.50    0.05
   0  -3 -11    0.48    0.05
  -1  -3 -11    0.67    0.07
  -1  -3 -11    0.76    0.08
  -2  -3 -11    0.00    0.03
  -2  -3 -11    0.02    0.03
  -3  -3 -11    0.75    0.08
   3  -4 -11    0.06    0.03
   3  -4 -11    0.03    0.03
   3  -4 -11    0.04    0.04
   3  -4 -11    0.00    0.03
   2  -4 -11    0.09    0.03
   2  -4 -11    0.08    0.03
   2  -4 -11    0.06    0.04
   2  -4 -11    0.09    0.04
   1  -4 -11    5.63    0.17
   1  -4 -11    5.82    0.18
   0  -4 -11    0.49    0.06
   0  -4 -11    0.53    0.07
  -1  -4 -11    0.03    0.03
  -2  -4 -11    0.02    0.04
   3  -5 -11   -0.02    0.03
   3  -5 -11    0.04    0.04
   2  -5 -11    1.48    0.09
   2  -5 -11    1.62    0.10
   1  -5 -11   -0.02    0.03
   0  -5 -11    0.38    0.06
  -1  -5 -11    1.57    0.11
   2   7 -12    0.12    0.04
   2   7 -12    0.14    0.05
   2   7 -12    0.13    0.05
  -2  -7  12    0.16    0.05
   1   7 -12    0.33    0.06
   1   7 -12    0.27    0.05
   1   7 -12    0.34    0.06
  -1  -7  12    0.30    0.06
   0   7 -12    0.20    0.05
   0  -7  12    0.20    0.05
  -1   7 -12    1.69    0.10
   1  -7  12    1.73    0.10
   4   6 -12    0.07    0.04
   4   6 -12    0.04    0.04
   4   6 -12    0.09    0.04
  -4  -6  12    0.10    0.05
   3   6 -12    0.66    0.08
   3   6 -12    0.67    0.08
   3   6 -12    0.88    0.08
  -3  -6  12    0.80    0.09
   2   6 -12    0.05    0.04
   2   6 -12   -0.01    0.03
   2   6 -12   -0.01    0.03
  -2  -6  12    0.03    0.04
   1   6 -12    1.30    0.09
   1   6 -12    1.37    0.09
  -1  -6  12    1.47    0.10
   0   6 -12    1.25    0.09
   0   6 -12    1.12    0.08
   0  -6  12    1.34    0.09
  -1   6 -12    0.07    0.03
  -1   6 -12    0.01    0.03
   1  -6  12    0.02    0.03
  -2   6 -12    0.84    0.07
  -2   6 -12    0.86    0.08
   2  -6  12    0.91    0.08
   4   5 -12    0.25    0.06
   4   5 -12    0.16    0.04
  -4  -5  12    0.28    0.06
   3   5 -12    1.61    0.10
   3   5 -12    1.55    0.09
  -3  -5  12    1.42    0.10
   2   5 -12    1.48    0.09
   2   5 -12    1.50    0.09
  -2  -5  12    1.53    0.10
   1   5 -12    0.06    0.05
   1   5 -12    0.01    0.03
   1   5 -12    0.03    0.03
  -1  -5  12   -0.02    0.03
   0   5 -12    0.66    0.09
   0   5 -12    0.59    0.06
   0   5 -12    0.57    0.07
   0   5 -12    0.57    0.07
   0  -5  12    0.60    0.07
  -1   5 -12    0.44    0.05
  -1   5 -12    0.44    0.06
   1  -5  12    0.60    0.07
  -2   5 -12    0.85    0.08
  -2   5 -12    0.94    0.07
   2  -5  12    0.97    0.08
  -3   5 -12    2.98    0.12
  -3   5 -12    3.15    0.13
   3  -5  12    3.24    0.13
   5   4 -12    0.32    0.05
   5   4 -12    0.31    0.06
  -5  -4  12    0.38    0.06
   4   4 -12    1.62    0.10
   4   4 -12    1.70    0.09
  -4  -4  12    1.55    0.10
   3   4 -12    0.01    0.03
   3   4 -12    0.00    0.02
   3   4 -12   -0.02    0.03
   3   4 -12   -0.05    0.02
  -3  -4  12    0.10    0.04
   2   4 -12    0.51    0.06
   2   4 -12    0.50    0.05
   2   4 -12    0.57    0.06
   2   4 -12    0.49    0.05
  -2  -4  12    0.64    0.07
   1   4 -12    0.00    0.03
   1   4 -12    0.00    0.03
   1   4 -12   -0.02    0.02
   1   4 -12    0.00    0.02
  -1  -4  12    0.05    0.03
   0   4 -12    1.54    0.09
   0   4 -12    1.65    0.09
   0   4 -12    1.46    0.08
   0   4 -12    1.73    0.08
   0  -4  12    1.54    0.09
  -1   4 -12    0.35    0.05
  -1   4 -12    0.34    0.06
  -1   4 -12    0.29    0.05
  -1   4 -12    0.43    0.05
   1  -4  12    0.39    0.06
  -2   4 -12    0.36    0.05
  -2   4 -12    0.33    0.05
  -2   4 -12    0.40    0.05
  -2   4 -12    0.44    0.05
   2  -4  12    0.50    0.06
  -3   4 -12    0.01    0.02
  -3   4 -12    0.05    0.03
   3  -4  12    0.01    0.03
  -4   4 -12    5.25    0.18
  -4   4 -12    5.49    0.17
   4  -4  12    5.45    0.18
   5   3 -12    0.61    0.08
   5   3 -12    0.59    0.07
   5   3 -12    0.66    0.07
   5   3 -12    0.64    0.06
  -5  -3  12    0.65    0.07
   4   3 -12    0.52    0.05
   4   3 -12    0.53    0.06
   4   3 -12    0.51    0.06
   4   3 -12    0.61    0.07
  -4  -3  12    0.64    0.07
   3   3 -12    0.24    0.04
   3   3 -12    0.19    0.04
   3   3 -12    0.25    0.05
   3   3 -12    0.19    0.04
  -3  -3  12    0.28    0.05
   2   3 -12    2.69    0.11
   2   3 -12    2.63    0.11
   2   3 -12    2.78    0.12
   2   3 -12    2.64    0.10
  -2  -3  12    2.69    0.12
   1   3 -12    0.97    0.07
   1   3 -12    0.97    0.07
   1   3 -12    1.02    0.12
   1   3 -12    1.10    0.08
   1   3 -12    0.95    0.07
  -1  -3  12    1.02    0.08
   0   3 -12    0.07    0.03
   0   3 -12    0.17    0.04
   0   3 -12    0.05    0.03
   0   3 -12    0.07    0.03
   0  -3  12    0.14    0.04
  -1   3 -12    0.06    0.03
  -1   3 -12    0.04    0.03
  -1   3 -12    0.04    0.03
  -1   3 -12    0.02    0.03
   1  -3  12    0.05    0.03
  -2   3 -12    0.36    0.05
  -2   3 -12    0.32    0.05
  -2   3 -12    0.29    0.04
  -2   3 -12    0.37    0.05
   2  -3  12    0.36    0.06
  -3   3 -12    1.14    0.08
  -3   3 -12    1.07    0.08
   3  -3  12    1.17    0.09
  -4   3 -12    1.55    0.10
  -4   3 -12    1.57    0.09
   4  -3  12    1.61    0.11
   5   2 -12    0.01    0.03
   5   2 -12    0.03    0.03
   5   2 -12    0.03    0.03
   5   2 -12    0.02    0.03
  -5  -2  12   -0.02    0.03
   4   2 -12    1.26    0.07
   4   2 -12    1.15    0.08
   4   2 -12    1.19    0.09
   4   2 -12    1.26    0.08
  -4  -2  12    1.15    0.09
   3   2 -12    1.89    0.10
   3   2 -12    1.86    0.09
   3   2 -12    1.86    0.10
   3   2 -12    1.82    0.10
   3   2 -12    1.84    0.09
  -3  -2  12    1.78    0.10
   2   2 -12    0.18    0.04
   2   2 -12    0.20    0.04
   2   2 -12    0.13    0.04
   2   2 -12    0.21    0.04
   2   2 -12    0.19    0.04
  -2  -2  12    0.20    0.05
   1   2 -12    1.51    0.08
   1   2 -12    1.50    0.08
   1   2 -12    1.60    0.09
   1   2 -12    1.43    0.09
   1   2 -12    1.54    0.09
  -1  -2  12    1.51    0.09
   0   2 -12    0.20    0.04
   0   2 -12    0.17    0.04
   0   2 -12    0.17    0.04
   0   2 -12    0.19    0.04
   0   2 -12    0.24    0.04
   0  -2  12    0.26    0.05
  -1   2 -12    0.16    0.03
  -1   2 -12    0.25    0.05
  -1   2 -12    0.23    0.04
  -1   2 -12    0.24    0.04
   1  -2  12    0.17    0.04
  -2   2 -12    0.13    0.04
  -2   2 -12    0.16    0.04
  -2   2 -12    0.15    0.03
  -2   2 -12    0.12    0.03
   2  -2  12    0.16    0.04
  -3   2 -12    0.36    0.05
  -3   2 -12    0.41    0.06
  -3   2 -12    0.36    0.06
  -3   2 -12    0.47    0.07
   3  -2  12    0.42    0.07
  -4   2 -12    1.18    0.08
  -4   2 -12    1.17    0.09
   4  -2  12    1.25    0.09
   5   1 -12    0.08    0.03
   5   1 -12    0.05    0.04
   5   1 -12    0.04    0.03
   5   1 -12    0.03    0.03
  -5  -1  12    0.03    0.04
   4   1 -12    0.02    0.03
   4   1 -12    0.01    0.03
   4   1 -12    0.06    0.04
   4   1 -12   -0.04    0.03
   4   1 -12    0.05    0.03
  -4  -1  12    0.06    0.04
   3   1 -12    2.39    0.10
   3   1 -12    2.31    0.10
   3   1 -12    2.30    0.10
   3   1 -12    2.37    0.11
   3   1 -12    2.21    0.11
  -3  -1  12    2.29    0.11
   2   1 -12    1.16    0.08
   2   1 -12    1.16    0.08
   2   1 -12    1.38    0.08
   2   1 -12    1.17    0.07
   2   1 -12    1.23    0.09
  -2  -1  12    1.25    0.09
   1   1 -12    0.85    0.07
   1   1 -12    0.90    0.07
   1   1 -12    0.79    0.06
   1   1 -12    0.81    0.07
   1   1 -12    0.89    0.08
  -1  -1  12    0.75    0.07
   0   1 -12    0.42    0.06
   0   1 -12    0.48    0.05
   0   1 -12    0.46    0.05
   0   1 -12    0.50    0.07
   0   1 -12    0.50    0.06
   0  -1  12    0.55    0.07
  -1   1 -12    0.61    0.06
  -1   1 -12    0.60    0.06
  -1   1 -12    0.61    0.06
  -1   1 -12    0.61    0.05
   1  -1  12    0.70    0.07
  -2   1 -12    0.63    0.07
  -2   1 -12    0.65    0.06
  -2   1 -12    0.59    0.07
  -2   1 -12    0.71    0.08
   2  -1  12    0.54    0.07
  -3   1 -12    0.62    0.07
  -3   1 -12    0.60    0.06
   3  -1  12    0.56    0.07
  -4   1 -12    1.12    0.09
  -4   1 -12    1.12    0.10
   5   0 -12    0.18    0.07
   5   0 -12    0.17    0.04
  -5   0  12    0.23    0.05
   4   0 -12    0.09    0.03
   4   0 -12    0.04    0.03
   4   0 -12    0.02    0.03
   4   0 -12    0.06    0.03
   4   0 -12    0.10    0.03
  -4   0  12    0.06    0.03
   3   0 -12   -0.01    0.03
   3   0 -12   -0.02    0.03
   3   0 -12    0.01    0.03
   3   0 -12    0.03    0.03
   3   0 -12    0.00    0.03
  -3   0  12   -0.01    0.03
   2   0 -12    1.73    0.10
   2   0 -12    1.77    0.09
   2   0 -12    1.76    0.10
   2   0 -12    1.77    0.09
   2   0 -12    1.75    0.09
  -2   0  12    1.83    0.10
   1   0 -12    0.63    0.06
   1   0 -12    0.64    0.07
   1   0 -12    0.65    0.06
   1   0 -12    0.64    0.06
   1   0 -12    0.66    0.08
  -1   0  12    0.67    0.07
   0   0 -12    0.03    0.03
   0   0 -12    0.04    0.03
   0   0 -12    0.10    0.03
   0   0 -12    0.02    0.02
   0   0  12    0.07    0.04
  -1   0 -12   -0.02    0.02
  -1   0 -12   -0.05    0.02
  -1   0 -12    0.00    0.02
  -1   0 -12   -0.02    0.03
   1   0  12    0.00    0.03
  -2   0 -12    1.51    0.09
  -2   0 -12    1.47    0.09
   2   0  12    1.49    0.10
  -3   0 -12    0.26    0.05
  -3   0 -12    0.25    0.05
  -4   0 -12    0.42    0.06
   4  -1 -12    1.85    0.09
   4  -1 -12    1.78    0.10
   4  -1 -12    1.76    0.09
   4  -1 -12    1.85    0.09
  -4   1  12    1.87    0.10
   3  -1 -12    2.60    0.10
   3  -1 -12    2.61    0.11
   3  -1 -12    2.64    0.11
   3  -1 -12    2.70    0.12
  -3   1  12    2.68    0.12
   2  -1 -12    6.74    0.19
   2  -1 -12    6.80    0.18
   2  -1 -12    6.62    0.20
   2  -1 -12    6.58    0.18
  -2   1  12    6.49    0.20
   1  -1 -12   -0.03    0.03
   1  -1 -12    0.00    0.03
   1  -1 -12   -0.04    0.03
   1  -1 -12   -0.05    0.02
  -1   1  12    0.02    0.03
   0  -1 -12    0.00    0.03
   0  -1 -12    0.01    0.03
   0  -1 -12   -0.01    0.02
   0  -1 -12   -0.01    0.02
   0   1  12    0.01    0.03
  -1  -1 -12    0.24    0.04
  -1  -1 -12    0.27    0.05
  -2  -1 -12    5.03    0.17
  -2  -1 -12    5.13    0.17
  -3  -1 -12    0.98    0.08
   4  -2 -12    0.53    0.07
   4  -2 -12    0.35    0.05
   4  -2 -12    0.46    0.06
   4  -2 -12    0.39    0.05
   3  -2 -12    2.23    0.11
   3  -2 -12    2.17    0.11
   3  -2 -12    2.23    0.10
   3  -2 -12    2.33    0.10
   2  -2 -12    0.02    0.03
   2  -2 -12    0.03    0.03
   2  -2 -12    0.02    0.03
   2  -2 -12    0.01    0.04
   1  -2 -12    0.48    0.08
   1  -2 -12    0.57    0.09
   1  -2 -12    0.83    0.08
   0  -2 -12    1.42    0.09
   0  -2 -12    1.42    0.09
  -1  -2 -12    1.25    0.08
  -1  -2 -12    1.20    0.09
  -2  -2 -12    0.19    0.05
   4  -3 -12    0.43    0.07
   3  -3 -12   -0.01    0.03
   3  -3 -12   -0.02    0.03
   2  -3 -12    1.08    0.08
   2  -3 -12    1.07    0.09
   1  -3 -12    1.13    0.09
   1  -3 -12    1.00    0.08
   0  -3 -12    0.00    0.03
  -1  -3 -12    0.06    0.04
  -2  -3 -12    0.75    0.08
   2  -4 -12    0.86    0.09
   1  -4 -12    0.18    0.05
   0  -4 -12    0.31    0.06
   1   6 -13    0.52    0.07
  -1  -6  13    0.58    0.08
   0   6 -13    0.27    0.05
   0  -6  13    0.41    0.07
   3   5 -13    1.04    0.09
  -3  -5  13    1.07    0.09
   2   5 -13    1.29    0.09
  -2  -5  13    1.39    0.10
   1   5 -13   -0.04    0.03
  -1  -5  13    0.00    0.03
   0   5 -13    1.53    0.10
   0  -5  13    1.63    0.10
  -1   5 -13    0.13    0.04
   1  -5  13    0.05    0.04
   4   4 -13    0.04    0.04
  -4  -4  13    0.09    0.04
   3   4 -13    0.01    0.04
  -3  -4  13    0.09    0.04
   2   4 -13    0.10    0.04
  -2  -4  13    0.11    0.05
   1   4 -13    2.23    0.12
   1   4 -13    2.42    0.15
  -1  -4  13    2.53    0.12
   0   4 -13    1.00    0.11
   0   4 -13    0.87    0.08
   0  -4  13    1.00    0.09
  -1   4 -13    0.12    0.04
   1  -4  13    0.17    0.05
  -2   4 -13   -0.04    0.03
   2  -4  13    0.01    0.03
   4   3 -13    0.18    0.05
  -4  -3  13    0.14    0.05
   3   3 -13    0.50    0.07
   3   3 -13    0.44    0.06
  -3  -3  13    0.59    0.08
   2   3 -13    2.85    0.12
   2   3 -13    2.92    0.13
  -2  -3  13    3.20    0.14
   1   3 -13    0.33    0.05
   1   3 -13    0.38    0.06
  -1  -3  13    0.40    0.06
   0   3 -13    0.19    0.04
   0   3 -13    0.22    0.05
   0  -3  13    0.28    0.05
  -1   3 -13    0.61    0.07
  -1   3 -13    0.58    0.07
  -2   3 -13    0.37    0.05
   2  -3  13    0.48    0.07
   4   2 -13    0.13    0.05
   4   2 -13    0.08    0.04
  -4  -2  13    0.31    0.06
   3   2 -13    2.38    0.11
   3   2 -13    2.49    0.13
  -3  -2  13    2.62    0.13
   2   2 -13   -0.05    0.03
   2   2 -13    0.05    0.04
  -2  -2  13   -0.03    0.03
   1   2 -13    0.24    0.05
   1   2 -13    0.20    0.04
  -1  -2  13    0.26    0.05
   0   2 -13    0.03    0.03
   0   2 -13    0.00    0.03
   0  -2  13    0.03    0.04
  -1   2 -13    1.32    0.09
  -1   2 -13    1.32    0.09
   1  -2  13    1.40    0.10
  -2   2 -13    0.03    0.03
   2  -2  13    0.07    0.04
   4   1 -13    3.90    0.16
   4   1 -13    3.71    0.14
  -4  -1  13    3.81    0.15
   3   1 -13    0.62    0.07
   3   1 -13    0.56    0.07
  -3  -1  13    0.68    0.08
   2   1 -13    2.79    0.12
   2   1 -13    2.91    0.13
  -2  -1  13    2.85    0.13
   1   1 -13    0.61    0.07
   1   1 -13    0.70    0.07
  -1  -1  13    0.76    0.08
   0   1 -13    2.22    0.11
   0   1 -13    2.19    0.12
   0  -1  13    2.22    0.12
  -1   1 -13    3.57    0.15
   1  -1  13    3.51    0.15
  -2   1 -13    1.78    0.11
   2  -1  13    2.16    0.12
   4   0 -13    1.58    0.11
   4   0 -13    1.64    0.10
  -4   0  13    1.55    0.10
   3   0 -13    0.17    0.05
   3   0 -13    0.19    0.04
  -3   0  13    0.20    0.05
   2   0 -13    0.57    0.07
   2   0 -13    0.52    0.06
  -2   0  13    0.68    0.08
   1   0 -13    0.35    0.05
   1   0 -13    0.33    0.06
  -1   0  13    0.43    0.07
   0   0 -13    0.08    0.04
   0   0 -13    0.06    0.04
   0   0  13    0.09    0.04
  -1   0 -13    0.15    0.04
   1   0  13    0.24    0.05
  -2   0 -13    4.29    0.16
   3  -1 -13    0.01    0.04
   3  -1 -13    0.02    0.04
  -3   1  13    0.01    0.04
   2  -1 -13    0.05    0.04
   2  -1 -13    0.08    0.04
  -2   1  13    0.10    0.04
   1  -1 -13    0.09    0.04
  -1   1  13    0.14    0.04
   0  -1 -13    2.27    0.12
  -1  -1 -13    3.14    0.14
   2  -2 -13    0.32    0.06
   1  -2 -13    0.17    0.05
   0  -2 -13    0.05    0.04
   1   3 -14    0.27    0.06
  -1  -3  14    0.42    0.07
   0   3 -14    0.27    0.05
   0  -3  14    0.35    0.06
   2   2 -14    0.09    0.04
  -2  -2  14    0.06    0.04
   1   2 -14    0.44    0.06
  -1  -2  14    0.52    0.07
   0   2 -14    0.49    0.07
   0  -2  14    0.47    0.07
   1   1 -14    0.24    0.05
  -1  -1  14    0.19    0.05
   0   1 -14    0.00    0.03
   0  -1  14    0.02    0.04
   0   0   0    0.00    0.00
;
_shelx_hkl_checksum              21009
loop_
_space_group_symop_operation_xyz
'x, y, z'
'-x, -y, -z'
loop_
_atom_site_label
_atom_site_type_symbol
_atom_site_fract_x
_atom_site_fract_y
_atom_site_fract_z
_atom_site_U_iso_or_equiv
_atom_site_adp_type
_atom_site_occupancy
_atom_site_site_symmetry_order
_atom_site_calc_flag
_atom_site_refinement_flags_posn
_atom_site_refinement_flags_adp
_atom_site_refinement_flags_occupancy
_atom_site_disorder_assembly
_atom_site_disorder_group
Cl1 Cl 1.13142(11) 0.43677(7) 0.86101(5) 0.0391(2) Uani 1 1 d . . . . .
F1 F 0.8418(2) 0.59832(14) 0.51842(11) 0.0286(4) Uani 1 1 d . . . . .
F2 F 1.1349(2) 1.04263(16) 0.91128(12) 0.0390(4) Uani 1 1 d . . . . .
O1 O 0.8860(3) 0.38599(18) 0.67245(15) 0.0375(5) Uani 1 1 d . . . . .
C2 C 0.9152(3) 0.7069(2) 0.61788(18) 0.0214(6) Uani 1 1 d . . . . .
C5 C 1.0607(4) 0.9307(2) 0.81345(19) 0.0268(6) Uani 1 1 d . . . . .
C1 C 0.9882(3) 0.6576(2) 0.72796(17) 0.0205(6) Uani 1 1 d . . . . .
C3 C 0.9144(3) 0.8635(2) 0.60429(18) 0.0230(6) Uani 1 1 d . . . . .
H3 H 0.8648 0.8921 0.5271 0.028 Uiso 1 1 calc R U . . .
C7 C 0.9811(4) 0.4872(3) 0.73772(19) 0.0269(6) Uani 1 1 d . . . . .
C6 C 1.0639(3) 0.7746(2) 0.82812(18) 0.0238(6) Uani 1 1 d . . . . .
H6 H 1.1166 0.7467 0.9047 0.029 Uiso 1 1 calc R U . . .
C4 C 0.9869(4) 0.9791(2) 0.7046(2) 0.0256(6) Uani 1 1 d . . . . .
H4 H 0.9858 1.0884 0.6986 0.031 Uiso 1 1 calc R U . . .
Cl1A Cl 0.37814(11) -0.23623(6) 0.12984(5) 0.0415(2) Uani 1 1 d . . . . .
F2A F 0.3520(2) 0.35171(16) 0.09780(13) 0.0373(4) Uani 1 1 d . . . . .
F1A F 0.6650(2) 0.08549(15) 0.47966(11) 0.0284(4) Uani 1 1 d . . . . .
O1A O 0.6022(3) -0.19547(19) 0.32995(15) 0.0382(5) Uani 1 1 d . . . . .
C1A C 0.5096(3) 0.0495(2) 0.27254(18) 0.0204(6) Uani 1 1 d . . . . .
C5A C 0.4323(4) 0.2843(3) 0.1918(2) 0.0253(6) Uani 1 1 d . . . . .
C4A C 0.5108(4) 0.3816(2) 0.3005(2) 0.0266(6) Uani 1 1 d . . . . .
H4A H 0.5118 0.4939 0.3083 0.032 Uiso 1 1 calc R U . . .
C2A C 0.5871(3) 0.1487(2) 0.38281(18) 0.0219(6) Uani 1 1 d . . . . .
C7A C 0.5170(4) -0.1252(2) 0.26164(18) 0.0270(6) Uani 1 1 d . . . . .
C3A C 0.5881(4) 0.3113(2) 0.3979(2) 0.0262(6) Uani 1 1 d . . . . .
H3A H 0.6415 0.3750 0.4745 0.031 Uiso 1 1 calc R U . . .
C6A C 0.4295(3) 0.1216(2) 0.17504(18) 0.0232(6) Uani 1 1 d . . . . .
H6A H 0.3742 0.0588 0.0986 0.028 Uiso 1 1 calc R U . . .
loop_
_atom_site_aniso_label
_atom_site_aniso_U_11
_atom_site_aniso_U_22
_atom_site_aniso_U_33
_atom_site_aniso_U_23
_atom_site_aniso_U_13
_atom_site_aniso_U_12
Cl1 0.0512(6) 0.0306(3) 0.0365(3) 0.0140(2) -0.0067(3) 0.0103(3)
F1 0.0338(11) 0.0267(6) 0.0230(6) 0.0020(4) -0.0049(5) -0.0011(6)
F2 0.0494(13) 0.0271(6) 0.0347(7) -0.0023(5) -0.0082(6) -0.0074(7)
O1 0.0514(16) 0.0236(7) 0.0366(8) 0.0075(6) -0.0028(8) -0.0048(9)
C2 0.0173(18) 0.0248(9) 0.0217(9) 0.0036(7) 0.0012(8) -0.0004(10)
C5 0.0274(19) 0.0238(10) 0.0265(10) -0.0001(7) -0.0007(9) -0.0041(11)
C1 0.0191(17) 0.0207(9) 0.0222(9) 0.0047(7) 0.0028(8) 0.0026(10)
C3 0.0192(18) 0.0275(10) 0.0242(9) 0.0095(7) 0.0022(9) 0.0064(11)
C7 0.033(2) 0.0260(10) 0.0231(9) 0.0084(7) 0.0039(9) 0.0026(11)
C6 0.0230(18) 0.0256(10) 0.0225(9) 0.0048(7) -0.0001(8) 0.0018(11)
C4 0.0247(19) 0.0199(9) 0.0334(10) 0.0070(8) 0.0052(9) 0.0017(11)
Cl1A 0.0577(6) 0.0255(3) 0.0365(3) 0.0011(2) -0.0099(3) -0.0073(3)
F2A 0.0449(13) 0.0361(7) 0.0351(7) 0.0193(6) -0.0017(6) 0.0108(8)
F1A 0.0294(11) 0.0310(6) 0.0246(6) 0.0081(5) -0.0052(5) 0.0056(6)
O1A 0.0523(17) 0.0253(8) 0.0364(9) 0.0068(6) -0.0036(8) 0.0097(9)
C1A 0.0171(17) 0.0212(9) 0.0235(9) 0.0048(7) 0.0034(8) 0.0010(10)
C5A 0.0218(19) 0.0289(10) 0.0286(10) 0.0137(8) 0.0030(9) 0.0056(11)
C4A 0.0254(19) 0.0199(9) 0.0361(11) 0.0067(8) 0.0073(10) 0.0037(11)
C2A 0.0197(18) 0.0249(9) 0.0216(9) 0.0065(7) -0.0001(8) 0.0030(10)
C7A 0.034(2) 0.0244(10) 0.0229(9) 0.0037(7) 0.0040(9) -0.0002(11)
C3A 0.0240(19) 0.0244(10) 0.0285(10) 0.0016(8) 0.0003(9) -0.0025(11)
C6A 0.0215(18) 0.0261(10) 0.0224(9) 0.0059(7) 0.0012(8) 0.0032(11)
loop_
_atom_type_symbol
_atom_type_description
_atom_type_scat_dispersion_real
_atom_type_scat_dispersion_imag
_atom_type_scat_source
C C 0.0033 0.0016 'International Tables Vol C Tables 4.2.6.8 and 6.1.1.4'
H H 0.0000 0.0000 'International Tables Vol C Tables 4.2.6.8 and 6.1.1.4'
O O 0.0106 0.0060 'International Tables Vol C Tables 4.2.6.8 and 6.1.1.4'
F F 0.0171 0.0103 'International Tables Vol C Tables 4.2.6.8 and 6.1.1.4'
Cl Cl 0.1484 0.1585 'International Tables Vol C Tables 4.2.6.8 and 6.1.1.4'
loop_
_geom_angle_atom_site_label_1
_geom_angle_atom_site_label_2
_geom_angle_atom_site_label_3
_geom_angle
_geom_angle_site_symmetry_1
_geom_angle_site_symmetry_3
F1 C2 C3 117.23(18) . .
F1 C2 C1 119.75(17) . .
C3 C2 C1 123.02(18) . .
F2 C5 C6 117.96(19) . .
F2 C5 C4 118.50(18) . .
C6 C5 C4 123.54(19) . .
C2 C1 C6 117.58(18) . .
C2 C1 C7 120.39(18) . .
C6 C1 C7 122.02(18) . .
C2 C3 C4 119.13(19) . .
C2 C3 H3 120.4 . .
C4 C3 H3 120.4 . .
O1 C7 C1 126.3(2) . .
O1 C7 Cl1 119.12(17) . .
C1 C7 Cl1 114.60(16) . .
C5 C6 C1 118.68(19) . .
C5 C6 H6 120.7 . .
C1 C6 H6 120.7 . .
C5 C4 C3 118.03(19) . .
C5 C4 H4 121.0 . .
C3 C4 H4 121.0 . .
C2A C1A C6A 117.62(18) . .
C2A C1A C7A 119.68(19) . .
C6A C1A C7A 122.69(18) . .
F2A C5A C6A 118.12(19) . .
F2A C5A C4A 118.67(19) . .
C6A C5A C4A 123.2(2) . .
C5A C4A C3A 118.19(19) . .
C5A C4A H4A 120.9 . .
C3A C4A H4A 120.9 . .
F1A C2A C3A 117.43(18) . .
F1A C2A C1A 119.98(18) . .
C3A C2A C1A 122.6(2) . .
O1A C7A C1A 127.2(2) . .
O1A C7A Cl1A 118.29(16) . .
C1A C7A Cl1A 114.46(17) . .
C2A C3A C4A 119.49(19) . .
C2A C3A H3A 120.3 . .
C4A C3A H3A 120.3 . .
C5A C6A C1A 118.90(19) . .
C5A C6A H6A 120.6 . .
C1A C6A H6A 120.6 . .
loop_
_geom_bond_atom_site_label_1
_geom_bond_atom_site_label_2
_geom_bond_distance
_geom_bond_site_symmetry_2
Cl1 C7 1.774(2) .
F1 C2 1.349(2) .
F2 C5 1.356(2) .
O1 C7 1.187(3) .
C2 C3 1.375(3) .
C2 C1 1.393(3) .
C5 C6 1.374(3) .
C5 C4 1.380(3) .
C1 C6 1.399(3) .
C1 C7 1.482(3) .
C3 C4 1.386(3) .
C3 H3 0.9500 .
C6 H6 0.9500 .
C4 H4 0.9500 .
Cl1A C7A 1.784(2) .
F2A C5A 1.350(2) .
F1A C2A 1.347(2) .
O1A C7A 1.181(3) .
C1A C2A 1.396(3) .
C1A C6A 1.402(3) .
C1A C7A 1.483(3) .
C5A C6A 1.372(3) .
C5A C4A 1.380(3) .
C4A C3A 1.385(3) .
C4A H4A 0.9500 .
C2A C3A 1.372(3) .
C3A H3A 0.9500 .
C6A H6A 0.9500 .
loop_
_geom_torsion_atom_site_label_1
_geom_torsion_atom_site_label_2
_geom_torsion_atom_site_label_3
_geom_torsion_atom_site_label_4
_geom_torsion
_geom_torsion_site_symmetry_1
_geom_torsion_site_symmetry_2
_geom_torsion_site_symmetry_3
_geom_torsion_site_symmetry_4
F1 C2 C1 C6 179.5(2) . . . .
C3 C2 C1 C6 -0.1(4) . . . .
F1 C2 C1 C7 -1.7(4) . . . .
C3 C2 C1 C7 178.6(2) . . . .
F1 C2 C3 C4 179.4(2) . . . .
C1 C2 C3 C4 -0.9(4) . . . .
C2 C1 C7 O1 -17.3(4) . . . .
C6 C1 C7 O1 161.4(3) . . . .
C2 C1 C7 Cl1 163.0(2) . . . .
C6 C1 C7 Cl1 -18.3(3) . . . .
F2 C5 C6 C1 -179.9(2) . . . .
C4 C5 C6 C1 -0.2(4) . . . .
C2 C1 C6 C5 0.7(4) . . . .
C7 C1 C6 C5 -178.0(2) . . . .
F2 C5 C4 C3 178.8(2) . . . .
C6 C5 C4 C3 -0.9(4) . . . .
C2 C3 C4 C5 1.4(4) . . . .
F2A C5A C4A C3A 178.1(2) . . . .
C6A C5A C4A C3A -1.0(4) . . . .
C6A C1A C2A F1A 179.6(2) . . . .
C7A C1A C2A F1A -1.3(4) . . . .
C6A C1A C2A C3A -0.4(4) . . . .
C7A C1A C2A C3A 178.6(2) . . . .
C2A C1A C7A O1A -10.5(4) . . . .
C6A C1A C7A O1A 168.5(3) . . . .
C2A C1A C7A Cl1A 169.01(18) . . . .
C6A C1A C7A Cl1A -12.0(3) . . . .
F1A C2A C3A C4A 179.5(2) . . . .
C1A C2A C3A C4A -0.4(4) . . . .
C5A C4A C3A C2A 1.1(4) . . . .
F2A C5A C6A C1A -178.9(2) . . . .
C4A C5A C6A C1A 0.1(4) . . . .
C2A C1A C6A C5A 0.5(4) . . . .
C7A C1A C6A C5A -178.5(2) . . . .
