#------------------------------------------------------------------------------
#$Date: 2016-05-06 03:19:51 +0300 (Fri, 06 May 2016) $
#$Revision: 182609 $
#$URL: svn://www.crystallography.net/cod/cif/7/11/89/7118909.cif $
#------------------------------------------------------------------------------
#
# This file is available in the Crystallography Open Database (COD),
# http://www.crystallography.net/
#
# All data on this site have been placed in the public domain by the
# contributors.
#
data_7118909
loop_
_publ_author_name
'Ivanov, Daniil M.'
'Novikov, Alexander S.'
'Ananyev, Ivan V.'
'Kirina, Yulia V.'
'Kukushkin, Vadim Yu'
_publ_section_title
;
 Halogen bonding between metal centers and halocarbons.
;
_journal_issue                   32
_journal_name_full
'Chemical communications (Cambridge, England)'
_journal_page_first              5565
_journal_page_last               5568
_journal_paper_doi               10.1039/c6cc01107a
_journal_volume                  52
_journal_year                    2016
_chemical_formula_moiety         'C12 H20 Cl2 N4 Pt, 2(C H I3)'
_chemical_formula_sum            'C14 H22 Cl2 I6 N4 Pt'
_chemical_formula_weight         1273.74
_space_group_crystal_system      triclinic
_space_group_IT_number           2
_space_group_name_Hall           '-P 1'
_space_group_name_H-M_alt        'P -1'
_symmetry_space_group_name_Hall  '-P 1'
_symmetry_space_group_name_H-M   'P -1'
_atom_sites_solution_hydrogens   geom
_audit_creation_method           SHELXL-2014/6
_audit_update_record
;
2016-01-11 deposited with the CCDC.
2016-03-16 downloaded from the CCDC.
;
_cell_angle_alpha                100.776(7)
_cell_angle_beta                 113.593(8)
_cell_angle_gamma                107.793(8)
_cell_formula_units_Z            1
_cell_length_a                   9.1290(8)
_cell_length_b                   9.1612(8)
_cell_length_c                   10.0487(8)
_cell_measurement_reflns_used    215
_cell_measurement_temperature    100(2)
_cell_measurement_theta_max      25
_cell_measurement_theta_min      3
_cell_volume                     685.71(13)
_computing_cell_refinement       'Bruker SAINT'
_computing_data_collection       'Bruker APEX II'
_computing_data_reduction        'Bruker SAINT'
_computing_molecular_graphics    'Bruker SHELXTL'
_computing_publication_material  'Bruker SHELXTL'
_computing_structure_refinement  'SHELXL-97 (Sheldrick, 1997)'
_computing_structure_solution    'SHELXS-97 (Sheldrick, 1997)'
_diffrn_ambient_temperature      100(2)
_diffrn_measured_fraction_theta_full 0.999
_diffrn_measured_fraction_theta_max 0.857
_diffrn_measurement_device_type  'Bruker APEX II CCD area detector''
_diffrn_measurement_method       'omega scans'
_diffrn_radiation_type           MoK\a
_diffrn_radiation_wavelength     0.71073
_diffrn_reflns_av_R_equivalents  0.0339
_diffrn_reflns_av_unetI/netI     0.0617
_diffrn_reflns_Laue_measured_fraction_full 0.999
_diffrn_reflns_Laue_measured_fraction_max 0.857
_diffrn_reflns_limit_h_max       12
_diffrn_reflns_limit_h_min       -12
_diffrn_reflns_limit_k_max       12
_diffrn_reflns_limit_k_min       -11
_diffrn_reflns_limit_l_max       13
_diffrn_reflns_limit_l_min       -12
_diffrn_reflns_number            5774
_diffrn_reflns_point_group_measured_fraction_full 0.999
_diffrn_reflns_point_group_measured_fraction_max 0.857
_diffrn_reflns_theta_full        25.242
_diffrn_reflns_theta_max         30.183
_diffrn_reflns_theta_min         2.568
_exptl_absorpt_coefficient_mu    12.074
_exptl_absorpt_correction_T_max  0.309
_exptl_absorpt_correction_T_min  0.185
_exptl_absorpt_correction_type   multi-scan
_exptl_absorpt_process_details   SADABS
_exptl_crystal_colour            yellow
_exptl_crystal_density_diffrn    3.085
_exptl_crystal_description       prism
_exptl_crystal_F_000             564
_exptl_crystal_size_max          0.199
_exptl_crystal_size_mid          0.167
_exptl_crystal_size_min          0.134
_refine_diff_density_max         1.322
_refine_diff_density_min         -1.818
_refine_diff_density_rms         0.266
_refine_ls_extinction_method     none
_refine_ls_goodness_of_fit_ref   1.031
_refine_ls_hydrogen_treatment    constr
_refine_ls_matrix_type           full
_refine_ls_number_parameters     124
_refine_ls_number_reflns         3479
_refine_ls_number_restraints     0
_refine_ls_restrained_S_all      1.031
_refine_ls_R_factor_all          0.0446
_refine_ls_R_factor_gt           0.0345
_refine_ls_shift/su_max          0.001
_refine_ls_shift/su_mean         0.000
_refine_ls_structure_factor_coef Fsqd
_refine_ls_weighting_details
'w=1/[\s^2^(Fo^2^)+(0.0160P)^2^] where P=(Fo^2^+2Fc^2^)/3'
_refine_ls_weighting_scheme      calc
_refine_ls_wR_factor_gt          0.0652
_refine_ls_wR_factor_ref         0.0719
_reflns_Friedel_coverage         0.000
_reflns_number_gt                2917
_reflns_number_total             3479
_reflns_threshold_expression     I>2\s(I)
_cod_data_source_file            c6cc01107a2.cif
_cod_data_source_block           a
_cod_depositor_comments
'Adding full bibliography for 7118900--7118914.cif.'
_cod_original_cell_volume        685.70(11)
_cod_database_code               7118909
_shelx_space_group_comment
;
The symmetry employed for this shelxl refinement is uniquely defined
by the following loop, which should always be used as a source of
symmetry information in preference to the above space-group names.
They are only intended as comments.
;
_shelx_estimated_absorpt_t_min   0.197
_shelx_estimated_absorpt_t_max   0.295
_shelxl_version_number           2014/6
_shelx_res_file
;
TITL dan_86_a.res in P-1
REM Old TITL dan_86 in P-1 #2
REM SHELXT solution in P-1
REM R1 0.144, Rweak 0.008, Alpha 0.019, Orientation as input
REM Formula found by SHELXT: C2 N14 Cl2 Pt7
CELL 0.71073 9.129 9.161209 10.048656 100.7765 113.5933 107.7929
ZERR 1 0.000786 0.000789 0.000824 0.0071 0.008 0.0078
LATT 1
SFAC C H Cl I N Pt
UNIT 14 22 2 6 4 1
size 0.199 0.167 0.134
temp -173.00
L.S. 4
PLAN  20
BIND C6 C5
BOND $H
fmap 2
acta
REM <olex2.extras>
REM <HklSrc "%.\\dan_86.hkl">
REM </olex2.extras>

WGHT    0.016000
FVAR       0.33398
PT1   6    1.000000    1.000000    1.000000    10.50000    0.00931    0.01235 =
         0.01705    0.00759    0.00373    0.00408
I1S   4    0.837747    0.547546    0.578048    11.00000    0.01343    0.01670 =
         0.01780    0.00770    0.00751    0.00602
I2S   4    0.853123    0.163872    0.583116    11.00000    0.01806    0.02030 =
         0.02108    0.01182    0.00959    0.00973
I3S   4    0.457353    0.181698    0.327355    11.00000    0.01195    0.01936 =
         0.02459    0.00719    0.00627    0.00530
CL1   3    1.008501    0.935773    0.770484    11.00000    0.01822    0.01327 =
         0.01722    0.00800    0.00750    0.00482
N1    5    0.880689    0.767020    0.963427    11.00000    0.01103    0.02284 =
         0.02051    0.01267    0.00176    0.00932
N2    5    0.712442    0.475456    0.906719    11.00000    0.01114    0.01747 =
         0.02041    0.01230   -0.00009    0.00026
C1S   1    0.739742    0.294036    0.445613    11.00000    0.01406    0.01268 =
         0.01087    0.00237    0.00417    0.00313
AFIX  13
H1S   2    0.776267    0.289947    0.364010    11.00000   -1.20000
AFIX   0
C1    1    0.803072    0.629807    0.936374    11.00000    0.01714    0.02394 =
         0.01718    0.01567    0.00901    0.01312
C6    1    0.538483    0.377993    0.769631    11.00000    0.01351    0.01851 =
         0.01526    0.00573    0.00129   -0.00150
AFIX  23
H6A   2    0.546722    0.299026    0.693993    11.00000   -1.20000
H6B   2    0.495825    0.450837    0.719307    11.00000   -1.20000
AFIX   0
C5    1    0.409697    0.286064    0.816647    11.00000    0.01370    0.01914 =
         0.02524    0.00472    0.00976    0.00291
AFIX  23
H5A   2    0.389909    0.365297    0.881365    11.00000   -1.20000
H5B   2    0.295125    0.212865    0.722574    11.00000   -1.20000
AFIX   0
C2    1    0.790660    0.385042    0.996807    11.00000    0.01451    0.02065 =
         0.02521    0.01308    0.00536    0.00602
AFIX  23
H2A   2    0.904156    0.462152    1.090253    11.00000   -1.20000
H2B   2    0.813570    0.307681    0.933425    11.00000   -1.20000
AFIX   0
C4    1    0.479965    0.185285    0.907086    11.00000    0.02339    0.01939 =
         0.03503    0.01898    0.01589    0.00738
AFIX  23
H4A   2    0.398858    0.133827    0.944008    11.00000   -1.20000
H4B   2    0.484959    0.096697    0.837984    11.00000   -1.20000
AFIX   0
C3    1    0.662094    0.290847    1.044680    11.00000    0.03289    0.01943 =
         0.02163    0.01005    0.01438    0.00754
AFIX  23
H3A   2    0.708200    0.220448    1.096478    11.00000   -1.20000
H3B   2    0.653933    0.369828    1.120371    11.00000   -1.20000
AFIX   0
HKLF 4

REM  dan_86_a.res in P-1
REM R1 =  0.0345 for    2917 Fo > 4sig(Fo)  and  0.0446 for all    3479 data
REM    124 parameters refined using      0 restraints

END

WGHT      0.0159      0.0000

REM Highest difference peak  1.322,  deepest hole -1.818,  1-sigma level  0.266
Q1    1   1.0622  1.0394  1.1077  11.00000  0.05    1.32
Q2    1   0.9620  0.9014  1.0284  11.00000  0.05    1.26
Q3    1   0.9172  0.5228  0.6869  11.00000  0.05    1.20
Q4    1   0.4434  0.0924  0.3572  11.00000  0.05    1.15
Q5    1   0.6051  0.1790  0.6258  11.00000  0.05    1.04
Q6    1   0.9008  0.9116  0.6432  11.00000  0.05    1.03
Q7    1   0.2806  0.0490  0.1296  11.00000  0.05    0.96
Q8    1   0.9206  0.2354  0.6810  11.00000  0.05    0.94
Q9    1   0.3664  0.5573  0.6303  11.00000  0.05    0.90
Q10   1   0.6549  0.7473  0.8371  11.00000  0.05    0.88
Q11   1   0.9200  1.0444  1.0538  11.00000  0.05    0.88
Q12   1   0.3859  0.2540  0.4030  11.00000  0.05    0.87
Q13   1   0.3914  0.2798  0.3087  11.00000  0.05    0.86
Q14   1   0.9820  0.9906  0.7819  11.00000  0.05    0.84
Q15   1   0.6154  0.2408  0.3710  11.00000  0.05    0.84
Q16   1   0.3645  0.2795  0.6760  11.00000  0.05    0.83
Q17   1   0.8232  0.6437  0.5487  11.00000  0.05    0.83
Q18   1   0.9875  0.6104  1.1337  11.00000  0.05    0.82
Q19   1   0.8605  0.5230  0.7615  11.00000  0.05    0.82
Q20   1   0.8910  0.2537  0.5535  11.00000  0.05    0.82
;
_shelx_res_checksum              86639
_shelx_hkl_file
;
   0   0   2 1635.67   54.11
   0   0  -2 1592.69   53.88
   0   0   2 1695.03   53.62
   0   0  -3 2077.76   70.89
   0   0   3 2140.34   71.66
   0   0   3 1988.89   69.63
   0   0   4   18.18    6.30
   0   0   4    9.62    5.33
   0   0   5 1813.84   76.22
   0   0   5 1921.59   77.01
   0   0   6   96.56   15.66
   0   0   6  129.01   18.12
   0   0   7 1206.53   66.76
   0   0   7 1205.09   66.24
   0   0   8  185.30   26.11
   0   0   8  230.65   28.78
   0   0   9  817.34   61.07
   0   0   9  861.41   61.13
   0   0  10  169.87   27.86
   0   0  10  144.38   27.12
   0   0  11  127.64   25.66
   0   0  11  125.02   26.38
   0  -1  11   -2.75    5.94
   0  -1  10  184.51   29.98
   0  -1  10  181.09   27.40
   0  -1   9  448.38   40.39
   0  -1   9  455.35   44.13
   0  -1   8    4.48    5.71
   0  -1   8   -8.15    7.02
   0  -1   7  552.12   38.84
   0  -1   7  489.82   26.67
   0  -1   7  591.15   43.58
   0  -1   6  888.68   51.05
   0  -1   6  762.16   33.42
   0  -1   6  869.49   46.17
   0  -1   5   10.35    5.03
   0  -1   5   14.72    3.57
   0  -1   5   20.59    7.05
   0  -1   4 3503.10  104.96
   0  -1   4 3473.16  110.98
   0  -1   4 3180.82   92.78
   0  -1   3  338.55   18.65
   0  -1   3  360.43   22.38
   0   1  -3  373.69   22.58
   0  -1   3  349.65   14.12
   0   1  -3  374.80   19.07
   0   1  -2  235.72   14.69
   0  -1   2  225.91   14.58
   0   1  -2  238.55   11.62
   0  -1   2  234.25   11.49
   0  -1   1 1681.51   49.37
   0  -1  -1   85.30    8.37
   0  -1  -1   78.46    6.07
   0   1   1   97.56    6.60
   0  -1  -2   59.89    6.95
   0   1   2   36.77    5.73
   0   1   3 1723.29   66.85
   0  -1  -3 1728.30   62.93
   0   1   3 1903.41   64.64
   0   1   4  101.45   14.22
   0   1   4   98.17   12.81
   0   1   5  457.26   34.26
   0   1   5  454.88   32.29
   0   1   6  802.77   51.82
   0   1   6  900.27   51.78
   0   1   7  344.92   33.17
   0   1   7  320.88   33.90
   0   1   8  840.74   58.05
   0   1   8  822.78   59.96
   0   1   9   37.72   13.57
   0   1   9   69.23   17.55
   0   1  10   -1.17    4.95
   0   1  10   20.67   11.03
   0   1  11   64.03   19.06
   0   1  11   48.59   16.93
   0  -2  11  240.96   37.05
   0  -2  10   20.35    8.51
   0  -2  10   37.85   14.42
   0  -2   9  758.92   58.27
   0  -2   9  794.14   51.52
   0  -2   8   93.50   18.55
   0  -2   8  104.54   16.29
   0  -2   7 1748.67   83.34
   0  -2   7 1608.44   70.19
   0  -2   6   13.52    6.57
   0  -2   6   21.80    6.26
   0  -2   5   20.32    5.33
   0  -2   5   11.79    5.57
   0   2  -4 4564.61  130.00
   0  -2   4 4574.90  143.17
   0  -2   4 4393.76  129.09
   0   2  -4 4695.71  122.75
   0  -2   3 3331.89  103.60
   0   2  -3 3381.20  103.46
   0   2  -3 3342.07   92.42
   0  -2   3 3187.77   91.29
   0  -2   2 2204.59   72.46
   0   2  -2 2419.88   65.03
   0   2  -2 2303.07   72.59
   0  -2   1  819.17   28.89
   0   2  -1  876.50   31.02
   0   2  -1  888.51   32.35
   0   2  -1  831.06   28.59
   0   2   0  118.21    9.93
   0  -2   0  130.55   10.23
   0  -2   0  118.48    9.76
   0   2   0  116.13    9.80
   0   2   1  192.71   15.27
   0  -2  -1  161.16    9.46
   0  -2  -1  155.40   13.11
   0  -2  -1  165.96   13.84
   0   2   1  171.75   14.07
   0   2   2  129.03   10.55
   0  -2  -2  106.00    9.51
   0  -2  -2  104.08   12.88
   0   2   3 2071.04   69.79
   0  -2  -3 1873.01   67.49
   0   2   4  216.54   19.63
   0   2   4  231.18   23.40
   0   2   5 2667.60  105.60
   0   2   5 2448.61   95.26
   0   2   6   68.20   15.31
   0   2   6   38.57   10.55
   0   2   7    8.90    6.53
   0   2   7   -1.72    5.81
   0   2   8 1316.46   75.22
   0   2   8 1363.30   83.17
   0   2   9   21.50   10.46
   0   2   9   13.15    9.79
   0   2  10  150.38   26.50
   0   2  10  137.08   27.64
   0   2  11    2.68    7.52
   0  -3  12  129.64   28.62
   0  -3  11  413.10   47.59
   0  -3  10   65.82   18.36
   0  -3   9   87.94   19.62
   0  -3   9   87.31   14.66
   0  -3   8 1521.08   68.36
   0  -3   8 1993.76   93.20
   0  -3   7  380.84   26.04
   0  -3   7  402.32   36.22
   0  -3   6 1052.02   56.33
   0  -3   6  909.13   40.70
   0  -3   5  489.62   24.29
   0   3  -5  554.85   21.99
   0  -3   5  521.24   35.52
   0   3  -5  541.92   25.96
   0  -3   4  594.90   35.30
   0  -3   4  636.74   25.20
   0   3  -4  675.41   26.38
   0  -3   3   55.23    8.56
   0   3  -3   65.05    5.79
   0  -3   2   11.32    3.74
   0   3  -2   12.66    3.56
   0   3  -1 6374.78  181.53
   0  -3   1 6620.89  173.90
   0  -3   1 6510.80  179.17
   0   3  -1 6489.65  178.75
   0  -3   1 6248.34  181.74
   0   3  -1 6778.86  182.07
   0  -3   0 1811.71   62.72
   0  -3   0 1708.63   58.22
   0   3   0 1833.75   63.10
   0  -3  -1 3186.98   91.16
   0  -3  -1 3274.05  105.65
   0  -3  -2  319.49   24.82
   0  -3  -2  272.36   16.21
   0  -3  -3  116.00   11.87
   0  -3  -3  110.08   15.86
   0  -3  -4 3598.72  136.55
   0   3   4 3834.01  123.12
   0   3   4 3911.58  138.25
   0  -3  -5   25.68   10.09
   0   3   5   34.73    8.91
   0   3   5   31.75   10.57
   0   3   6  474.44   36.42
   0  -3  -6  449.67   42.95
   0   3   6  484.76   43.60
   0   3   7    2.80    6.48
   0  -3  -7   22.92   10.59
   0   3   7    8.54    6.21
   0  -3  -8  480.84   50.29
   0   3   8  475.63   42.90
   0   3   8  538.64   52.12
   0  -3  -9   48.26   17.17
   0   3   9   45.14   16.89
   0   3  10   16.50   11.77
   0  -3 -10    8.54    8.95
   0  -4  12    5.01    8.53
   0  -4  11  380.48   46.31
   0  -4  10    6.62    9.47
   0  -4   9  271.68   34.47
   0  -4   8  293.20   33.25
   0  -4   8  295.20   22.52
   0  -4   7   92.95   17.47
   0  -4   7   69.41    9.15
   0  -4   6  793.77   32.75
   0   4  -6  738.22   32.75
   0  -4   6  715.65   46.68
   0   4  -6  749.02   29.67
   0  -4   5 1045.19   54.85
   0   4  -5 1117.93   40.19
   0  -4   4   10.92    5.15
   0   4  -4   20.25    3.77
   0   4  -3  213.93   13.39
   0  -4   3  205.54   17.40
   0   4  -2 2150.21   68.58
   0   4  -2 2097.35   75.03
   0  -4   2 2112.27   69.71
   0   4  -1  166.94   15.91
   0  -4   1  167.97   11.25
   0  -4   1  162.98   15.82
   0  -4   1  167.54   14.39
   0  -4   0  181.09    9.97
   0   4   0  171.27   16.89
   0  -4   0  185.95   15.13
   0  -4   0  173.19   16.76
   0  -4  -1 1228.64   40.48
   0   4   1 1288.10   57.45
   0  -4  -1 1327.93   56.83
   0  -4  -2    8.26    2.64
   0  -4  -2    9.03    5.62
   0  -4  -3  183.29   14.94
   0  -4  -3  163.30   20.70
   0   4   4  850.14   55.16
   0  -4  -4  748.51   51.18
   0  -4  -5    8.79    7.27
   0   4   5   10.12    7.36
   0   4   6   17.07   10.08
   0  -4  -6   22.40   10.67
   0   4   7  565.77   53.06
   0  -4  -7  490.76   48.76
   0   4   8   25.93   12.91
   0  -4  -8   46.64   16.26
   0  -4  -9   13.41    8.33
   0   4   9    7.66    8.61
   0  -5  11   72.91   21.08
   0  -5  10 1088.45   76.96
   0  -5   9    9.41    8.65
   0  -5   8  901.15   61.70
   0   5  -7   27.48    4.98
   0  -5   7   29.80   10.70
   0  -5   6  760.33   48.34
   0   5  -6  737.62   31.29
   0  -5   5 2177.77   89.04
   0   5  -5 2245.76   69.13
   0  -5   4 1750.92   71.98
   0   5  -4 1835.64   58.99
   0  -5   3 5536.88  164.35
   0   5  -2  114.59   14.76
   0  -5   2  131.48   12.19
   0   5  -1  509.38   32.18
   0  -5   1  433.88   21.17
   0  -5   1  450.02   27.73
   0  -5   1  459.68   30.90
   0  -5   0 1452.25   45.96
   0   5   0 1629.53   67.42
   0  -5   0 1492.31   64.82
   0  -5   0 1494.93   59.13
   0  -5  -1   71.18    6.22
   0  -5  -1   75.58   13.41
   0   5   1   73.45   13.43
   0  -5  -2  919.39   34.79
   0  -5  -2 1000.37   54.30
   0  -5  -3    6.42    6.50
   0   5   4 1517.93   82.20
   0  -5  -4 1388.55   76.56
   0   5   5  215.36   30.53
   0  -5  -5  282.43   33.46
   0   5   6  187.61   30.16
   0  -5  -6  190.59   29.13
   0  -5  -7  603.25   56.05
   0   5   7  538.15   54.91
   0  -5  -8  143.38   28.57
   0   5   8  111.06   26.35
   0  -6  11   16.71    9.39
   0  -6  10  101.26   22.84
   0  -6   9  687.21   57.22
   0  -6   8  275.00   33.09
   0  -6   7 1066.40   64.10
   0  -6   6  351.56   32.12
   0  -6   5    3.53    3.82
   0   6  -5   12.99    3.63
   0  -6   4  485.35   32.49
   0   6  -3  138.48   17.72
   0  -6   3  164.33   16.31
   0   6  -2  792.61   45.45
   0  -6   2  795.81   36.06
   0  -6   1    2.77    1.77
   0  -6   1    2.46    3.93
   0  -6   0 1605.98   65.83
   0  -6   0 1529.22   48.12
   0   6   0 1772.34   76.61
   0  -6   0 1652.69   73.73
   0  -6   0 1596.26   48.17
   0  -6  -1   44.64   11.01
   0   6   1   51.77   12.50
   0  -6  -1   46.29    9.59
   0  -6  -1   49.05    4.44
   0  -6  -1   49.38    4.51
   0  -6  -2   48.74   12.10
   0  -6  -3 1463.66   77.64
   0  -6  -4  247.27   30.89
   0   6   4  371.32   39.23
   0   6   5  324.67   39.53
   0  -6  -5  329.23   37.88
   0   6   6   64.72   18.91
   0  -6  -6   59.65   16.74
   0  -6  -7   24.87   12.21
   0   6   7   25.59   14.07
   0  -7  11    6.93   10.75
   0  -7  10  775.39   65.55
   0  -7   9   34.71   13.89
   0  -7   8   68.72   16.46
   0  -7   7 2129.86   99.50
   0  -7   6   40.30   10.98
   0  -7   5  428.10   34.09
   0  -7   4  174.61   19.29
   0   7  -4  158.07   20.88
   0  -7   3   60.30    9.91
   0   7  -3   63.84   13.21
   0   7  -2  177.31   22.13
   0  -7   2  175.64   14.81
   0   7  -1  128.97   18.89
   0  -7   1  121.23   18.83
   0  -7   1  123.80   10.01
   0  -7   0  556.07   36.72
   0   7   0  659.16   46.42
   0  -7   0  560.68   42.69
   0  -7  -1  243.70   23.75
   0  -7  -1  267.02   29.35
   0   7   1  309.55   32.81
   0  -7  -2 1348.47   74.47
   0  -7  -2 1314.40   63.99
   0  -7  -3  132.39   22.48
   0   7   3  157.48   26.00
   0   7   4   -6.99    6.99
   0  -7  -4    9.95    7.93
   0  -7  -5  339.95   40.37
   0   7   5  470.57   51.15
   0  -7  -6    2.92    7.37
   0   7   6    6.61    8.58
   0  -8  11  942.76   77.82
   0  -8  10   20.11   10.14
   0  -8   9  211.91   31.61
   0  -8   8   55.23   15.25
   0  -8   7  244.37   29.88
   0  -8   6  298.66   30.81
   0  -8   5   77.23   14.31
   0   8  -5   65.27   14.89
   0  -8   4 2440.26   92.82
   0   8  -4 2368.78  104.49
   0   8  -3  364.21   34.36
   0  -8   3  319.50   23.87
   0   8  -2 1163.61   66.42
   0  -8   1  691.17   50.72
   0   8  -1  769.26   52.99
   0   8   0  364.82   36.84
   0  -8   0  329.17   34.53
   0  -8   0  331.85   29.59
   0   8   1 1396.85   81.03
   0  -8  -1 1293.92   76.13
   0  -8  -1 1389.58   67.19
   0  -8  -2    5.62    6.39
   0  -8  -3  288.72   35.57
   0   8   3  276.64   36.93
   0   8   4   26.63   12.77
   0  -8  -4   -4.31    5.78
   0   8   5  215.44   36.94
   0  -8  -5  106.20   23.70
   0  -9  11  330.03   45.14
   0  -9  10   -9.38    8.75
   0  -9   9   12.15    9.42
   0  -9   8  464.26   45.81
   0   9  -7  107.63   21.14
   0  -9   7   66.83   15.79
   0   9  -6   72.78   17.31
   0  -9   6   90.56   17.03
   0   9  -5  405.83   39.72
   0   9  -4   15.19    9.33
   0   9  -3  112.92   20.55
   0   9  -2  579.72   48.22
   0   9  -1   61.52   15.59
   0  -9   1   16.98    8.97
   0   9   0    7.05    6.90
   0  -9   0   19.82    9.84
   0  -9  -1  299.41   36.49
   0   9   2  168.78   28.91
   0  -9  -2  139.34   25.23
   0  -9  -3   -7.02    6.88
   0   9   3    1.40    6.23
   0  -9  -4  146.45   28.08
   0 -10  10    9.17    8.83
   0 -10   9    6.92    7.46
   0  10  -8  750.72   62.11
   0  10  -7  354.25   40.86
   0  10  -6 1150.02   75.57
   0  10  -5    1.79    6.42
   0  10  -4   13.84    8.82
   0  10  -3  742.49   58.42
   0  10  -2   12.79    9.45
   0 -10   1  329.52   38.76
   0  10  -1  290.62   37.13
   0  10   0   18.99    9.76
   0 -10   0   23.12   11.56
   0 -10  -1  550.23   53.75
   0  10   1  616.54   57.70
   0 -10  -2  -14.54    9.79
   0  10   2    5.07    6.70
   0  11  -7  307.58   40.00
   0  11  -6    1.66    5.22
   0  11  -5  275.86   36.89
   0  11  -4    9.33    8.19
   0  11  -3  773.33   63.60
   0  11  -2   20.78   11.75
   0  11  -1   38.65   15.69
   0  11   0  720.80   63.59
  -1  11   0   78.40   21.41
   1 -11   0   46.78   15.47
  -1  11  -1   13.15    9.65
  -1  11  -2  636.39   57.97
  -1  11  -3   22.82   11.49
  -1  11  -4   92.78   21.42
  -1  11  -5  456.95   47.69
  -1  11  -6  100.48   22.56
  -1  11  -7  668.63   60.17
   1 -10  -3   91.08   22.55
  -1  10   3  157.70   30.74
   1 -10  -2  863.32   69.09
   1 -10  -1   14.57    9.34
   1 -10   0    7.33    7.01
  -1  10   0   22.12   11.70
  -1  10  -1  990.96   70.19
   1 -10   1  950.45   68.46
  -1  10  -2  103.06   20.80
  -1  10  -3  901.89   64.82
  -1  10  -4   20.71   10.32
  -1  10  -5  254.94   33.23
  -1  10  -6   31.04   11.08
  -1  10  -7  175.32   28.49
  -1  10  -8 1102.78   77.05
   1 -10   9  294.97   39.05
   1 -10  10  787.64   69.80
  -1   9   4   11.57    8.52
   1  -9  -4    8.37    7.42
   1  -9  -3  139.46   25.72
   1  -9  -2  364.77   41.10
   1  -9  -1    0.03    5.02
  -1   9   1    6.80    7.09
  -1   9   0  374.67   39.91
   1  -9   0  320.60   36.56
  -1   9  -1  253.78   31.43
   1  -9   1  283.16   33.22
  -1   9  -2   18.07    7.95
  -1   9  -3  433.78   40.36
  -1   9  -4  432.17   40.38
   1  -9   5   13.06    6.54
  -1   9  -5    8.50    7.06
   1  -9   6  211.49   26.23
  -1   9  -6  214.05   29.01
  -1   9  -7  381.33   40.55
   1  -9   7  460.20   42.70
   1  -9   8   17.32    9.18
   1  -9   9   62.56   17.81
   1  -9  10  128.96   27.79
   1  -8  -6  945.48   74.53
   1  -8  -5  111.48   23.87
  -1   8   5  160.37   29.68
   1  -8  -4  147.93   25.79
   1  -8  -3  527.47   48.09
   1  -8  -2   31.26   11.43
  -1   8   1  894.07   62.15
   1  -8  -1  950.50   62.07
   1  -8   0   34.37   11.52
  -1   8   0   25.57   10.47
  -1   8  -1 1020.33   62.37
   1  -8   1 1070.09   64.23
  -1   8  -2   73.29   15.41
  -1   8  -3  811.15   52.68
   1  -8   3  789.63   40.74
   1  -8   4  123.59   16.61
  -1   8  -4  132.85   20.74
   1  -8   5  781.36   49.18
  -1   8  -5  743.48   51.84
   1  -8   6 2962.12  121.42
   1  -8   7  156.99   24.21
   1  -8   8  247.08   32.92
   1  -8   9  123.07   24.39
   1  -8  10   15.16   10.52
   1  -8  11  383.76   49.41
  -1   7   7  339.58   45.76
   1  -7  -7  339.75   44.06
   1  -7  -6   23.62   11.37
  -1   7   6   22.87   12.68
   1  -7  -5   46.31   15.45
   1  -7  -4   14.84    7.65
   1  -7  -3  609.15   48.79
   1  -7  -2   38.72   11.38
   1  -7  -2   20.79    5.95
  -1   7   1  201.37   26.19
   1  -7  -1  237.86   20.23
   1  -7  -1  244.87   27.80
   1  -7   0  611.37   44.21
  -1   7   0  682.89   46.66
   1  -7   1  417.02   34.72
  -1   7  -1  451.98   35.85
   1  -7   1  395.09   17.54
  -1   7  -2 2485.84  101.07
   1  -7   2 2467.62   81.14
  -1   7  -3   90.00   15.58
   1  -7   3   96.99   12.86
  -1   7  -4   40.30   10.73
   1  -7   4   31.68    8.51
   1  -7   5  576.33   41.24
   1  -7   6  245.63   28.10
   1  -7   7  501.83   43.74
   1  -7   8   27.99   12.05
   1  -7   9  969.15   70.88
   1  -7  10   39.77   14.88
   1  -7  11  159.18   31.39
   1  -6  -8  232.98   37.10
  -1   6   8  202.39   35.71
  -1   6   7   82.25   22.37
   1  -6  -7   83.24   20.89
  -1   6   6   11.29    9.73
   1  -6  -6   20.90    9.73
   1  -6  -5   49.28   15.04
   1  -6  -4   82.38   17.40
   1  -6  -3  454.25   39.56
   1  -6  -2   20.57    8.34
   1  -6  -2   18.19    5.49
  -1   6   1 1768.52   81.78
   1  -6  -1 1755.98   80.23
   1  -6  -1 1918.88   67.91
   1  -6   0   33.49    9.51
  -1   6   0   23.85    8.21
   1  -6   1   60.31    6.47
  -1   6  -1   61.81   12.12
   1  -6   1   49.85   10.86
  -1   6  -2 3098.90   96.41
   1  -6   2 3166.79   99.22
  -1   6  -2 3336.03  114.61
  -1   6  -3  224.59   22.63
   1  -6   3  236.21   20.35
   1  -6   4  477.02   33.38
   1  -6   5  454.13   35.39
   1  -6   6  270.05   28.94
   1  -6   7   58.56   14.97
  -1   6  -7   81.14   10.68
   1  -6   8  120.01   22.47
   1  -6   9  245.25   34.14
   1  -6  10   26.78   12.97
   1  -6  11  608.59   61.18
   1  -5  -9   33.78   13.30
  -1   5   9   48.81   18.49
  -1   5   8    7.59    8.34
   1  -5  -8  -12.71   10.33
   1  -5  -7 1183.08   81.26
  -1   5   7 1231.15   81.36
  -1   5   6  271.13   34.48
   1  -5  -6  293.47   36.17
   1  -5  -5 1277.52   75.90
   1  -5  -4  171.12   24.14
   1  -5  -3   91.33    7.47
   1  -5  -3  105.31   17.57
   1  -5  -2 3798.36  133.97
   1  -5  -1  578.85   28.00
  -1   5   1  584.03   38.17
   1  -5  -1  506.37   35.07
  -1   5   0 1214.87   55.80
   1  -5   0 1100.53   53.47
  -1   5  -1  157.48   10.35
   1  -5   1  154.18   10.98
  -1   5  -1  172.18   18.01
   1  -5   1  155.64   17.19
  -1   5  -2 1447.79   51.69
   1  -5   2 1353.10   52.31
  -1   5  -2 1441.58   60.35
   1  -5   3  107.26   13.09
   1  -5   4   12.42    5.36
   1  -5   5 4278.34  147.47
   1  -5   6  811.78   38.46
  -1   5  -6  788.91   36.78
   1  -5   6  834.42   53.01
   1  -5   7 1878.21   71.33
  -1   5  -7 1848.12   65.74
   1  -5   7 1979.53   94.23
   1  -5   8   62.22   16.20
   1  -5   8   50.47    9.67
   1  -5   9   91.15   20.53
   1  -5  10 1143.63   81.46
   1  -5  11    8.93    8.65
  -1   4  10   -2.57    8.43
   1  -4  -9   50.39   17.95
  -1   4   9   67.35   19.33
  -1   4   8  423.77   46.29
   1  -4  -8  483.04   51.02
  -1   4   7    4.06    4.17
   1  -4  -7    2.10    6.31
  -1   4   7    7.11    8.83
   1  -4  -6  157.30   25.25
  -1   4   6  140.54   17.83
  -1   4   6  118.73   21.50
   1  -4  -5  410.54   39.36
  -1   4   5  509.34   31.37
   1  -4  -4   61.72   13.65
   1  -4  -4   41.18    7.11
  -1   4   4   69.06    9.46
   1  -4  -3  501.64   22.67
   1  -4  -3  502.64   37.24
   1  -4  -2 1040.03   31.67
   1  -4  -2 1069.83   53.52
  -1   4   1   15.52    6.07
   1  -4  -1    7.42    4.67
   1  -4  -1    6.13    2.66
   1  -4   0   94.93   12.05
  -1   4   0   85.01   11.50
  -1   4  -1 3891.80  107.81
  -1   4  -1 3758.64  119.27
  -1   4  -1 4062.42  113.53
   1  -4   1 3962.09  121.08
   1  -4   1 3670.71  108.76
  -1   4  -2  135.04   11.99
   1  -4   2  121.12   12.16
  -1   4  -2  162.37   13.31
   1  -4   3   57.67    9.55
  -1   4  -3   70.63    8.26
   1  -4   4  916.96   47.59
  -1   4  -4  925.49   37.91
   1  -4   4  856.78   37.31
  -1   4  -5   11.70    3.74
   1  -4   5    9.29    6.00
   1  -4   5   14.48    4.75
  -1   4  -6  515.29   26.24
   1  -4   6  470.51   38.43
   1  -4   6  463.25   28.69
   1  -4   7  338.38   34.44
   1  -4   7  320.32   25.29
   1  -4   8  138.87   23.45
   1  -4   8  123.25   16.62
   1  -4   9    5.29    4.74
   1  -4   9   12.21    8.94
   1  -4  10  562.98   55.10
   1  -4  11   35.69   15.43
  -1   3  11  300.10   43.78
   1  -3 -10  260.38   40.18
  -1   3  10  275.81   39.77
   1  -3  -9 1127.92   84.12
  -1   3   9 1203.74   82.25
  -1   3   9 1368.44   76.66
  -1   3   8   24.17    9.05
  -1   3   8   29.94   11.50
  -1   3   7   71.52   17.40
  -1   3   7   98.47   16.51
  -1   3   6  901.64   49.70
  -1   3   6  859.28   56.69
   1  -3  -5  291.47   31.46
  -1   3   5  310.83   24.49
   1  -3  -4 1395.57   70.15
  -1   3   4 1409.23   55.69
   1  -3  -3   14.78    6.06
  -1   3   3    7.49    3.07
   1  -3  -3   14.41    3.60
   1  -3  -2 2461.17   70.14
  -1   3   2 2524.21   70.79
   1  -3  -2 2461.92   89.55
   1  -3  -1  959.25   32.45
   1  -3  -1  965.05   42.70
  -1   3   1 1029.58   43.97
   1  -3   0 1468.46   53.73
  -1   3   0 1477.99   46.05
  -1   3   0 1477.45   53.87
   1  -3   0 1564.07   54.31
  -1   3   0 1420.74   53.44
  -1   3  -1 3890.79  110.19
   1  -3   1 4116.70  117.02
   1  -3   1 3888.94  110.58
  -1   3  -1 3778.74  115.31
  -1   3  -1 4043.41  116.33
  -1   3  -2 1871.57   64.30
   1  -3   2 1864.86   65.14
  -1   3  -2 1928.24   60.75
   1  -3   3 5595.31  171.22
  -1   3  -3 5790.35  160.65
   1  -3   3 5850.63  160.75
   1  -3   4  239.83   17.24
   1  -3   4  218.19   21.34
  -1   3  -4  239.65   17.70
  -1   3  -4  273.90   16.80
   1  -3   5  216.50   23.38
   1  -3   5  246.20   19.45
  -1   3  -5  278.00   17.45
   1  -3   6  833.91   51.80
   1  -3   6  748.14   40.85
   1  -3   7    5.10    3.92
   1  -3   7   18.33    9.72
   1  -3   8  180.68   21.78
   1  -3   8  211.37   28.98
   1  -3   9    9.64    7.50
   1  -3   9   -5.12    5.10
   1  -3  10  963.84   73.61
   1  -3  11   48.07   17.03
  -1   2  11   -5.16    8.64
  -1   2  10  261.93   33.99
  -1   2  10  280.03   37.98
  -1   2   9   30.37   11.90
  -1   2   9    0.90    5.71
  -1   2   8  405.68   40.19
  -1   2   8  368.42   35.68
  -1   2   7    3.51    4.63
  -1   2   7    5.20    4.77
  -1   2   6 1288.19   61.15
  -1   2   6 1201.77   65.25
  -1   2   5   17.53    5.99
  -1   2   4  207.89   17.43
  -1   2   3 5196.11  147.46
   1  -2  -3 5257.52  147.03
   1  -2  -2 2480.37   69.37
   1  -2  -2 2255.78   82.12
   1  -2  -2 2258.94   80.89
  -1   2   2 2426.07   69.35
   1  -2  -1 5106.47  146.31
   1  -2  -1 4987.95  146.60
  -1   2   1 5296.66  147.49
  -1   2   1 5349.39  148.50
   1  -2   0 1159.32   40.34
   1  -2   0 1169.33   40.20
  -1   2   0 1239.66   40.88
  -1   2   0 1120.14   39.81
  -1   2   0 1162.65   34.59
  -1   2  -1  122.38    9.55
   1  -2   1  142.97    9.84
   1  -2   1  112.52    9.29
  -1   2  -1  102.30    8.77
  -1   2  -1  122.82    9.02
   1  -2   2 1019.58   41.94
  -1   2  -2 1094.63   42.48
   1  -2   2  971.92   37.03
  -1   2  -2 1133.54   38.37
   1  -2   3   43.18    8.39
   1  -2   3   48.50    7.26
  -1   2  -3   35.44    6.08
  -1   2  -3   44.49    6.03
   1  -2   4 1870.18   74.64
  -1   2  -4 1838.13   61.38
   1  -2   4 1810.52   66.56
   1  -2   5  180.86   17.82
   1  -2   5  178.85   20.92
   1  -2   6 3224.19  114.46
   1  -2   6 3253.25  124.09
   1  -2   7   67.89   13.81
   1  -2   7   69.47   15.27
   1  -2   8   53.47   14.98
   1  -2   8   47.64   12.60
   1  -2   9 1684.35   85.19
   1  -2   9 1597.52   93.89
   1  -2  10  149.24   24.29
   1  -2  10  124.16   24.97
   1  -2  11  456.83   52.02
  -1   1  12    2.28    6.28
  -1   1  11   44.61   16.34
  -1   1  11   67.13   18.80
  -1   1  10  150.36   26.28
  -1   1  10  177.77   28.07
  -1   1   9   54.29   14.25
  -1   1   9   59.07   16.15
  -1   1   8  208.53   26.98
  -1   1   8  245.23   28.43
  -1   1   7  215.03   24.69
  -1   1   7  218.09   25.45
  -1   1   6  289.48   26.26
  -1   1   6  263.43   25.70
  -1   1   5  165.56   17.56
  -1   1   4 2934.38   96.00
  -1   1   3   83.96    9.12
   1  -1  -3   83.25    8.96
  -1   1   2 1356.66   44.21
   1  -1  -2 1401.77   44.18
   1  -1  -1 3487.86   99.17
   1  -1   0   69.56    5.76
   1  -1   1 1236.15   41.27
  -1   1  -1 1296.95   43.85
  -1   1  -1 1328.82   41.86
   1  -1   1 1300.69   43.86
  -1   1  -1 1221.98   40.70
  -1   1  -2 1378.88   45.02
  -1   1  -2 1347.22   50.24
  -1   1  -2 1349.30   47.49
   1  -1   2 1341.34   50.13
   1  -1   2 1234.53   44.12
   1  -1   2 1250.25   46.16
   1  -1   3  300.08   20.66
  -1   1  -3  305.35   20.74
   1  -1   3  272.85   17.30
   1  -1   3  301.70   22.72
   1  -1   4  119.99   12.02
   1  -1   4  147.04   16.31
   1  -1   4  106.58   14.66
   1  -1   5 1215.30   60.34
   1  -1   5 1229.47   57.17
   1  -1   6  563.97   40.29
   1  -1   6  620.68   43.99
   1  -1   7  176.07   25.24
   1  -1   7  221.33   26.13
   1  -1   8  520.06   47.11
   1  -1   8  517.20   44.04
   1  -1   9  124.30   23.55
   1  -1   9  111.87   21.31
   1  -1  10   11.40    8.52
   1  -1  10    5.88    6.05
   1  -1  11  113.94   23.84
   1  -1  11   90.83   23.22
  -1   0  12   96.44   24.48
  -1   0  11   54.73   16.60
  -1   0  11   63.97   18.09
  -1   0  10 1087.44   73.12
  -1   0  10 1106.93   70.70
  -1   0   9  336.73   36.42
  -1   0   9  324.18   34.42
  -1   0   8 1020.40   61.75
  -1   0   8  952.08   57.82
  -1   0   7  630.74   41.85
  -1   0   7  642.30   44.06
  -1   0   6  846.05   45.90
  -1   0   6  899.99   49.25
  -1   0   5 5495.70  169.18
  -1   0   5 5536.32  165.18
  -1   0   4    8.50    3.96
  -1   0   3 1963.69   66.38
   1   0  -3 2051.42   67.09
   1   0  -2  116.56    9.06
  -1   0   2  128.03    9.59
  -1   0   1 1597.23   45.90
   1   0   0  967.87   31.63
  -1   0  -1  673.09   27.74
  -1   0  -1  644.15   28.15
   1   0   1  638.06   27.23
   1   0   1  607.55   26.84
   1   0   1  679.01   28.14
  -1   0  -2 8352.64  226.38
   1   0   2 8013.04  225.99
   1   0   2 8199.64  227.99
  -1   0  -2 8288.30  226.89
   1   0   3 2218.74   76.16
   1   0   3 2283.15   81.98
   1   0   3 2204.00   80.57
   1   0   4 1983.55   79.57
   1   0   4 2008.40   80.19
   1   0   5 1114.05   59.52
   1   0   5 1248.76   61.83
   1   0   6  374.88   34.26
   1   0   6  421.05   36.10
   1   0   7 1349.31   75.08
   1   0   7 1401.97   76.06
   1   0   8    2.79    5.37
   1   0   8    2.72    5.47
   1   0   9  538.62   50.43
   1   0   9  586.50   52.02
   1   0  10    1.49    6.92
   1   0  10   15.93   10.91
   1   0  11  201.96   34.06
   1   0  11  138.12   28.81
  -1  -1  12   29.93   13.42
  -1  -1  11  294.93   38.66
  -1  -1  10   16.20    7.93
  -1  -1  10   20.84   10.36
  -1  -1   9  419.82   41.23
  -1  -1   9  478.84   38.88
  -1  -1   8  441.45   39.21
  -1  -1   8  447.57   34.63
  -1  -1   7   95.58    7.01
  -1  -1   7   93.93   14.02
  -1  -1   7  103.35   16.77
  -1  -1   6   14.77    2.25
  -1  -1   6   16.70    5.40
  -1  -1   6   10.76    5.88
  -1  -1   5 1811.87   65.54
  -1  -1   5 1990.64   75.98
  -1  -1   4  657.50   35.10
  -1  -1   4  693.23   28.39
  -1  -1   3  531.83   19.26
   1   1  -3  562.21   27.38
  -1  -1   3  488.69   26.54
   1   1  -2 4818.56  135.00
  -1  -1   2 4853.51  134.96
   1   1  -2 4909.52  134.59
  -1  -1   1   10.33    2.87
   1   1  -1   12.41    2.43
  -1  -1   1    5.07    1.80
  -1  -1   0  712.86   24.92
   1   1   0  723.71   25.20
   1   1   0  660.63   28.53
   1   1   0  787.81   26.12
  -1  -1   0  687.74   28.59
  -1  -1   0  732.63   24.98
  -1  -1  -1 2099.07   67.95
   1   1   1 2195.98   73.40
  -1  -1  -1 2344.02   69.86
  -1  -1  -1 2125.82   68.77
   1   1   2  113.04   13.70
   1   1   2  112.25   12.08
  -1  -1  -2  132.97   12.79
   1   1   3  602.25   33.58
   1   1   3  585.28   36.52
   1   1   4  798.30   47.39
   1   1   4  780.72   43.40
   1   1   5  731.33   45.71
   1   1   5  834.64   51.98
   1   1   6   93.35   17.98
   1   1   6  113.77   18.30
   1   1   7  416.92   40.98
   1   1   7  376.29   36.30
   1   1   8  404.62   43.03
   1   1   8  418.63   41.07
   1   1   9   16.82    9.67
   1   1   9   21.43   10.91
   1   1  10  574.41   57.46
   1   1  10  424.75   47.73
   1   1  11  -11.85   10.78
  -1  -2  12  784.90   68.57
  -1  -2  11    6.85    7.08
  -1  -2  10   -0.92    4.24
  -1  -2  10   -3.27    6.30
  -1  -2   9  973.84   54.11
  -1  -2   9 1041.37   67.08
  -1  -2   8   64.55   11.97
  -1  -2   8   92.36   17.39
  -1  -2   7  387.69   26.27
  -1  -2   7  416.29   35.06
  -1  -2   6   19.76    5.20
  -1  -2   6   17.38    6.87
  -1  -2   5 2701.39   80.83
  -1  -2   5 2769.58   98.88
  -1  -2   4   77.65    5.35
  -1  -2   4  102.56   12.70
  -1  -2   3  238.79   17.71
   1   2  -3  259.09   17.75
  -1  -2   2 3848.95  112.77
   1   2  -2 3853.90  113.90
  -1  -2   2 3984.99  114.92
   1   2  -2 3891.83  103.52
  -1  -2   1 1721.52   54.45
  -1  -2   1 1583.32   56.34
   1   2  -1 1701.33   54.09
   1   2  -1 1683.80   53.94
   1   2  -1 1683.33   53.83
   1   2   0 5887.20  162.52
   1   2   0 6103.98  163.67
   1   2   0 5921.82  166.72
  -1  -2   0 5816.54  161.85
  -1  -2   0 5750.17  161.68
  -1  -2  -1   25.80    5.83
   1   2   1   48.59    8.85
  -1  -2  -1   36.88    5.94
  -1  -2  -1   33.84    6.28
   1   2   2  131.50   16.08
  -1  -2  -2  109.76   12.01
  -1  -2  -2  112.70   13.41
  -1  -2  -3  653.77   39.84
   1   2   3  684.79   42.62
   1   2   4  164.73   21.86
   1   2   4  154.88   17.95
   1   2   5  298.60   31.84
   1   2   5  321.71   29.00
   1   2   6   15.89    9.56
   1   2   6   35.57   10.56
   1   2   7  958.37   61.36
   1   2   7  900.77   66.18
   1   2   8    9.13    7.17
   1   2   8   19.72    9.76
   1   2   9   68.43   18.00
  -1  -2  -9  111.69   24.94
   1   2   9   61.07   19.11
  -1  -2 -10  376.21   48.12
   1   2  10  265.67   40.66
  -1  -3  12   10.27    8.86
  -1  -3  11  305.07   39.79
  -1  -3  10    4.48    6.04
  -1  -3   9 1462.24   80.25
  -1  -3   9 1131.53   53.85
  -1  -3   8   27.66    6.29
  -1  -3   8   23.32    9.45
  -1  -3   7  195.43   23.86
  -1  -3   7  172.38   13.73
  -1  -3   6 4956.37  158.89
  -1  -3   6 4587.02  128.06
  -1  -3   5  940.95   28.60
  -1  -3   5  943.95   48.83
  -1  -3   4 2207.37   80.74
  -1  -3   3  159.35   14.60
  -1  -3   2   41.62    7.32
  -1  -3   2   33.80    6.12
  -1  -3   1 2004.58   67.61
  -1  -3   1 1893.99   68.58
   1   3  -1 2041.53   67.45
   1   3   0  112.80   11.97
  -1  -3   0   97.37   11.06
   1   3   1 2529.85   89.61
   1   3   1 2597.87   93.64
  -1  -3  -1 2510.71   87.56
  -1  -3  -1 2655.26   81.80
   1   3   2  968.01   51.09
  -1  -3  -2  880.45   40.31
  -1  -3  -2  879.64   45.66
   1   3   3 4053.45  140.66
  -1  -3  -3 3649.07  131.65
  -1  -3  -4   56.48   12.72
   1   3   4   56.29   14.10
  -1  -3  -5  113.01   19.55
   1   3   5  129.95   22.25
   1   3   6 1654.79   93.12
  -1  -3  -6 1738.79   91.43
   1   3   7  125.53   25.23
  -1  -3  -7  164.69   27.14
   1   3   8  569.21   57.64
  -1  -3  -8  594.60   55.93
   1   3   9    9.41   10.48
  -1  -3  -9   27.79   12.74
  -1  -4  12   23.58   12.71
  -1  -4  11    9.85    8.30
  -1  -4  10  216.39   31.90
  -1  -4   9  497.92   45.66
  -1  -4   8   65.84   15.44
  -1  -4   8   57.66    7.11
  -1  -4   7  679.69   25.28
  -1  -4   7  718.64   48.74
  -1  -4   6  474.56   36.18
  -1  -4   5   20.44    7.28
   1   4  -4 1302.98   39.26
  -1  -4   4 1345.45   57.59
  -1  -4   3  181.86   16.42
  -1  -4   2    6.03    3.49
  -1  -4   2    7.47    3.52
   1   4  -2   10.24    4.05
  -1  -4   1 1285.79   53.37
   1   4  -1 1357.46   54.26
  -1  -4   1 1184.46   52.59
   1   4   0  961.92   45.28
  -1  -4   0  842.96   42.38
   1   4   1   73.17   13.20
   1   4   1   84.68   13.30
  -1  -4  -1  106.76   10.78
  -1  -4  -1   75.38   12.02
   1   4   2  671.37   44.73
  -1  -4  -2  653.42   40.64
   1   4   3  934.21   57.71
  -1  -4  -3  819.43   50.42
  -1  -4  -4    1.75    4.10
   1   4   4    6.61    6.61
   1   4   5  341.64   38.64
  -1  -4  -5  300.22   33.33
   1   4   6  201.30   31.35
  -1  -4  -6  132.01   23.72
   1   4   7   21.83   11.23
  -1  -4  -7   16.58    9.77
  -1  -4  -8  143.00   27.46
   1   4   8  130.32   28.76
  -1  -4  -9  148.07   30.13
  -1  -5  12  138.94   29.04
  -1  -5  11  182.22   31.80
  -1  -5  10 1061.61   74.48
  -1  -5   9  452.85   43.88
  -1  -5   8 1510.02   81.60
  -1  -5   7   14.50    8.11
  -1  -5   6  944.06   54.76
  -1  -5   5  119.57   16.52
   1   5  -5  111.15    7.13
  -1  -5   4  273.42   23.38
   1   5  -3  926.83   46.82
  -1  -5   3  902.46   43.11
  -1  -5   2  464.38   31.54
   1   5  -2  487.32   31.80
  -1  -5   2  489.74   27.05
  -1  -5   1 6705.39  201.10
   1   5  -1 6723.70  200.60
  -1  -5   1 6854.79  186.83
  -1  -5   1 6336.14  198.10
   1   5   0  588.42   37.39
  -1  -5   0  547.51   35.18
  -1  -5   0  497.55   34.04
  -1  -5  -1  208.35   22.14
   1   5   1  272.58   26.16
  -1  -5  -1  222.80   16.39
   1   5   1  235.32   25.60
   1   5   2 1554.44   78.87
  -1  -5  -2 1537.28   72.49
  -1  -5  -3   93.43   16.55
   1   5   3  123.34   21.48
  -1  -5  -4  699.27   51.69
   1   5   4  835.19   60.93
  -1  -5  -5   12.94    7.95
   1   5   5    6.57    7.42
  -1  -5  -6  241.27   33.16
   1   5   6  254.07   37.34
  -1  -5  -7    3.36    5.51
   1   5   7   34.84   14.81
  -1  -5  -8  155.92   29.00
  -1  -6  12  102.99   25.19
  -1  -6  11   95.82   23.51
  -1  -6  10  385.05   43.70
  -1  -6   9    3.37    6.55
  -1  -6   8  193.04   27.20
  -1  -6   7  874.61   56.60
  -1  -6   6   59.28   13.04
  -1  -6   5 2886.87  108.82
  -1  -6   4   15.07    5.62
   1   6  -4   23.46    7.74
  -1  -6   3   12.59    4.69
   1   6  -3    3.84    4.16
  -1  -6   2 1720.99   63.94
   1   6  -2 1751.58   75.24
  -1  -6   2 1636.62   73.34
  -1  -6   1    7.76    4.41
  -1  -6   1    8.75    3.54
  -1  -6   1   14.51    5.98
   1   6  -1    4.66    3.29
   1   6   0  132.91   18.94
  -1  -6   0  155.47   13.29
  -1  -6   0  150.28   19.60
  -1  -6   0  138.94   18.19
  -1  -6  -1    9.37    5.46
   1   6   1   -2.39    4.54
   1   6   1    3.00    6.05
   1   6   2  666.48   51.10
  -1  -6  -2  619.89   45.45
   1   6   3    7.79    9.80
  -1  -6  -3    9.15    6.35
  -1  -6  -4   78.02   17.35
   1   6   4  108.53   22.63
   1   6   5  527.84   53.76
  -1  -6  -5  452.57   45.01
  -1  -6  -6  128.29   24.67
   1   6   6   95.32   23.89
  -1  -6  -7  650.51   59.65
  -1  -7  12  298.56   43.74
  -1  -7  11   30.18   13.97
  -1  -7  10  198.09   31.93
  -1  -7   9    0.11    6.21
  -1  -7   8  468.96   43.83
  -1  -7   7    2.48    4.82
  -1  -7   6    4.43    6.19
   1   7  -5 1175.78   64.30
  -1  -7   5 1269.19   63.43
   1   7  -4  637.92   43.40
  -1  -7   4  568.23   37.29
   1   7  -3  736.00   47.16
  -1  -7   3  705.70   39.05
  -1  -7   2  566.87   40.15
  -1  -7   2  530.42   30.44
   1   7  -2  536.06   40.23
   1   7  -1    7.93    5.99
  -1  -7   1    7.70    5.74
  -1  -7   1   -0.56    3.67
  -1  -7   1    2.18    2.18
   1   7   0  187.34   24.91
   1   7   0  224.23   26.74
  -1  -7   0  179.31   22.18
  -1  -7   0  176.96   23.42
  -1  -7  -1  170.20   22.37
  -1  -7  -1  201.19   25.79
   1   7   1  203.52   27.61
  -1  -7  -2  279.45   31.62
  -1  -7  -2  268.56   29.26
   1   7   2  297.08   35.49
   1   7   3   18.59   10.08
  -1  -7  -3  -12.16    7.75
   1   7   4  587.72   56.43
  -1  -7  -4  396.03   41.97
  -1  -7  -5    4.90    6.35
   1   7   5   -0.62    6.18
  -1  -7  -6    9.89    6.09
  -1  -8  11  169.44   32.12
  -1  -8  10  137.85   27.51
  -1  -8   9 1319.16   83.45
  -1  -8   8  389.74   40.53
  -1  -8   7  677.81   51.34
  -1  -8   6  456.53   38.62
   1   8  -6  458.94   40.53
  -1  -8   5    8.08    4.69
   1   8  -5    2.97    4.91
  -1  -8   4  379.61   29.94
   1   8  -4  357.42   34.35
   1   8  -3   24.71    9.70
   1   8  -2 2290.26  102.55
   1   8  -1  266.53   30.44
  -1  -8   1  295.49   30.48
   1   8  -1  292.94   32.64
  -1  -8   1  318.45   33.46
  -1  -8   0  837.75   57.69
  -1  -8   0  763.98   51.50
   1   8   0  911.07   61.64
   1   8   0  835.95   59.28
  -1  -8  -1  196.85   27.44
   1   8   1  221.30   30.84
  -1  -8  -1  163.24   22.87
  -1  -8  -2   39.25   12.64
   1   8   2   58.34   16.91
  -1  -8  -3 1251.87   78.71
   1   8   3 1193.92   84.73
  -1  -8  -4   31.91   12.85
   1   8   4   50.63   17.59
  -1  -8  -5   56.08   17.49
  -1  -9  11   35.77   15.70
  -1  -9  10  234.83   36.13
  -1  -9   9  179.07   29.29
  -1  -9   8   18.71    9.65
   1   9  -7  283.49   34.60
  -1  -9   7  284.13   32.80
   1   9  -6  526.51   46.39
   1   9  -5    8.43    6.75
   1   9  -4  173.05   25.19
   1   9  -3  593.05   48.39
   1   9  -3  556.44   42.67
   1   9  -2    4.44    5.95
   1   9  -2    8.77    6.29
   1   9  -1  226.73   30.83
  -1  -9   1  228.75   30.87
   1   9  -1  216.64   29.20
   1   9   0  172.77   27.65
  -1  -9   0  166.19   26.71
   1   9   0  160.15   26.72
  -1  -9  -1   33.25   13.01
   1   9   1   10.32    8.17
  -1  -9  -2   77.03   19.01
   1   9   2  171.68   30.47
  -1  -9  -3  109.98   23.92
  -1 -10  10    7.83    9.72
   1  10  -9   92.07   21.89
   1  10  -8   88.87   21.80
   1  10  -7  132.50   24.60
   1  10  -6  578.32   51.79
   1  10  -5  430.05   43.82
   1  10  -4 1348.52   82.11
   1  10  -3  -20.03    9.97
   1  10  -2   19.00   10.00
   1  10  -1  363.89   42.44
   1  10  -1  335.26   39.56
   1  10   0   72.66   19.47
  -1 -10   0   73.05   19.02
  -1 -10  -1  227.56   34.38
   1  10   1  335.98   43.43
   1  11  -6    5.85    7.58
   1  11  -5  389.90   44.18
   1  11  -4   -0.94    5.86
   1  11  -3  296.31   39.12
   1  11  -2    1.64    5.93
   2 -11  -1   94.62   22.29
   2 -11   0  280.41   38.81
  -2  11   0  378.81   45.02
  -2  11  -1   17.19   11.43
  -2  11  -2  163.10   28.22
  -2  11  -3   30.82   12.59
  -2  11  -4  550.11   52.16
  -2  11  -5   68.33   18.19
  -2  11  -6  117.70   24.10
  -2  11  -7  366.84   43.95
   2 -10  -3   -8.08    8.07
   2 -10  -2  291.80   38.55
  -2  10   1    9.44    8.51
   2 -10  -1   21.93   11.32
  -2  10   0  807.78   63.97
   2 -10   0  894.20   66.41
   2 -10   1   33.52   13.15
  -2  10  -1    8.36    6.47
  -2  10  -2   46.30   14.86
  -2  10  -3 1712.32   93.08
  -2  10  -4  374.62   40.06
  -2  10  -5  968.89   67.36
  -2  10  -6   30.92   12.03
  -2  10  -7  175.17   28.65
   2 -10   8  120.91   25.06
  -2  10  -8  180.57   29.42
   2 -10   9    3.02    7.94
   2 -10  10  333.52   44.41
   2  -9  -5   13.48    9.85
   2  -9  -4  157.25   28.14
   2  -9  -3   26.84   11.71
   2  -9  -2   33.05   12.48
   2  -9  -1  526.31   47.79
  -2   9   1  559.01   50.19
   2  -9   0  125.88   22.10
  -2   9   0   73.95   17.27
   2  -9   1    0.77    4.07
  -2   9  -1    3.62    6.06
  -2   9  -2  949.35   61.94
  -2   9  -3  342.58   35.64
  -2   9  -4   19.23    9.30
   2  -9   5  329.69   31.84
  -2   9  -5  360.24   37.02
   2  -9   6  168.16   24.30
  -2   9  -6  134.95   23.12
   2  -9   7   10.26    7.84
   2  -9   8  280.95   36.90
   2  -9   9   37.28   16.41
   2  -9  10    5.23    8.63
   2  -8  -6  106.58   24.08
   2  -8  -5   40.62   14.41
   2  -8  -4 1043.78   72.23
   2  -8  -3  300.40   35.50
   2  -8  -2  787.50   57.03
   2  -8  -1  502.47   42.85
  -2   8   1  426.12   40.90
   2  -8   0  539.61   44.41
  -2   8   0  601.31   46.62
  -2   8  -1 1341.16   72.24
   2  -8   1 1363.81   73.15
  -2   8  -2   16.89    7.52
   2  -8   2   22.84    5.32
   2  -8   3  572.12   34.65
  -2   8  -3  538.36   42.04
  -2   8  -4   14.12    7.38
   2  -8   4    5.07    3.99
   2  -8   5  402.36   35.29
  -2   8  -5  433.18   38.15
   2  -8   6  218.24   27.63
   2  -8   7   31.13   11.84
   2  -8   8 1587.88   93.41
   2  -8   9  316.28   40.84
   2  -8  10  278.21   40.92
  -2   7   7   23.14   12.23
   2  -7  -7    6.87    8.30
   2  -7  -6   51.09   16.22
   2  -7  -5  435.31   45.05
   2  -7  -4  116.42   21.80
   2  -7  -3  470.61   41.98
   2  -7  -2  167.12   23.57
  -2   7   2  212.93   27.51
   2  -7  -1  463.14   38.52
  -2   7   1  470.62   39.60
   2  -7   0   56.97   12.99
  -2   7   0   66.82   13.81
   2  -7   1  843.28   51.01
  -2   7  -1  823.59   50.36
  -2   7  -2  964.93   53.45
   2  -7   2  859.97   40.16
   2  -7   3  276.30   23.57
  -2   7  -3  304.36   28.37
   2  -7   4 2383.82   95.93
  -2   7  -4 2527.43  101.45
   2  -7   5   74.27   14.93
   2  -7   6  290.97   31.93
   2  -7   7  689.73   53.85
   2  -7   8   -0.99    4.56
   2  -7   9  256.03   36.53
   2  -7  10   26.21   13.09
   2  -6  -8  303.11   41.82
  -2   6   8  292.10   40.71
   2  -6  -7  161.09   28.71
   2  -6  -6  763.75   61.87
   2  -6  -5   15.50    8.36
   2  -6  -4   -0.12    4.60
   2  -6  -3  965.70   38.19
   2  -6  -3  886.61   57.14
  -2   6   2  166.01   22.21
   2  -6  -2  153.71   20.87
   2  -6  -1  213.96   23.43
  -2   6   1  225.72   24.46
  -2   6   0   16.18    7.19
   2  -6   0   11.44    5.27
  -2   6  -1 2075.01   81.73
   2  -6   1 1897.86   62.87
  -2   6  -1 1939.19   61.33
   2  -6   1 1987.33   81.44
   2  -6   2   34.70    7.16
  -2   6  -2   26.43    7.80
   2  -6   3  244.38   21.94
  -2   6  -3  248.68   23.73
   2  -6   4 1058.02   55.56
   2  -6   5  203.88   24.24
  -2   6  -6 1395.43   59.65
   2  -6   6 1279.57   72.66
   2  -6   7  293.92   34.58
  -2   6  -7  365.62   26.64
   2  -6   7  344.03   27.54
   2  -6   8   23.41   12.36
   2  -6   9  153.84   27.99
   2  -6  10  201.42   34.16
  -2   5   9   87.68   23.02
   2  -5  -9   41.23   15.36
   2  -5  -8   -7.65    8.46
  -2   5   8   -6.24    8.00
   2  -5  -7  550.65   53.02
   2  -5  -6   11.11    8.22
   2  -5  -5  573.23   48.89
  -2   5   5  685.44   33.40
  -2   5   4  364.20   19.20
   2  -5  -4  356.35   34.74
   2  -5  -3 2866.70  113.49
   2  -5  -2   47.19   10.89
  -2   5   2   71.65   13.24
   2  -5  -2   73.40    6.91
  -2   5   1  425.73   31.28
   2  -5  -1  377.30   29.17
  -2   5   0 5927.94  158.99
  -2   5   0 6003.36  177.53
   2  -5   0 5857.18  176.66
  -2   5   0 5583.52  150.93
  -2   5  -1  843.22   33.70
   2  -5   1  832.74   42.85
   2  -5   1  769.71   33.31
  -2   5  -1  851.32   42.64
  -2   5  -2 3274.22  109.28
   2  -5   2 3199.35  104.41
   2  -5   3  122.67   15.40
   2  -5   4   64.41   10.16
   2  -5   4   56.40   11.79
   2  -5   5  423.41   35.68
   2  -5   5  463.70   29.85
  -2   5  -5  465.06   28.87
   2  -5   6   38.73    9.00
  -2   5  -6   26.94    6.94
   2  -5   6   34.07   10.77
   2  -5   7 1407.25   80.95
   2  -5   7 1435.11   66.72
  -2   5  -7 1601.48   62.51
   2  -5   8  728.68   58.80
   2  -5   8  664.49   43.64
   2  -5   9 1285.72   85.51
   2  -5  10   31.74   14.25
   2  -4 -10  123.98   27.67
  -2   4  10   83.24   23.39
   2  -4  -9   62.25   19.43
  -2   4   9   54.13   16.31
   2  -4  -8   -8.32    8.76
  -2   4   8   -3.50    6.13
   2  -4  -7  677.51   58.00
  -2   4   7  727.08   44.98
  -2   4   6  309.58   25.28
   2  -4  -6  296.54   35.09
   2  -4  -5   37.62   11.46
  -2   4   5   45.30    8.41
   2  -4  -4 1341.95   47.70
  -2   4   4 1327.76   48.67
  -2   4   3  635.98   25.12
   2  -4  -3  639.65   42.07
   2  -4  -2   34.54    8.44
   2  -4  -2   19.01    2.67
  -2   4   1  913.72   44.26
   2  -4  -1  839.33   42.31
  -2   4   0  622.77   33.87
  -2   4   0  637.30   25.24
   2  -4   0  663.51   34.65
   2  -4   1   74.99   10.33
   2  -4   1   66.96    8.19
  -2   4  -1   66.00    9.66
  -2   4  -1   76.59    8.80
   2  -4   2  903.64   41.99
   2  -4   3 1593.76   66.72
   2  -4   3 1631.98   61.33
   2  -4   4  168.29   20.05
   2  -4   4  160.27   15.95
  -2   4  -4  160.21   15.19
   2  -4   5 1056.78   49.96
  -2   4  -5 1111.15   48.20
   2  -4   5 1006.94   58.37
   2  -4   6  755.14   43.14
  -2   4  -6  760.80   38.74
   2  -4   6  705.28   51.30
   2  -4   7  106.10   20.82
   2  -4   7   97.17   15.57
   2  -4   8  378.26   40.65
   2  -4   8  320.27   31.14
   2  -4   9   69.20   18.19
   2  -4   9   30.38   10.77
   2  -4  10   69.90   19.34
  -2   3  11   29.29   14.19
  -2   3  10   44.50   16.35
  -2   3   9  276.18   31.36
  -2   3   9  222.00   31.59
  -2   3   8   53.21   14.40
  -2   3   8   59.59   13.60
  -2   3   7 2395.47   96.05
  -2   3   6  483.37   32.75
  -2   3   5  262.89   20.95
   2  -3  -4 2585.54   81.20
  -2   3   4 2590.01   81.92
  -2   3   3  867.85   33.35
   2  -3  -3  941.90   49.19
  -2   3   2 2005.67   57.90
   2  -3  -2 1945.84   74.58
  -2   3   1   74.48   10.01
   2  -3  -1   84.61   10.37
   2  -3   0 1107.62   43.22
   2  -3   0 1161.68   43.49
  -2   3   0 1101.63   39.30
  -2   3   0 1093.93   43.42
  -2   3   0 1171.01   43.91
  -2   3  -1   12.33    3.98
   2  -3   1    7.49    3.41
  -2   3  -1    7.82    3.11
  -2   3  -1    7.34    3.06
  -2   3  -1   12.47    3.61
   2  -3   2  482.29   28.65
   2  -3   2  473.08   25.99
   2  -3   3  340.48   26.60
  -2   3  -3  396.70   23.61
   2  -3   3  385.17   24.32
   2  -3   4  864.96   43.51
  -2   3  -4  919.38   41.53
   2  -3   4 1011.46   52.38
   2  -3   5 4949.46  162.70
  -2   3  -5 5055.21  143.65
   2  -3   6  255.23   24.77
   2  -3   6  207.81   26.75
   2  -3   7  113.88   20.85
   2  -3   7   87.50   15.85
   2  -3   8  540.72   43.09
   2  -3   8  615.26   52.93
   2  -3   9   -2.19    5.81
   2  -3   9    6.13    5.74
   2  -3  10  464.16   51.25
   2  -3  10  468.57   44.98
  -2   2  11  488.88   48.78
  -2   2  11  511.12   52.22
  -2   2  10  -13.34    9.49
  -2   2  10   24.47   10.95
  -2   2   9   -0.05    4.05
  -2   2   9   10.26    7.36
  -2   2   8 1361.14   75.26
  -2   2   8 1411.44   72.65
  -2   2   7   97.65   15.78
  -2   2   6  516.55   34.11
  -2   2   5    4.30    3.58
   2  -2  -4 2176.04   73.39
  -2   2   4 2186.83   74.21
   2  -2  -3   23.97    4.53
  -2   2   3   19.35    4.26
   2  -2  -2  195.32   16.44
  -2   2   2  237.46   12.79
   2  -2  -2  200.80   17.24
  -2   2   1 2053.25   64.60
   2  -2  -1 1867.65   62.17
  -2   2   1 1919.65   63.27
   2  -2  -1 1902.89   62.54
   2  -2   0 2720.73   78.65
   2  -2   0 2723.50   78.60
   2  -2   0 2450.15   81.77
  -2   2   0 2518.68   82.01
  -2   2   0 2810.14   81.83
  -2   2   0 2753.10   78.98
  -2   2   0 2837.94   79.13
  -2   2  -1 8921.06  235.33
  -2   2  -1 8788.87  243.47
   2  -2   1 8831.19  242.68
  -2   2  -1 9163.30  240.76
   2  -2   1 8723.12  240.28
  -2   2  -1 8947.00  240.70
  -2   2  -2    7.42    3.39
   2  -2   2   10.17    4.99
   2  -2   2   11.63    4.12
  -2   2  -3    2.54    2.21
   2  -2   3    2.35    3.28
   2  -2   3    0.02    3.14
   2  -2   3    7.43    3.59
   2  -2   4 2376.45   93.37
   2  -2   4 2324.52   86.21
  -2   2  -4 2267.18   80.99
   2  -2   5  176.83   22.46
   2  -2   5  144.71   18.40
   2  -2   6 1118.10   65.60
   2  -2   6 1097.71   59.57
   2  -2   7   21.82    9.65
   2  -2   7    6.82    7.15
   2  -2   8 1085.32   72.82
   2  -2   8 1160.22   68.89
   2  -2   9    3.47    5.80
   2  -2   9    2.11    5.27
   2  -2  10   59.35   18.15
   2  -2  10   85.55   20.17
  -2   1  12   10.65    8.95
  -2   1  11  312.57   38.41
  -2   1  11  265.94   35.49
  -2   1  10  176.09   26.65
  -2   1  10  126.62   22.75
  -2   1   9  499.56   43.46
  -2   1   9  528.03   44.15
  -2   1   8  299.08   30.39
  -2   1   8  352.13   32.65
  -2   1   7   40.82   10.51
  -2   1   6  325.88   26.67
  -2   1   5  525.13   31.76
  -2   1   4  466.51   26.39
  -2   1   3  382.35   20.96
   2  -1  -3  396.68   21.28
   2  -1  -2 4408.43  116.78
  -2   1   2 4307.64  116.35
   2  -1  -1  219.16   12.03
   2  -1  -1  225.51   13.50
  -2   1   1  249.37   14.07
   2  -1  -1  202.89   11.64
  -2   1   0 1156.35   40.09
  -2   1   0 1066.96   31.84
  -2   1   0 1094.74   31.98
  -2   1   0 1128.31   41.25
   2  -1   0 1041.26   39.18
   2  -1   0 1022.68   39.68
  -2   1  -1 5021.86  141.54
  -2   1  -1 5163.63  141.40
   2  -1   1 4706.22  138.41
   2  -1   1 4571.28  138.48
  -2   1  -1 4672.87  138.52
   2  -1   2   90.28   10.89
   2  -1   2   79.90   10.71
  -2   1  -2   98.37   11.25
   2  -1   2   79.89   11.55
   2  -1   3  395.38   27.88
   2  -1   3  426.65   29.72
   2  -1   4 1261.11   62.89
   2  -1   4 1417.03   63.78
   2  -1   5   23.67    7.84
   2  -1   5   24.87    8.89
   2  -1   6   56.53   13.84
   2  -1   6   59.60   14.06
   2  -1   7  336.57   35.51
   2  -1   7  331.57   35.73
   2  -1   8   78.97   18.37
   2  -1   8   54.94   15.09
   2  -1   9   20.18   10.83
   2  -1   9   24.66   11.68
   2  -1  10  315.03   41.88
   2  -1  10  264.73   37.00
   2  -1  11  -11.18   10.28
  -2   0  12  124.52   26.27
  -2   0  11   42.08   15.01
  -2   0  11   32.45   12.46
  -2   0  10  446.69   43.61
  -2   0  10  389.01   38.10
  -2   0   9   12.80    6.98
  -2   0   9   -0.02    5.13
  -2   0   8 1960.40   84.95
  -2   0   8 2044.64   92.20
  -2   0   7  509.07   34.03
  -2   0   7  492.62   37.19
  -2   0   6 2173.65   85.74
  -2   0   5 1069.49   49.61
  -2   0   4  646.59   33.25
   2   0  -3 9628.57  259.60
  -2   0   3 9999.00  264.25
  -2   0   3 9783.77  255.09
  -2   0   2 2967.02   83.56
  -2   0   2 2736.17   82.84
   2   0  -2 2790.38   82.28
  -2   0   2 2889.51   80.81
  -2   0   1 2341.11   67.80
  -2   0   1 2119.86   69.47
   2   0  -1 2215.31   70.01
   2   0  -1 2226.50   66.74
   2   0   0  956.63   40.09
  -2   0   0 1091.76   40.45
   2   0   0 1015.31   38.93
  -2   0   0  975.65   40.85
  -2   0  -1  178.53   15.78
   2   0   1  147.08   14.39
  -2   0  -1  185.74   15.53
   2   0   1  148.50   14.17
   2   0   2   44.68    9.12
   2   0   3  278.62   24.07
   2   0   3  234.77   22.72
   2   0   4 3916.26  138.45
   2   0   4 3881.86  135.39
   2   0   5  883.42   54.93
   2   0   5  885.80   53.64
   2   0   6 1240.44   69.68
   2   0   6 1201.75   70.21
   2   0   7   84.85   17.97
   2   0   7  102.89   20.76
   2   0   8   97.22   21.79
   2   0   8  134.06   24.15
   2   0   9 1031.49   76.49
   2   0   9 1208.10   81.34
   2   0  10   29.07   13.31
   2   0  10   49.84   16.44
  -2  -1  12  293.67   40.05
  -2  -1  11  -12.90    9.13
  -2  -1  10  301.33   30.55
  -2  -1  10  319.81   36.79
  -2  -1   9  718.52   45.87
  -2  -1   9  745.34   54.30
  -2  -1   8   87.71   16.53
  -2  -1   8   67.38   12.27
  -2  -1   7  766.38   39.40
  -2  -1   7  785.32   48.59
  -2  -1   6  191.29   15.78
  -2  -1   6  187.06   20.60
  -2  -1   5   67.93   11.59
  -2  -1   4  635.70   33.47
  -2  -1   3  445.94   16.58
   2   1  -3  471.65   20.13
   2   1  -3  475.64   24.58
  -2  -1   3  430.38   24.89
  -2  -1   2   38.68    6.48
  -2  -1   2   42.86    4.99
   2   1  -2   34.31    5.63
   2   1  -2   30.32    3.96
  -2  -1   1   12.09    3.82
   2   1  -1    4.67    2.67
   2   1  -1   11.88    2.37
   2   1   0 6191.22  167.63
  -2  -1   0 6431.33  166.65
  -2  -1   0 6324.82  166.35
   2   1   0 6218.93  178.84
  -2  -1   0 6395.95  179.87
   2   1   0 6194.99  168.46
  -2  -1  -1  203.25   13.81
   2   1   1  216.33   19.10
  -2  -1  -1  203.67   14.09
   2   1   2  479.71   32.84
   2   1   3 1870.77   81.04
   2   1   4  137.85   20.36
   2   1   5 1039.30   59.90
   2   1   5 1050.43   64.74
   2   1   6   64.25   14.65
   2   1   6   63.90   16.39
   2   1   7  153.03   26.59
   2   1   7  151.96   24.24
   2   1   8   45.13   14.21
   2   1   8   32.45   12.78
   2   1   9  326.00   42.75
   2   1  10   96.25   24.88
  -2  -2  12  139.60   28.49
  -2  -2  11  349.23   41.46
  -2  -2  10 1347.64   81.14
  -2  -2   9   10.30    5.60
  -2  -2   9    0.61    3.74
  -2  -2   8   16.44    5.30
  -2  -2   8    8.14    6.77
  -2  -2   7 1586.98   57.77
  -2  -2   7 1725.52   78.57
  -2  -2   6  487.09   21.94
  -2  -2   6  517.99   35.96
   2   2  -5 1930.28   54.58
  -2  -2   5 2190.08   80.25
  -2  -2   4  150.72   15.68
   2   2  -4  157.76   11.01
   2   2  -3  447.52   15.96
  -2  -2   3  426.52   25.93
  -2  -2   3  417.94   25.51
   2   2  -2  168.63   12.39
   2   2  -2  156.55   11.29
  -2  -2   2  156.17   14.65
  -2  -2   2  159.31   11.46
  -2  -2   1  927.47   36.53
  -2  -2   1 1036.23   41.90
   2   2  -1 1063.91   37.52
   2   2  -1 1028.34   37.08
   2   2  -1 1015.14   41.85
   2   2   0 2606.97   91.79
  -2  -2   0 2618.98   81.55
   2   2   0 2730.43   83.57
   2   2   0 2902.00   84.97
  -2  -2   0 2587.19   81.48
  -2  -2  -1 1362.49   51.99
   2   2   1 1470.96   63.19
  -2  -2  -1 1337.22   51.18
   2   2   2 4283.18  139.03
  -2  -2  -2 3696.23  123.84
   2   2   3   24.69    9.11
  -2  -2  -3   14.71    6.05
  -2  -2  -4  128.09   18.54
   2   2   4  177.39   24.29
   2   2   5  979.57   64.89
  -2  -2  -5  897.67   57.55
  -2  -2  -6    6.91    6.74
   2   2   6   11.18    8.11
  -2  -2  -7  198.24   29.06
   2   2   7  139.92   27.23
  -2  -2  -8   75.01   19.30
   2   2   8   43.15   16.98
  -2  -2  -9  228.23   35.39
   2   2   9  308.96   43.29
  -2  -3  12   24.46   13.63
  -2  -3  11  661.19   58.23
  -2  -3  10   18.17    9.16
  -2  -3   9  661.43   51.54
  -2  -3   8    5.40    6.73
  -2  -3   8    4.40    2.07
  -2  -3   7  954.00   29.75
  -2  -3   7 1025.43   58.13
   2   3  -6   25.98    3.12
  -2  -3   6   16.96    6.89
  -2  -3   5  102.97   14.81
  -2  -3   4 5345.89  162.96
  -2  -3   3 2192.83   78.92
   2   3  -3 2050.91   63.66
  -2  -3   3 2187.11   76.18
  -2  -3   2 4413.49  136.37
   2   3  -2 4454.17  128.20
   2   3  -2 4176.30  127.02
  -2  -3   1  676.90   32.54
   2   3  -1  664.45   35.44
   2   3  -1  759.60   33.84
   2   3   0   19.13    6.64
  -2  -3   0   23.02    5.43
   2   3   0   28.64    6.53
   2   3   1 1620.16   71.19
  -2  -3  -1 1472.17   59.89
  -2  -3  -2   21.09    6.56
   2   3   2   33.35    9.80
   2   3   3  988.57   61.20
  -2  -3  -3  953.52   52.45
   2   3   4   26.98   10.95
  -2  -3  -4   14.98    6.55
   2   3   5 1186.93   76.39
  -2  -3  -5 1216.93   69.43
  -2  -3  -6    9.03    7.33
   2   3   6   18.64   10.94
  -2  -3  -7    7.54    6.27
   2   3   7    3.66    7.38
   2   3   8 1235.11   89.53
  -2  -3  -8 1121.83   79.09
  -2  -4  12   40.20   16.10
  -2  -4  11  377.83   43.73
  -2  -4  10   40.97   14.17
  -2  -4   9  163.06   25.22
  -2  -4   8  345.64   34.80
  -2  -4   7   49.13   12.45
   2   4  -7   57.34    5.28
  -2  -4   6  196.69   22.56
  -2  -4   5 1989.89   81.70
   2   4  -4   56.39    5.61
  -2  -4   4   38.68    8.72
  -2  -4   3    6.73    3.70
  -2  -4   3    6.54    5.06
   2   4  -3   16.98    4.25
   2   4  -2 1815.92   69.23
  -2  -4   2 1902.56   76.19
   2   4  -2 1979.51   71.02
   2   4  -1  228.76   21.34
  -2  -4   1  281.55   21.64
   2   4  -1  247.21   20.24
  -2  -4   0   23.65    6.42
   2   4   0   24.95    8.03
   2   4   0   28.76    7.72
   2   4   1  938.37   54.14
  -2  -4  -1  808.55   43.92
   2   4   2   93.01   17.07
  -2  -4  -2   75.77   13.07
  -2  -4  -3   39.07   10.53
   2   4   3   51.26   14.23
   2   4   4  877.61   63.08
  -2  -4  -4  754.47   51.47
  -2  -4  -5   35.24   11.50
   2   4   5   52.49   16.46
  -2  -4  -6   -1.86    5.58
   2   4   6    2.65    7.35
   2   4   7  400.23   49.12
  -2  -4  -7  352.98   41.15
  -2  -5  12   55.54   18.30
  -2  -5  11  930.32   71.68
  -2  -5  10   89.14   20.34
  -2  -5   9  503.59   46.24
  -2  -5   8  488.18   42.90
  -2  -5   7 1168.15   65.92
  -2  -5   6 3380.42  126.38
   2   5  -5   65.15    5.08
   2   5  -5   85.34    5.39
  -2  -5   5   94.81   14.97
   2   5  -4  326.76   19.56
  -2  -5   4  337.28   26.85
   2   5  -3  290.89   24.05
  -2  -5   3  293.69   23.48
   2   5  -3  281.65   21.19
  -2  -5   3  324.17   27.89
   2   5  -2  271.76   23.57
  -2  -5   2  290.29   26.26
   2   5  -2  274.36   23.15
  -2  -5   2  264.89   21.42
  -2  -5   1  730.88   41.77
  -2  -5   1  796.96   46.75
   2   5  -1  758.55   44.73
   2   5  -1  742.36   42.54
  -2  -5   0   90.88   13.95
   2   5   0   86.36   14.19
   2   5   0  101.17   16.65
  -2  -5  -1 2062.09   84.97
   2   5   1 2046.13   94.32
   2   5   2  573.37   46.66
  -2  -5  -2  439.19   35.32
   2   5   3  550.75   48.77
  -2  -5  -3  444.54   37.63
   2   5   4  451.73   46.99
  -2  -5  -4  409.24   38.43
   2   5   5  304.04   40.57
  -2  -5  -5  251.69   31.76
  -2  -5  -6  523.73   48.90
   2   5   6  537.13   57.40
  -2  -6  12  403.26   49.65
  -2  -6  11   48.69   17.99
  -2  -6  10  663.91   57.92
  -2  -6   9   97.85   20.73
  -2  -6   8   63.50   15.76
  -2  -6   7  289.06   31.14
  -2  -6   6  454.35   37.36
  -2  -6   5  473.51   35.43
   2   6  -5  406.01   21.25
   2   6  -4  393.29   25.28
  -2  -6   4  418.41   31.46
   2   6  -4  401.04   31.83
  -2  -6   3 2343.31   87.07
  -2  -6   3 2289.92   96.09
   2   6  -3 2191.98   85.18
   2   6  -3 2431.68   93.04
  -2  -6   2   14.63    5.07
  -2  -6   2   20.28    8.49
   2   6  -2   13.92    6.39
   2   6  -2    8.39    4.74
   2   6  -1   72.44   14.39
  -2  -6   1   92.94   15.27
  -2  -6   1   85.25   15.38
   2   6  -1   93.37   15.38
  -2  -6   0 1263.02   64.17
  -2  -6   0 1100.19   63.57
   2   6   0 1290.35   69.97
   2   6   0 1275.20   66.16
  -2  -6  -1  170.43   22.16
   2   6   1  182.87   25.86
   2   6   2  684.43   55.38
  -2  -6  -2  710.49   49.09
  -2  -6  -3  148.49   22.83
   2   6   3  182.72   29.56
  -2  -6  -4  185.55   26.75
   2   6   4  202.15   33.02
   2   6   5   11.10    9.51
  -2  -6  -5    3.25    6.02
  -2  -7  12   -1.57    6.37
  -2  -7  11    8.97    9.59
  -2  -7  10  984.55   72.77
  -2  -7   9   45.18   15.32
  -2  -7   8  138.89   23.56
  -2  -7   7  113.79   20.17
  -2  -7   6  654.23   46.92
  -2  -7   5   12.19    6.71
   2   7  -5   10.93    5.71
   2   7  -4   61.22   10.93
  -2  -7   4   80.50   13.66
   2   7  -4   76.51   14.99
  -2  -7   3 1016.09   50.10
   2   7  -3  844.48   52.55
   2   7  -3  958.61   51.32
  -2  -7   3  756.31   52.43
  -2  -7   2  113.92   14.50
  -2  -7   2   95.32   17.03
   2   7  -2   90.59   15.82
   2   7  -2   86.29   15.98
  -2  -7   1 1424.39   74.15
   2   7  -1 1415.43   74.93
  -2  -7   1 1335.08   71.00
   2   7  -1 1436.00   74.04
   2   7   0   43.53   12.69
  -2  -7   0   50.79   13.19
   2   7   0   52.31   13.89
  -2  -7   0   58.83   13.62
  -2  -7  -1    6.81    5.92
  -2  -7  -1   12.48    7.34
   2   7   1    2.48    6.50
   2   7   2  532.56   50.78
  -2  -7  -2  456.52   41.68
  -2  -7  -3   98.14   19.72
   2   7   3   98.40   23.25
  -2  -7  -4    9.41    6.93
   2   7   4   40.22   16.05
  -2  -8  11    2.94    7.55
  -2  -8  10  322.86   41.05
  -2  -8   9   63.93   17.44
  -2  -8   8   80.34   18.68
  -2  -8   7 2513.34  113.19
  -2  -8   6  324.17   32.96
   2   8  -6  363.71   35.99
  -2  -8   5  767.04   49.33
   2   8  -5  713.10   51.25
   2   8  -4  282.35   30.87
  -2  -8   4  280.67   26.67
   2   8  -3   42.28   12.33
   2   8  -3   48.11   11.76
  -2  -8   2  757.09   54.41
   2   8  -2  809.05   54.70
   2   8  -2  880.18   57.44
   2   8  -1   12.32    7.93
  -2  -8   1   20.60    8.79
  -2  -8   1   16.79    8.23
   2   8  -1    6.82    6.59
   2   8   0  492.64   46.57
  -2  -8   0  453.09   41.93
  -2  -8   0  468.61   42.65
   2   8   0  472.93   44.17
  -2  -8  -1   61.31   15.80
  -2  -8  -1   74.04   16.92
   2   8   1   90.32   20.77
   2   8   2  796.11   66.66
  -2  -8  -2  612.07   52.58
  -2  -8  -3   32.29   11.93
   2   8   3   38.56   15.81
  -2  -9  11  387.68   48.58
  -2  -9  10   30.98   13.72
  -2  -9   9   16.22    9.62
  -2  -9   8  280.84   35.09
   2   9  -8  312.58   37.22
  -2  -9   7  141.46   23.12
   2   9  -7  133.45   23.28
   2   9  -6   42.66   13.36
   2   9  -5  197.22   27.79
   2   9  -4  219.54   29.01
   2   9  -3   21.09   10.49
   2   9  -2  532.94   47.50
  -2  -9   2  509.94   45.83
   2   9  -2  559.83   47.41
   2   9  -1  177.37   27.76
  -2  -9   1  142.12   24.58
   2   9  -1  191.86   28.87
  -2  -9   0   62.12   16.64
   2   9   0   38.93   14.15
   2   9   1  396.73   46.86
  -2  -9  -1  321.46   38.41
  -2  -9  -2   97.70   21.42
   2  10  -8    8.69    7.25
   2  10  -7  104.44   22.23
   2  10  -6  125.67   23.86
   2  10  -5   32.46   11.73
   2  10  -4  191.28   28.92
   2  10  -3   25.23   11.33
   2  10  -2 1071.71   75.39
   2  10  -1   23.62   12.34
   2  10   0    6.16    8.59
   2  11  -5   -7.42    8.05
   2  11  -4    0.07    6.38
   2  11  -3  726.34   63.48
   3 -11  -1  930.15   72.99
  -3  11   1  930.73   74.56
  -3  11   0   37.53   14.90
   3 -11   0   41.01   14.58
  -3  11  -1   58.57   18.06
  -3  11  -2  494.20   49.64
  -3  11  -3   23.92   11.59
  -3  11  -4  421.30   45.12
  -3  11  -5   45.27   15.51
  -3  11  -6  267.51   36.53
  -3  11  -7   35.23   14.02
   3 -10  -4    0.58    5.97
   3 -10  -3   -1.39    5.01
   3 -10  -2  721.14   61.11
   3 -10  -1    3.93    6.92
  -3  10   1  -13.30    9.39
   3 -10   0  436.33   44.71
  -3  10   0  382.32   42.27
   3 -10   1   26.63   11.24
  -3  10  -1   13.61    7.89
  -3  10  -2  916.16   64.88
  -3  10  -3    6.49    7.37
  -3  10  -4  148.93   25.05
  -3  10  -5  826.96   61.87
  -3  10  -6  508.37   48.14
   3 -10   7 1303.05   80.47
  -3  10  -7 1288.89   82.62
   3 -10   8   -4.74    7.41
  -3  10  -8    3.26    6.06
   3 -10   9  -15.94   11.77
   3  -9  -5  231.07   35.63
   3  -9  -4   -5.77    6.09
   3  -9  -3  138.56   25.09
   3  -9  -2  486.72   46.74
   3  -9  -1   44.57   13.76
  -3   9   1   18.97   10.18
   3  -9   0   37.00   12.13
  -3   9   0   53.07   14.29
   3  -9   1  457.79   42.17
  -3   9  -1  476.44   42.70
  -3   9  -2    3.48    5.91
  -3   9  -3  178.42   25.37
   3  -9   4  318.96   29.30
  -3   9  -4  361.24   36.18
  -3   9  -5    5.78    5.11
   3  -9   5    9.46    6.31
   3  -9   6   61.61   15.49
  -3   9  -6   43.75   13.99
   3  -9   7  488.78   46.87
   3  -9   8   73.65   19.98
   3  -9   9   -4.27    7.66
   3  -8  -7  229.45   36.76
   3  -8  -6  174.87   31.26
   3  -8  -5    3.89    6.45
   3  -8  -4  101.70   21.92
   3  -8  -3   14.60    8.49
   3  -8  -2 1433.16   79.35
  -3   8   2 1414.22   81.63
   3  -8  -1  478.01   41.39
  -3   8   1  469.58   42.27
   3  -8   0  987.68   61.55
  -3   8   0 1059.30   63.26
   3  -8   1  290.72   30.22
  -3   8  -1  209.97   26.23
  -3   8  -2  211.33   25.58
  -3   8  -3 2780.91  112.89
   3  -8   3 2707.53  100.74
   3  -8   4  240.41   25.65
  -3   8  -4  223.18   26.70
   3  -8   5  353.72   34.75
  -3   8  -5  461.96   39.33
   3  -8   6  154.01   23.75
   3  -8   7  312.63   36.78
   3  -8   8   79.42   20.28
   3  -8   9   11.04    8.09
   3  -8  10  737.18   69.41
   3  -7  -8    9.90    8.95
   3  -7  -7   -3.25    7.17
   3  -7  -6  613.00   56.41
   3  -7  -5  114.94   22.91
   3  -7  -4  128.83   22.88
   3  -7  -3  898.41   59.54
  -3   7   2  183.75   25.32
   3  -7  -2  180.78   24.19
   3  -7  -1 1421.67   72.44
  -3   7   1 1472.11   74.93
   3  -7   0   22.55    8.01
  -3   7   0   35.74   10.25
   3  -7   1  364.11   31.97
  -3   7  -1  430.41   34.17
  -3   7  -1  350.62   20.63
   3  -7   2  268.85   21.99
  -3   7  -2  251.18   25.65
  -3   7  -3  559.29   39.85
   3  -7   3  581.78   37.43
  -3   7  -4  232.85   25.27
   3  -7   4  231.87   25.06
   3  -7   5  132.85   20.54
   3  -7   6 2156.59  105.25
  -3   7  -6 2364.96   92.93
   3  -7   7  103.28   21.74
   3  -7   8  167.49   28.83
   3  -7   9  306.46   41.72
   3  -7  10   44.51   18.03
  -3   6   9   55.33   19.06
   3  -6  -9   15.95   11.71
   3  -6  -8   28.17   12.89
   3  -6  -7  338.54   42.22
   3  -6  -6  317.88   38.52
   3  -6  -5  160.72   25.50
   3  -6  -4 1556.41   82.70
   3  -6  -3   35.14   11.17
  -3   6   2   64.64   13.94
   3  -6  -2   71.78   13.98
   3  -6  -1 1400.06   67.67
  -3   6   1 1528.10   71.17
  -3   6   0   83.75    8.87
   3  -6   0   88.20   14.38
  -3   6   0  106.40    8.98
  -3   6   0  101.70   15.16
   3  -6   1  671.47   39.64
  -3   6  -1  573.97   29.21
  -3   6  -2  790.93   44.24
   3  -6   2  733.21   39.54
   3  -6   3  753.41   43.46
  -3   6  -3  725.99   42.87
   3  -6   4   17.95    7.41
   3  -6   5  469.22   39.81
   3  -6   5  576.85   37.52
  -3   6  -5  532.62   35.59
  -3   6  -6  805.58   46.07
   3  -6   6  738.55   55.40
   3  -6   6  780.06   46.84
   3  -6   7   89.01   15.76
   3  -6   7   62.24   16.23
   3  -6   8  564.17   42.81
   3  -6   8  550.56   52.29
   3  -6   9   23.56   12.78
   3  -6  10   35.46   15.41
  -3   5  10  431.55   50.38
   3  -5  -9  443.62   51.67
  -3   5   9  382.42   44.86
   3  -5  -8  776.89   66.42
   3  -5  -7  117.82   23.55
   3  -5  -6   21.07   11.46
  -3   5   5 1270.74   48.97
   3  -5  -5 1159.05   71.53
  -3   5   4   68.34    7.57
   3  -5  -4   76.84   16.07
   3  -5  -3 1255.77   65.51
  -3   5   3 1306.88   39.96
   3  -5  -2   48.23   10.61
  -3   5   2   35.47    3.69
  -3   5   2   48.88   11.27
  -3   5   2   32.21    3.17
  -3   5   1 1984.77   60.41
  -3   5   1 2023.37   80.43
   3  -5  -1 1966.19   78.58
  -3   5   0   73.70    8.60
   3  -5   0   48.13    9.59
  -3   5   0   49.63    9.70
   3  -5   1    8.09    4.06
  -3   5  -1    9.06    4.42
   3  -5   2 4412.91  137.76
  -3   5  -2 4200.02  135.90
   3  -5   3 2096.12   84.73
   3  -5   3 2139.81   82.01
   3  -5   4 2069.56   89.02
  -3   5  -4 2028.85   79.47
   3  -5   4 2005.76   80.30
   3  -5   5  116.11   16.23
  -3   5  -5  131.67   16.48
   3  -5   5  119.45   19.90
   3  -5   6   29.96    8.99
   3  -5   6   29.25   11.50
  -3   5  -6   54.66   10.86
   3  -5   7  689.45   55.15
  -3   5  -7  760.26   43.25
   3  -5   8   12.65    9.40
   3  -5   8   27.52    9.81
   3  -5   9  468.16   50.82
   3  -5  10  113.77   26.01
  -3   4  11  190.46   33.34
   3  -4 -10   23.42   12.86
  -3   4  10   18.17   12.10
   3  -4  -9   38.48   16.51
  -3   4   8  373.41   32.39
   3  -4  -8  401.02   45.74
   3  -4  -7  115.01   22.95
  -3   4   7   87.86   14.33
   3  -4  -6    7.16    6.11
  -3   4   6    4.70    3.67
  -3   4   5  877.64   39.89
   3  -4  -5  775.16   54.30
   3  -4  -4  131.01   19.45
  -3   4   4  168.30   13.39
   3  -4  -3   20.45    7.36
  -3   4   3   27.43    4.51
   3  -4  -2 2355.16   87.75
  -3   4   1  100.97    9.62
  -3   4   1  113.88   13.69
   3  -4  -1  120.73   13.86
   3  -4   0  363.52   23.64
  -3   4   0  351.92   21.48
  -3   4   0  353.54   23.55
  -3   4  -1 2090.50   73.38
   3  -4   2  170.90   18.17
   3  -4   2  204.01   18.82
   3  -4   3   20.64    6.42
   3  -4   3   12.43    6.05
  -3   4  -3   10.41    5.23
   3  -4   4  444.59   35.04
  -3   4  -4  394.79   28.55
   3  -4   4  387.15   29.23
   3  -4   5  810.65   53.11
   3  -4   5  758.30   45.43
  -3   4  -5  775.05   42.89
   3  -4   6    9.72    5.98
   3  -4   6   11.72    6.43
  -3   4  -6    9.84    5.11
   3  -4   7  645.22   53.91
   3  -4   7  670.47   47.40
   3  -4   8   35.42   14.13
   3  -4   8   33.67   11.70
   3  -4   9   20.59   10.09
   3  -4   9  -13.25    9.39
   3  -4  10  602.85   61.12
  -3   3  12  542.88   57.29
  -3   3  11   20.11   11.65
  -3   3  10   54.60   14.63
  -3   3  10   63.05   17.53
  -3   3   9  211.02   26.55
  -3   3   8   47.12   11.86
  -3   3   7  499.68   35.38
  -3   3   6   79.18   12.40
  -3   3   5 2484.06   85.76
  -3   3   4  468.52   25.30
   3  -3  -4  450.37   35.23
  -3   3   3 2463.59   76.35
   3  -3  -3 2480.91   92.44
   3  -3  -2 1931.10   72.10
  -3   3   1 2075.91   73.27
   3  -3  -1 2210.07   72.81
   3  -3  -1 2055.81   71.60
   3  -3   0 4878.10  142.01
  -3   3   0 4997.96  142.65
  -3   3   0 4933.21  146.74
  -3   3   0 5193.14  143.37
   3  -3   1    5.16    3.82
  -3   3  -1   12.07    3.53
  -3   3  -1    8.28    3.09
   3  -3   2  528.90   33.55
   3  -3   2  514.76   30.77
  -3   3  -2  505.17   30.58
   3  -3   3   61.02   11.89
  -3   3  -3   53.75    9.85
   3  -3   3   63.66   10.80
   3  -3   4  296.02   28.62
   3  -3   4  288.60   25.85
  -3   3  -4  317.58   25.11
   3  -3   5  392.90   36.03
   3  -3   5  363.22   31.47
  -3   3  -5  383.79   29.38
   3  -3   6   -1.64    5.32
   3  -3   6    5.88    4.95
   3  -3   7 1783.42   94.02
   3  -3   7 1602.25   83.81
   3  -3   8  123.10   24.13
   3  -3   8  138.36   23.17
   3  -3   9  383.45   45.82
   3  -3   9  329.37   38.15
   3  -3  10  449.39   52.05
   3  -3  10  369.09   42.77
  -3   2  11  146.24   25.66
  -3   2  11  158.22   28.11
  -3   2  10  104.08   20.15
  -3   2  10   91.32   19.73
  -3   2   9 1263.66   73.23
  -3   2   9 1322.64   72.24
  -3   2   8   13.95    7.49
  -3   2   7   40.51   10.27
  -3   2   6 1845.14   74.31
  -3   2   5 1134.46   50.50
   3  -2  -4 2364.21   70.97
  -3   2   4 2390.04   79.32
  -3   2   3   28.80    5.70
   3  -2  -2  342.42   21.25
   3  -2  -2  333.53   21.35
  -3   2   1   44.86    6.39
   3  -2  -1   40.04    7.27
   3  -2  -1   41.27    5.68
   3  -2  -1   39.52    5.61
  -3   2   1   41.86    5.97
   3  -2   0 1290.24   41.44
   3  -2   0 1216.20   49.27
  -3   2   0 1220.94   41.17
  -3   2   0 1233.93   41.18
  -3   2  -1 3100.08   89.65
  -3   2  -1 3295.48  103.74
   3  -2   1 2989.30  100.72
  -3   2  -2 1159.14   51.54
   3  -2   2 1151.54   51.98
   3  -2   3 5928.88  182.46
   3  -2   3 5683.87  185.63
  -3   2  -3 6060.11  180.20
   3  -2   4   72.55   13.20
   3  -2   4   91.36   16.13
   3  -2   5  188.35   24.51
   3  -2   5  173.78   22.29
   3  -2   6 1156.21   70.39
   3  -2   6 1116.03   65.72
   3  -2   7  262.80   33.23
   3  -2   7  286.98   32.98
   3  -2   8  519.24   50.63
   3  -2   8  531.03   47.80
   3  -2   9    4.55    7.56
   3  -2   9    0.43    6.14
   3  -2  10  352.26   46.25
   3  -2  10  315.40   41.19
  -3   1  12  115.71   23.96
  -3   1  11   17.49   10.25
  -3   1  11    9.38    7.51
  -3   1  10   81.81   16.79
  -3   1  10   81.02   17.48
  -3   1   9  471.18   39.45
  -3   1   9  567.25   44.46
  -3   1   8   54.63   12.88
  -3   1   7 1209.21   60.87
  -3   1   6  110.93   15.16
  -3   1   5    2.14    3.42
   3  -1  -4 3486.39  102.77
  -3   1   4 3494.80  110.43
  -3   1   3  423.43   20.25
  -3   1   2   48.54    7.02
  -3   1   2   78.93    9.40
  -3   1   1  849.69   34.79
   3  -1  -1  769.82   25.41
   3  -1  -1  796.44   25.66
  -3   1   1  728.91   35.31
   3  -1  -1  780.14   33.96
  -3   1   0 2715.91   73.83
   3  -1   0 2986.21   91.70
  -3   1   0 3108.64   95.11
  -3   1   0 2763.10   73.88
  -3   1  -1   16.63    5.63
   3  -1   1   22.25    6.36
  -3   1  -2  602.32   35.82
   3  -1   2  583.45   35.88
   3  -1   3  806.10   46.14
   3  -1   4   42.90   10.64
   3  -1   4   41.40   10.67
   3  -1   5 1152.20   65.63
   3  -1   5 1300.78   70.98
   3  -1   6  310.41   33.64
   3  -1   6  348.66   36.55
   3  -1   7    5.90    6.84
   3  -1   7   -6.67    7.01
   3  -1   8  164.41   27.46
   3  -1   8  155.20   28.10
   3  -1   9  343.09   43.43
   3  -1   9  273.83   37.56
   3  -1  10    3.90    8.06
  -3   0  13  735.26   66.52
  -3   0  12  228.20   34.87
  -3   0  11  361.25   41.03
  -3   0  10  258.28   28.61
  -3   0  10  242.34   31.11
  -3   0   9   32.23    9.26
  -3   0   9   36.98   11.91
  -3   0   8 1650.93   51.31
  -3   0   8 1627.96   79.27
  -3   0   7   73.43   13.26
  -3   0   7   69.50    6.90
  -3   0   6 1180.21   40.96
  -3   0   6 1183.66   57.12
  -3   0   5  115.47   14.27
  -3   0   5  104.53    9.50
  -3   0   4 3108.45   94.49
  -3   0   4 3223.08  103.64
  -3   0   3   64.81    8.35
   3   0  -3   70.88    8.15
  -3   0   3   62.99    8.24
  -3   0   3   65.00    7.37
   3   0  -2 1692.49   60.33
  -3   0   2 1761.42   57.11
   3   0  -2 1696.22   56.03
  -3   0   1 9432.20  242.94
   3   0  -1 8949.02  241.20
   3   0   0 2059.68   73.46
   3   0   1 2392.50   87.33
   3   0   2  721.82   43.01
   3   0   3   33.31   10.06
   3   0   4 1075.20   62.75
   3   0   5   -0.43    5.68
   3   0   6  937.54   65.33
   3   0   7  269.84   35.79
   3   0   8  788.61   65.37
   3   0   9   34.31   14.70
  -3  -1  13   24.71   14.44
  -3  -1  12   48.24   17.83
  -3  -1  11   13.08    8.45
  -3  -1  10  202.01   22.92
  -3  -1  10  232.54   30.52
  -3  -1   9   -3.24    4.91
  -3  -1   9    4.77    4.20
  -3  -1   8  754.32   39.82
  -3  -1   8  811.73   52.15
  -3  -1   7  183.81   22.14
  -3  -1   6  372.08   29.79
  -3  -1   5 3926.01  130.42
  -3  -1   5 4006.65  111.67
  -3  -1   4  184.23   11.28
  -3  -1   4  177.33   17.18
   3   1  -4  170.28   12.93
  -3  -1   3  181.80   15.99
  -3  -1   3  190.67   12.82
   3   1  -3  189.57   12.11
   3   1  -3  178.45   14.78
  -3  -1   2 1011.72   41.87
   3   1  -2 1129.97   41.56
   3   1  -1  305.44   20.92
   3   1  -1  336.92   14.26
   3   1  -1  321.33   14.13
   3   1   0  262.74   21.86
  -3  -1   0  261.57   13.00
  -3  -1   0  275.31   13.18
  -3  -1  -1   64.44    7.37
   3   1   1   70.19   12.28
  -3  -1  -1   62.92    7.63
   3   1   2 1001.10   54.70
  -3  -1  -2  975.59   43.43
   3   1   3  272.12   28.87
  -3  -1  -3  252.80   22.60
   3   1   4 1253.53   71.61
   3   1   5  674.55   53.26
   3   1   6  243.52   32.75
   3   1   7  760.16   63.59
   3   1   8   25.83   13.90
   3   1   9   81.62   23.66
  -3  -2  13   52.06   18.18
  -3  -2  12  124.69   26.70
  -3  -2  11   -4.94    7.18
  -3  -2  10  363.40   39.34
  -3  -2   9   24.82   10.08
  -3  -2   9   18.41    5.58
  -3  -2   8 1759.35   62.40
  -3  -2   8 1944.03   88.81
  -3  -2   7  285.92   15.83
  -3  -2   7  275.15   27.88
  -3  -2   6  259.60   12.26
  -3  -2   6  277.40   11.71
  -3  -2   6  270.69   25.66
  -3  -2   5 2858.96   98.45
   3   2  -5 2880.35   81.30
   3   2  -4  958.15   41.13
  -3  -2   4  997.23   47.20
  -3  -2   4  930.73   33.46
  -3  -2   4  970.02   47.66
   3   2  -4 1035.12   32.66
  -3  -2   3 2194.54   78.72
  -3  -2   3 2020.86   67.76
   3   2  -3 2132.57   66.26
   3   2  -2  213.57   14.00
  -3  -2   2  207.50   16.66
   3   2  -2  200.08   15.83
   3   2  -1  434.32   28.03
   3   2  -1  417.63   20.99
   3   2  -1  458.77   21.91
  -3  -2   0  497.79   24.14
   3   2   0  477.18   33.05
  -3  -2   0  507.64   24.23
   3   2   0  546.38   27.36
   3   2   1  691.28   42.98
  -3  -2  -1  600.90   30.18
   3   2   2  274.06   28.26
  -3  -2  -2  240.73   20.33
   3   2   3   68.30   15.78
  -3  -2  -3   70.72   12.13
   3   2   4 2600.82  115.43
  -3  -2  -4 2276.99   96.01
  -3  -2  -5   26.42    9.39
   3   2   5   17.03    9.80
  -3  -2  -6   44.43   13.34
   3   2   6   42.61   15.49
   3   2   7  550.91   56.42
  -3  -2  -7  548.50   49.11
   3   2   8    6.89    9.11
  -3  -3  13  103.15   24.84
  -3  -3  12  609.65   58.52
  -3  -3  11    7.97    7.65
  -3  -3  10    6.93    5.70
  -3  -3   9 2083.35  101.25
  -3  -3   8  663.97   48.81
  -3  -3   7  899.87   54.58
   3   3  -6   51.06    6.89
  -3  -3   6   53.29   11.59
  -3  -3   5 1044.46   53.36
  -3  -3   4   49.13   10.19
   3   3  -4   56.97    5.89
  -3  -3   4   60.12   10.91
  -3  -3   3    4.95    3.80
   3   3  -3   10.59    3.67
  -3  -3   2 2860.59  103.01
   3   3  -2 2653.70   93.91
   3   3  -2 2922.48   90.32
  -3  -3   1 1123.21   45.84
   3   3  -1 1123.04   54.07
   3   3  -1 1200.24   47.17
  -3  -3   0 4880.94  143.74
   3   3   0 4724.29  160.08
   3   3   0 4891.77  147.48
  -3  -3  -1   20.74    5.66
   3   3   1   12.87    7.50
  -3  -3  -2   35.18    8.46
   3   3   2   42.34   12.24
   3   3   3 2263.65  103.28
  -3  -3  -3 1832.29   80.82
  -3  -3  -4   14.85    6.87
   3   3   4   25.41   10.33
   3   3   5  425.63   46.04
  -3  -3  -5  432.97   38.74
  -3  -3  -6   -3.91    5.68
   3   3   6  -16.43   10.76
   3   3   7  413.80   50.06
  -3  -4  12  192.24   32.71
  -3  -4  11   12.19    8.75
  -3  -4  10  568.08   50.90
  -3  -4   9  573.00   48.66
  -3  -4   8    7.31    6.53
  -3  -4   7  400.84   35.62
  -3  -4   6  715.43   46.42
  -3  -4   5   48.32   10.59
   3   4  -5   37.06    3.27
  -3  -4   4  460.40   34.14
   3   4  -4  448.55   22.71
  -3  -4   4  454.14   32.48
  -3  -4   3 1076.38   54.85
   3   4  -3 1027.41   46.35
   3   4  -3  928.99   43.61
   3   4  -2   13.95    5.81
  -3  -4   2   14.87    7.45
   3   4  -2    0.33    2.16
  -3  -4   1  905.49   43.30
   3   4  -1  927.63   44.16
   3   4  -1  779.38   47.00
  -3  -4   0 1133.99   51.03
   3   4   0 1126.81   53.36
   3   4   0  977.54   58.40
  -3  -4  -1    1.91    3.26
   3   4   1    1.31    6.32
   3   4   2  180.35   26.00
  -3  -4  -2  156.37   18.80
   3   4   3  753.26   58.41
  -3  -4  -3  669.72   44.65
  -3  -4  -4   11.08    6.62
   3   4   4    3.60    5.86
  -3  -4  -5    6.25    5.73
   3   4   5    6.01    7.35
   3   4   6  298.91   42.43
  -3  -5  12   89.13   22.77
  -3  -5  11  685.52   60.88
  -3  -5  10   -8.08    7.86
  -3  -5   9  855.58   62.02
  -3  -5   8   77.70   16.93
  -3  -5   7  948.69   58.96
  -3  -5   6 1084.16   60.74
   3   5  -5  524.85   22.37
  -3  -5   5  455.81   35.51
  -3  -5   4 3722.82  130.26
  -3  -5   4 3643.43  136.31
   3   5  -4 3810.45  116.78
   3   5  -4 3820.01  126.86
  -3  -5   3  659.42   45.03
   3   5  -3  688.62   39.05
  -3  -5   3  741.98   42.90
   3   5  -3  749.39   41.39
  -3  -5   2  583.58   42.04
   3   5  -2  510.01   36.31
   3   5  -2  575.86   35.81
  -3  -5   1  775.57   43.42
   3   5  -1  743.86   48.34
   3   5  -1  808.08   45.21
  -3  -5   0   68.75   12.24
   3   5   0   72.61   12.94
   3   5   0   55.04   13.64
   3   5   1  193.85   26.98
  -3  -5  -1  196.31   21.73
  -3  -5  -2    9.86    5.63
   3   5   2   -1.66    7.53
   3   5   3 1112.18   76.19
  -3  -5  -3 1001.18   59.47
  -3  -5  -4  122.27   20.40
   3   5   4  116.72   25.29
   3   5   5  380.37   47.55
  -3  -6  12   26.55   12.99
  -3  -6  11  182.64   31.62
  -3  -6  10  709.14   60.05
  -3  -6   9  263.89   33.89
  -3  -6   8  774.63   56.69
  -3  -6   7   11.17    6.42
  -3  -6   6   47.13   12.29
   3   6  -5  471.54   36.39
  -3  -6   5  536.49   39.56
   3   6  -5  537.48   27.29
  -3  -6   4   22.82    8.85
  -3  -6   4   26.29    7.94
   3   6  -4   18.09    6.61
   3   6  -4   10.88    5.06
  -3  -6   3  120.06   19.50
  -3  -6   3  135.36   17.58
   3   6  -3  111.04   15.96
   3   6  -3  148.79   18.88
  -3  -6   2    9.57    6.78
   3   6  -2    6.26    5.06
   3   6  -2    3.94    4.51
  -3  -6   1 1759.39   79.78
  -3  -6   1 1817.48   89.00
   3   6  -1 1797.73   87.18
   3   6  -1 1937.90   83.82
  -3  -6   0   90.29   15.50
   3   6   0   57.89   15.19
  -3  -6  -1   99.69   17.02
   3   6   1  106.15   21.53
  -3  -6  -2  794.80   52.66
   3   6   2  822.39   65.01
  -3  -6  -3   91.37   17.96
   3   6   3   87.08   22.06
   3   6   4  649.85   62.93
  -3  -7  12   40.28   16.49
  -3  -7  11  583.66   58.04
  -3  -7  10   14.36   10.71
  -3  -7   9   11.57    8.20
  -3  -7   8  824.06   60.03
  -3  -7   7   99.24   19.31
   3   7  -6  608.62   45.17
  -3  -7   6  629.29   47.31
  -3  -7   5  320.28   31.35
   3   7  -5  379.10   33.78
  -3  -7   4  105.06   19.65
   3   7  -4   99.75   16.99
  -3  -7   4  121.58   17.74
   3   7  -4  104.92   15.36
  -3  -7   3  127.31   21.35
  -3  -7   3  143.92   18.71
   3   7  -3  143.63   19.97
   3   7  -3  198.12   23.91
  -3  -7   2  557.56   46.10
   3   7  -2  596.45   44.92
  -3  -7   2  529.66   36.74
   3   7  -2  542.63   41.70
  -3  -7   1  380.93   34.64
  -3  -7   1  351.77   36.94
   3   7  -1  419.89   39.89
   3   7  -1  362.13   34.95
   3   7   0   49.99   14.66
  -3  -7   0   75.80   15.59
  -3  -7   0   71.53   17.08
  -3  -7  -1  822.54   56.06
  -3  -7  -1  874.53   63.08
   3   7   1  866.62   66.32
  -3  -7  -2   30.62   11.21
   3   7   2   43.59   16.00
   3   7   3   26.39   13.35
  -3  -8  11   54.77   18.80
  -3  -8  10  486.19   51.08
  -3  -8   9   12.67    8.93
  -3  -8   8  180.35   27.86
  -3  -8   7  145.89   23.83
   3   8  -7  157.00   24.03
  -3  -8   6    0.29    3.81
   3   8  -6   13.86    7.77
   3   8  -5 1432.94   76.40
  -3  -8   5 1358.39   72.58
   3   8  -4  784.25   53.77
   3   8  -3 1197.17   68.90
  -3  -8   3 1189.63   73.70
   3   8  -3 1156.10   66.58
  -3  -8   2  294.44   34.74
   3   8  -2  273.00   32.29
   3   8  -2  301.89   33.26
   3   8  -1   35.30   11.67
  -3  -8   1   32.09   12.30
   3   8  -1   39.30   13.20
  -3  -8   0  586.12   48.02
  -3  -8   0  502.00   48.00
   3   8   0  567.09   53.25
  -3  -8  -1   10.28    6.91
  -3  -8  -1   19.67    9.89
   3   8   1   12.59    9.03
   3   8   2  271.01   40.23
  -3  -9  11   64.63   20.20
  -3  -9  10   34.24   15.60
  -3  -9   9  347.23   41.63
  -3  -9   8    7.06    6.95
   3   9  -8    9.31    7.80
   3   9  -7  200.13   28.94
   3   9  -6  419.18   41.69
   3   9  -5   26.84   10.59
   3   9  -4   51.67   14.59
  -3  -9   3  202.85   30.24
   3   9  -3  168.51   26.37
   3   9  -2   88.10   19.60
  -3  -9   2   99.08   21.34
   3   9  -1    3.63    6.50
  -3  -9   1   -6.72    7.34
   3   9  -1  -10.51    8.50
   3   9   0  248.98   36.66
   3  10  -8  222.15   33.37
   3  10  -7 1202.83   79.34
   3  10  -6   32.07   12.70
   3  10  -5    0.73    5.87
   3  10  -4  233.79   32.79
   3  10  -3   31.42   13.06
   3  10  -2  189.70   30.76
   4 -11  -2  112.22   24.65
   4 -11  -1  119.19   25.09
  -4  11   1  159.54   29.64
   4 -11   0   12.17    9.46
  -4  11   0    4.42    7.70
  -4  11  -1  638.53   57.44
  -4  11  -2   85.75   20.58
  -4  11  -3  423.98   45.26
  -4  11  -4  447.81   46.52
  -4  11  -5   50.25   16.48
  -4  11  -6  464.61   48.42
   4 -10  -4  146.51   27.76
   4 -10  -3  751.26   63.72
   4 -10  -2   15.81    9.58
   4 -10  -1   88.64   20.59
  -4  10   1  109.94   22.77
   4 -10   0 1016.45   70.61
  -4  10   0 1030.12   71.89
  -4  10  -1  218.17   30.79
  -4  10  -2 1030.43   68.98
  -4  10  -3   17.56    9.36
  -4  10  -4  420.60   42.35
  -4  10  -5   10.18    6.50
  -4  10  -6   69.53   17.51
   4 -10   7  501.94   49.93
  -4  10  -7  549.90   51.23
  -4  10  -8  215.32   33.05
   4 -10   8  264.97   37.68
   4 -10   9  773.44   70.06
   4  -9  -6  152.99   29.32
   4  -9  -5    5.51    6.86
   4  -9  -4  148.31   26.78
   4  -9  -3  132.61   24.33
   4  -9  -2   -1.76    6.57
   4  -9  -1  427.67   41.63
  -4   9   1  352.22   38.90
   4  -9   0  171.49   25.55
  -4   9   0  152.15   24.54
  -4   9  -1   36.68   11.68
   4  -9   1   16.68    8.61
  -4   9  -2  333.93   34.94
  -4   9  -3  472.95   42.02
  -4   9  -4   13.57    7.29
   4  -9   4   31.12    9.78
   4  -9   5  170.29   25.04
  -4   9  -5  284.99   32.54
  -4   9  -6  247.80   31.36
   4  -9   6  264.62   33.16
  -4   9  -6  269.26   29.85
   4  -9   7    0.09    7.93
  -4   9  -7   25.57   10.91
   4  -9   8  191.91   32.25
   4  -9   9   56.43   18.75
   4  -8  -7  913.73   75.09
   4  -8  -6  180.17   30.67
   4  -8  -5  333.54   40.49
   4  -8  -4  142.21   24.69
   4  -8  -3   45.54   14.36
   4  -8  -2  859.43   58.15
  -4   8   2  809.17   58.66
   4  -8  -1   11.05    7.36
  -4   8   1    6.95    6.40
   4  -8   0  650.46   47.79
  -4   8   0  684.97   49.10
   4  -8   1  124.19   19.57
  -4   8  -1  132.30   20.36
  -4   8  -2 1770.42   84.34
  -4   8  -3  179.91   23.46
  -4   8  -4  118.77   19.40
   4  -8   4  131.92   20.17
   4  -8   5 1938.00   95.63
  -4   8  -5 2062.98   94.76
   4  -8   6  224.97   30.49
  -4   8  -6  268.39   28.71
   4  -8   7  647.71   56.30
   4  -8   8  154.13   28.74
   4  -8   9   -0.58    6.15
   4  -7  -8  164.38   31.35
   4  -7  -7   22.47   12.30
   4  -7  -6  223.76   33.23
   4  -7  -5  -12.35    8.32
   4  -7  -4  522.73   45.71
   4  -7  -3   91.49   17.68
  -4   7   2 1210.53   68.91
   4  -7  -2 1158.91   65.63
   4  -7  -1  455.81   37.36
  -4   7   1  548.36   41.63
   4  -7   0  727.62   47.00
  -4   7   0  773.47   48.55
   4  -7   1 2168.19   91.64
  -4   7  -1 2237.79   92.44
  -4   7  -2   12.56    6.47
   4  -7   3  278.21   27.16
  -4   7  -3  314.44   28.88
   4  -7   4  198.06   24.49
  -4   7  -4  175.88   22.27
   4  -7   5   86.88   17.65
  -4   7  -5  125.38   18.83
   4  -7   6  292.91   34.73
  -4   7  -6  349.49   31.99
   4  -7   6  337.68   32.40
   4  -7   7    6.24    5.36
   4  -7   7   12.27    8.75
   4  -7   8  853.67   69.12
   4  -7   9  141.81   29.36
   4  -6  -9  202.31   35.54
   4  -6  -8   30.69   12.19
   4  -6  -7   89.13   20.76
   4  -6  -6  157.71   26.64
   4  -6  -5  205.27   28.38
   4  -6  -4   78.71   16.52
   4  -6  -3   13.48    7.35
  -4   6   3   11.81    2.30
  -4   6   2 2268.73   68.36
  -4   6   2 2174.45   65.40
  -4   6   2 2404.36   98.18
   4  -6  -2 2345.75   94.35
   4  -6  -1   41.31    9.84
  -4   6   1   35.58    4.50
  -4   6   1   32.78    5.95
  -4   6   1   36.48    9.96
   4  -6   0  276.75   25.00
  -4   6   0  242.76   23.91
  -4   6  -1 2126.12   84.65
  -4   6  -2   51.69   10.42
   4  -6   3  582.75   40.79
  -4   6  -3  598.63   38.21
   4  -6   4  269.50   29.23
  -4   6  -4  280.75   26.87
   4  -6   4  293.21   28.14
   4  -6   5   64.56   13.84
   4  -6   5   83.70   17.32
  -4   6  -5   67.67   13.54
   4  -6   6  131.42   19.70
   4  -6   6  127.13   22.78
  -4   6  -6  137.38   19.32
   4  -6   7  386.96   42.90
   4  -6   7  397.14   36.84
   4  -6   8   64.30   15.68
   4  -6   8   52.76   17.48
   4  -6   9  -14.53   10.87
  -4   5  11   59.71   19.88
   4  -5 -10   41.21   16.40
   4  -5  -9    5.00    8.04
   4  -5  -8  788.82   66.62
   4  -5  -7  340.39   40.31
  -4   5   6 2049.24   74.89
   4  -5  -6 1889.40  100.00
   4  -5  -5    0.05    6.79
  -4   5   5    8.56    3.63
  -4   5   4   38.01    6.10
   4  -5  -4   14.85    6.77
  -4   5   3 4045.66  114.80
   4  -5  -3 3913.47  140.24
  -4   5   2  535.17   36.65
   4  -5  -2  465.19   33.18
   4  -5  -1 1406.26   60.17
  -4   5   1 1342.18   52.27
  -4   5   1 1308.28   60.70
   4  -5   0    2.97    3.71
  -4   5   0   12.06    5.03
  -4   5  -1 1699.60   67.59
   4  -5   2   48.84   11.10
  -4   5  -2   61.09   10.36
   4  -5   3   27.70    9.18
   4  -5   3   52.83   10.68
  -4   5  -3   27.74    8.07
  -4   5  -4 1742.51   76.18
   4  -5   4 1741.99   84.09
   4  -5   4 1602.64   75.43
   4  -5   5 1071.30   65.77
   4  -5   5 1014.46   57.92
  -4   5  -5 1000.35   55.16
   4  -5   6 2543.53  118.32
   4  -5   6 2392.41  105.28
  -4   5  -6 2677.58  103.69
   4  -5   7    0.15    5.52
   4  -5   7    1.35    4.48
   4  -5   8   -2.74    7.09
   4  -5   8   15.74   10.00
   4  -5   9  552.11   56.95
   4  -5   9  362.00   40.12
  -4   4  11    7.58    8.46
   4  -4 -10   91.27   24.67
   4  -4  -9  158.32   30.85
   4  -4  -8   12.28    9.89
  -4   4   8   -4.30    4.17
  -4   4   7  548.40   36.39
   4  -4  -7  536.91   50.16
   4  -4  -6  178.92   26.38
  -4   4   6  186.65   18.33
  -4   4   5   66.45    9.91
   4  -4  -5   17.93    8.20
  -4   4   4  183.88   15.01
   4  -4  -4  180.17   22.34
   4  -4  -3 1198.32   58.35
   4  -4  -2    7.84    3.91
   4  -4  -1   17.71    5.58
  -4   4   1   22.75    6.31
   4  -4   0 2041.02   70.23
  -4   4   0 1872.17   69.46
   4  -4   1  221.60   20.91
  -4   4  -1  182.21   15.86
  -4   4  -2  932.60   48.52
   4  -4   2  851.88   46.71
  -4   4  -3  581.31   38.37
   4  -4   3  610.47   39.40
   4  -4   4   97.55   17.95
  -4   4  -4  122.46   16.86
   4  -4   4  114.97   17.30
   4  -4   5  401.17   38.65
   4  -4   5  357.22   32.85
  -4   4  -5  361.21   30.93
   4  -4   6  235.83   31.34
   4  -4   6  167.41   23.84
   4  -4   7  152.46   26.58
   4  -4   7  129.11   22.08
   4  -4   8    5.70    7.50
   4  -4   8    9.12    7.06
   4  -4   9  419.26   45.17
   4  -4   9  511.14   55.36
  -4   3  12  134.98   27.91
  -4   3  11  105.42   22.72
  -4   3  10  968.03   63.07
  -4   3   9  178.92   23.82
  -4   3   8  429.53   34.92
  -4   3   7  880.43   48.84
   4  -3  -6  125.77   11.31
  -4   3   6  134.27   15.96
   4  -3  -5  798.91   30.30
  -4   3   5  752.90   39.28
   4  -3  -4   22.56    7.77
  -4   3   4    8.20    3.61
   4  -3  -3 2004.19   77.82
   4  -3  -2  696.53   34.88
  -4   3   1 1367.85   52.42
   4  -3  -1 1358.64   50.36
  -4   3   1 1450.52   53.82
   4  -3  -1 1436.33   51.31
   4  -3   0 1056.86   40.09
  -4   3   0 1003.73   40.01
   4  -3   0 1124.84   50.19
  -4   3   0 1076.87   50.28
  -4   3   0 1026.76   40.28
  -4   3  -1  492.82   24.46
  -4   3  -1  489.55   24.45
  -4   3  -1  523.74   33.78
   4  -3   1  545.76   33.87
   4  -3   2 5607.84  174.00
  -4   3  -2 5500.08  174.70
   4  -3   3  152.87   19.37
  -4   3  -3  180.18   20.09
   4  -3   4  763.89   48.22
   4  -3   4  708.51   50.03
  -4   3  -4  749.69   46.08
   4  -3   5 1187.30   66.81
   4  -3   5 1234.58   72.34
   4  -3   6  186.43   27.93
   4  -3   6  149.17   23.29
   4  -3   7  132.92   24.98
   4  -3   7  159.04   25.38
   4  -3   8    9.92    7.30
   4  -3   8    4.87    6.41
   4  -3   9  646.47   58.66
   4  -3   9  663.82   63.61
   4  -3  10   40.68   15.32
  -4   2  12   13.44    9.84
  -4   2  11  149.81   25.88
  -4   2  11  223.39   30.87
  -4   2  10   14.46    7.97
  -4   2   9  219.31   26.63
  -4   2   8    1.18    3.50
  -4   2   7 1689.58   74.55
  -4   2   6  397.74   29.28
   4  -2  -5  486.85   24.57
  -4   2   5  468.70   30.20
  -4   2   4 3682.01  116.48
  -4   2   3  905.48   33.89
   4  -2  -3  848.35   42.17
   4  -2  -2 4606.54  135.80
  -4   2   2 4999.71  147.02
   4  -2  -2 4718.47  136.92
   4  -2  -1   17.30    5.77
   4  -2  -1   13.95    3.11
   4  -2  -1   14.01    3.06
  -4   2   1    5.70    4.27
   4  -2   0  512.87   31.43
  -4   2   0  491.29   32.58
  -4   2   0  522.91   21.12
  -4   2   0  534.62   21.40
  -4   2  -1 1374.15   43.75
   4  -2   1 1239.43   58.24
  -4   2  -1 1226.36   58.55
   4  -2   2  188.62   20.69
  -4   2  -2  186.06   20.48
   4  -2   3  354.07   31.41
  -4   2  -3  448.29   34.08
   4  -2   4  213.86   25.63
   4  -2   5 2772.94  117.60
   4  -2   6  145.95   23.82
   4  -2   7   79.26   18.86
   4  -2   8  564.44   53.18
   4  -2   9  117.08   25.65
   4  -2  10  521.88   55.93
  -4   1  13    3.16    6.06
  -4   1  12  113.47   24.13
  -4   1  11   93.28   18.60
  -4   1  11   61.81   17.04
  -4   1  10   25.16    9.38
  -4   1  10   15.71    8.81
  -4   1   9  158.64   22.75
  -4   1   8  754.07   49.02
  -4   1   7  176.45   21.49
  -4   1   6   12.71    6.33
  -4   1   5 2690.37   95.92
  -4   1   5 2761.73   90.13
  -4   1   4  316.17   19.63
  -4   1   4  299.02   21.46
  -4   1   3   94.80   10.37
  -4   1   3   84.20   11.60
   4  -1  -2 2120.00   72.84
  -4   1   2 2014.41   76.38
   4  -1  -2 2053.37   64.14
  -4   1   1   49.64    9.60
   4  -1  -1   36.55    7.71
   4  -1   0  189.13   18.54
  -4   1   0  170.68   18.75
   4  -1   1 1277.88   58.47
  -4   1  -1 1130.11   57.61
   4  -1   2   23.00    7.63
   4  -1   3   18.43    7.73
   4  -1   4  870.72   56.01
   4  -1   5  184.66   26.38
   4  -1   6   25.39   10.56
   4  -1   7  404.04   44.01
   4  -1   8   44.37   15.79
   4  -1   9   -0.19    6.61
  -4   0  13  173.24   31.69
  -4   0  12    6.29    6.81
  -4   0  11  946.85   67.46
  -4   0  10  555.16   40.44
  -4   0  10  585.88   48.55
  -4   0   9 1769.75   87.44
  -4   0   8  221.67   25.86
  -4   0   8  258.48   15.69
  -4   0   7  470.85   35.76
  -4   0   7  440.17   23.52
  -4   0   6 2646.53   98.42
  -4   0   6 2556.10   83.59
  -4   0   5  539.67   34.29
  -4   0   5  533.87   28.85
  -4   0   5  545.74   27.54
  -4   0   4 1852.36   66.65
  -4   0   4 1815.41   62.32
  -4   0   4 1736.48   66.31
   4   0  -3    6.37    3.36
  -4   0   3    2.96    3.67
  -4   0   3    7.21    3.54
  -4   0   2 1181.20   54.57
   4   0  -2 1273.95   50.13
  -4   0   1   49.49   10.33
   4   0  -1   56.53    9.58
   4   0   0   31.58    8.31
   4   0   1 5201.17  162.15
  -4   0  -1 4973.12  134.20
  -4   0  -1 4802.48  133.35
   4   0   2 2211.14   92.63
   4   0   3 1624.16   79.96
   4   0   4  395.14   38.29
   4   0   5   13.66    9.20
   4   0   6  748.77   60.43
   4   0   7   16.61   11.63
   4   0   8  420.68   49.03
  -4  -1  13   28.86   13.21
  -4  -1  12  197.69   31.72
  -4  -1  11   68.54   17.51
  -4  -1  10  296.12   34.58
  -4  -1   9  167.84   24.47
  -4  -1   9  175.01   17.71
  -4  -1   8  117.58   18.90
  -4  -1   7   15.52    4.08
  -4  -1   7    8.37    5.76
  -4  -1   6  888.58   34.72
  -4  -1   6  802.62   47.52
  -4  -1   5  233.28   15.22
  -4  -1   5  261.89   23.86
   4   1  -5  246.07   17.50
  -4  -1   4  127.71   15.04
  -4  -1   4  134.85   11.91
   4   1  -4  151.89   12.16
  -4  -1   3 3119.15  108.93
  -4  -1   3 3354.71  102.92
   4   1  -3 3248.66  100.25
   4   1  -2  624.24   23.56
   4   1  -2  618.32   33.05
   4   1  -1  642.72   23.60
   4   1  -1  625.09   36.54
   4   1  -1  704.62   24.57
  -4  -1   0 1894.81   56.76
   4   1   0 2109.95   80.91
  -4  -1  -1    9.95    2.98
  -4  -1  -1   16.96    3.74
   4   1   1    8.88    5.73
   4   1   2  397.09   35.44
  -4  -1  -2  433.62   25.57
  -4  -1  -3  106.92   13.95
   4   1   3  137.01   22.15
   4   1   4  705.52   55.27
  -4  -1  -4  719.65   44.27
  -4  -1  -5   27.97    9.32
   4   1   5   16.70   10.73
   4   1   6  512.13   51.53
   4   1   7   63.67   19.85
   4   1   8   31.27   12.56
  -4  -2  13  561.77   58.42
  -4  -2  12   48.48   17.74
  -4  -2  11    7.78    6.18
  -4  -2  10  670.22   54.34
  -4  -2   9    2.43    5.27
  -4  -2   8  513.49   23.71
  -4  -2   8  643.67   46.53
  -4  -2   7    3.11    4.19
  -4  -2   7   11.00    2.44
  -4  -2   6 1555.56   49.96
  -4  -2   6 1670.01   75.43
   4   2  -6 1724.03   58.87
  -4  -2   5    3.72    4.01
  -4  -2   5   -1.44    4.11
  -4  -2   5    8.28    2.64
  -4  -2   4 1665.32   69.37
  -4  -2   4 1491.31   56.49
   4   2  -4 1643.56   54.99
   4   2  -3 1463.29   52.39
  -4  -2   3 1527.08   66.82
   4   2  -3 1487.60   56.24
   4   2  -2  971.55   47.01
   4   2  -2 1106.47   39.25
   4   2  -2 1048.80   38.80
   4   2  -1 4149.70  142.43
   4   2  -1 4526.90  126.63
   4   2  -1 4419.87  126.81
  -4  -2   0  104.39    9.74
   4   2   0   96.70   15.86
  -4  -2  -1   68.22    8.82
   4   2   1   63.23   14.34
   4   2   2  413.22   38.02
  -4  -2  -2  370.27   25.21
   4   2   3  240.75   30.57
  -4  -2  -3  199.87   20.09
   4   2   4  249.53   33.31
  -4  -2  -4  186.66   21.95
   4   2   5   18.70   11.82
   4   2   6  644.98   60.73
   4   2   7   38.69   16.31
  -4  -3  13   -1.84    6.49
  -4  -3  12  317.24   41.45
  -4  -3  11   90.12   21.31
  -4  -3  10 1276.40   78.82
  -4  -3   9    3.66    6.79
  -4  -3   8   20.78    9.38
  -4  -3   7 2469.26  105.22
   4   3  -7 2558.98   81.41
  -4  -3   6 1025.00   57.42
  -4  -3   5 2820.80  109.08
  -4  -3   5 2697.66  108.30
   4   3  -5 3024.28   85.34
  -4  -3   4   95.07   10.90
  -4  -3   4   73.59   13.46
   4   3  -4  101.46   10.52
  -4  -3   3   39.83    9.85
   4   3  -3   45.99    7.70
   4   3  -3   30.92    6.81
   4   3  -2  383.76   28.86
   4   3  -2  415.57   24.04
   4   3  -1  114.20   12.43
   4   3  -1   86.04   14.40
  -4  -3   0 1270.87   51.29
   4   3   0 1353.76   68.98
  -4  -3  -1  605.62   33.32
   4   3   1  613.50   46.79
   4   3   2 2463.44  111.67
  -4  -3  -2 2333.71   87.05
  -4  -3  -3    2.84    3.64
   4   3   3    1.54    5.45
   4   3   4   43.79   14.50
   4   3   5 1205.57   85.06
   4   3   6  216.27   36.82
  -4  -4  12    9.96   11.19
  -4  -4  11  240.86   34.72
  -4  -4  10  130.55   24.25
  -4  -4   9    0.38    5.37
  -4  -4   8  338.72   35.30
  -4  -4   7   86.68   16.52
  -4  -4   6    9.54    6.54
  -4  -4   5 1274.73   67.92
   4   4  -5 1440.04   47.98
  -4  -4   5 1238.33   65.38
  -4  -4   4  220.33   24.96
  -4  -4   4  203.35   22.60
   4   4  -4  200.07   16.91
  -4  -4   3   26.68    9.18
   4   4  -3   28.20    6.68
   4   4  -3   24.27    7.00
   4   4  -2 1011.33   55.18
   4   4  -2 1192.01   50.79
   4   4  -1  587.86   42.40
   4   4  -1  618.87   35.88
  -4  -4   0   15.73    5.37
   4   4   0   28.48   10.53
  -4  -4  -1  325.70   25.92
   4   4   1  325.14   35.18
  -4  -4  -2   68.74   12.58
   4   4   2   69.62   17.51
   4   4   3   -5.21    6.56
   4   4   4  316.26   41.04
   4   4   5  109.68   25.35
  -4  -5  12  293.29   41.18
  -4  -5  11  276.38   37.61
  -4  -5  10   28.63   11.21
  -4  -5   9 1597.00   89.33
  -4  -5   8   86.58   18.48
  -4  -5   7  397.09   37.53
  -4  -5   6   31.50   10.39
  -4  -5   5  848.53   55.00
   4   5  -5  873.88   37.23
  -4  -5   5  837.90   52.64
  -4  -5   4  176.64   23.45
   4   5  -4  148.39   16.22
  -4  -5   4  150.33   20.12
   4   5  -4  172.61   19.25
  -4  -5   3  238.26   28.12
   4   5  -3  246.36   23.81
   4   5  -3  281.21   24.13
  -4  -5   2 3061.73  125.66
   4   5  -2 3015.48  117.44
   4   5  -2 3151.81  110.20
   4   5  -1  372.50   34.93
   4   5  -1  346.47   28.83
  -4  -5   0  645.26   40.62
   4   5   0  718.45   53.25
  -4  -5  -1  460.89   34.69
   4   5   1  454.61   44.55
   4   5   2   53.27   16.45
   4   5   3  672.70   61.11
   4   5   4   37.61   15.83
  -4  -6  12   19.08   12.08
  -4  -6  11  246.55   36.68
  -4  -6  10   21.75   10.92
  -4  -6   9  163.67   27.33
  -4  -6   8  189.57   27.35
  -4  -6   7  299.66   33.86
  -4  -6   6 2144.86   97.98
   4   6  -5   52.14   11.49
  -4  -6   5   32.19   10.26
  -4  -6   4   24.66    9.88
  -4  -6   4   34.11   10.32
   4   6  -4   31.27    9.28
   4   6  -4   24.13    7.58
  -4  -6   3  761.80   55.69
   4   6  -3  895.51   51.90
  -4  -6   3  816.38   51.33
   4   6  -3  823.99   48.67
  -4  -6   2   12.67    7.82
   4   6  -2    6.19    3.91
   4   6  -2   12.16    6.99
  -4  -6   1  380.05   39.84
   4   6  -1  411.04   39.40
   4   6  -1  448.83   36.32
  -4  -6   0    2.94    3.89
   4   6   0   13.47    8.47
   4   6   1  496.13   48.97
   4   6   2   16.21   10.10
   4   6   3  321.91   43.32
  -4  -7  12    0.44    7.19
  -4  -7  11  234.65   36.41
  -4  -7  10   36.16   14.22
  -4  -7   9  633.98   55.67
  -4  -7   8    0.82    4.96
  -4  -7   7  261.83   32.15
   4   7  -6 1134.04   63.73
  -4  -7   6  995.75   64.15
  -4  -7   5  152.69   22.54
   4   7  -5  144.85   20.69
  -4  -7   4  413.79   42.05
  -4  -7   4  431.71   37.50
   4   7  -3  113.74   18.30
  -4  -7   3   93.58   20.38
  -4  -7   3  118.96   18.39
   4   7  -3  106.00   18.12
  -4  -7   2   56.12   15.93
   4   7  -2   62.23   14.56
   4   7  -2   72.54   16.77
   4   7  -1  213.63   27.55
  -4  -7   1  239.13   32.92
   4   7  -1  270.93   33.81
  -4  -7   0  179.63   28.86
   4   7   0  152.80   26.80
   4   7   1   19.54   10.93
   4   7   2   19.86   10.62
  -4  -8  11   31.74   14.68
  -4  -8  10 1226.16   85.61
  -4  -8   9  392.10   44.40
   4   8  -8  465.29   43.56
  -4  -8   8  437.02   45.10
  -4  -8   7  120.37   22.50
   4   8  -7  172.38   25.37
   4   8  -6   92.54   18.11
  -4  -8   6   78.88   17.49
   4   8  -5  227.57   28.23
  -4  -8   4    2.23    5.61
   4   8  -4    1.64    4.89
  -4  -8   3  806.10   63.74
   4   8  -3  927.58   60.26
  -4  -8   2  157.51   27.49
   4   8  -2  226.11   29.21
   4   8  -2  208.53   29.58
  -4  -8   1  913.42   69.29
   4   8  -1  852.78   65.99
  -4  -8   0   11.32    8.84
   4   8   0    9.19    7.35
  -4  -8  -1   28.82   14.33
   4   8   1   35.55   14.77
  -4  -9  11  129.83   28.49
  -4  -9  10  106.34   24.90
  -4  -9   9    2.22    5.92
   4   9  -9  -16.09    9.52
   4   9  -8   73.45   18.33
   4   9  -7  362.15   39.18
   4   9  -6    4.00    5.57
   4   9  -5  144.52   24.22
   4   9  -4  226.51   30.33
  -4  -9   3   -2.70    6.59
   4   9  -3   -6.60    6.86
  -4  -9   2  337.92   41.95
  -4  -9   1   32.68   12.91
   4  10  -8  123.64   24.58
   4  10  -7  283.33   37.00
   4  10  -6   79.59   19.17
   4  10  -5  796.56   62.40
  -5  12  -2    3.43    7.73
   5 -11  -2   67.12   19.85
   5 -11  -1  352.29   42.68
  -5  11   1  407.89   47.45
   5 -11   0   10.92   10.10
  -5  11   0   29.67   14.15
  -5  11  -1   99.75   22.32
  -5  11  -2   60.82   17.09
  -5  11  -3  550.04   51.62
  -5  11  -4    3.84    6.22
  -5  11  -5  291.80   37.90
  -5  11  -6  119.00   24.53
   5 -10  -4   13.66    9.56
   5 -10  -3  200.75   31.57
   5 -10  -2    3.43    7.57
   5 -10  -1 1294.84   81.68
  -5  10   1 1404.22   86.67
  -5  10   0  101.32   21.24
   5 -10   0  152.44   25.24
  -5  10  -1   86.53   19.62
  -5  10  -2  705.72   55.94
  -5  10  -3  313.16   36.19
  -5  10  -4  998.86   68.07
  -5  10  -5   34.36   13.06
  -5  10  -6  177.81   28.26
  -5  10  -7  111.16   23.01
   5  -9  -6   50.85   18.28
   5  -9  -5  163.17   28.91
   5  -9  -4    8.23    6.86
   5  -9  -3    3.16    4.89
   5  -9  -2  557.15   48.71
  -5   9   2  577.93   51.53
   5  -9  -1    6.38    5.01
  -5   9   1   10.06    6.76
   5  -9   0    6.71    6.39
  -5   9   0   -0.20    5.97
  -5   9  -1  261.94   31.15
  -5   9  -2  175.02   25.21
  -5   9  -3   30.12   10.76
  -5   9  -4  360.32   36.48
  -5   9  -5   97.78   19.31
  -5   9  -5   88.01   18.21
  -5   9  -6    2.99    4.94
  -5   9  -6   -0.90    5.44
  -5   9  -7  632.66   53.51
   5  -9   7  686.68   61.07
   5  -9   8   36.65   15.18
   5  -8  -7   29.49   13.75
   5  -8  -6    3.75    6.66
   5  -8  -5  827.40   64.27
   5  -8  -4  631.07   52.86
   5  -8  -3 1160.98   71.25
   5  -8  -2  388.18   37.44
  -5   8   2  381.63   38.65
   5  -8  -1   22.80    9.53
  -5   8   1   23.00   10.14
   5  -8   0 1415.28   73.89
  -5   8   0 1390.32   74.37
  -5   8  -1   35.78   10.88
  -5   8  -2  799.33   52.47
  -5   8  -3   13.02    6.45
  -5   8  -4  688.96   48.80
  -5   8  -4  714.67   50.78
  -5   8  -5    4.75    5.77
  -5   8  -5    7.66    5.83
  -5   8  -6    1.03    3.97
   5  -8   6   -1.98    7.41
   5  -8   7 1470.45   93.33
   5  -8   8  171.81   31.67
   5  -7  -8   45.06   18.04
   5  -7  -7  173.51   30.68
   5  -7  -6  539.78   51.76
   5  -7  -5   50.54   14.31
   5  -7  -4  450.37   41.51
   5  -7  -3   35.35   11.57
   5  -7  -2  623.64   45.36
  -5   7   2  725.69   50.74
   5  -7  -1   30.13    9.36
  -5   7   1   34.30   10.04
   5  -7   0  927.25   53.13
  -5   7   0  900.12   53.41
  -5   7  -1  356.15   31.04
  -5   7  -2  114.55   17.34
  -5   7  -3 3052.96  115.48
  -5   7  -3 3026.01  120.41
  -5   7  -4  306.25   29.41
  -5   7  -4  297.38   30.73
  -5   7  -5  329.70   33.22
   5  -7   5  318.75   33.61
  -5   7  -6  461.89   39.76
   5  -7   6  453.86   46.26
   5  -7   6  372.71   37.73
   5  -7   7    8.10    7.12
   5  -7   7    7.90    6.85
   5  -7   8  181.48   32.72
   5  -6  -9  147.47   30.79
   5  -6  -8   43.28   16.45
   5  -6  -7 1059.22   75.67
   5  -6  -6    6.95    6.99
   5  -6  -5   -1.92    5.44
   5  -6  -4  468.26   40.57
  -5   6   4  537.90   26.29
   5  -6  -3  138.37   19.63
  -5   6   3  123.50   11.36
  -5   6   2  203.62   24.08
   5  -6  -2  174.60   21.31
   5  -6  -1   60.32   11.78
  -5   6   1   57.53   12.04
   5  -6   0  717.11   42.39
  -5   6   0  750.86   43.87
  -5   6  -1   67.08   12.10
  -5   6  -2  939.60   54.56
  -5   6  -2  860.75   47.40
  -5   6  -3  676.94   41.27
   5  -6   3  637.03   45.73
  -5   6  -3  711.67   47.10
  -5   6  -4  199.82   24.75
   5  -6   4  245.31   27.50
   5  -6   5  728.09   51.54
  -5   6  -5  688.60   48.40
   5  -6   6  212.47   28.11
   5  -6   6  285.66   36.04
  -5   6  -6  270.74   29.72
   5  -6   7   36.62   11.91
   5  -6   7   40.72   15.35
   5  -6   8   59.24   15.98
   5  -6   8   94.34   23.37
   5  -5 -10    6.85   10.40
   5  -5  -9   -7.07    8.97
   5  -5  -8  266.36   37.27
   5  -5  -7   34.66   13.64
  -5   5   6  793.18   40.83
   5  -5  -6  697.86   55.29
  -5   5   5  428.25   26.44
   5  -5  -5  372.22   36.64
  -5   5   4 2452.15   81.74
   5  -5  -4 2343.46  100.46
   5  -5  -3   16.18    7.12
   5  -5  -2   66.26   11.88
   5  -5  -1 3331.16  113.45
  -5   5   1 3513.40  118.14
   5  -5   0 1609.47   63.62
  -5   5   0 1467.08   62.75
   5  -5   1 2565.66  102.47
  -5   5  -1 2684.98  103.63
  -5   5  -1 2581.68   91.64
   5  -5   2  105.47   16.96
  -5   5  -2  141.98   15.60
  -5   5  -2  119.33   17.56
   5  -5   3  274.80   28.34
  -5   5  -3  289.45   28.77
   5  -5   4  113.87   18.82
  -5   5  -4  123.94   18.82
  -5   5  -5  101.67   17.25
   5  -5   5   59.28   14.60
   5  -5   6  934.27   62.79
  -5   5  -6 1041.29   62.53
   5  -5   7  336.84   37.69
   5  -5   8 1089.85   74.57
   5  -5   9   22.28   11.60
  -5   4  12   48.45   17.46
   5  -4 -11   92.03   25.67
   5  -4 -10   52.11   18.26
   5  -4  -9   40.31   16.44
  -5   4   9   55.22   13.25
  -5   4   8  557.28   39.43
   5  -4  -8  545.01   52.52
   5  -4  -7  138.79   25.02
  -5   4   7  169.91   19.62
   5  -4  -6   23.05    9.65
  -5   4   6   12.68    5.30
  -5   4   5 1131.06   49.87
   5  -4  -5 1052.83   62.21
   5  -4  -4   34.16    9.92
  -5   4   4   38.17    8.09
  -5   4   3  218.13   11.22
   5  -4  -3  223.66   21.61
   5  -4  -2  602.73   33.80
   5  -4  -1  221.40   17.70
  -5   4   1  211.34   18.60
   5  -4   0   31.09    8.40
  -5   4   0   19.70    5.37
  -5   4   0   25.82    8.26
  -5   4  -1  508.89   27.93
  -5   4  -1  517.41   37.32
   5  -4   1  513.92   36.70
  -5   4  -2  905.88   41.43
  -5   4  -2  974.12   54.71
   5  -4   2  940.35   53.53
   5  -4   3  493.29   38.95
  -5   4  -3  521.24   39.29
   5  -4   4  826.69   54.68
  -5   4  -4  972.62   56.88
   5  -4   5  364.47   36.84
  -5   4  -5  408.02   36.68
   5  -4   6    0.30    7.38
   5  -4   7  516.88   48.53
   5  -4   8   26.99   11.94
   5  -4   9   82.73   21.26
  -5   3  11  146.15   24.46
  -5   3  10   54.30   13.90
  -5   3   9   47.17   12.08
  -5   3   8 1799.51   81.91
  -5   3   7  448.08   33.48
  -5   3   6  633.40   38.16
  -5   3   5  515.57   32.30
   5  -3  -5  519.86   39.63
   5  -3  -4  227.07   22.77
   5  -3  -3 2501.24   89.28
   5  -3  -2   12.44    3.97
  -5   3   2   14.27    5.94
   5  -3  -1  591.64   27.12
  -5   3   1  574.96   28.91
   5  -3  -1  614.47   27.34
   5  -3  -1  586.30   36.74
  -5   3   1  580.53   38.06
  -5   3   1  586.12   29.67
   5  -3   0   27.97    8.11
  -5   3   0   25.08    4.91
  -5   3   0   24.81    4.82
  -5   3   0   20.12    7.39
  -5   3  -1 2184.42   71.14
   5  -3   1 2351.39   92.28
  -5   3  -1 2385.65   94.17
  -5   3  -1 2260.99   71.46
   5  -3   2  297.82   28.23
  -5   3  -2  288.51   28.16
  -5   3  -3   90.72   16.13
   5  -3   3  115.26   18.38
   5  -3   4 2248.19  101.75
  -5   3  -4 2307.19  100.50
   5  -3   5  132.00   22.34
   5  -3   6  467.47   45.10
   5  -3   7  297.57   37.26
   5  -3   8    2.21    5.98
   5  -3   9  145.54   28.83
  -5   2  12  824.41   64.47
  -5   2  11   49.05   14.31
  -5   2  10   11.34    8.47
  -5   2   9  852.99   55.61
  -5   2   8   43.69   11.17
  -5   2   7  956.37   53.32
  -5   2   6   22.21    6.84
  -5   2   5 1305.85   59.81
  -5   2   5 1339.31   58.63
  -5   2   4    6.85    4.18
  -5   2   4    4.21    3.68
   5  -2  -3 1558.91   60.40
  -5   2   3 1760.98   71.46
   5  -2  -3 1689.24   62.55
   5  -2  -2 1508.55   51.50
   5  -2  -2 1543.45   64.39
  -5   2   2 1565.91   68.32
   5  -2  -2 1562.60   51.95
   5  -2  -1 1551.73   47.92
   5  -2  -1 1643.21   67.55
  -5   2   1 1617.24   71.36
  -5   2   0 5985.20  160.59
   5  -2   0 6624.47  190.98
  -5   2   0 6155.72  193.09
  -5   2   0 6050.94  161.24
  -5   2  -1   94.59    7.41
  -5   2  -1   81.29    6.89
  -5   2  -1   95.67   15.73
   5  -2   1  101.08   15.51
   5  -2   2  231.88   25.42
  -5   2  -2  187.90   23.47
   5  -2   3  680.66   48.41
   5  -2   4   13.69    8.01
   5  -2   5  571.69   49.26
   5  -2   6    9.02    8.55
   5  -2   7  756.50   63.03
   5  -2   8   43.77   16.56
  -5   1  13   77.82   20.58
  -5   1  12  296.38   37.74
  -5   1  11   51.06   14.96
  -5   1  10  364.23   37.37
  -5   1   9  215.61   26.81
  -5   1   8   50.64   12.05
  -5   1   8   38.24    7.80
  -5   1   7  519.76   38.17
  -5   1   7  524.12   31.54
  -5   1   6  246.44   23.75
  -5   1   6  230.21   20.32
  -5   1   5    4.47    4.96
  -5   1   5    5.18    3.57
  -5   1   4  260.81   20.03
  -5   1   4  280.24   23.77
   5  -1  -3 1599.48   63.91
  -5   1   3 1631.33   69.23
   5  -1  -2  236.94   11.56
   5  -1  -2  211.57   19.58
  -5   1   2  233.52   23.10
   5  -1  -2  236.31   11.68
   5  -1  -1  303.64   25.12
  -5   1   1  295.60   27.19
   5  -1   0 1449.21   67.68
  -5   1   0 1669.82   75.52
  -5   1  -1    1.94    0.89
  -5   1  -1    5.98    1.62
   5  -1   2  331.70   31.90
   5  -1   3  431.44   38.63
   5  -1   4    9.21    7.34
   5  -1   5  169.97   27.26
   5  -1   6  364.00   42.16
   5  -1   7    1.31    6.38
   5  -1   8   28.95   13.01
  -5   0  13   73.13   19.66
  -5   0  12    3.62    7.14
  -5   0  11  243.16   32.65
  -5   0  10    7.12    6.46
  -5   0   9 1298.22   73.53
  -5   0   8  370.99   34.48
  -5   0   8  378.30   23.71
  -5   0   7 1925.95   85.88
  -5   0   7 1971.09   72.11
  -5   0   6   42.06   10.54
  -5   0   6   39.15    8.29
  -5   0   5   69.22   11.14
  -5   0   5   59.34   10.46
  -5   0   4 6592.78  196.12
  -5   0   4 6589.42  200.03
   5   0  -4 6625.27  190.35
   5   0  -3 1300.02   54.74
  -5   0   3 1331.57   62.82
   5   0  -2 1344.71   57.75
  -5   0   2 1252.31   63.31
   5   0  -1  132.71   16.61
   5   0   0  422.23   33.25
   5   0   1  189.26   23.38
  -5   0  -1  198.48    9.83
  -5   0  -1  198.30    9.84
  -5   0  -2   19.06    4.43
   5   0   2    5.76    5.38
   5   0   3 1837.69   90.27
  -5   0  -3 1579.20   63.90
   5   0   4  544.37   48.33
   5   0   5 1934.19  104.56
   5   0   6    7.60    8.44
   5   0   7   30.79   13.83
  -5  -1  13  326.94   43.17
  -5  -1  12   32.12   13.00
  -5  -1  11  145.54   25.72
  -5  -1  10  166.75   25.89
  -5  -1   9   24.60    9.77
  -5  -1   8 1284.17   70.40
  -5  -1   7    6.55    4.98
  -5  -1   7   10.16    3.60
  -5  -1   6   20.86    8.74
  -5  -1   6   31.73    6.03
  -5  -1   5  399.16   29.73
  -5  -1   4 1059.62   53.21
   5   1  -4 1054.72   45.35
   5   1  -3   30.02    7.07
   5   1  -2   14.48    2.59
   5   1  -2   11.56    2.29
   5   1  -2   19.74    6.66
   5   1  -1 2318.52   91.23
   5   1   0  213.53   24.21
   5   1   1  791.41   52.16
  -5  -1  -1  820.53   30.84
   5   1   2  551.58   44.87
  -5  -1  -2  492.33   26.20
   5   1   3  122.42   22.31
   5   1   4  952.06   68.29
   5   1   5   50.73   16.33
   5   1   6  110.11   24.69
  -5  -2  13  188.42   33.56
  -5  -2  12   82.15   20.97
  -5  -2  11  892.03   67.09
  -5  -2  10   49.36   14.97
  -5  -2   9  177.25   26.26
  -5  -2   8  883.61   57.64
  -5  -2   7  214.85   25.88
  -5  -2   6  774.07   34.41
  -5  -2   6  879.21   52.14
  -5  -2   5  225.95   23.56
  -5  -2   5  197.30   16.90
   5   2  -5  245.78   17.25
  -5  -2   4  673.52   43.41
   5   2  -4  689.42   34.81
   5   2  -3    7.54    2.72
   5   2  -3    7.10    2.93
   5   2  -3    4.33    3.76
   5   2  -2 1060.24   53.89
   5   2  -2 1120.36   40.26
   5   2  -2 1120.80   40.65
   5   2  -1  526.17   38.04
  -5  -2   0  117.22   10.11
   5   2   0  121.20   19.13
  -5  -2  -1 2038.93   67.76
   5   2   1 1952.63   94.75
   5   2   2   37.45   12.43
   5   2   3  150.77   25.75
   5   2   4  750.36   62.53
   5   2   5   22.69   12.80
   5   2   6   73.66   22.04
  -5  -3  13   14.05   10.47
  -5  -3  12  430.12   48.58
  -5  -3  11   72.93   19.06
  -5  -3  10  782.09   60.87
  -5  -3   9    2.60    5.37
  -5  -3   8  925.35   60.88
  -5  -3   7  111.39   18.72
  -5  -3   6  263.15   27.64
  -5  -3   6  231.47   26.62
  -5  -3   5 2747.83  113.40
  -5  -3   5 2947.62  116.16
   5   3  -5 3080.85   94.47
  -5  -3   4 1154.44   63.71
   5   3  -4 1237.12   52.27
  -5  -3   3 3006.87  119.67
   5   3  -3 3039.10  107.03
   5   3  -3 3019.00   96.09
   5   3  -2   12.74    4.01
   5   3  -2    3.86    3.75
   5   3  -1  205.52   24.30
  -5  -3   0 1244.18   50.21
   5   3   0 1383.40   74.19
   5   3   1    8.20    6.59
   5   3   2  282.96   35.40
   5   3   3   28.36   13.56
   5   3   4 1155.17   83.25
   5   3   5   56.50   18.55
  -5  -4  12   92.85   23.08
  -5  -4  11    1.86    7.87
  -5  -4  10  160.13   27.23
  -5  -4   9  696.76   55.95
  -5  -4   8   15.92    7.56
  -5  -4   7   68.33   15.36
  -5  -4   6  885.09   56.95
  -5  -4   6  861.87   55.63
  -5  -4   5   21.35    8.96
  -5  -4   5   29.75   10.19
   5   4  -5   24.23    5.99
  -5  -4   4  106.04   18.50
   5   4  -4  132.44   15.35
   5   4  -4  103.18   13.09
  -5  -4   3  393.11   37.18
   5   4  -3  370.71   29.95
   5   4  -3  413.46   27.05
   5   4  -2    4.46    3.73
   5   4  -2   -2.85    4.40
   5   4  -1    5.51    4.83
   5   4   0  760.13   55.89
   5   4   1   13.69    8.48
   5   4   2    7.56    7.02
   5   4   3  665.85   60.98
   5   4   4    3.03    6.44
  -5  -5  12  567.64   58.30
  -5  -5  11  153.16   28.57
  -5  -5  10  753.03   62.13
  -5  -5   9  293.09   36.15
  -5  -5   8  427.62   42.65
  -5  -5   7 1941.83   95.68
  -5  -5   6  150.37   23.46
  -5  -5   6  162.20   23.66
  -5  -5   5  489.26   43.04
   5   5  -5  519.46   30.71
  -5  -5   5  502.45   41.83
   5   5  -5  481.35   34.09
  -5  -5   4   47.47   13.48
   5   5  -4   48.89   10.04
   5   5  -4   56.77   11.00
  -5  -5   3  108.00   20.70
   5   5  -3  132.07   16.46
   5   5  -3  122.90   17.83
  -5  -5   2  198.99   28.49
   5   5  -2  189.90   24.74
   5   5  -2  226.03   22.45
   5   5  -1   36.88   11.71
   5   5   0 1473.44   85.55
   5   5   1  429.95   45.83
   5   5   2  873.60   70.35
   5   5   3  293.60   41.79
  -5  -6  12  140.85   29.50
  -5  -6  11  408.23   48.11
  -5  -6  10   -0.49    6.21
  -5  -6   9   57.51   17.13
  -5  -6   8   19.54    9.94
  -5  -6   7  326.26   35.96
  -5  -6   6  392.71   38.61
   5   6  -6  395.67   33.75
  -5  -6   5   20.45   10.71
  -5  -6   5   23.42    8.73
   5   6  -5    2.07    3.83
  -5  -6   4 1586.09   89.72
   5   6  -4 1584.85   73.47
  -5  -6   4 1626.37   83.99
   5   6  -4 1829.26   77.99
  -5  -6   3  128.18   23.53
   5   6  -3  143.88   19.34
   5   6  -3  128.35   19.84
  -5  -6   2  257.05   34.00
   5   6  -2  278.59   32.08
  -5  -6   1  879.49   67.16
   5   6  -1  966.05   66.33
   5   6   0  108.52   22.93
   5   6   1  366.83   44.32
   5   6   2   32.00   14.07
  -5  -7  11  561.21   58.19
  -5  -7  10   -9.44    8.80
  -5  -7   9  165.03   28.87
  -5  -7   8   35.99   12.98
   5   7  -7  306.82   32.14
  -5  -7   7  255.47   33.18
   5   7  -6   24.94    9.77
  -5  -7   6   33.08   11.69
  -5  -7   5  328.87   39.26
  -5  -7   5  276.17   32.44
   5   7  -5  372.54   33.92
  -5  -7   4  248.73   33.75
  -5  -7   4  210.82   27.80
   5   7  -4  272.49   28.80
  -5  -7   3   90.27   20.56
  -5  -7   2  885.44   68.75
   5   7  -2  890.28   63.75
  -5  -7   1   26.13   12.66
   5   7  -1   31.76   11.94
  -5  -7   0   10.89    9.88
   5   7   0   -0.24    2.52
   5   7   1  194.20   33.51
  -5  -8  11  400.22   49.83
  -5  -8  10   24.14   12.69
  -5  -8   9    2.30    6.37
   5   8  -9   -1.57    4.76
   5   8  -8  995.59   65.64
  -5  -8   8  818.55   65.87
   5   8  -7  302.10   33.81
  -5  -8   7  273.71   35.39
   5   8  -6  993.92   63.58
  -5  -8   5   33.68   14.69
   5   8  -5   52.00   13.57
  -5  -8   4    1.00    7.10
  -5  -8   3  378.44   44.68
  -5  -8   2   48.45   16.06
  -5  -8   1  279.42   39.32
   5   8  -1  341.26   42.25
  -5  -8   0   37.45   15.63
  -5  -9  10   33.72   14.10
   5   9  -9  105.40   22.53
   5   9  -8   19.60   10.21
   5   9  -7   63.89   16.96
  -5  -9   4   31.00   13.50
  -5  -9   3  337.18   44.11
   6 -11  -3   13.21   10.16
   6 -11  -2  584.56   56.52
   6 -11  -1    6.61    7.83
  -6  11   1   12.61    8.94
  -6  11   0  307.75   39.68
  -6  11  -1  229.18   33.50
  -6  11  -2    5.73    6.74
  -6  11  -3  331.92   39.85
  -6  11  -4   77.15   18.99
  -6  11  -5   50.19   15.50
  -6  11  -5   61.54   17.06
  -6  11  -6    3.84    5.75
   6 -10  -5   17.67   10.60
   6 -10  -4   39.93   15.12
   6 -10  -3  329.39   40.22
   6 -10  -2   -3.43    6.30
   6 -10  -1  517.69   48.78
  -6  10   1  626.50   55.03
   6 -10   0   24.27   10.82
  -6  10   0   25.10   11.77
  -6  10  -1  671.77   55.08
  -6  10  -2   76.60   17.88
  -6  10  -3  446.87   43.34
  -6  10  -4  411.70   42.45
  -6  10  -4  539.59   49.09
  -6  10  -5  328.62   38.11
  -6  10  -5  398.61   42.11
  -6  10  -6 1049.38   72.05
  -6  10  -7    8.67    8.17
   6  -9  -6  138.91   27.76
   6  -9  -5    2.02    5.45
   6  -9  -4   38.21   13.68
   6  -9  -3  154.97   25.67
   6  -9  -2    8.45    6.95
   6  -9  -1  174.07   25.73
  -6   9   1  152.35   24.78
   6  -9   0  474.25   42.26
  -6   9   0  469.69   43.14
  -6   9  -1   45.25   13.52
  -6   9  -2  291.23   32.32
  -6   9  -3  456.27   41.00
  -6   9  -4   10.30    6.10
  -6   9  -4   11.36    7.64
  -6   9  -5   62.87   15.55
  -6   9  -5   70.03   16.85
  -6   9  -6  189.30   27.83
   6  -8  -8  177.32   33.30
   6  -8  -7   63.19   18.80
   6  -8  -6   52.73   16.94
   6  -8  -5  103.46   21.80
   6  -8  -4    8.43    6.85
   6  -8  -3  745.64   54.54
   6  -8  -2  264.35   30.28
  -6   8   2  331.04   35.63
   6  -8  -1 1434.34   75.07
  -6   8   1 1417.85   77.66
   6  -8   0    4.96    4.27
  -6   8   0    4.45    5.98
  -6   8  -1  107.47   18.11
  -6   8  -2 1961.96   89.84
  -6   8  -3  109.65   18.55
  -6   8  -3  133.93   22.31
  -6   8  -4  431.45   37.74
  -6   8  -4  459.39   42.48
  -6   8  -5   27.56    9.79
  -6   8  -5   51.23   14.62
  -6   8  -6  291.07   32.61
  -6   8  -6  295.54   34.40
   6  -8   7  118.89   23.14
   6  -7  -9   15.91   12.59
   6  -7  -8    8.95   10.28
   6  -7  -7  741.03   63.55
   6  -7  -6  109.40   22.45
   6  -7  -5  425.96   42.15
   6  -7  -4  243.42   29.43
   6  -7  -3   63.02   14.14
   6  -7  -2 1908.02   86.37
  -6   7   2 1924.17   90.78
   6  -7  -1   -2.12    3.30
  -6   7   1   10.88    6.35
   6  -7   0  275.81   26.65
  -6   7   0  226.15   25.25
  -6   7  -1   51.62   11.63
  -6   7  -2  716.81   45.93
  -6   7  -2  844.86   55.77
  -6   7  -3  244.30   29.08
  -6   7  -3  191.90   22.42
   6  -7   4   14.12    6.92
  -6   7  -4   31.63    9.39
  -6   7  -4   21.34    9.70
  -6   7  -5 1357.40   71.13
   6  -7   5 1405.63   81.70
  -6   7  -5 1493.41   80.99
   6  -7   6  131.90   23.54
  -6   7  -6  134.77   23.00
   6  -7   7  485.73   48.50
   6  -6  -9    0.70    5.73
   6  -6  -8  221.07   34.87
   6  -6  -7   83.52   20.66
   6  -6  -6    4.14    4.67
  -6   6   5 1007.41   45.77
   6  -6  -5  953.15   62.76
   6  -6  -4   22.53    8.20
  -6   6   4   29.16    6.94
   6  -6  -3  164.82   20.93
   6  -6  -2 1232.49   60.79
   6  -6  -1    9.75    5.39
  -6   6   1    7.01    4.35
  -6   6   0   96.04   14.60
  -6   6  -1  403.21   30.10
  -6   6  -1  377.09   35.17
  -6   6  -2  256.06   23.53
   6  -6   2  289.14   31.19
  -6   6  -2  260.98   29.38
   6  -6   3    9.19    6.78
  -6   6  -3   10.12    3.87
  -6   6  -3   -2.68    5.85
   6  -6   4  352.60   36.69
  -6   6  -4  366.47   30.30
  -6   6  -4  414.23   38.47
   6  -6   5  111.96   21.80
  -6   6  -5  105.87   19.36
   6  -6   6   15.26    9.75
  -6   6  -6   18.82    8.93
   6  -6   7  469.91   47.68
   6  -6   8    5.47    7.51
   6  -5 -10  220.57   37.48
   6  -5  -9  949.87   75.88
   6  -5  -8   18.66   11.79
   6  -5  -7   42.19   14.44
  -6   5   7   28.27    8.10
  -6   5   6  854.70   45.90
   6  -5  -6  903.00   62.09
   6  -5  -5  120.27   19.70
  -6   5   5   96.61   13.07
   6  -5  -4  880.52   52.62
   6  -5  -3   22.49    7.43
  -6   5   3   28.94    4.09
   6  -5  -2 2359.08   87.92
   6  -5  -1  274.76   22.00
  -6   5   1  224.06   21.39
  -6   5   0  170.42   17.38
  -6   5   0  149.18   20.85
  -6   5  -1 2545.83   89.26
   6  -5   1 2495.67  105.17
  -6   5  -1 2452.08  105.57
   6  -5   2  924.75   58.48
  -6   5  -2 1012.07   60.97
  -6   5  -2 1031.37   47.70
   6  -5   3 1752.06   88.31
  -6   5  -3 1858.92   72.88
  -6   5  -3 1914.59   90.71
   6  -5   4   61.80   15.02
  -6   5  -4   34.95   11.31
  -6   5  -5   63.83   15.78
   6  -5   5   55.61   15.84
   6  -5   6  423.37   43.98
   6  -5   7   29.27   12.27
   6  -5   8  209.19   33.67
   6  -4 -11    7.55   10.19
   6  -4 -10   70.70   21.12
   6  -4  -9   89.97   22.28
  -6   4   9  130.59   20.12
   6  -4  -8   80.87   20.43
  -6   4   8   72.26   14.20
   6  -4  -7   13.63    9.14
  -6   4   7   24.08    7.69
  -6   4   6  643.38   39.79
   6  -4  -6  682.25   50.34
   6  -4  -5   11.01    6.08
  -6   4   5   12.59    5.47
   6  -4  -4    6.96    4.80
  -6   4   4    9.21    2.70
   6  -4  -3 2222.10   83.52
  -6   4   2  221.08   24.48
   6  -4  -2  198.47   17.42
   6  -4  -1  253.94   18.49
  -6   4   1  213.59   18.63
   6  -4  -1  271.12   27.05
  -6   4   1  255.63   26.86
  -6   4   0  583.16   30.39
   6  -4   0  540.66   40.04
  -6   4   0  575.85   42.61
   6  -4   1  124.04   18.83
  -6   4  -1  135.92   13.07
  -6   4  -1  140.23   20.91
   6  -4   2  387.45   35.13
  -6   4  -2  348.84   22.71
  -6   4  -2  370.94   34.96
   6  -4   3  380.98   36.65
  -6   4  -3  414.99   37.90
   6  -4   4  348.41   36.98
  -6   4  -4  445.18   40.57
   6  -4   5   -0.05    4.63
   6  -4   6  967.29   69.68
   6  -4   7   27.12   12.00
   6  -4   8   -5.70    7.38
  -6   3  11  111.64   21.20
  -6   3  10   27.34   10.67
  -6   3   9    6.93    5.65
  -6   3   8  283.81   28.99
  -6   3   7    2.52    3.79
  -6   3   6 1295.83   61.53
   6  -3  -6 1218.51   68.99
  -6   3   5  820.26   47.62
   6  -3  -5  792.06   49.33
  -6   3   4 2295.14   74.66
  -6   3   4 2206.91   90.80
   6  -3  -4 2110.00   84.60
  -6   3   3  978.00   53.77
   6  -3  -3  899.83   42.27
   6  -3  -2  333.06   19.73
   6  -3  -2  330.17   28.43
  -6   3   2  340.59   30.58
   6  -3  -2  329.89   19.67
   6  -3  -1 2996.07  112.90
  -6   3   1 3100.24  118.22
   6  -3   0   20.20    7.43
  -6   3   0   15.32    3.76
  -6   3   0   16.40    3.75
  -6   3   0   12.67    7.20
   6  -3   1  822.45   51.44
  -6   3  -1  782.99   30.99
  -6   3  -1  755.44   50.95
  -6   3  -1  747.04   30.51
  -6   3  -2  184.60   24.57
  -6   3  -2  161.60   12.67
   6  -3   2  129.93   20.55
   6  -3   3  317.91   34.00
  -6   3  -3  330.96   34.75
   6  -3   4   20.54   10.14
   6  -3   5   38.04   14.32
   6  -3   6  886.06   68.19
   6  -3   7  239.60   36.01
   6  -3   8  239.31   37.84
  -6   2  13   36.59   14.19
  -6   2  12  169.38   28.29
  -6   2  11   43.89   14.30
  -6   2  10  869.68   60.04
  -6   2   9  137.98   21.45
  -6   2   8  516.38   40.87
  -6   2   8  551.48   36.22
  -6   2   7 1634.83   75.81
  -6   2   7 1646.43   71.84
  -6   2   6  339.13   29.81
  -6   2   6  362.82   29.45
  -6   2   5 2342.97   80.36
  -6   2   5 2187.00   90.29
   6  -2  -4   56.69   10.33
  -6   2   4   37.21    7.68
  -6   2   4   55.09   11.68
   6  -2  -3  776.31   35.05
   6  -2  -3  926.88   48.04
  -6   2   3  891.31   51.22
   6  -2  -3  822.80   36.14
   6  -2  -2    3.92    3.92
   6  -2  -2    2.76    1.44
   6  -2  -2    5.16    1.97
   6  -2  -1  422.14   32.89
  -6   2   1  491.16   37.97
   6  -2   0  516.49   38.99
  -6   2   0  667.03   45.99
   6  -2   1  312.53   30.72
  -6   2  -1  254.13   10.74
  -6   2  -1  334.47   33.30
   6  -2   2 3415.23  136.61
  -6   2  -2 3680.67  141.94
   6  -2   3  435.46   41.11
   6  -2   4  268.88   33.66
   6  -2   5  932.44   68.77
   6  -2   6   33.34   12.72
   6  -2   7  368.69   46.13
  -6   1  13  126.18   26.94
  -6   1  12    4.85    7.14
  -6   1  11  143.39   24.80
  -6   1  10   72.45   16.88
  -6   1   9    8.75    8.49
  -6   1   8  879.71   54.95
  -6   1   8  816.97   44.87
  -6   1   7    3.30    4.41
  -6   1   7   15.71    6.17
  -6   1   6   43.23   10.85
  -6   1   6   61.50   11.83
  -6   1   5 1112.94   51.19
  -6   1   5 1047.89   55.25
  -6   1   4  194.41   19.41
  -6   1   4  188.94   21.80
   6  -1  -3   12.54    5.15
   6  -1  -3    8.43    3.00
   6  -1  -3   12.88    3.17
  -6   1   3    8.58    6.21
   6  -1  -2  404.22   31.30
  -6   1   2  463.53   36.83
   6  -1  -1  312.16   28.45
  -6   1   1  268.11   28.94
  -6   1   0    4.89    5.56
   6  -1   0   32.77    9.72
   6  -1   1  832.33   54.04
   6  -1   2  232.20   28.85
   6  -1   3   63.54   15.86
   6  -1   4  539.14   50.10
   6  -1   5  234.16   33.84
   6  -1   6   14.47   10.50
   6  -1   7  202.09   35.35
  -6   0  13  145.81   28.95
  -6   0  12  577.47   54.66
  -6   0  11   -1.50    5.47
  -6   0  10   25.41   10.66
  -6   0   9  944.63   61.78
  -6   0   8   -4.95    5.22
  -6   0   8    5.93    4.16
  -6   0   7  704.96   48.02
  -6   0   7  760.87   43.03
  -6   0   6  430.40   31.00
  -6   0   6  332.74   31.96
  -6   0   6  359.06   29.42
  -6   0   5 2231.13   87.14
  -6   0   5 2158.16   90.46
   6   0  -4    9.03    3.95
  -6   0   4    9.39    5.13
  -6   0   4    9.51    5.89
  -6   0   3    8.81    6.23
   6   0  -3   12.94    5.97
   6   0  -2 3154.82  114.21
   6   0  -1 1278.55   64.68
   6   0   0 2227.96   97.96
   6   0   1  254.03   29.44
   6   0   2   12.09    7.36
   6   0   3  318.82   37.12
   6   0   4   87.80   20.78
   6   0   5  566.38   55.58
   6   0   6   86.30   21.90
  -6  -1  13  113.98   25.44
  -6  -1  12   23.12   12.18
  -6  -1  11  209.97   30.77
  -6  -1  10   15.12    9.37
  -6  -1   9  875.68   60.74
  -6  -1   8  176.67   25.09
  -6  -1   7  153.15   22.18
  -6  -1   6 2363.62   95.77
  -6  -1   6 2361.82  100.82
   6   1  -5   57.33    9.92
  -6  -1   5   56.63   12.00
  -6  -1   4  539.80   38.58
   6   1  -4  439.32   30.04
   6   1  -3  574.42   22.51
   6   1  -3  557.44   36.39
   6   1  -3  603.26   22.96
   6   1  -2   91.90   15.07
   6   1  -1  282.67   28.61
   6   1   0  295.42   30.97
   6   1   1  948.91   62.34
   6   1   2  316.39   36.28
   6   1   3  879.96   66.30
   6   1   4  245.08   35.55
   6   1   5   14.60   10.99
  -6  -2  13  107.86   25.20
  -6  -2  12   18.83   10.93
  -6  -2  11   86.32   20.64
  -6  -2  10    0.59    4.60
  -6  -2   9 1559.49   86.22
  -6  -2   8  151.62   23.45
  -6  -2   7  436.82   39.13
  -6  -2   6  761.36   49.06
  -6  -2   6  709.47   50.72
  -6  -2   5  167.28   21.99
   6   2  -5  184.70   17.48
  -6  -2   4 1699.41   81.19
   6   2  -4 1646.02   68.53
   6   2  -3    6.08    2.64
   6   2  -3    3.85    4.67
   6   2  -2   15.40    7.26
   6   2  -1  113.18   18.59
   6   2   0  886.85   58.89
   6   2   1   41.64   12.93
   6   2   2   15.20    9.51
   6   2   3 1061.29   76.12
   6   2   4   21.96   11.81
  -6  -3  12   30.34   13.52
  -6  -3  11   14.10    9.51
  -6  -3  10 1145.73   76.83
  -6  -3   9  201.67   29.73
  -6  -3   8  988.01   65.32
  -6  -3   7    6.82    6.38
  -6  -3   6  599.90   46.55
  -6  -3   6  621.08   48.53
   6   3  -6  709.30   34.18
  -6  -3   5   77.98   16.10
   6   3  -5   64.25   10.44
  -6  -3   4  404.25   37.87
   6   3  -4  409.23   30.26
   6   3  -4  418.49   25.23
   6   3  -3 1174.52   60.29
   6   3  -3 1163.82   46.60
   6   3  -2  702.58   47.58
   6   3  -1 2912.88  121.02
   6   3   0   66.47   15.83
   6   3   1   12.72    9.34
   6   3   2  632.19   56.53
   6   3   3   16.17   10.50
   6   3   4  470.54   53.32
  -6  -4  12    9.85    9.86
  -6  -4  11  186.75   31.61
  -6  -4  10  232.24   34.05
  -6  -4   9   12.65    8.66
  -6  -4   8  245.28   32.09
  -6  -4   7  248.88   31.40
  -6  -4   6   23.76   10.81
  -6  -4   6   -1.82    6.29
  -6  -4   5  546.09   46.54
   6   4  -5  593.16   35.58
   6   4  -5  605.10   35.59
  -6  -4   4  288.69   33.26
   6   4  -4  297.57   26.90
   6   4  -4  327.94   24.19
  -6  -4   3   66.28   16.55
   6   4  -3   83.28   15.23
   6   4  -2  399.39   36.65
   6   4  -1  374.87   37.63
   6   4   0    3.94    5.45
   6   4   1   58.13   16.90
   6   4   2  295.19   39.50
   6   4   3   47.47   18.00
  -6  -5  12  327.68   44.58
  -6  -5  11    8.49    9.10
  -6  -5  10  454.55   49.01
  -6  -5   9   87.45   20.16
  -6  -5   8  429.34   43.49
  -6  -5   7   42.29   14.01
  -6  -5   6   37.99   13.20
  -6  -5   6   41.91   12.85
   6   5  -6   37.33    9.68
  -6  -5   5 2396.06  115.45
  -6  -5   5 2402.32  111.77
   6   5  -5 2476.26   93.96
  -6  -5   4  308.65   36.93
   6   5  -4  325.93   29.72
  -6  -5   3  431.83   44.56
   6   5  -3  440.38   37.94
  -6  -5   2  269.89   36.01
   6   5  -2  337.91   35.07
   6   5  -1   51.32   14.95
   6   5   0  242.62   34.06
   6   5   1    6.09    5.56
   6   5   2  308.45   42.69
  -6  -6  11  280.18   40.31
  -6  -6  10   44.08   17.41
  -6  -6   9 1073.16   76.65
  -6  -6   8   43.52   13.86
   6   6  -7  131.72   19.53
  -6  -6   7  121.35   22.85
  -6  -6   6  338.19   40.05
  -6  -6   6  403.37   41.14
   6   6  -6  389.91   33.21
  -6  -6   5  112.21   22.68
  -6  -6   5   88.69   19.42
  -6  -6   4   77.45   20.05
  -6  -6   4  104.28   20.49
  -6  -6   3   -3.37    7.90
   6   6  -3   -2.70    3.91
  -6  -6   2 1048.85   76.76
   6   6  -2 1062.68   69.44
  -6  -6   1   53.40   17.05
   6   6  -1   81.24   19.95
   6   6   0  305.66   40.32
   6   6   1  229.97   36.30
  -6  -7  11   -4.57    8.98
  -6  -7  10   87.76   22.81
  -6  -7   9  342.31   43.19
   6   7  -8   43.81   12.63
  -6  -7   8   47.67   15.67
  -6  -7   7  272.10   35.60
   6   7  -7  229.31   27.40
  -6  -7   6  191.53   31.70
  -6  -7   6  246.08   33.02
  -6  -7   5   57.05   17.41
  -6  -7   5   34.33   12.32
  -6  -7   4   10.28    7.91
  -6  -7   3  260.80   37.64
  -6  -7   2   60.44   19.05
  -6  -7   1    3.62    7.13
   6   7  -1   -3.10    6.57
  -6  -8  10   -3.04    6.94
   6   8 -10  -13.29    8.72
  -6  -8   9  136.56   28.02
   6   8  -9  142.06   24.25
  -6  -8   8   30.69   13.36
  -6  -8   5  378.45   46.81
  -6  -8   4  727.37   66.51
   7 -11  -3   27.38   12.69
   7 -11  -2   41.32   15.49
   7 -11  -1   40.71   14.97
  -7  11   1   70.07   19.44
  -7  11   0  404.77   45.75
  -7  11  -1  118.46   24.44
  -7  11  -2  298.06   37.81
  -7  11  -3  136.68   25.73
  -7  11  -4   12.39    8.59
  -7  11  -4    8.97    8.85
  -7  11  -5  224.98   33.35
   7 -10  -5   44.52   15.95
   7 -10  -4  818.18   66.52
   7 -10  -3  258.31   35.12
   7 -10  -2  135.51   24.94
   7 -10  -1  531.74   48.88
  -7  10   1  572.03   52.73
  -7  10   0  116.13   23.00
  -7  10  -1  506.32   47.30
  -7  10  -2    4.25    6.14
  -7  10  -3  535.17   47.90
  -7  10  -3  536.61   51.27
  -7  10  -4   10.60    7.69
  -7  10  -4    7.31    6.85
  -7  10  -5  258.00   35.67
   7  -9  -6    7.33    8.29
   7  -9  -5  296.31   38.21
   7  -9  -4   24.52   11.27
   7  -9  -3   18.28    9.78
   7  -9  -2  360.11   37.73
   7  -9  -1  321.26   34.67
  -7   9   1  283.77   33.89
  -7   9   0   16.48    8.38
  -7   9  -1  279.03   32.14
  -7   9  -2  331.55   34.67
  -7   9  -2  308.58   37.24
  -7   9  -3    6.19    5.73
  -7   9  -3    8.67    7.06
  -7   9  -4  433.81   40.39
  -7   9  -4  445.06   46.18
  -7   9  -5   37.63   14.06
   7  -8  -8  494.50   55.00
   7  -8  -7  213.89   34.22
   7  -8  -6  765.83   62.84
   7  -8  -5   43.62   14.52
   7  -8  -4    7.62    6.18
   7  -8  -3  401.76   38.35
   7  -8  -2   59.41   14.07
   7  -8  -1  634.40   46.05
  -7   8   1  577.18   46.26
  -7   8   0  128.85   20.80
  -7   8  -1 1033.13   60.52
  -7   8  -1  996.56   66.85
  -7   8  -2    6.87    5.21
  -7   8  -2    5.26    6.72
  -7   8  -3   23.44    8.84
  -7   8  -3   21.57   10.48
  -7   8  -4 1052.72   71.32
  -7   8  -5  352.70   39.35
   7  -8   6  375.43   43.84
   7  -8   7   60.30   19.48
   7  -7  -9   95.42   24.17
   7  -7  -8    2.85    7.14
   7  -7  -7  216.70   33.30
   7  -7  -6   35.97   13.56
   7  -7  -5  525.66   46.02
   7  -7  -4  170.09   24.14
   7  -7  -3 1022.85   60.16
   7  -7  -2  245.22   26.21
   7  -7  -1  113.50   17.23
  -7   7   1  142.96   20.34
  -7   7   0 1988.85   86.63
  -7   7   0 1905.48   95.91
  -7   7  -1  140.54   19.30
  -7   7  -1  164.31   25.16
  -7   7  -2  512.10   37.50
  -7   7  -2  559.27   48.19
   7  -7   3  155.81   25.65
  -7   7  -3  142.43   19.33
  -7   7  -3  184.60   27.40
   7  -7   4   94.80   21.52
  -7   7  -4  128.60   23.23
   7  -7   5   84.42   19.79
  -7   7  -5  109.46   21.52
   7  -7   6    6.87    5.82
   7  -7   7  622.10   58.54
   7  -6 -10  323.46   45.77
   7  -6  -9    2.09    9.18
   7  -6  -8   -3.81    7.90
   7  -6  -7  168.84   27.92
   7  -6  -6  222.87   29.69
   7  -6  -5   11.54    6.95
  -7   6   5   11.14    4.92
   7  -6  -4   12.55    6.72
   7  -6  -3 1130.86   59.41
   7  -6  -2   60.12   11.48
   7  -6  -1  304.16   25.65
  -7   6   1  354.20   29.79
  -7   6   1  338.14   34.82
  -7   6   0  500.31   34.81
  -7   6   0  557.82   45.62
   7  -6   1    3.75    7.11
  -7   6  -1   20.95    6.86
  -7   6  -1   13.92    7.91
  -7   6  -2  681.97   40.26
   7  -6   2  659.36   51.55
  -7   6  -2  694.26   53.76
   7  -6   3  301.52   35.36
  -7   6  -3  332.59   36.33
   7  -6   4    0.44    7.69
  -7   6  -4   -2.85    7.48
   7  -6   5   32.99   13.47
  -7   6  -5   45.23   13.19
   7  -6   6  385.04   45.00
  -7   6  -6  478.30   46.90
   7  -6   7    6.96    7.39
   7  -5 -10   11.67    9.91
   7  -5  -9  288.71   40.03
   7  -5  -8  290.54   37.53
  -7   5   7 2047.03   86.55
   7  -5  -7 2026.39  104.07
   7  -5  -6   74.99   16.69
  -7   5   6   87.58   13.96
   7  -5  -5    9.15    6.18
  -7   5   5    5.99    4.47
   7  -5  -4 1532.85   71.52
  -7   5   3  274.67   29.81
   7  -5  -3  280.27   24.48
   7  -5  -2 1363.51   57.70
  -7   5   2 1161.72   68.33
   7  -5  -1   53.98    9.45
  -7   5   1   48.12    9.53
  -7   5   0  525.29   32.29
   7  -5   0  567.83   44.69
  -7   5   0  626.40   48.08
   7  -5   1   20.33    9.75
  -7   5  -1   23.00    6.23
  -7   5  -1   25.94   10.55
   7  -5   2  323.72   34.95
  -7   5  -2  329.42   35.52
   7  -5   3  791.75   58.72
  -7   5  -3  819.78   59.14
   7  -5   4  656.20   54.96
  -7   5  -4  688.86   55.40
   7  -5   5 1770.81  101.54
  -7   5  -5 2087.39  105.55
   7  -5   6    1.20    5.47
   7  -5   7   74.38   20.67
   7  -4 -11  316.84   45.74
   7  -4 -10   36.14   15.04
   7  -4  -9   16.31   11.61
  -7   4   9   11.93    6.51
  -7   4   8  526.38   40.39
   7  -4  -8  458.77   46.71
   7  -4  -7  127.59   22.20
  -7   4   7  121.77   18.41
   7  -4  -6   55.89   14.16
  -7   4   6   34.84    9.45
   7  -4  -5   42.26   10.55
  -7   4   5   46.39   12.05
  -7   4   4  706.33   33.89
  -7   4   4  719.46   48.80
   7  -4  -4  696.48   41.38
   7  -4  -3    4.31    2.73
  -7   4   3   16.32    7.76
   7  -4  -2  345.29   22.35
  -7   4   2  321.01   32.99
   7  -4  -1 1206.38   66.06
  -7   4   1 1203.01   69.10
  -7   4   0  227.56   16.82
   7  -4   0  196.81   25.37
  -7   4   0  241.69   29.04
   7  -4   1 1224.97   71.16
  -7   4  -1 1321.72   74.64
   7  -4   2  474.24   42.96
  -7   4  -2  437.66   41.46
  -7   4  -3    2.81    6.00
   7  -4   3    3.46    5.81
   7  -4   4  365.77   40.61
  -7   4  -4  359.18   39.77
   7  -4   5  219.09   32.46
   7  -4   6  196.80   32.44
   7  -4   7   18.42   11.87
  -7   3  11  701.24   55.92
  -7   3  10  299.91   33.91
  -7   3   9  256.77   29.64
  -7   3   9  261.35   27.15
  -7   3   8  235.35   26.94
  -7   3   8  234.80   25.81
  -7   3   7    7.49    5.58
  -7   3   7   10.84    6.03
   7  -3  -7   -8.04    6.55
  -7   3   6  448.93   35.47
  -7   3   6  433.49   36.16
   7  -3  -6  387.31   35.51
   7  -3  -5   33.70    9.05
  -7   3   5   43.79    7.96
  -7   3   5   35.98   11.50
  -7   3   4 1081.90   49.06
  -7   3   4 1030.62   60.74
   7  -3  -4 1027.97   49.01
   7  -3  -3   52.32    7.87
  -7   3   3   58.05   14.14
   7  -3  -2 1762.23   58.43
   7  -3  -2 1838.68   82.96
  -7   3   2 1965.36   89.93
   7  -3  -1   54.65   13.19
  -7   3   1   56.08   13.85
   7  -3   0   94.93   17.47
  -7   3   0  100.49   18.58
   7  -3   1 2612.37  113.87
  -7   3  -1 2615.15  116.87
  -7   3  -2  161.55   25.51
   7  -3   2  147.40   23.85
   7  -3   3  149.36   25.32
   7  -3   4  149.08   26.05
   7  -3   5   92.48   21.72
   7  -3   6  127.19   26.39
  -7   2  13   82.59   21.32
  -7   2  12  215.83   32.33
  -7   2  11    1.46    4.87
  -7   2  10  222.34   29.62
  -7   2   9   -2.62    4.66
  -7   2   8 1627.25   81.01
  -7   2   8 1638.34   76.34
  -7   2   7  344.53   32.78
  -7   2   7  313.23   29.97
  -7   2   6  573.10   34.58
  -7   2   6  563.15   41.54
  -7   2   5  669.52   38.22
  -7   2   5  668.59   46.23
   7  -2  -5  667.16   40.48
  -7   2   4  451.72   38.15
   7  -2  -4  507.04   29.19
   7  -2  -3 3500.71  102.73
   7  -2  -3 3708.29  130.65
  -7   2   3 3443.41  135.31
   7  -2  -3 3678.49  103.19
   7  -2  -2  176.38   21.80
  -7   2   2  148.02   22.19
   7  -2  -1  260.52   27.89
  -7   2   1  247.91   29.65
   7  -2   0  357.59   34.42
  -7   2   0  361.35   37.32
   7  -2   1  475.29   41.93
  -7   2  -1  429.29   42.17
   7  -2   2  216.37   29.08
   7  -2   3   87.38   19.54
   7  -2   4 1388.45   87.42
   7  -2   5  173.26   30.47
   7  -2   6  286.91   41.20
  -7   1  13  138.92   27.50
  -7   1  12   89.96   21.20
  -7   1  11    9.03    8.24
  -7   1  10    6.95    5.97
  -7   1   9  395.73   38.72
  -7   1   8   84.44   17.19
  -7   1   8   64.58   12.72
  -7   1   7   62.28   14.83
  -7   1   7   46.09   10.98
  -7   1   6  801.13   45.38
  -7   1   6  799.85   50.31
  -7   1   5   15.22    6.12
  -7   1   5   16.56    7.41
   7  -1  -4  228.70   23.38
  -7   1   4  248.48   28.12
   7  -1  -4  255.09   18.01
   7  -1  -3 1179.39   60.39
  -7   1   3 1132.53   66.74
  -7   1   2    2.01    5.10
   7  -1  -2    3.16    4.17
  -7   1   1   12.76    8.18
   7  -1  -1   27.31    9.28
   7  -1   0  919.01   59.18
   7  -1   1   43.38   12.84
   7  -1   2   22.32   10.99
   7  -1   3  626.78   55.31
   7  -1   4   28.68   13.13
   7  -1   5   62.74   19.25
  -7   0  13    2.89    7.23
  -7   0  12  573.09   55.25
  -7   0  11  438.20   45.69
  -7   0  10 1075.57   71.48
  -7   0   9    5.82    6.33
  -7   0   8   15.92    8.59
  -7   0   8   13.70    7.02
  -7   0   7 1698.71   84.43
  -7   0   7 1637.22   77.84
  -7   0   6  379.37   31.51
  -7   0   6  336.58   32.45
  -7   0   5  986.60   56.44
   7   0  -5 1136.59   55.11
  -7   0   5 1056.80   62.44
   7   0  -4    2.00    3.42
   7   0  -3  843.40   49.55
   7   0  -2   62.77   13.45
   7   0  -1  101.94   18.02
   7   0   0 2051.86   98.06
   7   0   1  710.08   55.19
   7   0   2 1404.97   84.94
   7   0   3   14.52    9.59
   7   0   4   24.34   11.13
   7   0   5  511.27   56.04
  -7  -1  13  184.66   32.91
  -7  -1  12    1.03    8.06
  -7  -1  11  187.67   29.86
  -7  -1  10   13.91    9.68
  -7  -1   9  170.70   26.54
  -7  -1   8   50.74   14.16
  -7  -1   7  581.72   43.20
  -7  -1   7  595.16   47.59
  -7  -1   6   16.85    7.34
   7   1  -5   23.14    7.18
  -7  -1   5   35.61   10.48
   7   1  -4 2926.01  108.46
   7   1  -3  299.54   28.46
   7   1  -2  449.55   37.54
   7   1  -1  504.94   42.35
   7   1   0    2.17    4.83
   7   1   1  504.75   47.13
   7   1   2   70.86   18.98
   7   1   3  330.66   41.90
   7   1   4    4.54    7.61
  -7  -2  12   27.14   13.75
  -7  -2  11  166.88   28.76
  -7  -2  10    1.43    5.27
  -7  -2   9  334.60   37.85
  -7  -2   8   52.03   14.43
  -7  -2   7  436.11   38.99
  -7  -2   7  476.48   43.05
  -7  -2   6   99.61   18.84
   7   2  -6  134.30   15.71
  -7  -2   5 1082.08   65.99
   7   2  -5 1179.87   56.00
  -7  -2   4  505.58   43.21
   7   2  -4  464.45   34.72
   7   2  -3  133.65   19.44
   7   2  -2 1654.75   82.28
   7   2  -1   12.94    7.51
   7   2   0  130.27   23.52
   7   2   1  236.98   32.97
   7   2   2   83.08   20.67
   7   2   3   17.22   10.87
  -7  -3  12   63.06   20.49
  -7  -3  11  810.58   67.65
  -7  -3  10   50.33   15.34
  -7  -3   9  329.84   38.87
  -7  -3   8 1155.48   73.85
  -7  -3   7  715.42   53.47
  -7  -3   7  651.36   52.82
  -7  -3   6 1946.94   96.27
  -7  -3   5    9.31    7.02
   7   3  -5   21.34    6.99
  -7  -3   4  149.41   24.56
   7   3  -4  160.46   20.46
   7   3  -3   41.16   11.61
   7   3  -2   76.54   16.22
   7   3  -1  389.60   39.55
   7   3   0  130.01   24.20
   7   3   1 1081.34   76.54
   7   3   2  232.08   35.86
  -7  -4  12  268.89   40.35
  -7  -4  11   23.83   14.18
  -7  -4  10   85.31   21.24
  -7  -4   9  474.83   48.06
  -7  -4   8   13.67    9.98
  -7  -4   7    1.18    4.50
  -7  -4   7    1.40    4.51
  -7  -4   6  379.76   40.15
  -7  -4   6  377.76   40.59
  -7  -4   5  158.01   26.24
  -7  -4   4   24.10   10.30
   7   4  -4   45.15   11.47
  -7  -4   3  558.78   51.59
   7   4  -3  482.19   41.35
   7   4  -2   41.75   12.68
   7   4  -1   10.09    6.33
   7   4   0  665.64   58.19
   7   4   1   39.68   15.70
  -7  -5  11   69.06   20.31
  -7  -5  10  918.79   73.19
  -7  -5   9   19.08   10.10
  -7  -5   8  257.62   35.00
  -7  -5   7    7.97    7.87
  -7  -5   7   -3.28    8.57
  -7  -5   6  724.56   59.57
  -7  -5   6  652.96   56.01
  -7  -5   5   47.09   15.61
  -7  -5   4    3.93    6.06
  -7  -5   3 1142.79   80.17
   7   5  -3 1113.44   68.45
  -7  -5   2  249.91   36.74
   7   5  -2  301.70   35.66
   7   5  -1  706.18   59.36
   7   5   0   67.53   18.75
  -7  -6  11   -1.60   10.13
  -7  -6  10  356.61   45.44
  -7  -6   9  190.41   32.45
  -7  -6   8   82.95   20.47
  -7  -6   7 1363.35   88.95
  -7  -6   7 1298.68   84.65
  -7  -6   6   47.21   16.30
  -7  -6   6   52.94   15.96
  -7  -6   5  213.11   33.55
  -7  -6   5  210.88   31.21
  -7  -6   4  338.16   43.26
  -7  -6   3   -2.13    6.60
  -7  -6   2  317.29   43.13
   7   6  -2  309.97   37.87
   7   6  -1   38.26   13.99
  -7  -7  10  329.35   45.60
  -7  -7   9   42.48   15.87
  -7  -7   8   95.71   22.57
  -7  -7   7  265.72   37.24
  -7  -7   6    1.05    7.12
  -7  -7   6   -1.73    6.14
  -7  -7   5  338.21   44.65
  -7  -8   9  264.69   39.73
   8 -11  -3   61.01   18.32
   8 -11  -2  120.08   25.04
  -8  11   0   52.34   16.71
  -8  11  -1   67.02   18.68
  -8  11  -2  111.37   23.02
   8 -10  -5    9.47    8.60
   8 -10  -4   91.84   21.89
   8 -10  -3   65.21   18.11
   8 -10  -2  992.75   69.17
   8 -10  -1  200.10   28.65
  -8  10   1  152.10   26.66
  -8  10   0  379.44   41.36
  -8  10  -1  207.34   29.98
  -8  10  -1  265.08   36.83
  -8  10  -2  117.33   22.10
  -8  10  -2  140.47   26.88
  -8  10  -3 1090.86   79.29
  -8  10  -4   -4.02    8.17
  -8  10  -5  109.21   24.63
   8  -9  -7   15.10   10.19
   8  -9  -6  319.13   40.64
   8  -9  -5  -19.85   10.93
   8  -9  -4   13.48    7.77
   8  -9  -3  319.17   36.05
   8  -9  -2    4.94    6.04
   8  -9  -1  225.13   28.40
  -8   9   1  187.54   27.70
  -8   9   0  162.52   25.20
  -8   9   0  233.46   33.23
  -8   9  -1   31.50   11.35
  -8   9  -1   15.03    9.89
  -8   9  -2   60.78   17.19
  -8   9  -3  559.81   54.39
  -8   9  -4  164.04   29.04
  -8   9  -5    0.44    4.55
   8  -8  -8    1.06    4.78
   8  -8  -7   29.32   13.18
   8  -8  -6  627.25   55.63
   8  -8  -5  323.92   36.84
   8  -8  -4  972.12   63.75
   8  -8  -3   10.52    7.58
   8  -8  -2    0.31    4.59
  -8   8   1 1002.94   62.85
  -8   8   1 1053.93   71.69
  -8   8   0   22.80    8.84
  -8   8   0   23.68   11.07
  -8   8  -1  366.72   34.03
  -8   8  -1  379.46   41.95
  -8   8  -2    8.88    6.10
  -8   8  -3  736.74   61.74
  -8   8  -4    0.29    5.01
   8  -8   5   66.76   19.05
  -8   8  -5   26.98   11.63
   8  -8   6  490.57   53.40
   8  -7  -9  113.93   26.14
   8  -7  -8  195.32   32.53
   8  -7  -7  165.05   28.30
   8  -7  -6    8.60    5.93
   8  -7  -5  394.14   38.41
   8  -7  -4    6.12    5.49
   8  -7  -3  426.62   35.87
   8  -7  -2    8.43    5.30
  -8   7   2   -5.10    6.54
  -8   7   1  873.56   53.43
  -8   7   1  843.62   61.84
  -8   7   0   13.34    6.50
  -8   7   0   17.10   10.61
  -8   7  -1   46.53   14.39
  -8   7  -2 2125.86  109.98
   8  -7   3  233.57   33.18
  -8   7  -3  202.67   30.72
   8  -7   4  330.70   41.53
  -8   7  -4  294.78   38.05
   8  -7   5   95.03   22.76
  -8   7  -5   74.93   19.64
   8  -7   6  -22.47   12.63
   8  -6 -10    3.63    6.79
   8  -6  -9   -1.36    9.75
   8  -6  -8  583.74   54.96
   8  -6  -7   11.37    9.02
   8  -6  -6   33.69   11.13
   8  -6  -5  260.47   28.90
   8  -6  -4   42.84   10.79
  -8   6   4   44.33   13.29
   8  -6  -3   76.87   13.48
  -8   6   3   86.03   18.05
   8  -6  -2  404.25   30.46
  -8   6   2  434.09   41.89
  -8   6   1  320.56   36.41
  -8   6   0  101.29   21.22
   8  -6   1  529.17   48.05
  -8   6  -1  545.44   49.42
   8  -6   2  258.57   34.02
  -8   6  -2  263.60   34.12
   8  -6   3   29.22   12.59
  -8   6  -3   35.78   13.95
   8  -6   4  370.93   43.37
  -8   6  -4  451.48   46.79
   8  -6   5   57.24   18.13
  -8   6  -5   83.90   21.25
   8  -6   6   39.82   15.69
   8  -5 -11    0.35    9.27
   8  -5 -10   41.77   16.48
   8  -5  -9   59.55   17.75
   8  -5  -8   15.90   10.06
  -8   5   8   11.24    6.47
  -8   5   7  473.31   37.77
  -8   5   7  514.11   44.26
   8  -5  -7  456.42   43.94
   8  -5  -6  164.03   23.72
  -8   5   6  175.57   22.24
  -8   5   6  175.43   24.94
  -8   5   5 1526.33   81.53
   8  -5  -5 1424.24   71.54
  -8   5   4  446.84   41.72
   8  -5  -4  569.40   37.17
   8  -5  -3  265.41   22.88
  -8   5   3  295.84   33.79
   8  -5  -2 1540.48   62.08
  -8   5   2 1585.18   86.12
  -8   5   1  759.91   57.31
   8  -5   0 1542.31   84.18
  -8   5   0 1451.71   84.31
   8  -5   1    5.42    5.78
  -8   5  -1   10.88    8.14
   8  -5   2  404.09   42.40
  -8   5  -2  417.31   43.39
   8  -5   3   39.21   14.22
  -8   5  -3   42.80   14.99
   8  -5   4  104.79   23.31
  -8   5  -4  128.66   24.72
   8  -5   5  311.72   41.49
   8  -4 -11   88.02   24.85
   8  -4 -10   24.43   13.00
  -8   4  10   15.81    8.41
  -8   4   9  308.96   33.43
  -8   4   9  377.62   36.31
   8  -4  -9  382.86   43.87
   8  -4  -8   15.52    9.56
  -8   4   8   21.13    8.80
  -8   4   8    8.49    7.31
   8  -4  -7    2.14    4.90
  -8   4   7    5.33    5.28
  -8   4   7   -7.87    6.26
  -8   4   6 1085.13   65.63
   8  -4  -6  987.60   59.35
   8  -4  -5   32.59    9.54
  -8   4   5   24.31    6.09
  -8   4   5   38.30   11.67
  -8   4   4  286.21   32.80
   8  -4  -4  296.66   23.82
   8  -4  -3  491.35   28.25
  -8   4   3  489.02   43.93
   8  -4  -2  371.18   36.73
  -8   4   2  428.20   41.06
   8  -4  -1   -3.72    5.25
  -8   4   1    5.39    5.62
   8  -4   0  423.09   40.63
  -8   4   0  463.27   44.33
   8  -4   1  797.24   59.32
  -8   4  -1  853.97   62.61
   8  -4   2   77.24   18.48
  -8   4  -2  117.42   23.89
   8  -4   3 1003.73   72.14
  -8   4  -3 1028.60   73.63
   8  -4   4    9.82    8.90
   8  -4   5   -7.54    9.01
  -8   3  11   38.71   12.46
  -8   3  10    7.10    6.19
  -8   3   9 1112.27   68.06
  -8   3   9 1100.60   64.74
   8  -3  -8  115.35   21.89
  -8   3   8  178.23   24.01
  -8   3   8  162.80   23.13
  -8   3   7 1348.25   72.86
  -8   3   7 1279.90   72.05
   8  -3  -7 1295.85   72.88
   8  -3  -6  148.47   20.15
  -8   3   6  153.58   16.85
  -8   3   6  176.79   24.56
   8  -3  -5   73.76   12.34
  -8   3   5   76.85   12.28
  -8   3   5   72.29   16.55
  -8   3   4 1356.15   76.08
   8  -3  -4 1360.81   54.35
   8  -3  -3   54.71   13.14
  -8   3   3   57.58   14.68
   8  -3  -2  275.92   30.51
  -8   3   2  269.74   32.31
   8  -3  -1   54.17   13.50
  -8   3   1   27.64   11.99
   8  -3   0  916.52   62.05
  -8   3   0  978.13   67.29
  -8   3  -1   24.00   11.69
   8  -3   1   14.01    8.85
   8  -3   2   41.35   14.40
   8  -3   3  880.15   68.28
   8  -3   4  192.25   32.05
   8  -3   5  397.01   48.31
  -8   2  13  592.28   57.34
  -8   2  12   28.30   12.90
  -8   2  11  109.78   22.42
  -8   2  10  225.81   31.25
  -8   2   9   72.60   16.96
  -8   2   8  702.22   51.49
  -8   2   8  656.12   47.69
  -8   2   7    3.12    5.35
  -8   2   7    2.00    4.29
  -8   2   6  574.99   37.66
  -8   2   6  584.42   45.66
   8  -2  -6  629.80   41.64
  -8   2   5  264.59   25.39
  -8   2   5  274.21   31.02
   8  -2  -5  260.25   21.84
   8  -2  -4  906.69   55.60
  -8   2   4  963.22   62.39
   8  -2  -4  921.34   37.23
   8  -2  -3  400.85   35.55
  -8   2   3  416.90   40.33
   8  -2  -2  456.91   39.77
  -8   2   2  553.44   47.52
   8  -2  -1 2649.25  115.67
  -8   2   1 2727.74  124.78
   8  -2   0  375.05   38.08
  -8   2   0  341.08   39.55
   8  -2   1  378.15   40.30
   8  -2   2  286.33   36.81
   8  -2   3    8.21    8.39
   8  -2   4  236.55   36.47
  -8   1  12   -1.30    5.26
  -8   1  11  183.11   30.11
  -8   1  10   32.49   12.08
  -8   1   9   -2.83    6.16
  -8   1   8  360.82   37.16
  -8   1   8  378.65   34.71
  -8   1   7  240.25   25.23
  -8   1   7  216.14   28.17
  -8   1   7  181.94   24.59
  -8   1   6    5.87    4.29
  -8   1   6    8.70    6.69
  -8   1   5  427.24   35.06
   8  -1  -5  444.97   27.32
   8  -1  -4  792.56   50.25
  -8   1   4  809.77   58.47
   8  -1  -3   13.99    7.12
  -8   1   3   12.30    8.69
   8  -1  -2  349.58   34.35
   8  -1  -1  431.02   40.30
   8  -1   0    3.49    5.41
   8  -1   1  387.99   41.50
   8  -1   2  433.24   46.05
   8  -1   3  -17.26   10.60
   8  -1   4  181.47   32.66
  -8   0  12  102.51   23.56
  -8   0  11    2.03    5.83
  -8   0  10  390.08   42.20
  -8   0   9  170.40   26.57
  -8   0   8 1989.45   99.81
  -8   0   7   74.73   14.87
  -8   0   7  103.05   20.05
  -8   0   6    7.34    5.48
  -8   0   5 2119.73   95.95
   8   0  -5 2140.83   89.90
   8   0  -4  258.57   27.13
   8   0  -3 1286.08   69.14
   8   0  -2   21.61    7.52
   8   0  -1  148.08   23.84
   8   0   0   80.98   18.29
   8   0   1  159.98   27.35
   8   0   2  413.77   46.28
   8   0   3  314.43   42.36
  -8  -1  12  369.52   45.51
  -8  -1  11   45.15   15.64
  -8  -1  10   12.28    8.93
  -8  -1   9 1089.68   72.92
  -8  -1   8    1.02    6.20
  -8  -1   7  178.77   24.75
  -8  -1   7  169.52   26.28
   8   1  -6   53.00   11.24
  -8  -1   6   37.06   11.59
  -8  -1   5  419.54   39.57
   8   1  -5  470.98   35.69
   8   1  -4   21.33    8.00
   8   1  -3   48.31   12.39
   8   1  -2 1064.82   65.80
   8   1  -1  261.48   32.28
   8   1   0 1109.95   74.18
   8   1   1  119.03   24.34
   8   1   2   23.39   11.82
  -8  -2  12  611.43   60.48
  -8  -2  11  156.79   29.42
  -8  -2  10  255.70   35.56
  -8  -2   9  402.00   43.62
  -8  -2   8   17.10   10.02
  -8  -2   7  391.79   38.91
  -8  -2   7  323.07   37.87
   8   2  -6  106.03   15.74
  -8  -2   6  121.09   21.79
  -8  -2   5  349.52   37.59
   8   2  -5  336.95   30.55
  -8  -2   4   15.53    8.46
   8   2  -4   27.32    9.36
   8   2  -3  646.61   48.39
   8   2  -2   14.13    8.33
   8   2  -1   10.45    7.69
   8   2   0 1199.98   79.63
   8   2   1   28.55   12.61
   8   2   2   17.44   11.79
  -8  -3  11  369.56   45.83
  -8  -3  10   -2.18    6.34
  -8  -3   9  854.53   67.20
  -8  -3   8   72.95   18.84
  -8  -3   7  161.13   26.21
  -8  -3   7  218.96   31.63
  -8  -3   6  680.43   55.97
  -8  -3   5  453.23   45.72
   8   3  -5  466.92   36.86
  -8  -3   4 1904.50  105.10
   8   3  -4 2051.70   93.64
   8   3  -3  155.47   23.82
   8   3  -2   41.56   13.06
   8   3  -1  311.92   38.25
   8   3   0   18.38   10.91
   8   3   1  155.10   29.87
  -8  -4  11   28.05   14.37
  -8  -4  10  362.12   45.17
  -8  -4   9    5.10    6.50
  -8  -4   8   84.58   21.29
  -8  -4   7  225.83   32.50
  -8  -4   7  207.33   32.25
  -8  -4   6   13.60    8.88
  -8  -4   5  291.34   37.88
  -8  -4   4  266.52   37.51
   8   4  -4  363.33   35.52
  -8  -4   3   14.12   10.49
   8   4  -3   13.23    7.78
   8   4  -2    4.29    5.14
   8   4  -1  523.70   51.90
   8   4   0   19.76   11.01
  -8  -5  10   36.84   14.93
  -8  -5   9   31.94   13.69
  -8  -5   8  976.68   74.25
  -8  -5   7  108.01   23.63
  -8  -5   7  130.49   26.11
  -8  -5   6  342.32   43.10
  -8  -5   6  347.21   42.75
  -8  -5   5   93.85   23.06
  -8  -5   4  139.80   28.01
  -8  -5   3   42.11   17.30
   8   5  -2   62.10   17.28
   8   5  -1  642.36   59.60
  -8  -6   9    7.07    7.67
  -8  -6   8   71.84   21.32
  -8  -6   7   39.38   15.59
  -8  -6   6  -12.08   10.33
  -8  -6   5  928.11   73.30
  -8  -7   8   31.76   14.79
  -8  -7   7    6.64    7.94
   9 -11  -3  256.21   36.42
   9 -11  -2   64.32   17.30
   9 -10  -5  162.60   29.21
   9 -10  -4  130.16   24.75
   9 -10  -3   22.97   10.90
   9 -10  -2  308.19   36.29
  -9  10   1    0.76    6.00
  -9  10   0  492.73   53.45
  -9  10  -1  159.39   30.49
   9  -9  -7   39.94   16.02
   9  -9  -6   35.34   13.89
   9  -9  -5   77.35   19.28
   9  -9  -4  163.79   26.15
   9  -9  -3    9.40    6.80
   9  -9  -2  208.76   27.35
  -9   9   2  187.45   31.22
  -9   9   1  384.25   44.95
  -9   9   0   39.80   15.61
  -9   9  -1  258.49   37.66
  -9   9  -2  168.85   30.25
  -9   9  -3   12.02    9.70
   9  -8  -8    2.43    6.42
   9  -8  -7   20.01   10.96
   9  -8  -6   69.88   18.00
   9  -8  -5   51.21   14.46
   9  -8  -4  284.08   32.14
   9  -8  -3  124.73   20.40
  -9   8   3  146.32   26.89
  -9   8   2 1428.41   89.46
  -9   8   1   -4.10    6.58
  -9   8   0    3.17    7.02
  -9   8  -1  913.75   71.14
  -9   8  -2   46.34   16.90
  -9   8  -3  441.85   49.25
  -9   8  -4   17.30   11.50
   9  -7  -9   17.26   10.99
   9  -7  -8  396.51   45.47
   9  -7  -7  111.47   22.83
   9  -7  -6  678.93   53.23
   9  -7  -5   32.27   11.06
  -9   7   5   42.13   15.44
   9  -7  -4  109.80   18.27
  -9   7   4  107.45   22.24
   9  -7  -3 1059.68   58.85
  -9   7   3 1080.90   73.96
  -9   7   2   -2.78    6.44
  -9   7   1  368.01   42.38
  -9   7   0    2.89    6.30
  -9   7  -1  541.17   53.12
   9  -7   2   35.21   13.82
  -9   7  -2   22.06   12.04
   9  -7   3   17.87   11.38
  -9   7  -3    4.02    6.57
   9  -7   4  684.94   63.40
  -9   7  -4  683.91   62.63
  -9   7  -5  318.78   42.97
   9  -6 -10    2.10    6.02
   9  -6  -9  111.76   25.51
  -9   6   9  126.74   24.08
   9  -6  -8    8.58    7.29
  -9   6   8    1.23    6.95
   9  -6  -7   26.50   11.23
  -9   6   7   42.57   13.34
  -9   6   6  831.61   52.57
  -9   6   6  751.50   59.42
   9  -6  -6  743.24   53.32
   9  -6  -5   35.51   10.25
  -9   6   5   41.78   13.68
   9  -6  -4   69.58   13.21
  -9   6   4   95.32   20.17
  -9   6   3  408.48   43.29
  -9   6   2   18.36    9.04
  -9   6   1   70.46   18.27
  -9   6   0  242.45   34.06
   9  -6   1   34.87   12.87
  -9   6  -1   35.75   14.57
   9  -6   2   41.53   15.18
  -9   6  -2   31.46   13.34
   9  -6   3  454.11   50.38
  -9   6  -3  588.04   56.48
   9  -6   4    6.10    8.06
  -9   6  -4   14.31   10.34
   9  -5 -11  140.77   30.26
   9  -5 -10  800.44   69.72
   9  -5  -9   72.34   19.83
  -9   5   9   57.95   15.86
   9  -5  -8   44.17   14.09
  -9   5   8   72.85   15.89
  -9   5   8   50.96   15.08
  -9   5   7  474.50   40.33
  -9   5   7  448.13   43.92
   9  -5  -7  483.98   43.23
   9  -5  -6   17.86    8.09
  -9   5   6    5.73    6.99
  -9   5   5  374.36   40.42
   9  -5  -5  388.19   31.83
  -9   5   4   31.49   11.98
  -9   5   3 1452.60   86.49
  -9   5   2  165.90   27.44
   9  -5  -1  396.83   41.34
  -9   5   1  388.46   42.58
   9  -5   0  723.97   58.70
  -9   5   0  746.11   60.84
   9  -5   1  295.17   37.28
  -9   5  -1  246.34   35.11
   9  -5   2 1834.39  106.65
  -9   5  -2 2207.37  116.22
   9  -5   3   44.77   16.23
  -9   5  -3    6.58    6.47
   9  -5   4  116.07   26.16
   9  -4 -11  119.43   27.73
   9  -4 -10   12.70    8.84
  -9   4  10   25.26   10.72
   9  -4  -9   18.96   10.40
  -9   4   9    0.42    5.14
  -9   4   9   12.65    8.69
   9  -4  -8   11.46    8.58
  -9   4   8    8.51    5.43
  -9   4   8   12.18    8.56
  -9   4   7  745.48   53.60
  -9   4   7  710.41   55.76
   9  -4  -7  802.42   54.42
   9  -4  -6    8.41    5.45
  -9   4   6    6.38    5.73
  -9   4   5   39.02   13.63
  -9   4   4 1158.97   74.56
  -9   4   3   46.51   14.69
   9  -4  -2  638.47   52.40
  -9   4   2  668.47   56.09
   9  -4  -1  123.74   22.16
  -9   4   1  113.52   23.40
   9  -4   0   -8.53    5.46
  -9   4   0   -3.50    6.62
   9  -4   1  134.11   25.20
  -9   4  -1  143.71   27.43
   9  -4   2  256.74   36.42
  -9   4  -2  204.44   32.67
   9  -4   3  127.71   27.09
  -9   3  12  177.57   29.60
   9  -3 -12  176.30   34.61
  -9   3  11   40.18   13.90
   9  -3 -11   35.25   15.51
   9  -3 -10   18.18   10.51
  -9   3  10   51.47   15.13
   9  -3  -9   44.03   14.98
  -9   3   9   37.14   12.24
  -9   3   9   37.35   11.81
   9  -3  -8   85.00   18.29
  -9   3   8   68.17   15.99
  -9   3   8   64.03   16.69
  -9   3   7  805.31   56.90
  -9   3   7  793.94   57.86
   9  -3  -7  737.95   50.28
  -9   3   6  211.69   22.12
  -9   3   6  237.48   30.58
  -9   3   5 1175.90   60.30
  -9   3   5 1129.00   72.31
  -9   3   4   60.22   15.95
   9  -3  -3    7.62    5.90
  -9   3   3   25.10   11.34
   9  -3  -2 1462.99   82.75
  -9   3   2 1667.24   93.74
   9  -3  -1   22.14    9.64
  -9   3   1   24.62   12.94
   9  -3   0  214.73   30.89
  -9   3   0  242.38   34.66
   9  -3   1  174.25   29.08
   9  -3   2  279.40   38.06
   9  -3   3   -2.81    6.91
  -9   2  12    5.04    7.00
  -9   2  11  727.72   60.81
  -9   2  10  321.60   38.58
  -9   2   9  440.39   44.25
  -9   2   8  345.29   38.56
  -9   2   8  304.34   34.43
  -9   2   7  164.72   20.86
  -9   2   7  208.60   28.47
  -9   2   6  893.32   53.22
  -9   2   6  919.99   63.75
  -9   2   5   38.36   10.59
  -9   2   5   36.70   12.91
   9  -2  -4  564.30   45.85
  -9   2   4  612.63   52.55
   9  -2  -3    7.35    6.33
  -9   2   3   19.23   10.51
   9  -2  -2  437.89   41.70
  -9   2   2  446.11   46.70
   9  -2  -1   17.92    9.50
   9  -2   0   23.46    9.80
   9  -2   1 2052.21  110.28
   9  -2   2  400.47   46.69
   9  -2   3  297.51   41.86
  -9   1  12  235.82   35.87
  -9   1  11    5.46    6.60
  -9   1  10   35.09   13.24
  -9   1   9  443.16   44.76
  -9   1   8   34.25   12.31
  -9   1   8   50.54   13.79
  -9   1   7   18.89    7.85
  -9   1   7   27.80   11.94
  -9   1   6  327.77   32.37
  -9   1   6  312.43   36.61
   9  -1  -5   32.31   10.06
  -9   1   5   34.94   10.72
  -9   1   5   31.01   12.90
   9  -1  -4   13.66    7.45
  -9   1   4  -11.30    8.65
   9  -1  -3  799.54   56.10
   9  -1  -2   42.11   12.68
   9  -1  -1   -6.12    6.38
   9  -1   0  608.18   54.06
   9  -1   1   87.84   21.08
   9  -1   2   14.16    9.80
  -9   0  12    2.17    7.11
  -9   0  11    0.24    4.75
  -9   0  10  307.22   39.03
  -9   0   9   -5.30    5.81
  -9   0   8  661.03   56.59
  -9   0   7   55.79   13.84
  -9   0   6 1196.34   70.35
   9   0  -5   48.40   12.34
  -9   0   5   62.12   15.54
   9   0  -4  199.72   25.87
   9   0  -3 1118.00   68.45
   9   0  -2  599.23   50.35
   9   0  -1 1120.81   74.36
   9   0   0   48.18   16.15
   9   0   1   70.10   19.91
  -9  -1  11   55.22   18.01
  -9  -1  10  364.21   44.11
  -9  -1   9   30.32   12.58
  -9  -1   8   -2.84    4.52
  -9  -1   8  -14.36    9.86
  -9  -1   7 1104.34   69.67
  -9  -1   6  158.14   25.17
   9   1  -6  201.14   23.89
  -9  -1   5  442.76   43.92
   9   1  -5  507.46   40.80
   9   1  -4  366.91   36.06
   9   1  -3   56.26   14.41
   9   1  -2   77.98   18.11
   9   1  -1   98.27   21.48
   9   1   0  599.79   56.41
   9   1   1  148.84   28.47
  -9  -2  11   19.84   10.36
  -9  -2  10  627.76   59.21
  -9  -2   9   27.07   13.55
  -9  -2   8  585.78   51.89
  -9  -2   8  643.19   57.42
  -9  -2   7  142.83   24.96
  -9  -2   6   36.63   13.18
  -9  -2   5 1000.80   70.92
   9   2  -5  940.92   58.90
  -9  -2   4   51.60   16.23
   9   2  -4   74.96   16.66
   9   2  -3   21.23    9.79
   9   2  -2   20.83   10.37
   9   2  -1  242.63   34.75
   9   2   0   26.78   12.02
  -9  -3  10  119.61   26.44
  -9  -3   9  625.86   60.15
  -9  -3   8   17.34    9.67
  -9  -3   8   45.74   18.26
  -9  -3   7  146.01   26.26
  -9  -3   7  126.25   25.73
  -9  -3   6    9.73    8.33
  -9  -3   5  308.16   39.77
  -9  -3   4  265.31   38.14
   9   3  -4  276.85   32.82
   9   3  -3  167.83   26.73
   9   3  -2 1352.92   85.45
   9   3  -1   43.32   15.68
  -9  -4  10   -5.79    9.20
  -9  -4   9  245.22   37.78
  -9  -4   8  214.95   33.19
  -9  -4   8  149.12   29.22
  -9  -4   7   18.89   10.41
  -9  -4   7   26.52   13.31
  -9  -4   6  586.42   57.13
  -9  -4   5  101.81   23.77
  -9  -4   4    0.38    4.95
   9   4  -2   79.19   20.29
  -9  -5   8    3.43    7.14
  -9  -5   7   -5.53    7.68
  -9  -5   6  935.21   75.86
  10  -9  -7  -12.81    9.58
  10  -9  -6  210.15   31.70
 -10   9   4   23.17   12.68
 -10   9   3   89.58   22.47
 -10   9   2  144.88   29.26
 -10   9   1  -24.31   13.92
  10  -8  -8  240.65   35.52
 -10   8   8  184.07   32.08
 -10   8   7  673.94   61.58
  10  -8  -7  602.42   54.67
 -10   8   6   59.46   19.68
 -10   8   5    5.78    6.71
 -10   8   4  143.49   27.82
 -10   8   3    9.70    9.52
 -10   8   2  344.01   43.72
 -10   8   1   -3.04    7.39
 -10   8   0  743.68   66.62
 -10   8  -1   12.24   10.45
  10  -7  -9  -21.19   11.80
 -10   7   9   -5.43    7.29
  10  -7  -8   52.25   17.46
 -10   7   8   35.07   13.53
  10  -7  -7   15.28   10.12
 -10   7   7    6.77    7.99
 -10   7   6  361.30   43.39
 -10   7   5   84.17   21.32
 -10   7   4  691.75   61.52
 -10   7   3   11.39    8.71
 -10   7   2   -8.46    8.36
 -10   7   1 1232.77   86.49
 -10   7   0  217.65   34.90
 -10   7  -1  355.36   44.83
  10  -7   2   50.73   17.76
 -10   7  -2   90.24   22.92
  10  -6 -10    1.17    7.23
  10  -6  -9  -17.33   11.20
 -10   6   9   10.95    8.20
  10  -6  -8   59.34   16.44
 -10   6   8   75.41   20.04
 -10   6   7  155.95   28.02
 -10   6   6    5.45    7.03
 -10   6   5   27.69   12.06
 -10   6   4  289.80   38.59
 -10   6   3   11.01    9.44
 -10   6   2  324.58   41.69
 -10   6   1  170.08   30.90
  10  -6   0   26.12   12.35
 -10   6   0    6.30    8.54
  10  -6   1  322.44   42.01
 -10   6  -1  299.43   41.30
  10  -6   2  270.47   39.55
 -10   6  -2  298.61   42.13
  10  -5 -11   93.93   24.97
  10  -5 -10   89.84   23.44
  10  -5  -9  173.32   28.99
 -10   5   9  184.07   30.01
 -10   5   8 1090.85   69.29
 -10   5   8 1066.70   74.64
 -10   5   7  100.67   20.56
 -10   5   7   76.52   19.82
 -10   5   6  197.31   31.04
 -10   5   5  494.56   49.90
 -10   5   4  106.76   23.31
 -10   5   3 1061.46   76.02
 -10   5   2   32.39   13.16
  10  -5  -1  563.71   52.71
 -10   5   1  496.83   52.06
  10  -5   0   16.50    9.91
 -10   5   0   29.72   13.55
  10  -5   1  368.75   45.08
 -10   5  -1  457.26   51.79
  10  -5   2  292.63   41.53
 -10   5  -2  403.38   48.97
  10  -4 -11   26.38   13.68
  10  -4 -10   12.40   10.09
 -10   4  10    0.58    4.90
 -10   4   9  246.25   32.62
 -10   4   9  295.19   36.49
 -10   4   8   10.47    7.03
 -10   4   8    7.90    7.50
 -10   4   7  179.43   29.26
 -10   4   6   60.43   17.19
 -10   4   5  337.85   40.29
 -10   4   4   27.85   11.52
 -10   4   3  235.92   34.47
  10  -4  -2  512.82   49.45
 -10   4   2  626.77   57.57
  10  -4  -1  267.69   35.43
 -10   4   1  252.43   37.04
  10  -4   0  704.31   61.32
 -10   4   0  770.03   67.63
  10  -4   1   33.35   13.59
 -10   4  -1   51.76   19.00
  10  -4   2   25.15   13.01
  10  -3 -12  455.37   53.90
 -10   3  11  105.95   22.87
 -10   3  10  339.87   40.12
 -10   3   9   44.23   13.80
 -10   3   8    9.97    6.87
 -10   3   8   10.23    8.36
 -10   3   7  173.41   27.87
 -10   3   6   33.25   12.92
 -10   3   5  149.86   21.53
 -10   3   5  152.78   27.18
 -10   3   4   36.68   13.80
  10  -3  -3 1307.74   80.03
 -10   3   3 1233.62   84.18
  10  -3  -2   14.88    8.73
 -10   3   2    9.37    9.16
  10  -3  -1   -9.17    7.80
 -10   3   1   -7.30    8.93
  10  -3   0  799.13   65.95
  10  -3   1    8.70    8.17
 -10   2  11   69.31   18.67
 -10   2  10   13.90    9.60
 -10   2   9  648.31   56.24
 -10   2   8  183.97   29.02
 -10   2   8  187.29   29.15
 -10   2   7  899.77   55.49
 -10   2   7  763.43   61.49
 -10   2   6  112.11   19.23
 -10   2   6  111.40   23.50
 -10   2   5  233.08   28.97
 -10   2   5  268.14   36.26
  10  -2  -4 1850.76   97.61
 -10   2   4 2115.72  113.57
  10  -2  -3   69.03   16.80
 -10   2   3   79.60   20.75
  10  -2  -2  335.25   38.92
  10  -2  -1   43.33   14.64
  10  -2   0  148.94   27.55
  10  -2   1  132.52   27.25
 -10   1  11   30.15   13.06
 -10   1  10   71.42   19.92
 -10   1   9    0.03    7.10
 -10   1   8  169.38   24.26
 -10   1   8  188.66   30.18
 -10   1   8  154.89   27.00
 -10   1   7  308.94   33.30
 -10   1   6    7.35    5.03
  10  -1  -5  170.55   25.26
 -10   1   5  167.99   25.78
  10  -1  -4  531.42   46.50
  10  -1  -3   27.62   11.17
  10  -1  -2   30.46   13.00
  10  -1  -1  423.99   46.03
  10  -1   0   -2.83    5.14
 -10   0  11  745.44   66.88
 -10   0  10   34.66   13.54
 -10   0   9   30.95   12.73
 -10   0   8  722.44   55.28
 -10   0   8  755.93   63.55
 -10   0   7   87.89   18.45
 -10   0   6  337.62   37.98
  10   0  -6  393.40   37.54
  10   0  -5   -2.24    4.18
 -10   0   5   -0.28    5.55
  10   0  -4  735.27   56.23
  10   0  -3    9.81    7.21
  10   0  -2  160.52   27.07
  10   0  -1  494.26   50.95
  10   0   0  132.55   27.17
 -10  -1  10   83.80   22.87
 -10  -1   9   19.53   11.17
 -10  -1   8  583.32   51.10
 -10  -1   8  415.05   49.04
 -10  -1   7    3.71    5.69
 -10  -1   6    6.35    6.87
 -10  -1   5 1088.36   76.56
  10   1  -5 1150.03   69.87
  10   1  -4  159.30   25.72
  10   1  -3  496.56   47.92
  10   1  -2   71.48   19.49
  10   1  -1   11.29    8.55
 -10  -2   9  164.65   30.77
 -10  -2   8  246.04   34.76
 -10  -2   8  190.94   33.45
 -10  -2   7   44.29   15.67
 -10  -2   6  519.93   51.99
 -10  -2   5   28.88   13.01
 -10  -2   4   -8.34    9.02
  10   2  -4   -5.61    6.33
  10   2  -3  432.04   45.27
  10   2  -2   18.28    9.90
 -10  -3   8  217.97   33.84
 -10  -3   8  223.76   36.51
 -10  -3   7  872.91   71.38
 -10  -3   7 1067.99   81.30
 -10  -3   6    6.31    7.97
  10   3  -3  105.70   22.81
 -11   7   8   10.01    9.07
 -11   7   7   -7.23    8.43
 -11   7   6  342.76   44.54
 -11   7   5    1.97    5.97
 -11   7   4  189.56   33.29
 -11   7   3   12.77   10.16
 -11   7   2  734.10   67.49
 -11   6   9  173.15   30.80
 -11   6   8    1.09    4.73
 -11   6   7   66.14   19.57
 -11   6   6  184.02   32.18
 -11   6   5   28.22   13.47
 -11   6   4   -6.67    8.55
 -11   6   3  295.87   41.15
 -11   6   2  159.15   31.56
 -11   6   1  -11.86   10.50
 -11   5   8  145.87   25.70
 -11   5   8  149.35   28.53
 -11   5   7   30.53   15.42
 -11   5   6 1218.16   85.07
 -11   5   5  287.98   39.62
 -11   5   4  437.25   49.89
 -11   5   3  481.60   53.20
 -11   5   2  154.56   30.34
  11  -5  -1  862.31   70.73
 -11   5   1  852.42   73.87
 -11   4  10  287.54   38.29
 -11   4   9    5.55    7.00
 -11   4   8   18.72   10.55
 -11   4   8   17.91   10.66
 -11   4   7  575.51   55.65
 -11   4   6   15.56    9.49
 -11   4   5  152.94   29.22
 -11   4   4   75.50   20.85
 -11   4   3  256.31   39.04
  11  -4  -2   31.86   13.20
 -11   4   2   27.76   14.32
  11  -4  -1  131.93   26.80
 -11   4   1  162.56   32.09
 -11   3  10  187.86   31.33
 -11   3   9  239.52   35.18
 -11   3   8  685.28   59.19
 -11   3   8  623.44   57.74
 -11   3   7   18.03   12.73
 -11   3   6   11.35    6.53
 -11   3   5  373.33   37.47
 -11   3   5  298.24   41.23
 -11   3   4    2.11    7.74
  11  -3  -3  112.23   24.91
 -11   3   3  175.49   32.81
  11  -3  -2   26.81   12.29
  11  -3  -1  491.01   52.14
 -11   2  10   -6.48    8.40
 -11   2   9  225.89   33.94
 -11   2   8    4.87    6.47
 -11   2   8   -1.20    3.05
 -11   2   7  466.03   51.09
 -11   2   6  114.80   20.82
 -11   2   6  110.68   25.41
 -11   2   5  652.61   53.87
 -11   2   5  635.42   62.16
  11  -2  -4   48.41   15.81
  11  -2  -3   17.91    9.69
  11  -2  -2 1314.25   87.25
  11  -2  -1  188.38   32.36
 -11   1   9  155.68   29.47
 -11   1   8  164.95   25.52
 -11   1   8  132.94   27.72
 -11   1   7    7.80    6.63
 -11   1   6  216.56   30.82
  11  -1  -5   86.20   19.85
 -11   1   5   67.47   17.94
  11  -1  -4    1.66    5.73
  11  -1  -3  262.97   36.22
  11  -1  -2  108.00   23.87
 -11   0   8   61.63   16.87
 -11   0   8   22.51   13.47
 -11   0   7  103.23   21.56
 -11   0   6  493.95   49.06
  11   0  -5  129.47   23.93
 -11   0   5  169.33   29.27
  11   0  -4  689.19   58.20
  11   0  -3   24.85   11.59
 -11  -1   8  286.18   37.71
 -11  -1   7   32.75   13.42
 -11  -1   6  153.39   28.66
 -11  -1   5   14.09    9.74
  11   1  -4   83.44   20.60
  11   1  -3  389.72   45.17
 -12   5   8  104.27   23.07
 -12   5   8  104.51   25.23
 -12   5   7   -0.04    7.20
 -12   5   6  203.85   35.50
 -12   5   5   15.07   11.94
 -12   4   8  400.32   46.58
 -12   4   8  376.05   46.99
 -12   4   7    7.81    8.47
 -12   4   6  135.50   28.85
 -12   4   5  282.85   42.47
 -12   3   8  141.79   29.76
 -12   3   7   30.93   14.99
 -12   3   6  611.89   62.84
 -12   3   5   -0.59   11.68
 -12   2   5  255.08   34.95
  12  -2  -4   10.93    9.54
 -12   1   7  192.07   30.12
 -12   1   6   14.75    8.88
  12  -1  -5   -0.03    3.76
 -12   1   5   -0.73    5.14
 -12   0   8   -8.12    8.06

TITL dan_86 in P-1
REM P-1 (#2 in standard setting)
CELL 0.71073   9.129000   9.161209  10.048656 100.7765 113.5933 107.7929
ZERR    2.00   0.000786   0.000789   0.000824   0.0071   0.0080   0.0078
LATT  1
SFAC C H N Cl Pt
UNIT 20.00 10.00 8.00 4.00 2.00
TREF
HKLF 4
END
_computing_structure_solution     'SHELXS-97 (Sheldrick, 1997)'
;
_shelx_hkl_checksum              43415
loop_
_space_group_symop_operation_xyz
'x, y, z'
'-x, -y, -z'
loop_
_atom_site_label
_atom_site_type_symbol
_atom_site_fract_x
_atom_site_fract_y
_atom_site_fract_z
_atom_site_U_iso_or_equiv
_atom_site_adp_type
_atom_site_occupancy
_atom_site_site_symmetry_order
_atom_site_calc_flag
_atom_site_refinement_flags_posn
_atom_site_refinement_flags_adp
_atom_site_refinement_flags_occupancy
Pt1 Pt 1.0000 1.0000 1.0000 0.01367(9) Uani 1 2 d S . P
I1S I 0.83775(5) 0.54755(5) 0.57805(5) 0.01585(11) Uani 1 1 d . . .
I2S I 0.85312(6) 0.16387(5) 0.58312(5) 0.01862(11) Uani 1 1 d . . .
I3S I 0.45735(6) 0.18170(5) 0.32736(5) 0.02009(11) Uani 1 1 d . . .
Cl1 Cl 1.0085(2) 0.93577(18) 0.77048(19) 0.0168(3) Uani 1 1 d . . .
N1 N 0.8807(7) 0.7670(7) 0.9634(7) 0.0189(13) Uani 1 1 d . . .
N2 N 0.7124(7) 0.4755(7) 0.9067(7) 0.0199(13) Uani 1 1 d . . .
C1S C 0.7397(8) 0.2940(7) 0.4456(7) 0.0143(13) Uani 1 1 d . . .
H1S H 0.7763 0.2899 0.3640 0.017 Uiso 1 1 calc R U .
C1 C 0.8031(9) 0.6298(8) 0.9364(8) 0.0166(14) Uani 1 1 d . . .
C6 C 0.5385(8) 0.3780(8) 0.7696(8) 0.0202(15) Uani 1 1 d . . .
H6A H 0.5467 0.2990 0.6940 0.024 Uiso 1 1 calc R U .
H6B H 0.4958 0.4508 0.7193 0.024 Uiso 1 1 calc R U .
C5 C 0.4097(9) 0.2861(8) 0.8166(8) 0.0209(15) Uani 1 1 d . . .
H5A H 0.3899 0.3653 0.8814 0.025 Uiso 1 1 calc R U .
H5B H 0.2951 0.2129 0.7226 0.025 Uiso 1 1 calc R U .
C2 C 0.7907(9) 0.3850(8) 0.9968(9) 0.0213(16) Uani 1 1 d . . .
H2A H 0.9042 0.4622 1.0903 0.026 Uiso 1 1 calc R U .
H2B H 0.8136 0.3077 0.9334 0.026 Uiso 1 1 calc R U .
C4 C 0.4800(9) 0.1853(8) 0.9071(9) 0.0243(17) Uani 1 1 d . . .
H4A H 0.3989 0.1338 0.9440 0.029 Uiso 1 1 calc R U .
H4B H 0.4850 0.0967 0.8380 0.029 Uiso 1 1 calc R U .
C3 C 0.6621(10) 0.2908(8) 1.0447(8) 0.0248(17) Uani 1 1 d . . .
H3A H 0.7082 0.2204 1.0965 0.030 Uiso 1 1 calc R U .
H3B H 0.6539 0.3698 1.1204 0.030 Uiso 1 1 calc R U .
loop_
_atom_site_aniso_label
_atom_site_aniso_U_11
_atom_site_aniso_U_22
_atom_site_aniso_U_33
_atom_site_aniso_U_23
_atom_site_aniso_U_13
_atom_site_aniso_U_12
Pt1 0.00931(18) 0.01235(17) 0.0170(2) 0.00759(15) 0.00373(15) 0.00408(13)
I1S 0.0134(2) 0.0167(2) 0.0178(2) 0.00770(18) 0.00751(19) 0.00602(17)
I2S 0.0181(2) 0.0203(2) 0.0211(2) 0.0118(2) 0.0096(2) 0.00973(18)
I3S 0.0119(2) 0.0194(2) 0.0246(3) 0.0072(2) 0.0063(2) 0.00530(17)
Cl1 0.0182(8) 0.0133(7) 0.0172(8) 0.0080(7) 0.0075(7) 0.0048(6)
N1 0.011(3) 0.023(3) 0.021(3) 0.013(3) 0.002(3) 0.009(2)
N2 0.011(3) 0.017(3) 0.020(3) 0.012(3) 0.000(3) 0.000(2)
C1S 0.014(3) 0.013(3) 0.011(3) 0.002(3) 0.004(3) 0.003(3)
C1 0.017(4) 0.024(4) 0.017(4) 0.016(3) 0.009(3) 0.013(3)
C6 0.014(4) 0.019(3) 0.015(4) 0.006(3) 0.001(3) -0.002(3)
C5 0.014(4) 0.019(3) 0.025(4) 0.005(3) 0.010(3) 0.003(3)
C2 0.015(4) 0.021(3) 0.025(4) 0.013(3) 0.005(3) 0.006(3)
C4 0.023(4) 0.019(3) 0.035(5) 0.019(3) 0.016(4) 0.007(3)
C3 0.033(5) 0.019(4) 0.022(4) 0.010(3) 0.014(4) 0.008(3)
loop_
_atom_type_symbol
_atom_type_description
_atom_type_scat_dispersion_real
_atom_type_scat_dispersion_imag
_atom_type_scat_source
C C 0.0033 0.0016 'International Tables Vol C Tables 4.2.6.8 and 6.1.1.4'
H H 0.0000 0.0000 'International Tables Vol C Tables 4.2.6.8 and 6.1.1.4'
Cl Cl 0.1484 0.1585 'International Tables Vol C Tables 4.2.6.8 and 6.1.1.4'
I I -0.4742 1.8119 'International Tables Vol C Tables 4.2.6.8 and 6.1.1.4'
N N 0.0061 0.0033 'International Tables Vol C Tables 4.2.6.8 and 6.1.1.4'
Pt Pt -1.7033 8.3905 'International Tables Vol C Tables 4.2.6.8 and 6.1.1.4'
loop_
_geom_angle_atom_site_label_1
_geom_angle_atom_site_label_2
_geom_angle_atom_site_label_3
_geom_angle
_geom_angle_site_symmetry_1
_geom_angle_site_symmetry_3
N1 Pt1 N1 180.0 . 2_777
N1 Pt1 Cl1 91.03(19) . .
N1 Pt1 Cl1 88.97(19) 2_777 .
N1 Pt1 Cl1 88.97(19) . 2_777
N1 Pt1 Cl1 91.03(19) 2_777 2_777
Cl1 Pt1 Cl1 180.00(8) . 2_777
C1 N1 Pt1 176.6(6) . .
C1 N2 C6 122.1(6) . .
C1 N2 C2 121.2(6) . .
C6 N2 C2 116.1(5) . .
I3S C1S I1S 110.4(3) . .
I3S C1S I2S 112.7(3) . .
I1S C1S I2S 112.5(3) . .
I3S C1S H1S 107.0 . .
I1S C1S H1S 107.0 . .
I2S C1S H1S 107.0 . .
N1 C1 N2 178.5(8) . .
N2 C6 C5 109.8(6) . .
N2 C6 H6A 109.7 . .
C5 C6 H6A 109.7 . .
N2 C6 H6B 109.7 . .
C5 C6 H6B 109.7 . .
H6A C6 H6B 108.2 . .
C4 C5 C6 110.8(6) . .
C4 C5 H5A 109.5 . .
C6 C5 H5A 109.5 . .
C4 C5 H5B 109.5 . .
C6 C5 H5B 109.5 . .
H5A C5 H5B 108.1 . .
N2 C2 C3 108.5(6) . .
N2 C2 H2A 110.0 . .
C3 C2 H2A 110.0 . .
N2 C2 H2B 110.0 . .
C3 C2 H2B 110.0 . .
H2A C2 H2B 108.4 . .
C3 C4 C5 111.1(6) . .
C3 C4 H4A 109.4 . .
C5 C4 H4A 109.4 . .
C3 C4 H4B 109.4 . .
C5 C4 H4B 109.4 . .
H4A C4 H4B 108.0 . .
C4 C3 C2 112.1(6) . .
C4 C3 H3A 109.2 . .
C2 C3 H3A 109.2 . .
C4 C3 H3B 109.2 . .
C2 C3 H3B 109.2 . .
H3A C3 H3B 107.9 . .
loop_
_geom_bond_atom_site_label_1
_geom_bond_atom_site_label_2
_geom_bond_distance
_geom_bond_site_symmetry_2
Pt1 N1 1.960(6) .
Pt1 N1 1.960(6) 2_777
Pt1 Cl1 2.3098(17) .
Pt1 Cl1 2.3098(17) 2_777
I1S C1S 2.142(6) .
I2S C1S 2.151(6) .
I3S C1S 2.141(6) .
N1 C1 1.153(8) .
N2 C1 1.305(8) .
N2 C6 1.463(8) .
N2 C2 1.463(8) .
C1S H1S 1.0000 .
C6 C5 1.518(9) .
C6 H6A 0.9900 .
C6 H6B 0.9900 .
C5 C4 1.516(9) .
C5 H5A 0.9900 .
C5 H5B 0.9900 .
C2 C3 1.530(9) .
C2 H2A 0.9900 .
C2 H2B 0.9900 .
C4 C3 1.513(10) .
C4 H4A 0.9900 .
C4 H4B 0.9900 .
C3 H3A 0.9900 .
C3 H3B 0.9900 .
