#------------------------------------------------------------------------------
#$Date: 2016-05-06 03:19:51 +0300 (Fri, 06 May 2016) $
#$Revision: 182609 $
#$URL: svn://www.crystallography.net/cod/cif/7/11/89/7118912.cif $
#------------------------------------------------------------------------------
#
# This file is available in the Crystallography Open Database (COD),
# http://www.crystallography.net/
#
# All data on this site have been placed in the public domain by the
# contributors.
#
data_7118912
loop_
_publ_author_name
'Ivanov, Daniil M.'
'Novikov, Alexander S.'
'Ananyev, Ivan V.'
'Kirina, Yulia V.'
'Kukushkin, Vadim Yu'
_publ_section_title
;
 Halogen bonding between metal centers and halocarbons.
;
_journal_issue                   32
_journal_name_full
'Chemical communications (Cambridge, England)'
_journal_page_first              5565
_journal_page_last               5568
_journal_paper_doi               10.1039/c6cc01107a
_journal_volume                  52
_journal_year                    2016
_chemical_formula_moiety         'C12 H20 Cl2 N4 Pt, 2(C H I3)'
_chemical_formula_sum            'C14 H22 Cl2 I6 N4 Pt'
_chemical_formula_weight         1273.74
_space_group_crystal_system      triclinic
_space_group_IT_number           2
_space_group_name_Hall           '-P 1'
_space_group_name_H-M_alt        'P -1'
_symmetry_space_group_name_Hall  '-P 1'
_symmetry_space_group_name_H-M   'P -1'
_atom_sites_solution_hydrogens   geom
_audit_creation_method           SHELXL-2014/6
_audit_update_record
;
2016-01-11 deposited with the CCDC.
2016-03-16 downloaded from the CCDC.
;
_cell_angle_alpha                114.172(2)
_cell_angle_beta                 100.036(2)
_cell_angle_gamma                108.096(2)
_cell_formula_units_Z            1
_cell_length_a                   9.1724(12)
_cell_length_b                   9.2419(12)
_cell_length_c                   10.1625(13)
_cell_measurement_reflns_used    215
_cell_measurement_temperature    150(2)
_cell_measurement_theta_max      25
_cell_measurement_theta_min      3
_cell_volume                     700.48(16)
_computing_cell_refinement       'Bruker SAINT'
_computing_data_collection       'Bruker APEX II'
_computing_data_reduction        'Bruker SAINT'
_computing_molecular_graphics    'Bruker SHELXTL'
_computing_publication_material  'Bruker SHELXTL'
_computing_structure_refinement  'SHELXL-97 (Sheldrick, 1997)'
_computing_structure_solution    'SHELXS-97 (Sheldrick, 1997)'
_diffrn_ambient_temperature      150(2)
_diffrn_measured_fraction_theta_full 1.000
_diffrn_measured_fraction_theta_max 0.999
_diffrn_measurement_device_type  'Bruker APEX II CCD area detector''
_diffrn_measurement_method       'omega scans'
_diffrn_radiation_type           MoK\a
_diffrn_radiation_wavelength     0.71073
_diffrn_reflns_av_R_equivalents  0.0280
_diffrn_reflns_av_unetI/netI     0.0407
_diffrn_reflns_Laue_measured_fraction_full 1.000
_diffrn_reflns_Laue_measured_fraction_max 0.999
_diffrn_reflns_limit_h_max       12
_diffrn_reflns_limit_h_min       -12
_diffrn_reflns_limit_k_max       12
_diffrn_reflns_limit_k_min       -12
_diffrn_reflns_limit_l_max       13
_diffrn_reflns_limit_l_min       -13
_diffrn_reflns_number            7371
_diffrn_reflns_point_group_measured_fraction_full 1.000
_diffrn_reflns_point_group_measured_fraction_max 0.999
_diffrn_reflns_theta_full        25.242
_diffrn_reflns_theta_max         27.997
_diffrn_reflns_theta_min         2.343
_exptl_absorpt_coefficient_mu    11.819
_exptl_absorpt_correction_T_max  0.266
_exptl_absorpt_correction_T_min  0.179
_exptl_absorpt_correction_type   multi-scan
_exptl_absorpt_process_details   SADABS
_exptl_crystal_colour            yellow
_exptl_crystal_density_diffrn    3.020
_exptl_crystal_description       prism
_exptl_crystal_F_000             564
_exptl_crystal_size_max          0.210
_exptl_crystal_size_mid          0.190
_exptl_crystal_size_min          0.160
_refine_diff_density_max         1.926
_refine_diff_density_min         -1.053
_refine_diff_density_rms         0.185
_refine_ls_extinction_method     none
_refine_ls_goodness_of_fit_ref   0.990
_refine_ls_hydrogen_treatment    constr
_refine_ls_matrix_type           full
_refine_ls_number_parameters     124
_refine_ls_number_reflns         3378
_refine_ls_number_restraints     0
_refine_ls_restrained_S_all      0.990
_refine_ls_R_factor_all          0.0533
_refine_ls_R_factor_gt           0.0344
_refine_ls_shift/su_max          0.000
_refine_ls_shift/su_mean         0.000
_refine_ls_structure_factor_coef Fsqd
_refine_ls_weighting_details
'w=1/[\s^2^(Fo^2^)+(0.0406P)^2^] where P=(Fo^2^+2Fc^2^)/3'
_refine_ls_weighting_scheme      calc
_refine_ls_wR_factor_gt          0.0724
_refine_ls_wR_factor_ref         0.0798
_reflns_Friedel_coverage         0.000
_reflns_number_gt                2571
_reflns_number_total             3378
_reflns_threshold_expression     I>2\s(I)
_cod_data_source_file            c6cc01107a2.cif
_cod_data_source_block           200
_cod_depositor_comments
'Adding full bibliography for 7118900--7118914.cif.'
_cod_database_code               7118912
_shelx_space_group_comment
;
The symmetry employed for this shelxl refinement is uniquely defined
by the following loop, which should always be used as a source of
symmetry information in preference to the above space-group names.
They are only intended as comments.
;
_shelx_estimated_absorpt_t_min   0.190
_shelx_estimated_absorpt_t_max   0.254
_shelxl_version_number           2014/6
_shelx_res_file
;
TITL 200 in P-1
CELL 0.71073   9.1724   9.2419  10.1625 114.172 100.036 108.096
ZERR    1.00   0.0012   0.0012   0.0013   0.002   0.002   0.002
LATT  1
SFAC C H N CL I PT
UNIT 14 22 4 2 6 1
size 0.21 0.19 0.16
L.S. 20
PLAN  20
temp -123.00
BOND $H
fmap 2
conf
htab
omit -4 56
acta

WGHT    0.040600
FVAR       0.10574
PT1   6    0.000000    0.000000    0.000000    10.50000    0.02799    0.02254 =
         0.03899    0.00731    0.01707    0.00861
CL1   4    0.063206   -0.010713    0.225456    11.00000    0.03214    0.03912 =
         0.04289    0.01637    0.01730    0.01064
C3    1    0.709975    0.338111   -0.042715    11.00000    0.04329    0.05717 =
         0.05559    0.02679    0.03111    0.02488
AFIX  23
H3A   2    0.781487    0.293285   -0.093516    11.00000   -1.20000
H3B   2    0.631838    0.344963   -0.118023    11.00000   -1.20000
AFIX   0
C1    1    0.368797    0.197502    0.062489    11.00000    0.04143    0.02853 =
         0.03286    0.01286    0.01862    0.01670
N1    3    0.233542    0.120840    0.036930    11.00000    0.02451    0.02785 =
         0.04102    0.00442    0.01298    0.00281
C6    1    0.620817    0.461263    0.229501    11.00000    0.04248    0.03669 =
         0.03859   -0.00314    0.01509   -0.00368
AFIX  23
H6A   2    0.698010    0.453098    0.304497    11.00000   -1.20000
H6B   2    0.547404    0.503760    0.278873    11.00000   -1.20000
AFIX   0
N2    3    0.523328    0.286573    0.091689    11.00000    0.03359    0.02985 =
         0.04864    0.00164    0.02360    0.00042
C2    1    0.615555    0.210591    0.002388    11.00000    0.04270    0.03816 =
         0.04976    0.01366    0.02262    0.01538
AFIX  23
H2A   2    0.539631    0.097815   -0.090932    11.00000   -1.20000
H2B   2    0.692102    0.188160    0.064716    11.00000   -1.20000
AFIX   0
C5    1    0.713380    0.586616    0.185398    11.00000    0.04528    0.03242 =
         0.05455    0.01427    0.01050    0.01183
AFIX  23
H5A   2    0.787374    0.699312    0.279644    11.00000   -1.20000
H5B   2    0.635558    0.608922    0.124234    11.00000   -1.20000
AFIX   0
C4    1    0.813146    0.518907    0.092639    11.00000    0.04427    0.04453 =
         0.07110    0.02885    0.03190    0.01098
AFIX  23
H4A   2    0.861792    0.599667    0.055567    11.00000   -1.20000
H4B   2    0.903615    0.516219    0.159417    11.00000   -1.20000
AFIX   0
I1S   5    0.451833    0.161656    0.421518    11.00000    0.03714    0.03166 =
         0.04120    0.01608    0.01745    0.01388
I3S   5    0.817898    0.540165    0.670151    11.00000    0.04319    0.02974 =
         0.05651    0.01382    0.01529    0.01184
I2S   5    0.834342    0.145814    0.415430    11.00000    0.04505    0.04238 =
         0.04829    0.02102    0.02667    0.02220
C1S   1    0.703473    0.258849    0.551470    11.00000    0.04212    0.02891 =
         0.03621    0.01891    0.02165    0.01654
AFIX  13
H1SA  2    0.706440    0.223029    0.632010    11.00000   -1.20000

AFIX   0
HKLF 4

REM  200 in P-1
REM R1 =  0.0344 for    2571 Fo > 4sig(Fo)  and  0.0533 for all    3378 data
REM    124 parameters refined using      0 restraints

END

WGHT      0.0408      0.0000

REM Instructions for potential hydrogen bonds
EQIV $1 -x+1, -y, -z
HTAB C2 I1S_$1
EQIV $2 -x+1, -y, -z+1
HTAB C1S I1S_$2

REM Highest difference peak  1.926,  deepest hole -1.053,  1-sigma level  0.185
Q1    1   0.1008  0.0833  0.0574  11.00000  0.05    1.93
Q2    1   0.0533 -0.0378  0.0635  11.00000  0.05    1.82
Q3    1   0.8987  0.1122  0.4881  11.00000  0.05    1.16
Q4    1   0.5031  0.1170  0.4789  11.00000  0.05    1.14
Q5    1   0.3978  0.1995  0.3641  11.00000  0.05    1.07
Q6    1   0.7926  0.1959  0.3639  11.00000  0.05    1.05
Q7    1   0.8344  0.4984  0.7420  11.00000  0.05    1.00
Q8    1   0.0209 -0.0740 -0.0452  11.00000  0.05    1.00
Q9    1   0.5574  0.2427  0.4757  11.00000  0.05    0.98
Q10   1   0.7431  0.0382  0.3618  11.00000  0.05    0.92
Q11   1   0.7572  0.5759  0.6034  11.00000  0.05    0.92
Q12   1   0.4215  0.1056  0.4758  11.00000  0.05    0.87
Q13   1   0.7241  0.4576  0.6171  11.00000  0.05    0.87
Q14   1   0.8704  0.2022  0.3598  11.00000  0.05    0.86
Q15   1   0.3512  0.0589  0.3601  11.00000  0.05    0.85
Q16   1   0.1378  0.0541  0.2690  11.00000  0.05    0.76
Q17   1   0.9087  0.5238  0.7324  11.00000  0.05    0.74
Q18   1   0.1007  0.0233  0.1766  11.00000  0.05    0.72
Q19   1   0.9198  0.6266  0.7187  11.00000  0.05    0.68
Q20   1   0.8369  0.5986  0.6016  11.00000  0.05    0.68
;
_shelx_res_checksum              37501
_shelx_hkl_file
;
   0   1   0  102.59    1.60
   0   1   0  101.66    1.25
   0   1   0  106.21    1.36
   0  -1   0  103.80    1.27
   0   2   0  112.06    2.10
   0   2   0  110.21    1.71
   0  -2   0  106.12    1.53
   0   3   0  200.09    3.52
   0   3   0  199.46    2.93
   0  -3   0  193.26    2.63
   0   4   0    7.41    0.73
   0   4   0    5.99    0.91
   0  -4   0    7.03    0.63
   0   5   0   27.75    1.25
   0  -5   0   27.76    1.02
   0   6   0  149.91    3.09
   0  -6   0  149.45    2.55
   0   7   0  112.97    2.90
   0   8   0    7.60    1.14
   0   9   0    2.81    0.95
   0  10   0    2.38    0.97
  -1  11   0    3.70    1.12
  -1  10   0   -1.89    0.70
  -1   9   0   28.85    1.77
  -1   8   0    1.23    0.68
   1  -7   0   57.38    1.61
  -1   7   0   55.18    1.94
   1  -6   0    0.47    0.55
  -1   6   0    0.12    0.52
   1  -5   0  116.77    2.17
  -1   5   0  112.28    2.40
   1  -4   0   18.42    0.89
  -1   4   0   18.15    0.96
   1  -3   0  267.11    3.45
  -1   3   0  267.06    3.57
   1  -2   0  114.92    1.74
  -1   2   0  118.64    1.78
   1  -1   0    6.79    0.37
  -1   1   0    4.70    0.31
   1   0   0   40.63    0.80
   1   0   0   40.22    0.72
   1   0   0   40.41    0.79
   1   1   0   68.04    1.21
   1   1   0   69.22    1.48
   1   1   0   68.37    1.17
   1   2   0  617.69    6.80
   1   2   0  602.80    7.84
  -1  -2   0  607.62    6.76
   1   3   0   27.11    1.49
   1   3   0   29.16    1.12
  -1  -3   0   28.83    0.90
   1   4   0  178.75    3.78
   1   4   0  182.26    3.16
  -1  -4   0  182.88    2.78
   1   5   0   11.76    1.00
   1   5   0   14.02    1.46
  -1  -5   0   13.11    0.77
   1   6   0   20.70    1.36
  -1  -6   0   21.09    1.05
   1   7   0    0.92    0.72
   1   8   0   45.80    2.04
   1   9   0   17.96    1.54
   1  10   0   10.39    1.45
  -2  11   0   12.23    1.50
  -2  10   0    4.00    1.02
  -2   9   0   -0.36    0.68
  -2   8   0   16.43    1.39
   2  -7   0   25.88    1.23
  -2   7   0   24.29    1.39
   2  -6   0   40.23    1.39
  -2   6   0   38.79    1.53
   2  -5   0  509.40    6.34
  -2   5   0  503.38    6.48
   2  -4   0   42.32    1.29
  -2   4   0   43.35    1.34
   2  -3   0  108.62    1.97
  -2   3   0  111.65    2.01
   2  -2   0  258.76    3.47
  -2   2   0  254.83    3.40
   2  -1   0  109.84    1.90
  -2   1   0  109.06    1.79
   2   0   0    9.29    0.58
   2   0   0   10.18    0.73
   2   0   0   10.02    0.71
   2   1   0  535.73    6.84
   2   1   0  527.26    6.08
   2   1   0  535.10    6.33
   2   2   0  215.60    3.21
   2   2   0  218.54    3.17
   2   2   0  218.80    3.80
   2   3   0   50.34    1.51
   2   3   0   51.62    2.00
  -2  -3   0   50.52    1.30
   2   4   0    9.75    0.95
   2   4   0    9.75    1.23
  -2  -4   0    8.34    0.68
   2   5   0    3.45    1.10
   2   5   0    3.92    0.83
  -2  -5   0    4.73    0.64
   2   6   0   51.07    2.03
  -2  -6   0   55.42    1.59
   2   7   0    7.55    1.11
   2   8   0   45.18    2.13
   2   9   0    0.13    0.87
  -3  11   0    0.37    0.84
  -3  10   0   27.16    1.76
  -3   9   0   10.78    1.23
   3  -8   0   41.48    1.63
  -3   8   0   43.52    1.84
   3  -7   0    3.23    0.77
  -3   7   0    2.92    0.72
   3  -6   0    1.89    0.63
  -3   6   0    1.17    0.54
   3  -5   0    2.49    0.64
  -3   5   0    1.76    0.54
   3  -4   0   78.63    1.91
  -3   4   0   75.50    1.86
   3  -3   0  458.52    5.92
  -3   3   0  454.22    5.71
   3  -2   0  104.97    2.12
  -3   2   0  103.50    2.01
   3  -1   0  138.53    2.48
  -3   1   0  132.55    2.32
   3   0   0  147.56    2.69
   3   0   0  153.65    2.49
   3   0   0  150.18    2.71
   3   1   0   10.20    0.93
   3   1   0   10.02    0.87
   3   1   0   10.21    0.91
   3   2   0    1.65    0.53
   3   2   0    1.98    0.59
   3   2   0    1.69    0.65
   3   3   0  371.06    5.18
   3   3   0  378.27    5.38
   3   3   0  375.90    6.27
   3   4   0   86.19    2.30
   3   4   0   85.30    2.86
  -3  -4   0   83.79    1.98
   3   5   0   94.99    2.54
   3   5   0   93.62    3.29
  -3  -5   0   92.78    2.15
   3   6   0    0.98    0.75
   3   7   0    2.51    0.90
   3   8   0    1.32    0.91
   3   9   0    7.11    1.33
  -4  11   0    5.78    1.18
  -4  10   0   25.72    1.78
  -4   9   0    0.34    0.72
   4  -8   0   19.86    1.43
  -4   8   0   19.87    1.47
   4  -7   0   11.48    1.20
  -4   7   0   11.56    1.17
   4  -6   0   41.29    1.64
  -4   6   0   37.96    1.59
   4  -5   0    1.09    0.63
  -4   5   0    0.42    0.47
   4  -4   0  142.63    2.90
  -4   4   0  144.03    2.83
   4  -3   0   30.81    1.37
  -4   3   0   29.90    1.25
   4  -2   0   52.08    1.70
  -4   2   0   53.61    1.60
   4  -1   0    7.94    0.70
   4  -1   0   11.94    1.14
  -4   1   0    9.49    0.79
   4   0   0   16.80    1.28
   4   0   0   17.12    1.03
   4   0   0   18.47    1.40
   4   1   0   74.23    2.08
   4   1   0   78.89    2.17
   4   1   0   76.38    2.07
   4   2   0    4.20    0.81
   4   2   0    3.57    0.74
   4   2   0    3.59    0.86
   4   3   0   70.81    2.19
   4   3   0   71.76    2.60
   4   3   0   70.07    2.11
   4   4   0    0.98    0.75
   4   4   0    0.84    0.98
  -4  -4   0    1.86    0.61
   4   5   0   34.81    1.78
  -4  -5   0   32.18    1.40
   4   6   0    1.09    0.85
   4   7   0   34.31    2.01
   4   8   0    0.99    0.96
  -5  11   0    0.42    0.90
  -5  10   0   -0.09    0.77
   5  -9   0   25.81    1.66
  -5   9   0   28.30    1.77
   5  -8   0   74.86    2.41
  -5   8   0   71.91    2.46
   5  -7   0   29.01    1.65
  -5   7   0   30.07    1.63
   5  -6   0   13.94    1.36
  -5   6   0   13.79    1.30
   5  -5   0   96.08    2.57
  -5   5   0  100.85    2.56
   5  -4   0    1.56    0.76
  -5   4   0    1.04    0.53
   5  -3   0    4.74    0.90
  -5   3   0    4.22    0.71
   5  -2   0  481.91    6.87
  -5   2   0  462.12    6.40
   5  -1   0   94.88    1.88
   5  -1   0   94.47    2.52
  -5   1   0   89.28    2.23
   5   0   0  124.19    2.59
   5   0   0  124.88    2.99
  -5   0   0  118.71    2.66
   5   1   0   31.28    1.67
   5   1   0   29.30    1.62
   5   1   0   30.57    1.53
   5   2   0    4.40    1.02
   5   2   0    4.09    0.96
   5   2   0    2.50    1.03
   5   3   0    3.87    1.02
   5   3   0    5.49    1.13
   5   3   0    4.85    1.13
   5   4   0   37.54    1.95
   5   4   0   35.25    2.36
  -5  -4   0   36.83    1.62
   5   5   0   62.75    2.50
  -5  -5   0   58.51    1.99
   5   6   0   13.94    1.59
   5   7   0    4.91    1.23
  -6  11   0   13.91    1.66
  -6  10   0    0.24    0.82
   6  -9   0    9.98    1.35
  -6   9   0    9.75    1.27
   6  -8   0    3.03    1.00
  -6   8   0    2.98    0.89
   6  -7   0   23.08    1.68
  -6   7   0   22.21    1.56
   6  -6   0   10.32    0.78
   6  -6   0   11.93    1.41
  -6   6   0    8.26    1.09
   6  -5   0   44.00    1.96
  -6   5   0   47.78    1.93
   6  -4   0   21.09    1.49
  -6   4   0   17.61    1.27
   6  -3   0    5.52    1.07
  -6   3   0    4.97    0.79
   6  -2   0    1.68    0.81
  -6   2   0    0.73    0.50
   6  -1   0    2.01    0.53
   6  -1   0    1.52    0.85
  -6   1   0    1.30    0.53
   6   0   0  102.53    2.47
   6   0   0  104.16    2.97
  -6   0   0   97.88    2.51
   6   1   0   11.24    1.47
   6   1   0   12.40    1.40
   6   1   0    9.46    1.19
   6   2   0   79.29    2.75
   6   2   0   77.50    2.69
   6   2   0   74.26    2.68
   6   3   0    2.69    1.02
   6   3   0    2.15    1.10
   6   3   0   -0.57    0.91
   6   4   0    1.62    0.97
  -6  -4   0    1.42    0.77
   6   5   0    3.70    1.15
   6   6   0    9.91    1.58
   6   7   0    6.26    1.44
  -7  11   0   -1.91    0.83
  -7  10   0    6.10    1.24
   7  -9   0   -0.87    0.86
  -7   9   0   -0.43    0.75
   7  -8   0    1.06    0.98
  -7   8   0    0.66    0.77
   7  -7   0  102.72    3.26
   7  -7   0   97.38    3.10
  -7   7   0   93.44    2.98
   7  -6   0   15.30    1.66
  -7   6   0   13.97    1.40
   7  -5   0   46.98    2.11
  -7   5   0   45.37    2.00
   7  -4   0   32.30    1.96
  -7   4   0   34.44    1.73
   7  -3   0    1.42    0.89
  -7   3   0    1.59    0.65
   7  -2   0    2.47    0.98
  -7   2   0    2.79    0.71
   7  -1   0   34.73    2.03
   7  -1   0   33.66    1.41
  -7   1   0   37.88    1.66
   7   0   0   29.62    2.07
   7   0   0   31.24    1.61
  -7   0   0   29.23    1.51
   7   1   0   11.00    1.31
   7   1   0   14.69    1.69
  -7  -1   0   12.95    1.32
   7   2   0    3.06    1.11
   7   2   0    4.42    1.22
   7   2   0    2.50    1.08
   7   3   0    1.37    1.05
   7   3   0    2.24    1.20
   7   4   0    6.84    1.35
  -7  -4   0    9.59    1.30
   7   5   0    0.32    1.03
   7   6   0    9.72    1.58
  -8  11   0    6.05    1.42
   8 -10   0   20.40    1.85
  -8  10   0   22.15    2.06
   8  -9   0   -0.08    0.95
  -8   9   0    1.08    0.94
   8  -8   0    1.52    1.02
  -8   8   0    2.01    0.96
   8  -7   0    4.87    1.19
  -8   7   0    4.65    1.09
   8  -6   0   -0.15    1.01
  -8   6   0   -0.36    0.67
   8  -5   0   68.38    2.76
  -8   5   0   67.41    2.58
   8  -4   0   33.31    2.05
  -8   4   0   33.02    1.80
   8  -3   0   48.83    2.29
  -8   3   0   53.76    2.10
   8  -2   0   23.64    1.91
  -8   2   0   19.11    1.39
   8  -1   0   -0.75    0.67
   8  -1   0    1.29    1.06
  -8   1   0    0.75    0.65
   8   0   0   10.11    1.55
   8   0   0   11.61    1.30
  -8   0   0   13.32    1.31
   8   1   0   32.94    2.20
  -8  -1   0   35.75    1.85
   8   2   0   18.64    1.97
   8   3   0   23.44    2.06
   8   3   0   21.53    2.11
   8   4   0    1.16    1.15
   8   5   0   -0.28    1.11
  -9  11   0    0.70    1.19
   9 -10   0    4.94    1.33
  -9  10   0    8.64    1.59
   9  -9   0   -0.25    1.07
  -9   9   0   -0.94    0.95
   9  -8   0    6.60    1.57
  -9   8   0    7.34    1.35
   9  -7   0    1.69    1.12
  -9   7   0    1.27    0.93
   9  -6   0   16.47    1.85
  -9   6   0   16.64    1.68
   9  -5   0   -0.15    0.94
  -9   5   0   -0.18    0.75
   9  -4   0    6.85    1.34
  -9   4   0    4.80    1.05
   9  -3   0    3.13    1.21
  -9   3   0    2.93    0.79
   9  -2   0    4.30    1.33
  -9   2   0    5.43    0.94
   9  -1   0   15.78    1.85
  -9   1   0   16.21    1.33
   9   0   0   -1.10    0.99
  -9   0   0    0.63    0.62
   9   1   0    7.83    1.65
  -9  -1   0    7.72    1.15
   9   2   0    0.09    1.22
  -9  -2   0    1.43    0.80
   9   3   0    2.57    1.43
  -9  -3   0    4.41    1.06
  10 -10   0   12.85    1.79
 -10  10   0   16.07    1.95
  10  -9   0   13.78    1.84
 -10   9   0   19.97    2.07
  10  -8   0   11.86    1.77
 -10   8   0   10.90    1.62
  10  -7   0    4.46    1.28
 -10   7   0    2.45    1.08
  10  -6   0    1.04    1.06
 -10   6   0    1.62    0.90
  10  -5   0    5.06    1.28
 -10   5   0    3.62    1.00
  10  -4   0   31.84    2.25
 -10   4   0   33.00    1.97
  10  -3   0   17.49    2.04
 -10   3   0   14.03    1.45
  10  -2   0   33.36    2.36
 -10   2   0   33.27    1.88
  10  -1   0   -0.51    1.10
 -10   1   0    0.04    0.67
  10   0   0   -0.08    1.22
 -10   0   0    1.67    0.81
  10   1   0    1.38    1.31
 -10  -1   0    0.27    0.75
  10   2   0    2.04    1.43
 -10  -2   0    0.68    0.83
  11  -9   0    2.22    1.28
 -11   9   0    1.89    1.25
  11  -8   0    1.69    1.24
 -11   8   0    3.52    1.29
  11  -7   0   10.79    1.78
 -11   7   0   13.72    1.72
  11  -6   0    9.79    1.72
 -11   6   0    8.41    1.40
  11  -5   0   -0.15    1.07
 -11   5   0    1.35    0.84
  11  -4   0   -1.77    1.00
 -11   4   0    0.82    0.76
  11  -3   0    1.22    1.17
 -11   3   0    1.14    0.81
  11  -2   0    8.09    1.67
 -11   2   0    6.14    1.16
  11  -1   0    2.08    1.37
 -11   1   0    2.27    0.89
  11   0   0   19.13    2.33
 -11   0   0   21.28    1.73
  11   1   0    1.99    1.51
 -11  -1   0    0.27    0.84
  12  -8   0    2.13    1.38
 -12   8   0    2.67    1.23
  12  -7   0   10.48    1.88
 -12   7   0   10.20    1.61
  12  -6   0   -0.23    1.16
 -12   6   0    1.73    0.99
  12  -5   0   -0.02    1.30
 -12   5   0    1.09    0.88
  12  -4   0   -0.53    1.05
 -12   4   0    0.79    0.83
  12  -3   0    2.57    1.35
 -12   3   0    2.97    1.03
  12  -2   0    5.71    1.67
 -12   2   0    5.03    1.13
 -12   1   1   -0.14    0.83
  12  -1  -1   -0.13    1.32
 -12   2   1    1.47    0.96
  12  -2  -1    0.85    1.27
 -12   3   1    2.24    0.93
  12  -3  -1    0.55    1.35
 -12   4   1    6.93    1.22
  12  -4  -1    5.09    1.55
 -12   5   1    2.11    0.93
  12  -5  -1    3.65    1.40
 -12   6   1    7.41    1.38
  12  -6  -1    6.95    1.61
 -12   7   1    0.47    0.95
  12  -7  -1    0.78    1.22
 -12   8   1   -0.88    0.96
  12  -8  -1   -0.01    1.22
 -11  -1   1    6.58    1.26
  11   1  -1    4.48    1.53
 -11   0   1    1.50    0.89
  11   0  -1    0.75    1.33
 -11   1   1    1.76    0.90
  11  -1  -1   -0.49    1.14
 -11   2   1   -0.35    0.69
  11  -2  -1    0.01    1.15
 -11   3   1    4.83    1.05
  11  -3  -1    4.37    1.44
 -11   4   1   18.55    1.61
  11  -4  -1   17.29    2.03
 -11   5   1    7.44    1.24
  11  -5  -1    4.38    1.30
 -11   6   1    4.30    1.12
  11  -6  -1    8.26    1.56
 -11   7   1    2.70    1.11
  11  -7  -1    2.32    1.30
 -11   8   1    0.84    1.09
  11  -8  -1   -0.63    1.16
 -11   9   1   -0.44    1.03
  11  -9  -1    0.68    1.32
 -10  -3   1   -0.06    0.85
  10   3  -1   -0.91    1.36
 -10  -2   1    1.51    0.87
  10   2  -1    1.00    1.31
 -10  -1   1   15.32    1.65
  10   1  -1   10.48    1.83
 -10   0   1   11.00    1.33
  10   0  -1    9.05    1.69
 -10   1   1   32.36    1.87
  10  -1  -1   32.70    2.35
 -10   2   1    0.35    0.71
  10  -2  -1   -0.48    1.06
 -10   3   1    0.43    0.65
  10  -3  -1    0.14    1.04
 -10   4   1    6.42    1.11
  10  -4  -1    6.61    1.49
 -10   5   1    5.66    1.12
  10  -5  -1    4.26    1.30
 -10   6   1   27.65    1.95
  10  -6  -1   24.21    2.17
 -10   7   1   25.37    2.01
  10  -7  -1   20.81    2.20
 -10   8   1    8.42    1.47
  10  -8  -1    7.94    1.58
 -10   9   1    1.50    1.16
  10  -9  -1    2.77    1.29
 -10  10   1   -0.45    1.04
  10 -10  -1   -1.23    1.06
   9   4  -1    1.31    1.38
   9   3  -1    2.17    1.30
  -9  -2   1    9.96    1.31
   9   2  -1    7.15    1.51
  -9  -1   1   14.10    1.52
   9   1  -1   12.07    1.83
  -9   0   1    2.37    0.85
   9   0  -1    1.13    1.07
  -9   1   1   10.99    1.28
   9  -1  -1   10.30    1.64
  -9   2   1    0.44    0.57
   9  -2  -1    1.55    1.07
  -9   3   1   16.65    1.44
   9  -3  -1   19.55    1.78
  -9   4   1    0.81    0.69
   9  -4  -1   -0.54    0.92
  -9   5   1   12.48    1.39
   9  -5  -1   10.36    1.53
  -9   6   1    0.24    0.69
   9  -6  -1    0.93    0.96
  -9   7   1   13.03    1.58
   9  -7  -1   14.30    1.72
  -9   8   1    1.15    0.97
   9  -8  -1    3.19    1.20
  -9   9   1    9.29    1.54
   9  -9  -1    8.73    1.54
  -9  10   1    3.80    1.32
   9 -10  -1    1.37    1.16
   8   5  -1    8.23    1.56
   8   4  -1   25.78    2.23
   8   4  -1   30.07    2.24
   8   3  -1   -0.21    1.03
   8   3  -1    0.20    1.05
   8   2  -1   -0.76    0.99
  -8  -1   1    6.68    1.00
   8   1  -1    6.69    1.40
  -8   0   1   39.71    1.87
   8   0  -1   42.02    2.35
  -8   1   1   49.89    2.02
   8  -1  -1   53.87    2.45
  -8   2   1   71.12    2.40
   8  -2  -1   65.82    2.60
  -8   3   1    8.33    1.13
   8  -3  -1   10.80    1.53
  -8   4   1    4.52    0.94
   8  -4  -1    4.45    1.10
  -8   5   1    2.78    0.86
   8  -5  -1    0.84    1.00
  -8   6   1    3.15    0.95
   8  -6  -1    1.84    1.01
  -8   7   1   47.52    2.34
   8  -7  -1   44.65    2.37
  -8   8   1   20.16    1.77
   8  -8  -1   21.51    2.03
  -8   9   1   33.65    2.19
   8  -9  -1   28.07    2.11
  -8  10   1    0.63    1.00
   8 -10  -1    1.03    1.12
  -8  11   1   -0.06    1.04
   7   6  -1    0.20    1.01
   7   5  -1    1.14    1.02
   7   4  -1   11.68    1.66
   7   4  -1    9.27    1.48
   7   3  -1   15.95    1.70
   7   3  -1   21.01    1.89
   7   2  -1   74.84    2.90
   7   2  -1   73.32    2.75
   7   1  -1    0.60    1.00
  -7   0   1    8.92    1.06
   7   0  -1   11.79    1.48
  -7   1   1   17.57    1.20
   7  -1  -1   21.62    1.64
  -7   2   1   51.81    1.94
   7  -2  -1   52.09    2.25
  -7   3   1   24.05    1.43
   7  -3  -1   24.74    1.65
  -7   4   1  126.77    3.21
   7  -4  -1  133.99    3.41
  -7   5   1   18.01    1.40
   7  -5  -1   17.80    1.72
  -7   6   1    2.85    0.84
   7  -6  -1    2.69    1.08
  -7   7   1    7.21    1.16
   7  -7  -1    7.18    1.41
  -7   8   1   -0.41    0.69
   7  -8  -1    0.97    1.06
  -7   9   1   17.65    1.77
   7  -9  -1   17.37    1.86
  -7  10   1   13.90    1.66
  -7  11   1   15.87    1.84
   6   7  -1    1.21    1.06
   6   6  -1    0.59    1.02
   6   5  -1   46.77    2.39
   6   4  -1   24.88    1.87
   6   4  -1   27.26    1.82
   6   3  -1   95.32    2.80
   6   3  -1   96.11    3.02
   6   2  -1    5.79    1.17
   6   2  -1    4.48    1.07
   6   1  -1    0.90    0.87
   6   1  -1   -0.84    0.73
  -6   0   1    0.43    0.42
   6   0  -1   -0.99    0.68
  -6   1   1    8.10    0.93
   6  -1  -1    7.02    1.11
  -6   2   1  136.40    3.03
   6  -2  -1  134.48    3.17
  -6   3   1   52.69    1.90
   6  -3  -1   52.40    2.03
  -6   4   1  122.93    2.97
   6  -4  -1  123.14    3.04
  -6   5   1    3.62    0.80
   6  -5  -1    3.94    1.00
  -6   6   1   22.04    1.47
   6  -6  -1   20.94    1.62
  -6   7   1   -0.92    0.62
   6  -7  -1   -0.02    0.87
  -6   8   1   24.59    1.72
   6  -8  -1   27.66    1.78
  -6   9   1    1.19    0.83
   6  -9  -1    2.40    1.02
  -6  10   1   12.17    1.54
  -6  11   1    1.57    1.01
   5   8  -1   19.48    1.99
   5   7  -1   29.47    2.03
   5   6  -1    1.72    0.97
  -5  -5   1    4.24    0.77
   5   5  -1    4.44    1.10
   5   4  -1   17.50    1.50
   5   4  -1   13.56    1.55
   5   3  -1   55.81    2.08
   5   3  -1   55.58    2.21
   5   2  -1   56.74    2.08
   5   2  -1   57.03    2.01
   5   1  -1  466.79    6.76
   5   1  -1  476.33    6.77
  -5   0   1   34.90    1.45
   5   0  -1   35.07    1.64
  -5   1   1   11.45    0.94
   5  -1  -1   10.94    1.14
  -5   2   1   63.18    1.89
   5  -2  -1   61.81    1.99
  -5   3   1    0.41    0.45
   5  -3  -1    0.16    0.59
  -5   4   1  129.74    2.85
   5  -4  -1  127.82    2.94
  -5   5   1  195.15    3.70
   5  -5  -1  193.92    3.81
  -5   6   1  150.15    3.31
   5  -6  -1  144.61    3.31
  -5   7   1    1.08    0.68
   5  -7  -1    0.45    0.85
  -5   8   1    0.52    0.69
   5  -8  -1    1.42    0.90
  -5   9   1    8.17    1.20
   5  -9  -1    9.49    1.32
  -5  10   1   17.73    1.67
  -5  11   1    6.86    1.24
   4   9  -1    1.08    1.05
   4   8  -1   21.25    1.86
   4   7  -1   -1.06    0.71
   4   6  -1   17.89    1.52
  -4  -5   1    1.04    0.55
   4   5  -1    0.71    0.80
   4   4  -1   41.84    1.91
   4   4  -1   44.43    1.67
   4   3  -1   69.34    2.15
   4   3  -1   74.24    2.02
   4   2  -1   22.01    1.28
   4   2  -1   21.33    1.31
   4   1  -1  100.57    2.38
   4   1  -1  103.17    2.35
   4   0  -1   15.91    1.28
   4   0  -1   17.50    1.14
  -4   1   1  323.45    4.57
   4  -1  -1  318.18    4.71
  -4   2   1    7.41    0.78
   4  -2  -1    7.47    0.93
  -4   3   1  177.16    3.13
   4  -3  -1  174.36    3.22
  -4   4   1   13.49    0.97
   4  -4  -1   14.41    1.11
  -4   5   1   42.32    1.60
   4  -5  -1   45.26    1.72
  -4   6   1    9.53    1.01
   4  -6  -1    9.58    1.14
  -4   7   1   82.05    2.38
   4  -7  -1   75.14    2.34
  -4   8   1   39.11    1.83
   4  -8  -1   36.58    1.71
  -4   9   1    7.59    1.13
  -4  10   1    1.49    0.86
  -4  11   1   -0.70    0.75
   3   9  -1    0.46    0.87
   3   8  -1   17.66    1.59
   3   7  -1   20.12    1.55
   3   6  -1  149.29    3.42
  -3  -5   1   12.66    0.79
   3   5  -1   13.33    1.26
  -3  -4   1    6.93    0.68
   3   4  -1    5.49    0.83
   3   3  -1   84.51    2.18
   3   3  -1   81.16    1.84
   3   2  -1   66.04    1.81
   3   2  -1   64.82    1.70
   3   1  -1  192.05    3.15
   3   1  -1  190.28    3.10
   3   0  -1  637.20    7.56
   3   0  -1  625.70    7.51
  -3   1   1  389.25    5.00
   3  -1  -1  388.73    5.10
  -3   2   1    2.01    0.45
   3  -2  -1    2.27    0.57
  -3   3   1   -0.21    0.36
   3  -3  -1    0.45    0.53
  -3   4   1   33.84    1.28
   3  -4  -1   34.75    1.40
  -3   5   1  169.97    3.12
   3  -5  -1  172.71    3.23
  -3   6   1   51.18    1.75
   3  -6  -1   49.62    1.80
  -3   7   1  146.66    3.21
   3  -7  -1  148.41    3.10
  -3   8   1    0.10    0.60
   3  -8  -1    1.02    0.81
  -3   9   1    6.47    1.11
  -3  10   1    0.59    0.80
  -3  11   1    6.54    1.20
   2  10  -1    1.66    0.98
   2   9  -1   10.65    1.41
   2   8  -1    0.35    0.74
   2   7  -1   -0.28    0.68
  -2  -6   1   12.52    0.77
   2   6  -1   11.99    1.23
  -2  -5   1   39.16    1.07
   2   5  -1   34.14    1.51
  -2  -4   1  330.61    4.19
   2   4  -1  331.78    4.93
   2   3  -1   35.03    1.04
   2   3  -1   33.21    1.29
   2   2  -1   93.53    1.68
   2   2  -1   92.45    1.89
   2   1  -1  148.97    2.32
   2   1  -1  144.72    2.21
   2   0  -1   84.38    1.70
   2   0  -1   83.68    1.57
  -2   1   1   10.21    0.64
   2  -1  -1   13.64    0.77
  -2   2   1  992.09   12.26
  -2   2   1 1000.00   11.06
   2  -2  -1  978.30   11.50
  -2   3   1  283.74    3.83
  -2   3   1  286.23    4.21
   2  -3  -1  278.93    3.99
  -2   4   1  137.07    2.50
  -2   4   1  137.46    2.86
   2  -4  -1  135.72    2.62
  -2   5   1    7.40    0.99
  -2   5   1    9.03    0.88
   2  -5  -1    9.23    0.99
  -2   6   1   15.74    1.13
   2  -6  -1   16.96    1.24
  -2   7   1   20.61    1.36
   2  -7  -1   18.98    1.35
  -2   8   1   19.37    1.39
  -2   9   1   69.76    2.40
  -2  10   1    4.59    1.07
   1  10  -1   -0.75    0.77
   1   9  -1    3.14    0.95
   1   8  -1    8.14    1.18
   1   7  -1   33.55    1.72
  -1  -6   1   26.46    0.89
   1   6  -1   26.70    1.45
  -1  -5   1  168.70    2.35
   1   5  -1  171.23    3.24
  -1  -4   1   56.11    1.07
   1   4  -1   53.28    1.59
  -1  -3   1   25.58    0.63
   1   3  -1   24.59    1.04
   1   2  -1    0.51    0.33
   1   2  -1    1.36    0.25
   1   1  -1    0.40    0.23
   1   1  -1    1.25    0.26
  -1   0   1  194.94    2.40
   1   0  -1  203.10    2.45
   1   0  -1  196.77    2.46
   1   0  -1  197.33    2.46
  -1   1   1  147.05    1.89
  -1   1   1  144.57    2.12
   1  -1  -1  141.27    2.09
  -1   2   1  522.67    5.75
  -1   2   1  514.86    6.59
   1  -2  -1  521.46    6.10
  -1   3   1    0.80    0.37
  -1   3   1    1.07    0.57
   1  -3  -1    0.59    0.48
  -1   4   1  110.39    2.20
  -1   4   1  108.53    2.73
   1  -4  -1  107.35    2.17
  -1   5   1    0.30    0.44
  -1   5   1    0.24    0.67
   1  -5  -1   -0.35    0.47
  -1   6   1   69.58    2.03
  -1   6   1   68.98    2.59
   1  -6  -1   68.15    1.92
  -1   7   1    3.70    0.79
   1  -7  -1    3.20    0.87
  -1   8   1   20.02    1.45
  -1   9   1    3.64    1.01
  -1  10   1    1.91    0.97
   0  11  -1   -0.40    0.88
   0  10  -1   14.83    1.59
   0   9  -1   53.64    2.26
   0   8  -1    6.95    1.05
   0   7  -1    8.25    1.07
   0   6  -1   81.32    2.19
   0   5  -1   14.64    0.97
   0   4  -1    7.55    0.76
   0   3  -1  841.27    9.19
   0   2  -1  216.69    2.79
   0  -1   1  155.67    2.16
   0  -1   1  163.80    1.82
   0   1  -1  166.05    1.83
   0   0   1   71.07    1.27
   0   0  -1   79.00    1.13
   0   1   1   60.48    0.95
   0   1   1   57.55    1.40
   0  -1  -1   61.30    1.15
   0   2   1   12.38    0.60
   0   2   1   11.92    0.92
   0  -2  -1   11.75    0.66
   0   3   1  223.31    4.15
   0   3   1  227.66    3.25
   0  -3  -1  234.18    3.35
   0   4   1  405.13    5.31
   0   4   1  410.18    6.56
   0  -4  -1  402.14    5.33
   0   5   1   18.29    1.61
   0   5   1   20.51    1.08
   0  -5  -1   22.36    1.11
   0   6   1   20.91    1.35
   0   6   1   22.31    1.93
   0  -6  -1   22.35    1.23
   0   7   1   29.33    1.60
   0  -7  -1   31.42    1.69
   0   8   1    9.82    1.23
   0   9   1    2.43    0.91
   0  10   1   37.51    2.08
  -1  11  -1    0.70    0.96
  -1  10  -1   16.14    1.57
  -1   9  -1   -1.13    0.63
  -1   8  -1   16.89    1.30
  -1   7  -1    3.99    0.79
   1  -6   1   18.08    0.82
  -1   6  -1   20.32    1.20
   1  -5   1   28.83    0.90
  -1   5  -1   29.65    1.27
   1  -4   1    4.33    0.46
  -1   4  -1    3.56    0.58
   1  -3   1   68.85    1.22
  -1   3  -1   73.96    1.50
   1  -2   1   19.33    0.75
  -1   2  -1   21.85    0.74
   1  -1   1  371.81    4.55
   1  -1   1  374.33    4.39
  -1   1  -1  394.36    4.06
   1   0   1   10.54    0.59
   1   0   1   11.27    0.70
   1   0   1    9.48    0.47
   1   1   1  221.75    3.58
   1   1   1  228.98    2.77
  -1  -1  -1  218.59    3.05
   1   2   1   17.82    0.77
   1   2   1   16.82    1.20
  -1  -2  -1   15.92    0.80
   1   3   1    8.39    1.08
   1   3   1   10.13    0.78
  -1  -3  -1   10.18    0.74
   1   4   1    2.28    0.54
   1   4   1    2.44    0.81
  -1  -4  -1    1.62    0.54
   1   5   1   64.70    1.92
   1   5   1   61.93    2.61
  -1  -5  -1   63.18    1.77
   1   6   1   56.82    2.74
   1   6   1   52.79    1.91
  -1  -6  -1   56.37    1.78
   1   7   1   37.69    1.79
   1   8   1    9.30    1.20
   1   9   1    1.24    0.90
  -2  11  -1    4.16    1.13
  -2  10  -1    3.77    0.95
  -2   9  -1    1.42    0.75
  -2   8  -1  138.47    3.25
   2  -7   1   14.61    0.94
  -2   7  -1   12.38    1.17
   2  -6   1   29.34    1.11
  -2   6  -1   28.68    1.35
   2  -5   1  110.36    2.07
  -2   5  -1  112.86    2.36
   2  -4   1    0.56    0.46
  -2   4  -1    1.09    0.44
   2  -3   1    6.05    0.64
  -2   3  -1    5.79    0.57
   2  -2   1  169.93    2.44
   2  -2   1  176.01    2.65
  -2   2  -1  164.99    2.42
   2  -1   1  524.58    6.36
   2  -1   1  527.75    6.39
  -2   1  -1  527.92    5.88
   2   0   1   18.30    0.95
   2   0   1   19.66    0.98
   2   0   1   16.96    0.82
   2   1   1    4.47    0.85
   2   1   1    5.31    0.57
   2   1   1    4.43    0.70
   2   2   1   95.01    2.62
   2   2   1   96.00    1.93
  -2  -2  -1   95.02    1.99
   2   3   1   50.42    1.50
   2   3   1   55.12    2.18
  -2  -3  -1   51.26    1.50
   2   4   1    7.01    0.82
   2   4   1    7.36    1.22
  -2  -4  -1    6.90    0.75
   2   5   1  125.20    2.82
   2   5   1  128.35    3.90
  -2  -5  -1  125.87    2.66
   2   6   1    0.74    1.14
   2   6   1    2.06    0.76
  -2  -6  -1    3.66    0.75
   2   7   1   13.97    1.33
   2   8   1    1.22    0.86
   2   9   1    4.77    1.12
  -3  12  -1    1.54    1.03
  -3  11  -1   12.76    1.49
  -3  10  -1   -0.26    0.73
  -3   9  -1    1.82    0.76
   3  -8   1    0.75    0.63
  -3   8  -1    0.97    0.68
   3  -7   1    2.27    0.70
  -3   7  -1    2.89    0.71
   3  -6   1  212.45    3.47
  -3   6  -1  204.82    3.67
   3  -5   1   45.13    1.46
  -3   5  -1   43.43    1.49
   3  -4   1  118.35    2.38
  -3   4  -1  116.93    2.35
   3  -3   1  174.52    2.66
   3  -3   1  177.95    3.05
  -3   3  -1  173.66    2.85
   3  -2   1    6.78    0.81
   3  -2   1    7.05    0.58
  -3   2  -1    6.88    0.65
   3  -1   1   87.30    1.81
   3  -1   1   91.41    2.16
  -3   1  -1   87.99    1.82
   3   0   1  294.73    4.46
   3   0   1  292.75    4.49
   3   0   1  292.30    4.12
   3   1   1  210.13    3.89
   3   1   1  208.64    3.32
   3   1   1  205.24    3.54
   3   2   1  134.02    3.33
   3   2   1  134.15    2.76
   3   2   1  139.84    2.63
   3   3   1    1.51    0.81
  -3  -3  -1    0.89    0.46
   3   4   1   28.96    2.12
   3   4   1   24.90    1.43
  -3  -4  -1   26.07    1.30
   3   5   1    1.03    0.72
   3   5   1   -0.78    1.01
  -3  -5  -1    1.80    0.65
   3   6   1    1.66    1.29
   3   6   1   -0.61    0.69
   3   7   1   35.19    1.87
   3   8   1    6.15    1.18
  -4  12  -1    0.73    0.99
  -4  11  -1    5.42    1.19
  -4  10  -1    7.36    1.21
  -4   9  -1    6.64    1.09
   4  -8   1    1.48    0.77
  -4   8  -1    2.50    0.82
   4  -7   1   66.60    2.01
  -4   7  -1   66.65    2.20
   4  -6   1   18.04    1.25
  -4   6  -1   17.93    1.18
   4  -5   1   12.37    1.11
  -4   5  -1   13.87    1.03
   4  -4   1    1.73    0.45
   4  -4   1    1.48    0.65
  -4   4  -1    1.30    0.54
   4  -3   1    7.94    1.03
   4  -3   1    7.33    0.62
  -4   3  -1    9.34    0.87
   4  -2   1   71.33    2.09
   4  -2   1   71.97    1.57
  -4   2  -1   66.99    1.80
   4  -1   1    0.60    0.69
   4  -1   1   -0.03    0.49
  -4   1  -1   -0.12    0.35
   4   0   1   98.20    2.38
   4   0   1   99.98    2.61
   4   1   1    7.29    1.00
   4   1   1    8.59    1.06
   4   1   1    6.80    0.91
   4   2   1   59.05    1.90
   4   2   1   64.04    2.11
   4   2   1   62.96    2.36
   4   3   1   -0.33    0.64
   4   3   1   -0.59    0.82
  -4  -3  -1   -0.09    0.55
   4   4   1   23.36    2.17
   4   4   1   23.98    1.55
  -4  -4  -1   26.59    1.44
   4   5   1   -0.20    0.67
   4   5   1   -0.77    1.03
  -4  -5  -1    0.53    0.60
   4   6   1    5.97    1.10
   4   7   1    1.24    0.90
   4   8   1    0.82    1.05
  -5  12  -1    5.01    1.28
  -5  11  -1   24.56    1.86
  -5  10  -1   19.37    1.72
   5  -9   1   20.33    1.43
  -5   9  -1   17.13    1.49
   5  -8   1   29.20    1.69
  -5   8  -1   27.63    1.69
   5  -7   1    2.86    0.90
  -5   7  -1    1.57    0.68
   5  -6   1   13.94    1.33
   5  -6   1   14.86    0.99
  -5   6  -1   14.05    1.22
   5  -5   1  217.48    3.38
   5  -5   1  213.16    4.00
  -5   5  -1  217.01    3.95
   5  -4   1  105.02    1.95
   5  -4   1  106.86    2.78
  -5   4  -1  100.61    2.52
   5  -3   1  147.89    2.40
   5  -3   1  148.13    3.26
  -5   3  -1  147.91    3.03
   5  -2   1   21.64    1.05
   5  -2   1   19.44    1.43
  -5   2  -1   19.34    1.12
   5  -1   1   33.65    1.40
   5  -1   1   32.40    1.69
  -5   1  -1   33.49    1.32
   5   0   1    5.22    1.04
  -5   0  -1    5.98    0.73
   5   1   1   15.08    1.42
   5   1   1   16.38    1.44
   5   1   1   15.35    1.31
   5   2   1  118.09    2.98
   5   2   1  119.88    3.35
   5   2   1  117.76    3.10
   5   3   1   10.96    1.57
   5   3   1   12.50    1.38
  -5  -3  -1   13.05    1.35
   5   4   1   22.47    1.63
   5   4   1   22.77    2.18
  -5  -4  -1   26.30    1.53
   5   5   1    8.36    1.32
   5   5   1    8.61    1.78
  -5  -5  -1   12.83    1.32
   5   6   1    2.26    1.09
   5   7   1   -0.08    0.95
  -6  12  -1    7.13    1.44
  -6  11  -1    0.79    1.02
  -6  10  -1    6.17    1.23
   6  -9   1    6.43    1.17
  -6   9  -1    3.38    0.96
   6  -8   1   17.31    1.17
   6  -8   1   14.94    1.50
  -6   8  -1   14.41    1.44
   6  -7   1   21.45    1.17
   6  -7   1   23.87    1.66
  -6   7  -1   22.01    1.58
   6  -6   1    0.74    0.86
   6  -6   1   -0.70    0.45
  -6   6  -1    0.64    0.69
   6  -5   1    1.91    0.52
   6  -5   1    2.65    0.96
  -6   5  -1    1.76    0.72
   6  -4   1    2.40    0.91
  -6   4  -1    2.99    0.74
   6  -3   1   85.70    2.66
  -6   3  -1   88.97    2.42
   6  -2   1   14.85    0.98
   6  -2   1   16.41    1.61
  -6   2  -1   14.50    1.08
   6  -1   1  116.03    3.23
   6  -1   1  119.17    2.65
  -6   1  -1  112.16    2.61
   6   0   1    2.05    0.83
   6   0   1    0.64    0.98
  -6   0  -1    2.78    0.60
   6   1   1   -0.47    0.78
   6   1   1    2.27    1.09
   6   1   1   -0.16    0.91
   6   2   1    7.67    1.34
   6   2   1    7.55    1.26
   6   2   1    7.93    1.37
   6   3   1    8.13    1.28
   6   3   1    5.01    1.36
   6   4   1   15.71    1.65
   6   4   1   16.10    2.00
  -6  -4  -1   15.50    1.41
   6   5   1   15.46    1.67
   6   6   1    9.42    1.53
  -7  12  -1   -0.65    1.00
  -7  11  -1   -0.84    0.98
   7 -10   1   38.38    2.69
  -7  10  -1   34.75    2.21
   7  -9   1   18.36    1.85
   7  -9   1   18.98    2.13
  -7   9  -1   13.26    1.59
   7  -8   1   33.08    2.08
   7  -8   1   35.54    1.57
  -7   8  -1   36.29    2.08
   7  -7   1    7.39    1.35
   7  -7   1    3.15    0.70
  -7   7  -1    3.49    0.96
   7  -6   1   -0.05    0.94
  -7   6  -1    0.40    0.73
   7  -5   1    2.83    1.00
  -7   5  -1    0.24    0.68
   7  -4   1   23.75    1.73
  -7   4  -1   24.16    1.54
   7  -3   1   77.54    2.76
  -7   3  -1   75.85    2.36
   7  -2   1   25.17    1.88
   7  -2   1   24.46    1.29
  -7   2  -1   28.23    1.47
   7  -1   1   13.01    1.22
   7  -1   1   11.53    1.53
  -7   1  -1   11.14    1.13
   7   0   1   12.90    1.43
   7   0   1   13.83    1.77
  -7   0  -1   10.74    1.10
   7   1   1   10.67    1.59
   7   1   1   12.27    1.52
  -7  -1  -1    9.02    1.07
   7   2   1   -0.16    1.06
   7   2   1   -0.44    0.95
   7   2   1    2.03    1.11
   7   3   1   35.52    2.50
   7   3   1   35.54    2.21
  -7  -3  -1   31.44    1.92
   7   4   1    0.72    1.07
  -7  -4  -1    1.34    0.84
   7   5   1    4.07    1.30
  -8  11  -1    0.53    1.08
   8 -10   1    0.18    0.97
  -8  10  -1   -1.58    0.82
   8  -9   1    1.21    1.08
  -8   9  -1    0.98    0.93
   8  -8   1   37.72    2.30
  -8   8  -1   38.54    2.26
   8  -7   1   27.75    1.97
  -8   7  -1   27.03    1.92
   8  -6   1   68.94    2.78
  -8   6  -1   68.06    2.66
   8  -5   1    1.08    0.99
  -8   5  -1    0.60    0.73
   8  -4   1    0.50    1.00
  -8   4  -1    0.87    0.66
   8  -3   1   23.72    1.97
  -8   3  -1   22.42    1.46
   8  -2   1   16.50    1.85
  -8   2  -1   19.15    1.40
   8  -1   1   40.70    1.86
   8  -1   1   38.21    2.42
  -8   1  -1   40.48    1.76
   8   0   1   63.46    2.47
   8   0   1   65.88    2.94
  -8   0  -1   63.17    2.25
   8   1   1   11.60    1.54
   8   1   1   10.21    1.70
  -8  -1  -1   10.70    1.21
   8   2   1   -0.07    1.13
   8   2   1    0.86    1.18
  -8  -2  -1    1.12    0.70
  -8  -3  -1    1.26    0.88
   8   4   1   -1.48    1.24
  -9  11  -1    1.06    1.22
   9 -10   1    2.34    1.15
  -9  10  -1    0.05    1.01
   9  -9   1    9.69    1.63
  -9   9  -1   11.37    1.69
   9  -8   1    8.02    1.48
  -9   8  -1    7.55    1.39
   9  -7   1    9.15    1.52
  -9   7  -1   11.39    1.54
   9  -6   1    9.10    1.48
  -9   6  -1    7.75    1.24
   9  -5   1    1.35    1.01
  -9   5  -1    0.72    0.73
   9  -4   1   16.97    1.90
  -9   4  -1   17.32    1.49
   9  -3   1    2.16    1.12
  -9   3  -1    2.52    0.79
   9  -2   1   18.74    1.99
  -9   2  -1   23.42    1.53
   9  -1   1   -1.58    0.96
  -9   1  -1    1.08    0.68
   9   0   1    7.35    1.59
  -9   0  -1    9.54    1.16
   9   1   1   -0.90    1.11
  -9  -1  -1    1.91    0.80
   9   2   1   12.62    2.01
  -9  -2  -1   10.20    1.34
  -9  -3  -1    2.96    1.00
  -9  -3  -1    1.57    0.96
  10 -10   1    0.13    1.04
 -10  10  -1    0.65    1.13
  10  -9   1    1.58    1.18
 -10   9  -1    0.34    1.07
  10  -8   1    2.37    1.25
 -10   8  -1    2.92    1.14
  10  -7   1   17.35    2.03
 -10   7  -1   17.17    1.89
  10  -6   1   18.04    2.07
 -10   6  -1   24.64    1.90
  10  -5   1   40.85    2.54
 -10   5  -1   46.60    2.29
  10  -4   1    7.87    1.54
 -10   4  -1    4.10    0.95
  10  -3   1   -0.93    0.89
 -10   3  -1    1.80    0.77
  10  -2   1    0.26    1.20
 -10   2  -1    0.53    0.65
  10  -1   1    0.83    1.21
 -10   1  -1    0.49    0.70
  10   0   1   18.36    2.27
 -10   0  -1   15.31    1.48
  10   1   1    7.48    1.79
 -10  -1  -1    9.56    1.27
  10   2   1    8.67    1.83
 -10  -2  -1    9.12    1.43
  11  -9   1    6.92    1.56
 -11   9  -1    7.50    1.61
  11  -8   1    1.32    1.29
  11  -7   1    0.74    1.21
 -11   7  -1   -0.36    0.91
  11  -6   1   -0.09    1.15
 -11   6  -1    1.13    0.88
  11  -5   1    8.58    1.62
 -11   5  -1    8.13    1.29
  11  -4   1    2.11    1.25
 -11   4  -1    3.69    0.97
  11  -3   1   19.84    2.27
 -11   3  -1   26.80    1.78
  11  -2   1    3.30    1.42
 -11   2  -1    5.30    1.12
  11  -1   1    1.63    1.41
 -11   1  -1    3.33    0.95
  11   0   1   -0.23    1.25
 -11   0  -1    1.34    0.83
  12  -8   1    0.54    1.30
 -12   8  -1    1.68    1.19
  12  -7   1   -1.88    1.08
 -12   7  -1   -0.05    0.97
  12  -6   1    1.86    1.35
 -12   6  -1    1.90    1.06
  12  -5   1    3.53    1.44
 -12   5  -1    6.35    1.24
  12  -4   1    2.39    1.31
 -12   4  -1    6.31    1.23
  12  -3   1    3.41    1.49
 -12   3  -1    4.93    1.09
 -12   0   2    1.34    0.95
  12   0  -2    0.69    1.40
 -12   1   2    4.97    1.18
  12  -1  -2    6.86    1.64
 -12   2   2    3.53    1.10
  12  -2  -2    4.18    1.55
 -12   3   2   10.62    1.41
  12  -3  -2    9.31    1.79
 -12   4   2    1.04    0.90
  12  -4  -2   -0.28    1.14
 -12   5   2    0.83    0.89
  12  -5  -2   -0.94    1.15
 -12   6   2    0.49    0.87
  12  -6  -2   -0.02    1.11
 -12   7   2    2.22    1.11
  12  -7  -2   -0.18    1.19
 -11  -2   2   -0.31    0.84
  11   2  -2    0.90    1.29
 -11  -1   2    0.69    0.82
  11   1  -2    0.71    1.30
 -11   0   2    1.23    0.88
  11   0  -2    1.19    1.31
 -11   1   2   23.88    1.85
  11  -1  -2   22.51    2.40
 -11   2   2    6.23    1.12
  11  -2  -2    6.56    1.60
 -11   3   2   14.16    1.53
  11  -3  -2   15.55    1.90
 -11   4   2    1.35    0.82
  11  -4  -2    1.59    1.14
 -11   5   2    2.93    0.95
  11  -5  -2   -1.25    1.04
 -11   6   2    1.92    0.99
  11  -6  -2   -0.23    1.15
 -11   7   2    9.03    1.48
  11  -7  -2    9.69    1.73
 -11   8   2    6.63    1.47
  11  -8  -2    5.21    1.48
 -11   9   2    4.06    1.31
  11  -9  -2    2.48    1.33
 -10  -3   2    6.86    1.27
  10   3  -2    4.33    1.55
 -10  -2   2   32.31    2.09
  10   2  -2   30.29    2.42
 -10  -1   2    0.22    0.75
  10   1  -2    1.85    1.24
 -10   0   2    1.54    0.77
  10   0  -2    0.43    1.18
 -10   1   2    1.39    0.79
  10  -1  -2    0.70    1.13
 -10   2   2    1.58    0.77
  10  -2  -2    3.51    1.30
 -10   3   2   37.42    2.00
  10  -3  -2   38.92    2.38
 -10   4   2   42.80    2.14
  10  -4  -2   39.62    2.41
 -10   5   2   27.68    1.87
  10  -5  -2   20.71    1.86
 -10   6   2    1.86    0.92
  10  -6  -2    2.13    1.18
 -10   7   2    0.92    0.93
  10  -7  -2    1.38    1.14
 -10   8   2    2.89    1.20
  10  -8  -2    2.21    1.27
 -10   9   2   12.71    1.82
  10  -9  -2   12.01    1.88
   9   5  -2    2.40    1.35
   9   3  -2    2.56    1.20
  -9  -2   2   18.53    1.64
   9   2  -2   15.46    1.94
  -9  -1   2    0.57    0.65
   9   1  -2    0.18    0.99
  -9   0   2   26.33    1.68
   9   0  -2   23.84    2.08
  -9   1   2    1.58    0.73
   9  -1  -2    0.81    1.06
  -9   2   2   45.43    2.05
   9  -2  -2   43.34    2.37
  -9   3   2    1.31    0.69
   9  -3  -2   -0.22    0.92
  -9   4   2   17.13    1.46
   9  -4  -2   17.89    1.82
  -9   5   2    4.35    1.03
   9  -5  -2    6.09    1.32
  -9   6   2   12.99    1.47
   9  -6  -2   12.37    1.67
  -9   7   2   12.85    1.54
   9  -7  -2   10.20    1.57
  -9   8   2    4.00    1.19
   9  -8  -2    1.08    1.09
  -9   9   2    3.87    1.29
   9  -9  -2    2.08    1.20
  -9  10   2    0.04    1.07
   9 -10  -2   -2.17    0.99
   8   6  -2   -0.15    1.16
   8   5  -2    1.57    1.19
   8   4  -2    2.36    1.13
   8   4  -2    3.19    1.27
   8   3  -2   17.76    1.78
   8   3  -2   12.70    1.72
   8   2  -2   43.18    2.47
   8   2  -2   45.36    2.38
  -8  -1   2  106.30    3.12
   8   1  -2  115.59    3.42
  -8   0   2   52.63    2.15
   8   0  -2   54.70    2.41
  -8   1   2    2.41    0.69
   8  -1  -2    2.87    1.12
  -8   2   2    0.41    0.53
   8  -2  -2    0.69    0.88
  -8   3   2    7.38    1.07
   8  -3  -2    6.29    1.23
  -8   4   2   86.55    2.75
   8  -4  -2   89.52    2.95
  -8   5   2   50.69    2.22
   8  -5  -2   46.60    2.29
  -8   6   2   97.71    3.07
   8  -6  -2   95.62    3.18
  -8   7   2    0.25    0.77
   8  -7  -2    0.97    1.07
  -8   8   2    1.20    0.89
   8  -8  -2    1.79    1.16
  -8   9   2    0.06    0.90
   8  -9  -2   -1.16    1.10
  -8  10   2    6.58    1.39
   8 -10  -2    7.18    1.55
   7   7  -2    3.71    1.29
   7   6  -2    2.16    1.12
   7   5  -2   36.58    2.33
   7   4  -2    3.11    1.07
   7   4  -2    2.56    1.10
   7   3  -2   33.57    2.19
   7   3  -2   32.19    1.95
   7   2  -2    3.30    1.16
   7   2  -2    2.92    1.12
   7   1  -2   29.82    1.85
   7   1  -2   29.34    1.94
  -7   0   2   11.99    1.20
   7   0  -2   12.98    1.53
  -7   1   2  152.61    3.34
   7  -1  -2  151.43    3.53
  -7   2   2   57.27    2.04
   7  -2  -2   58.48    2.25
  -7   3   2   19.88    1.34
   7  -3  -2   18.81    1.45
  -7   4   2    0.38    0.54
   7  -4  -2    0.71    0.85
  -7   5   2    3.49    0.82
   7  -5  -2    2.86    1.06
  -7   6   2   48.35    2.10
   7  -6  -2   47.78    2.30
  -7   7   2   30.40    1.83
   7  -7  -2   26.71    1.99
  -7   8   2   77.73    2.78
   7  -8  -2   75.96    2.91
  -7   9   2    0.62    0.85
   7  -9  -2    1.37    1.11
   6   8  -2    7.22    1.43
   6   7  -2   12.34    1.68
   6   6  -2   41.84    2.34
   6   5  -2   13.99    1.62
   6   4  -2    1.49    0.88
   6   4  -2    0.32    0.86
   6   3  -2    0.01    0.95
   6   3  -2    1.13    0.98
   6   2  -2    1.16    0.86
   6   2  -2   -0.92    0.73
   6   1  -2  118.43    2.95
   6   1  -2  118.47    3.16
  -6   0   2   63.27    1.99
   6   0  -2   62.25    2.09
  -6   1   2  222.62    4.02
   6  -1  -2  224.40    4.19
  -6   2   2    0.84    0.52
   6  -2  -2    0.37    0.68
  -6   3   2   52.29    1.90
   6  -3  -2   52.34    2.02
  -6   4   2    0.19    0.53
   6  -4  -2    0.61    0.76
  -6   5   2   61.08    2.13
   6  -5  -2   59.19    2.24
  -6   6   2   16.30    1.37
   6  -6  -2   18.12    1.67
  -6   7   2   37.94    1.89
   6  -7  -2   38.41    2.04
  -6   8   2   10.53    1.32
   6  -8  -2   13.82    1.62
  -6   9   2    2.02    0.93
   6  -9  -2    1.53    1.04
  -6  10   2    8.82    1.38
  -6  11   2    1.08    1.05
   5   8  -2    4.98    1.21
   5   7  -2    7.13    1.27
   5   6  -2   19.24    1.77
   5   5  -2   11.13    1.36
   5   4  -2  173.37    3.40
   5   4  -2  180.26    4.00
   5   3  -2   35.78    1.81
   5   3  -2   33.99    1.65
   5   2  -2   19.70    1.41
   5   2  -2   18.77    1.27
   5   1  -2   32.91    1.63
   5   1  -2   30.40    1.51
  -5   0   2    4.91    0.75
   5   0  -2    7.62    0.99
  -5   1   2  112.17    2.52
   5  -1  -2  110.69    2.58
  -5   2   2  299.44    4.70
   5  -2  -2  292.27    4.72
  -5   3   2  353.86    5.27
   5  -3  -2  340.76    5.36
  -5   4   2    7.24    0.88
   5  -4  -2    7.86    1.08
  -5   5   2    7.43    0.93
   5  -5  -2   10.07    1.22
  -5   6   2   52.27    1.96
   5  -6  -2   53.37    2.16
  -5   7   2   20.51    1.45
   5  -7  -2   19.57    1.60
  -5   8   2   17.09    1.42
   5  -8  -2   20.61    1.60
  -5   9   2   83.72    2.76
   5  -9  -2   76.50    2.62
  -5  10   2   11.88    1.48
  -5  11   2    1.05    0.99
   4   9  -2    2.38    1.11
   4   8  -2    1.40    0.95
   4   7  -2    3.92    1.10
   4   6  -2   27.00    1.70
   4   5  -2    0.06    0.74
   4   4  -2   71.81    2.29
   4   4  -2   75.03    1.90
   4   3  -2    0.72    0.55
   4   3  -2    0.21    0.54
   4   2  -2  145.01    3.02
   4   2  -2  145.74    2.77
   4   1  -2    0.88    0.61
   4   1  -2    1.67    0.63
   4   0  -2  180.76    3.20
   4   0  -2  186.28    3.43
  -4   1   2    9.60    0.86
   4  -1  -2    8.81    0.93
  -4   2   2   94.28    2.16
   4  -2  -2   89.24    2.18
  -4   3   2   17.16    1.01
  -4   3   2   17.89    0.82
   4  -3  -2   16.00    1.20
  -4   4   2   79.07    2.02
  -4   4   2   76.34    1.83
   4  -4  -2   76.88    2.18
  -4   5   2   61.14    1.88
   4  -5  -2   62.31    2.10
  -4   6   2   32.83    1.57
   4  -6  -2   35.75    1.76
  -4   7   2   25.36    1.49
   4  -7  -2   25.26    1.62
  -4   8   2    2.98    0.83
   4  -8  -2    2.39    0.96
  -4   9   2    8.15    1.23
  -4  10   2   -0.33    0.79
   3  10  -2    2.58    1.12
   3   9  -2   45.58    2.27
   3   8  -2    2.78    0.91
   3   7  -2    2.95    0.91
   3   6  -2   34.17    1.78
  -3  -5   2    1.45    0.37
   3   5  -2    0.11    0.58
   3   4  -2   35.95    1.55
   3   4  -2   37.67    1.17
   3   3  -2  224.89    3.86
   3   3  -2  228.95    3.38
   3   2  -2  381.89    5.20
   3   2  -2  376.08    4.93
   3   1  -2    3.55    0.61
   3   1  -2    1.98    0.59
  -3   0   2    0.43    0.28
   3   0  -2    0.93    0.53
   3   0  -2    0.18    0.46
  -3   1   2  168.76    2.74
   3  -1  -2  168.11    2.85
  -3   2   2   45.31    1.12
  -3   2   2   45.96    1.33
   3  -2  -2   48.89    1.52
  -3   3   2   49.04    1.42
  -3   3   2   48.72    1.40
   3  -3  -2   48.69    1.68
  -3   4   2  484.57    6.82
  -3   4   2  489.28    6.27
   3  -4  -2  485.41    6.67
  -3   5   2   25.34    1.24
  -3   5   2   25.95    1.46
   3  -5  -2   26.28    1.45
  -3   6   2   15.83    1.14
  -3   6   2   18.25    1.51
   3  -6  -2   17.45    1.51
  -3   7   2    9.65    1.08
   3  -7  -2    7.57    1.18
  -3   8   2    3.46    0.88
   3  -8  -2    5.70    1.14
  -3   9   2    9.30    1.24
  -3  10   2    7.73    1.20
   2  10  -2    2.05    1.03
   2   9  -2   -0.02    0.83
   2   8  -2    0.78    0.77
   2   7  -2   92.28    2.70
   2   6  -2    1.20    0.62
   2   5  -2   72.08    2.07
   2   4  -2   77.37    2.08
   2   3  -2   19.87    0.78
   2   3  -2   18.50    1.04
   2   2  -2   11.88    0.89
   2   2  -2   14.57    0.75
   2   1  -2  403.69    4.93
   2   1  -2  396.90    4.81
  -2   0   2  238.58    3.14
   2   0  -2  241.06    3.30
   2   0  -2  239.82    3.31
  -2   1   2  124.86    2.09
  -2   1   2  127.33    2.06
   2  -1  -2  129.56    2.29
  -2   2   2    0.37    0.44
  -2   2   2    1.02    0.34
   2  -2  -2    1.38    0.56
  -2   3   2   91.20    1.81
  -2   3   2   88.80    2.17
   2  -3  -2   92.28    2.11
  -2   4   2   14.93    1.19
  -2   4   2   14.36    0.85
   2  -4  -2   13.46    1.08
  -2   5   2   18.35    1.44
  -2   5   2   17.36    1.05
   2  -5  -2   15.96    1.19
  -2   6   2  216.18    4.59
  -2   6   2  216.48    3.76
   2  -6  -2  215.10    3.98
  -2   7   2   15.83    1.26
  -2   7   2   16.44    1.68
   2  -7  -2   16.49    1.54
  -2   8   2   19.00    1.39
  -2   9   2   10.13    1.26
  -2  10   2    0.76    0.90
   1  11  -2    4.84    1.24
   1  10  -2    5.19    1.14
   1   9  -2    5.65    1.11
   1   8  -2   50.12    2.05
   1   7  -2   25.54    1.51
   1   6  -2    5.34    0.83
   1   5  -2    1.01    0.51
   1   4  -2   50.10    1.56
   1   3  -2  104.17    2.08
   1   2  -2    4.80    0.52
   1   2  -2    4.17    0.36
  -1  -1   2  497.95    6.03
   1   1  -2  493.41    5.58
   1   1  -2  501.05    5.46
  -1   0   2   20.95    0.82
  -1   0   2   21.67    0.61
   1   0  -2   20.39    0.83
  -1   1   2  138.39    1.88
  -1   1   2  144.74    2.55
   1  -1  -2  142.11    2.36
  -1   2   2    7.68    0.85
  -1   2   2    7.14    0.52
   1  -2  -2    7.33    0.79
  -1   3   2   67.99    2.08
  -1   3   2   65.57    1.48
   1  -3  -2   64.23    1.74
  -1   4   2    2.49    0.50
  -1   4   2    2.21    0.76
   1  -4  -2    2.10    0.64
  -1   5   2   28.27    1.26
  -1   5   2   27.59    1.76
   1  -5  -2   26.22    1.40
  -1   6   2    8.96    1.37
  -1   6   2   10.77    1.03
   1  -6  -2   10.93    1.21
  -1   7   2    0.38    0.62
  -1   7   2    2.66    1.15
   1  -7  -2    3.38    0.93
  -1   8   2   16.20    1.42
  -1   9   2    2.77    0.96
  -1  10   2   11.20    1.44
   0  11  -2    1.13    1.01
   0  10  -2    9.04    1.37
   0   9  -2   21.41    1.58
   0   8  -2    2.94    0.83
   0   7  -2    2.45    0.72
   0   6  -2  223.81    3.88
   0   5  -2   99.08    2.22
   0   4  -2   96.77    2.03
   0   3  -2  143.75    2.32
   0  -2   2  271.54    3.90
   0   2  -2  279.93    3.20
   0   2  -2  288.42    3.40
   0  -1   2   10.75    0.65
   0   1  -2    9.64    0.45
   0   1  -2   10.78    0.52
   0   0   2  177.09    2.90
   0   0  -2  182.74    2.61
   0   1   2  823.03   10.40
   0   1   2  860.80    8.50
   0  -1  -2  836.81    9.49
   0   2   2    8.92    0.99
   0   2   2    8.24    0.57
   0  -2  -2    8.46    0.80
   0   3   2   59.55    2.17
   0   3   2   63.28    1.45
   0  -3  -2   62.47    1.72
   0   4   2  138.54    2.53
   0   4   2  137.81    3.53
   0  -4  -2  140.10    2.81
   0   5   2    1.57    0.91
   0   5   2    2.11    0.62
   0  -5  -2    0.87    0.63
   0   6   2    0.38    0.98
   0   6   2   -0.35    0.59
   0  -6  -2    1.25    0.74
   0   7   2   78.68    2.42
   0   7   2   76.42    3.32
   0  -7  -2   79.13    2.43
   0   8   2   15.50    1.44
   0   9   2    7.83    1.21
  -1  11  -2    1.07    0.95
  -1  10  -2    1.96    0.93
  -1   9  -2    1.96    0.81
  -1   8  -2   23.03    1.47
  -1   7  -2    0.43    0.53
  -1   6  -2   36.20    1.51
  -1   5  -2   18.60    1.05
   1  -4   2  172.46    2.28
  -1   4  -2  177.38    2.87
   1  -3   2    5.39    0.48
   1  -3   2    4.71    0.60
  -1   3  -2    4.93    0.52
   1  -2   2  417.55    4.93
   1  -2   2  406.65    5.35
  -1   2  -2  427.29    4.75
   1  -1   2  134.71    2.15
   1  -1   2  128.94    2.24
  -1   1  -2  131.05    1.60
   1   0   2    3.51    0.62
  -1   0  -2    5.07    0.55
   1   1   2   15.12    1.16
   1   1   2   15.27    0.59
  -1  -1  -2   14.71    0.84
   1   2   2   40.92    1.83
   1   2   2   40.78    1.10
  -1  -2  -2   42.73    1.36
   1   3   2   67.33    2.44
   1   3   2   70.15    1.59
  -1  -3  -2   67.21    1.85
   1   4   2   42.00    2.22
   1   4   2   40.44    1.38
  -1  -4  -2   41.96    1.56
   1   5   2   35.60    2.30
   1   5   2   38.18    1.53
  -1  -5  -2   38.30    1.58
   1   6   2    9.61    1.58
   1   6   2   10.63    1.10
  -1  -6  -2   11.47    1.15
   1   7   2    2.70    1.36
   1   7   2    4.59    0.90
   1   8   2    0.29    0.78
   1   9   2   13.33    1.49
  -2  12  -2    2.05    1.05
  -2  11  -2   40.36    2.21
  -2  10  -2   13.13    1.41
  -2   9  -2   19.42    1.45
  -2   8  -2   23.36    1.50
   2  -7   2    8.96    0.73
  -2   7  -2   11.28    1.10
   2  -6   2    0.69    0.41
  -2   6  -2    0.79    0.53
   2  -5   2  104.53    1.93
  -2   5  -2  110.12    2.33
   2  -4   2  394.18    5.00
  -2   4  -2  400.09    5.10
   2  -3   2   29.53    1.13
   2  -3   2   31.37    1.12
  -2   3  -2   28.56    0.98
   2  -2   2   19.26    0.96
   2  -2   2   19.34    0.89
  -2   2  -2   18.86    0.72
   2  -1   2  216.87    3.44
   2  -1   2  213.23    3.30
  -2   1  -2  211.34    2.74
   2   0   2    9.34    0.98
   2   0   2   10.00    0.89
   2   0   2    9.44    0.72
   2   1   2    9.06    1.11
   2   1   2    8.36    0.71
  -2  -1  -2    8.40    0.79
   2   2   2  312.72    5.57
   2   2   2  312.53    4.14
  -2  -2  -2  303.77    4.66
   2   3   2   16.70    0.95
   2   3   2   13.14    1.46
  -2  -3  -2   15.55    1.04
   2   4   2   24.18    2.00
   2   4   2   26.06    1.33
  -2  -4  -2   29.44    1.40
   2   5   2    4.93    0.87
   2   5   2    2.47    1.18
  -2  -5  -2    3.66    0.80
   2   6   2    1.99    1.22
   2   6   2    1.19    0.71
  -2  -6  -2    1.43    0.69
   2   7   2    2.84    1.55
   2   7   2    4.68    0.97
   2   8   2    1.57    0.91
  -3  12  -2    0.71    0.97
  -3  11  -2    0.87    0.88
  -3  10  -2    1.15    0.78
  -3   9  -2   60.02    2.25
   3  -8   2   15.38    1.03
  -3   8  -2   16.30    1.30
   3  -7   2  105.33    2.28
  -3   7  -2  108.77    2.71
   3  -6   2   16.97    1.03
  -3   6  -2   16.51    1.12
   3  -5   2    0.22    0.43
   3  -5   2    0.32    0.49
  -3   5  -2    0.75    0.49
   3  -4   2   52.74    1.60
   3  -4   2   51.82    1.52
  -3   4  -2   53.02    1.54
   3  -3   2  148.97    2.87
   3  -3   2  147.70    2.57
  -3   3  -2  148.16    2.55
   3  -2   2  181.03    2.97
   3  -2   2  179.30    3.26
  -3   2  -2  170.93    2.72
   3  -1   2  221.19    3.79
   3  -1   2  228.37    3.77
  -3   1  -2  218.44    3.16
   3   0   2   25.62    1.40
   3   0   2   26.27    1.52
   3   1   2   57.39    2.26
   3   1   2   58.92    1.64
   3   1   2   60.31    1.91
   3   2   2    3.81    0.67
   3   2   2    4.00    0.99
  -3  -2  -2    4.95    0.78
   3   3   2    2.87    0.77
   3   3   2    2.47    1.15
  -3  -3  -2    3.91    0.77
   3   4   2  127.09    4.00
   3   4   2  128.41    2.88
  -3  -4  -2  125.60    2.95
   3   5   2   15.56    1.94
   3   5   2   14.36    1.26
  -3  -5  -2   14.77    1.18
   3   6   2   38.54    2.90
   3   6   2   34.75    1.82
   3   7   2    6.76    1.14
  -4  12  -2    2.59    1.07
  -4  11  -2    0.63    0.95
  -4  10  -2   17.09    1.60
  -4   9  -2   27.61    1.72
   4  -8   2   15.30    1.23
  -4   8  -2   15.55    1.35
   4  -7   2   19.97    1.31
  -4   7  -2   18.99    1.34
   4  -6   2   11.16    1.05
   4  -6   2   11.53    0.98
  -4   6  -2   11.91    1.04
   4  -5   2   40.59    1.58
   4  -5   2   38.84    1.39
  -4   5  -2   38.67    1.53
   4  -4   2   -0.44    0.45
   4  -4   2    0.06    0.59
  -4   4  -2    0.43    0.45
   4  -3   2  169.37    3.45
   4  -3   2  171.44    2.90
  -4   3  -2  175.34    3.07
   4  -2   2    1.44    0.55
   4  -2   2    2.07    0.76
  -4   2  -2    0.79    0.45
   4  -1   2   89.61    2.35
   4  -1   2   92.54    2.58
  -4   1  -2   88.28    1.99
   4   0   2    2.88    0.86
   4   0   2    1.06    0.67
  -4   0  -2    0.38    0.33
   4   1   2   51.75    2.18
   4   1   2   49.38    1.71
   4   1   2   51.63    1.97
   4   2   2    5.85    1.26
  -4  -2  -2    7.74    1.05
   4   3   2   12.05    1.75
   4   3   2   14.46    1.30
  -4  -3  -2   13.72    1.33
   4   4   2    3.08    1.23
   4   4   2    3.54    0.88
  -4  -4  -2    2.36    0.78
   4   5   2   -1.46    1.15
   4   5   2   -0.59    0.78
  -4  -5  -2    1.02    0.70
   4   6   2    7.20    1.84
   4   6   2    6.98    1.27
  -5  12  -2   12.82    1.66
  -5  11  -2    2.51    1.05
  -5  10  -2    1.11    0.87
   5  -9   2    5.92    1.01
  -5   9  -2    4.43    0.98
   5  -8   2   63.13    2.15
   5  -8   2   65.45    2.12
  -5   8  -2   65.88    2.40
   5  -7   2   75.59    2.32
   5  -7   2   74.64    2.07
  -5   7  -2   74.46    2.37
   5  -6   2  138.26    3.20
   5  -6   2  141.29    2.84
  -5   6  -2  142.74    3.20
   5  -5   2    4.26    0.68
   5  -5   2    2.83    0.85
  -5   5  -2    4.93    0.83
   5  -4   2   30.72    1.22
   5  -4   2   33.06    1.71
  -5   4  -2   32.36    1.47
   5  -3   2    3.42    0.66
   5  -3   2    3.66    0.94
  -5   3  -2    3.73    0.69
   5  -2   2    4.59    0.76
   5  -2   2    4.77    0.99
  -5   2  -2    3.33    0.65
   5  -1   2  251.02    4.83
   5  -1   2  252.86    4.44
  -5   1  -2  251.14    4.03
   5   0   2   66.57    2.34
   5   0   2   67.02    2.42
  -5   0  -2   64.29    1.80
   5   1   2   94.93    2.95
   5   1   2   93.24    2.57
   5   1   2   93.28    2.98
   5   2   2   25.01    2.13
   5   2   2   22.35    1.67
  -5  -2  -2   24.84    1.61
   5   3   2   -0.20    0.73
   5   3   2    0.48    0.97
  -5  -3  -2   -0.30    0.60
   5   4   2    0.24    1.19
   5   4   2    2.71    0.98
  -5  -4  -2    1.52    0.76
   5   5   2   30.06    1.91
   5   5   2   29.73    2.70
  -5  -5  -2   30.82    1.72
   5   6   2    5.19    1.90
   6 -12   2    8.62    1.44
  -6  12  -2    3.54    1.19
   6 -11   2    5.65    1.11
  -6  11  -2    2.50    1.14
   6 -10   2   19.14    1.58
  -6  10  -2   16.56    1.72
   6  -9   2    1.32    0.65
   6  -9   2   -1.36    0.70
  -6   9  -2   -0.64    0.73
   6  -8   2   18.37    1.63
   6  -8   2   19.69    1.36
  -6   8  -2   18.48    1.55
   6  -7   2    2.83    0.73
   6  -7   2    2.30    0.94
  -6   7  -2    2.55    0.88
   6  -6   2   62.79    2.38
   6  -6   2   61.26    1.83
  -6   6  -2   63.92    2.29
   6  -5   2   14.02    1.48
   6  -5   2   11.71    0.98
  -6   5  -2   13.29    1.26
   6  -4   2  135.37    3.50
   6  -4   2  144.39    2.65
  -6   4  -2  143.82    3.23
   6  -3   2    7.29    1.24
   6  -3   2    7.57    0.82
  -6   3  -2    7.03    0.92
   6  -2   2   12.15    1.13
   6  -2   2   12.18    1.48
  -6   2  -2   10.30    1.02
   6  -1   2    1.67    0.82
   6  -1   2    0.53    0.95
  -6   1  -2    1.29    0.50
   6   0   2    1.88    0.94
   6   0   2    2.53    1.07
  -6   0  -2    1.02    0.52
   6   1   2   26.86    2.07
   6   1   2   27.83    2.08
  -6  -1  -2   25.21    1.40
   6   2   2   35.47    1.94
   6   2   2   35.66    2.33
   6   3   2   44.15    2.73
   6   3   2   40.00    2.11
  -6  -3  -2   35.21    1.94
   6   4   2   -0.85    1.27
   6   4   2   -0.41    0.94
  -6  -4  -2    0.22    0.76
   6   5   2   -2.14    1.45
  -7  12  -2    8.78    1.59
  -7  11  -2   18.22    1.93
   7 -10   2   -0.15    0.90
   7 -10   2    0.55    0.87
  -7  10  -2   -0.59    0.81
   7  -9   2    0.56    0.72
   7  -9   2    1.22    0.92
  -7   9  -2    0.50    0.84
   7  -8   2    0.69    0.84
   7  -8   2   -0.47    0.65
  -7   8  -2    0.31    0.80
   7  -7   2   10.50    1.45
   7  -7   2   10.70    1.02
   7  -6   2   98.77    2.20
   7  -6   2   90.75    3.04
  -7   6  -2   92.61    2.92
   7  -5   2   34.72    1.32
   7  -5   2   29.56    1.99
  -7   5  -2   31.79    1.80
   7  -4   2   59.93    2.58
   7  -4   2   63.58    1.77
  -7   4  -2   60.22    2.21
   7  -3   2    6.32    1.32
   7  -3   2    6.59    0.88
  -7   3  -2    4.94    0.88
   7  -2   2    7.95    1.50
   7  -2   2   10.76    1.17
  -7   2  -2   11.17    1.15
   7  -1   2    0.01    0.88
   7  -1   2   -0.23    1.04
  -7   1  -2    0.86    0.52
   7   0   2   67.18    2.92
   7   0   2   67.36    2.70
  -7   0  -2   64.52    2.12
   7   1   2   11.19    1.66
   7   1   2   11.61    1.54
  -7  -1  -2   12.27    1.19
   7   2   2   17.63    1.98
  -7  -2  -2   20.37    1.41
   7   3   2   -2.37    1.04
   7   3   2    1.43    1.35
  -7  -3  -2    2.32    0.96
   7   4   2    0.70    1.46
  -7  -4  -2    3.16    1.03
  -8  12  -2   -0.62    1.10
  -8  11  -2   11.56    1.68
   8 -10   2    9.53    1.49
  -8  10  -2    6.23    1.33
   8  -9   2   48.01    2.44
  -8   9  -2   46.30    2.42
   8  -8   2    0.43    1.02
  -8   8  -2    0.63    0.92
   8  -7   2    3.29    1.14
  -8   7  -2    1.55    0.91
   8  -6   2    9.79    1.56
  -8   6  -2   10.09    1.35
   8  -5   2   12.89    1.71
  -8   5  -2   11.75    1.31
   8  -4   2   38.47    2.23
  -8   4  -2   41.78    2.01
   8  -3   2   64.67    2.85
   8  -3   2   68.58    2.05
  -8   3  -2   64.17    2.29
   8  -2   2   43.19    2.50
   8  -2   2   43.47    1.98
  -8   2  -2   41.90    1.85
   8  -1   2   -0.12    1.05
   8  -1   2   -1.01    0.89
  -8   1  -2    1.94    0.65
   8   0   2   -0.82    0.98
   8   0   2    0.26    0.93
  -8   0  -2   -0.25    0.53
   8   1   2   -0.45    1.09
   8   1   2    0.90    1.07
  -8  -1  -2    1.44    0.70
   8   2   2   18.44    2.12
  -8  -2  -2   20.34    1.46
  -8  -2  -2   24.69    1.92
   8   3   2    3.96    1.63
  -8  -3  -2    7.73    1.26
  -9  11  -2    5.29    1.48
   9 -10   2    4.49    1.36
  -9  10  -2    2.13    1.19
   9  -9   2    5.37    1.36
  -9   9  -2    6.64    1.37
   9  -8   2    0.43    1.02
  -9   8  -2   -0.45    0.89
   9  -7   2   13.36    1.75
  -9   7  -2   11.73    1.55
   9  -6   2    0.90    1.10
  -9   6  -2    0.76    0.86
   9  -5   2   18.95    1.99
  -9   5  -2   21.08    1.71
   9  -4   2   -0.10    0.94
  -9   4  -2    1.00    0.69
   9  -3   2   17.99    2.07
  -9   3  -2   21.24    1.51
   9  -2   2    2.46    1.22
  -9   2  -2    2.17    0.78
   9  -1   2   16.87    2.04
  -9   1  -2   14.99    1.41
   9   0   2    4.07    1.46
  -9   0  -2    7.44    1.02
   9   1   2    3.48    1.52
   9   1   2    5.49    1.63
  -9  -1  -2    7.78    1.11
   9   2   2    1.77    1.49
  -9  -2  -2    1.53    0.91
  10 -11   2   -0.11    1.31
  10 -10   2    1.55    1.27
 -10  10  -2    5.65    1.45
  10  -9   2    9.32    1.69
 -10   9  -2    8.44    1.59
  10  -8   2   27.09    2.38
 -10   8  -2   34.07    2.33
  10  -7   2    7.94    1.64
 -10   7  -2    4.82    1.23
  10  -6   2   -0.99    0.92
 -10   6  -2    0.18    0.80
  10  -5   2    0.22    1.04
 -10   5  -2    1.49    0.87
  10  -4   2   -0.89    0.98
 -10   4  -2    1.46    0.77
  10  -3   2   12.07    1.86
 -10   3  -2   21.43    1.55
  10  -2   2   12.22    1.97
 -10   2  -2   11.18    1.26
  10  -1   2   21.52    2.38
 -10   1  -2   24.86    1.65
  10   0   2   -0.85    1.20
 -10   0  -2   -0.34    0.62
  10   1   2    1.90    1.47
  11  -9   2    1.58    1.31
 -11   9  -2    3.03    1.32
  11  -8   2    0.75    1.28
 -11   8  -2    3.00    1.26
  11  -7   2    0.36    1.20
 -11   7  -2    0.42    0.94
  11  -6   2   10.77    1.77
 -11   6  -2   14.42    1.63
  11  -5   2    4.10    1.47
 -11   5  -2    4.75    1.10
  11  -4   2    1.14    1.26
 -11   4  -2    3.67    1.00
  11  -3   2   -0.27    1.21
 -11   3  -2    0.83    0.73
  11  -2   2   -0.80    1.19
 -11   2  -2    1.01    0.74
  11  -1   2    1.08    1.48
 -11   1  -2    2.10    0.88
  12  -8   2    5.10    1.63
  12  -7   2    1.87    1.37
 -12   7  -2    3.91    1.23
  12  -6   2    4.48    1.51
 -12   6  -2    6.78    1.26
  12  -5   2    0.64    1.30
 -12   5  -2    1.63    0.91
  12  -4   2    1.13    1.32
 -12   4  -2    2.66    0.93
 -12   0   3   11.42    1.54
  12   0  -3    6.59    1.62
 -12   1   3    5.04    1.20
  12  -1  -3    2.95    1.48
 -12   2   3    1.88    0.90
  12  -2  -3    1.38    1.28
 -12   3   3    1.42    0.88
  12  -3  -3    0.91    1.26
 -12   4   3   -0.05    0.82
  12  -4  -3    0.55    1.22
 -12   5   3   10.38    1.45
  12  -5  -3    8.32    1.72
 -12   6   3    8.98    1.44
  12  -6  -3    5.04    1.61
 -12   7   3   16.34    1.83
  12  -7  -3   15.12    2.10
 -11  -2   3   19.22    1.89
  11   2  -3   19.71    2.16
 -11  -1   3   12.39    1.56
  11   1  -3    9.26    1.77
 -11   0   3   21.38    1.85
  11   0  -3   23.72    2.42
 -11   1   3    0.12    0.75
  11  -1  -3   -1.82    1.07
 -11   2   3    1.92    0.90
  11  -2  -3    0.31    1.17
 -11   3   3    0.92    0.72
  11  -3  -3   -1.27    1.03
 -11   4   3   13.44    1.54
  11  -4  -3   13.79    1.85
 -11   5   3   17.13    1.75
  11  -5  -3   21.60    1.99
 -11   6   3    9.92    1.52
  11  -6  -3    8.22    1.53
 -11   7   3    4.65    1.30
  11  -7  -3    2.33    1.28
 -11   8   3    0.84    1.06
  11  -8  -3   -0.12    1.19
 -10  -3   3    1.82    0.94
  10   3  -3    2.14    1.35
 -10  -2   3    1.41    0.91
  10   2  -3   -1.99    1.01
 -10  -1   3   -1.06    0.63
  10   1  -3   -0.33    1.17
 -10   0   3   28.71    1.81
  10   0  -3   29.92    2.17
 -10   1   3   39.32    2.01
  10  -1  -3   35.95    2.34
 -10   2   3   58.10    2.42
  10  -2  -3   55.35    2.74
 -10   3   3   -0.04    0.62
  10  -3  -3   -0.55    0.89
 -10   4   3    0.23    0.69
  10  -4  -3   -0.25    0.99
 -10   5   3    6.19    1.17
  10  -5  -3    8.16    1.50
 -10   6   3   13.64    1.64
  10  -6  -3   15.60    1.88
 -10   7   3   20.46    1.97
  10  -7  -3   16.53    1.96
 -10   8   3   34.29    2.30
  10  -8  -3   34.23    2.45
 -10   9   3    6.49    1.53
  10  -9  -3    4.68    1.47
   9   5  -3   11.01    1.84
   9   4  -3    1.16    1.33
   9   3  -3    6.82    1.48
   9   3  -3    7.91    1.72
  -9  -2   3    3.48    1.01
   9   2  -3    1.49    1.16
  -9  -1   3   29.57    1.88
   9   1  -3   29.70    2.10
  -9   0   3    8.38    1.22
   9   0  -3   10.70    1.63
  -9   1   3   21.02    1.54
   9  -1  -3   22.06    1.91
  -9   2   3   15.49    1.36
   9  -2  -3   11.94    1.53
  -9   3   3    8.37    1.15
   9  -3  -3    8.31    1.42
  -9   4   3   16.57    1.46
   9  -4  -3   17.30    1.79
  -9   5   3    4.75    1.00
   9  -5  -3    2.78    1.13
  -9   6   3   13.58    1.52
   9  -6  -3   18.83    2.00
  -9   7   3   -0.57    0.76
   9  -7  -3   -0.32    1.06
  -9   8   3   15.75    1.76
   9  -8  -3   17.91    2.12
  -9   9   3    1.71    1.06
   9  -9  -3    1.57    1.31
   8   6  -3    0.16    1.14
   8   5  -3   16.86    1.97
   8   4  -3   36.36    2.45
   8   4  -3   41.95    2.23
   8   3  -3   53.73    2.72
   8   3  -3   48.87    2.40
   8   2  -3    0.40    0.96
   8   2  -3    0.63    1.01
  -8  -1   3    0.32    0.60
   8   1  -3    0.97    1.07
  -8   0   3   12.68    1.35
   8   0  -3   12.91    1.61
  -8   1   3   40.57    1.85
   8  -1  -3   40.87    2.10
  -8   2   3   39.30    1.85
   8  -2  -3   40.58    2.08
  -8   3   3  160.20    3.71
   8  -3  -3  153.23    3.81
  -8   4   3    8.15    1.12
   8  -4  -3   12.94    1.53
  -8   5   3    1.69    0.83
   8  -5  -3    0.47    0.96
  -8   6   3    6.64    1.13
   8  -6  -3    4.08    1.26
  -8   7   3    1.37    0.84
   8  -7  -3    3.71    1.38
  -8   8   3   26.83    2.01
   8  -8  -3   27.65    2.24
   8  -9  -3   18.92    2.09
  -8  10   3   15.95    1.80
   8 -10  -3   15.28    2.11
   7   7  -3   -0.64    1.00
   7   6  -3    9.73    1.60
   7   5  -3   -0.75    0.94
   7   4  -3    5.67    1.30
   7   4  -3    6.20    1.17
   7   3  -3    8.54    1.43
   7   3  -3   12.10    1.46
   7   2  -3   55.25    2.33
   7   2  -3   54.72    2.47
   7   1  -3   43.30    2.18
   7   1  -3   45.90    2.21
  -7   0   3    4.49    0.86
   7   0  -3    4.05    1.05
  -7   1   3    4.21    0.77
   7  -1  -3    6.18    1.13
  -7   2   3   10.96    1.13
   7  -2  -3   14.11    1.44
  -7   3   3   34.91    1.70
   7  -3  -3   35.00    1.88
  -7   4   3   24.16    1.54
   7  -4  -3   26.69    1.70
  -7   5   3  160.42    3.74
   7  -5  -3  163.49    3.90
  -7   6   3   11.44    1.30
   7  -6  -3   11.80    1.55
  -7   7   3    8.57    1.27
   7  -7  -3    9.09    1.45
  -7   8   3    5.98    1.18
   7  -8  -3    6.36    1.41
  -7   9   3    1.41    0.93
   7  -9  -3    1.09    1.18
  -7  10   3    4.07    1.19
   6   8  -3    4.85    1.40
   6   7  -3    0.53    1.06
   6   6  -3   -1.46    0.85
   6   5  -3    2.01    1.00
   6   4  -3   51.84    2.13
   6   4  -3   47.86    2.33
   6   3  -3   10.90    1.41
   6   3  -3   11.52    1.33
   6   2  -3  139.54    3.53
   6   2  -3  144.22    3.30
   6   1  -3    0.80    0.77
   6   1  -3    0.53    0.70
  -6   0   3   10.79    1.10
   6   0  -3   11.00    1.19
  -6   1   3   13.09    1.03
   6  -1  -3   14.92    1.31
  -6   2   3   19.24    1.23
   6  -2  -3   22.67    1.46
  -6   3   3   50.25    1.84
   6  -3  -3   50.59    1.99
  -6   4   3   50.90    1.91
   6  -4  -3   50.67    2.07
  -6   5   3   42.64    1.82
   6  -5  -3   42.63    2.05
  -6   6   3    0.58    0.65
   6  -6  -3    0.85    0.93
  -6   7   3   14.97    1.43
   6  -7  -3   17.19    1.72
  -6   8   3    0.33    0.71
   6  -8  -3   -0.97    0.93
  -6   9   3   18.29    1.68
   6  -9  -3   18.42    1.84
  -6  10   3    0.41    0.87
   5   9  -3    2.12    1.12
   5   8  -3    2.01    1.11
   5   7  -3   43.29    2.23
   5   6  -3   20.82    1.66
   5   5  -3    5.82    1.11
   5   5  -3    6.23    0.97
   5   4  -3   14.11    1.25
   5   4  -3    9.37    1.21
   5   3  -3   36.40    1.81
   5   3  -3   39.59    1.61
   5   2  -3   24.94    1.33
   5   2  -3   20.49    1.41
   5   1  -3   75.32    2.31
   5   1  -3   76.14    2.12
  -5   0   3  452.75    6.33
   5   0  -3  452.11    6.36
  -5   1   3   11.28    0.93
   5  -1  -3   12.36    1.09
  -5   2   3    9.79    0.97
   5  -2  -3   12.46    1.21
  -5   3   3  148.87    3.01
   5  -3  -3  146.19    3.22
  -5   4   3    4.17    0.74
  -5   4   3    4.74    0.64
   5  -4  -3    4.66    0.94
  -5   5   3   20.56    1.30
  -5   5   3   18.91    1.18
   5  -5  -3   17.33    1.49
  -5   6   3  126.41    3.03
   5  -6  -3  126.17    3.28
  -5   7   3   41.11    1.84
   5  -7  -3   40.80    2.10
  -5   8   3    5.31    1.03
   5  -8  -3    5.68    1.25
  -5   9   3   -0.38    0.75
   5  -9  -3   -0.34    1.02
  -5  10   3    1.64    0.97
   4   9  -3   11.99    1.65
   4   8  -3    1.92    1.04
   4   7  -3   22.90    1.73
   4   6  -3    3.25    0.94
   4   5  -3   21.13    1.12
   4   5  -3   19.90    1.49
   4   4  -3    0.98    0.66
   4   4  -3    1.75    0.61
   4   3  -3   77.87    2.30
   4   3  -3   80.84    1.97
   4   2  -3    1.09    0.60
   4   2  -3    0.62    0.56
  -4  -1   3   15.20    0.83
   4   1  -3   16.82    1.21
   4   1  -3   16.95    1.10
  -4   0   3   17.79    1.01
  -4   0   3   18.04    0.77
   4   0  -3   18.12    1.14
  -4   1   3    9.83    0.84
   4  -1  -3    9.61    0.99
  -4   2   3  124.74    2.14
  -4   2   3  132.74    2.58
   4  -2  -3  125.53    2.76
  -4   3   3    3.85    0.65
  -4   3   3    3.04    0.50
   4  -3  -3    3.42    0.82
  -4   4   3   45.32    1.53
  -4   4   3   42.72    1.52
   4  -4  -3   44.92    1.84
  -4   5   3   22.32    1.29
  -4   5   3   23.59    1.43
   4  -5  -3   24.82    1.69
  -4   6   3   24.75    1.60
  -4   6   3   25.05    1.39
   4  -6  -3   25.06    1.72
  -4   7   3    0.24    0.63
   4  -7  -3   -0.90    0.88
  -4   8   3   43.00    1.93
   4  -8  -3   40.37    2.15
  -4   9   3    6.28    1.11
  -4  10   3    8.53    1.26
   3  10  -3    4.25    1.23
   3   9  -3    5.91    1.20
   3   8  -3    4.36    1.03
   3   7  -3    4.38    0.95
   3   6  -3   54.60    2.08
   3   5  -3  188.37    3.72
   3   4  -3    1.75    0.50
   3   4  -3    1.88    0.65
   3   3  -3    0.17    0.48
   3   3  -3    0.46    0.54
   3   2  -3  174.22    2.81
   3   2  -3  173.51    3.14
  -3  -1   3   13.60    0.81
   3   1  -3   14.96    1.01
   3   1  -3   14.88    0.93
  -3   0   3    7.67    0.63
  -3   0   3    8.04    0.70
   3   0  -3    8.86    0.86
  -3   1   3  584.06    7.22
  -3   1   3  580.38    6.93
   3  -1  -3  581.42    7.39
  -3   2   3   35.49    1.18
  -3   2   3   35.64    1.23
   3  -2  -3   33.72    1.46
  -3   3   3    9.69    0.90
  -3   3   3    9.00    0.75
   3  -3  -3   10.65    1.07
  -3   4   3   13.92    1.14
  -3   4   3   15.90    0.98
   3  -4  -3   16.06    1.23
  -3   5   3    2.80    0.61
  -3   5   3    2.37    0.78
   3  -5  -3    4.47    1.01
  -3   6   3   17.92    1.64
  -3   6   3   16.92    1.19
   3  -6  -3   16.45    1.61
  -3   7   3   12.76    1.55
  -3   7   3   12.01    1.14
   3  -7  -3   14.93    1.52
  -3   8   3   36.34    1.76
   3  -8  -3   38.26    2.07
  -3   9   3    0.29    0.76
  -3  10   3    3.37    1.05
   2  10  -3   15.77    1.67
   2   9  -3    1.64    0.89
   2   8  -3   33.21    1.91
   2   7  -3    3.94    0.91
   2   6  -3    0.76    0.58
   2   5  -3    0.85    0.51
   2   4  -3  104.49    2.39
   2   3  -3  182.26    2.57
   2   3  -3  183.53    3.13
  -2  -2   3   38.56    1.27
   2   2  -3   37.56    1.05
   2   2  -3   40.56    1.26
  -2  -1   3   20.92    0.90
   2   1  -3   20.62    0.91
   2   1  -3   20.09    0.90
  -2   0   3  323.04    4.43
  -2   0   3  332.21    4.13
   2   0  -3  329.00    4.43
  -2   1   3    2.04    0.38
  -2   1   3    2.74    0.61
   2  -1  -3    3.58    0.71
  -2   2   3   -0.08    0.47
  -2   2   3    0.45    0.32
   2  -2  -3    0.33    0.56
  -2   3   3  470.04    6.89
  -2   3   3  465.30    5.70
   2  -3  -3  480.69    6.52
  -2   4   3   32.02    1.69
  -2   4   3   33.38    1.20
   2  -4  -3   33.92    1.59
  -2   5   3   55.34    2.25
  -2   5   3   51.65    1.65
   2  -5  -3   51.01    1.94
  -2   6   3   22.06    1.89
  -2   6   3   23.77    1.30
   2  -6  -3   22.49    1.60
  -2   7   3    1.19    0.97
  -2   7   3    1.45    0.68
   2  -7  -3    0.88    0.92
  -2   8   3    0.99    0.70
  -2   9   3    8.73    1.24
   1  11  -3   12.09    1.63
   1  10  -3   18.39    1.77
   1   9  -3    1.57    0.85
   1   8  -3    2.94    0.82
   1   7  -3   16.83    1.31
   1   6  -3   40.48    1.66
   1   5  -3    2.83    0.65
   1   4  -3  264.54    4.01
   1   3  -3   15.44    0.87
   1   3  -3   13.47    0.56
  -1  -2   3   33.95    1.20
   1   2  -3   36.89    1.04
   1   2  -3   37.17    0.94
  -1  -1   3   51.31    1.37
   1   1  -3   53.19    1.25
   1   1  -3   52.33    1.11
  -1   0   3   36.99    1.23
  -1   0   3   37.43    0.80
   1   0  -3   37.37    1.16
  -1   1   3   24.26    1.24
  -1   1   3   22.45    0.64
   1  -1  -3   24.96    1.10
  -1   2   3   41.92    1.77
  -1   2   3   44.22    1.06
   1  -2  -3   44.05    1.51
  -1   3   3   51.24    1.31
  -1   3   3   50.62    2.01
   1  -3  -3   50.82    1.72
  -1   4   3    0.34    0.44
  -1   4   3   -0.18    0.66
   1  -4  -3    0.16    0.60
  -1   5   3   29.67    1.32
  -1   5   3   29.64    1.99
   1  -5  -3   29.24    1.57
  -1   6   3    1.50    0.64
  -1   6   3    2.15    1.06
   1  -6  -3    1.70    0.88
  -1   7   3   33.80    2.38
  -1   7   3   30.71    1.62
   1  -7  -3   31.66    1.80
  -1   8   3    0.74    1.19
  -1   8   3   -0.92    0.66
  -1   9   3    8.02    1.27
   0  11  -3   -0.10    0.82
   0  10  -3    0.13    0.77
   0   9  -3   47.61    2.10
   0   8  -3   66.01    2.24
   0   7  -3   44.07    1.81
   0   6  -3    1.60    0.57
   0   5  -3   92.08    2.12
   0   4  -3    0.01    0.35
   0  -3   3    5.82    0.68
   0   3  -3    7.76    0.66
   0   3  -3    6.17    0.42
   0  -2   3  875.52   11.33
   0   2  -3  896.42    9.78
   0   2  -3  914.79    9.61
   0  -1   3  196.78    3.23
   0   1  -3  202.35    2.96
   0   1  -3  201.11    2.28
   0   0   3  190.53    3.38
   0   0  -3  196.03    3.07
   0   1   3  198.16    2.32
   0   1   3  190.57    3.75
   0  -1  -3  198.58    3.28
   0   2   3   16.85    1.44
   0   2   3   16.33    0.69
   0  -2  -3   13.77    1.00
   0   3   3    4.24    0.54
   0   3   3    4.33    1.02
   0  -3  -3    4.38    0.78
   0   4   3  130.20    3.69
   0   4   3  130.37    2.48
   0  -4  -3  129.06    2.93
   0   5   3   86.93    3.26
   0   5   3   84.18    2.15
   0  -5  -3   86.58    2.52
   0   6   3   22.40    1.36
   0   6   3   18.74    2.01
   0  -6  -3   23.26    1.53
   0   7   3    1.06    1.19
   0   7   3    0.42    0.66
   0  -7  -3    2.40    0.95
   0   8   3    5.91    1.67
   0   8   3    5.67    1.05
  -1  12  -3   -0.67    0.88
  -1  11  -3   12.50    1.57
  -1  10  -3    0.78    0.83
  -1   9  -3   33.29    1.76
  -1   8  -3    0.05    0.57
  -1   7  -3   57.37    1.95
  -1   6  -3    2.07    0.61
  -1   5  -3  112.22    2.35
   1  -4   3    7.63    0.84
   1  -4   3    9.56    0.64
  -1   4  -3    8.72    0.77
   1  -3   3   28.23    1.27
  -1   3  -3   31.03    0.98
   1  -2   3   26.14    1.14
  -1   2  -3   28.13    0.96
  -1   2  -3   27.07    0.75
   1  -1   3    6.74    0.76
  -1   1  -3    7.29    0.69
   1   0   3  140.70    2.99
  -1   0  -3  140.02    2.61
   1   1   3   49.18    0.95
   1   1   3   48.52    1.98
  -1  -1  -3   49.51    1.58
   1   2   3  137.12    3.55
   1   2   3  140.81    2.16
  -1  -2  -3  136.55    2.88
   1   3   3   15.02    0.86
   1   3   3   15.92    1.66
  -1  -3  -3   14.73    1.12
   1   4   3   11.27    0.93
   1   4   3    9.23    1.49
  -1  -4  -3    8.87    1.09
   1   5   3    9.17    0.98
   1   5   3    7.05    1.41
  -1  -5  -3    9.18    1.15
   1   6   3   42.06    1.73
   1   6   3   40.41    2.79
  -1  -6  -3   37.56    1.79
   1   7   3    8.37    1.13
   1   7   3   10.34    1.87
  -2  12  -3    9.10    1.42
  -2  11  -3   -2.14    0.65
  -2  10  -3    2.68    0.87
  -2   9  -3    0.02    0.63
  -2   8  -3   19.80    1.42
  -2   7  -3  208.19    3.88
   2  -6   3   52.65    1.28
  -2   6  -3   49.28    1.71
   2  -5   3  118.31    2.10
   2  -5   3  117.57    2.63
  -2   5  -3  117.55    2.45
   2  -4   3   67.66    1.61
   2  -4   3   68.98    1.91
  -2   4  -3   66.94    1.63
   2  -3   3    2.67    0.62
   2  -3   3    3.55    0.64
  -2   3  -3    2.90    0.47
   2  -2   3    1.24    0.56
   2  -2   3    3.44    0.67
  -2   2  -3    2.06    0.36
   2  -1   3  392.20    5.77
   2  -1   3  393.45    5.44
  -2   1  -3  392.92    4.36
   2   0   3  147.33    3.31
  -2   0  -3  148.07    2.02
  -2   0  -3  145.41    2.83
   2   1   3   56.30    1.28
   2   1   3   55.17    2.22
  -2  -1  -3   54.57    1.77
   2   2   3    1.45    0.85
   2   2   3    0.55    0.42
  -2  -2  -3    1.85    0.64
   2   3   3    1.49    0.93
   2   3   3    0.49    0.52
  -2  -3  -3    1.30    0.64
   2   4   3   10.74    1.02
   2   4   3   11.35    1.65
  -2  -4  -3    9.10    1.11
   2   5   3    9.35    1.62
   2   5   3    9.29    0.97
  -2  -5  -3    9.51    1.20
   2   6   3   37.45    1.69
  -2  -6  -3   40.83    1.83
   2   7   3    2.42    1.58
  -3  12  -3   15.82    1.68
  -3  11  -3    6.01    1.18
  -3  10  -3   43.19    2.09
  -3   9  -3   -0.14    0.64
   3  -8   3    3.06    0.64
  -3   8  -3    2.69    0.78
   3  -7   3    3.26    0.66
  -3   7  -3    3.11    0.78
   3  -6   3   49.72    1.54
   3  -6   3   48.03    1.73
  -3   6  -3   52.29    1.76
   3  -5   3  175.28    3.32
   3  -5   3  179.63    3.17
  -3   5  -3  177.06    3.15
   3  -4   3  149.56    2.96
   3  -4   3  147.23    2.91
  -3   4  -3  155.36    2.72
   3  -3   3  193.89    3.48
   3  -3   3  191.19    3.34
  -3   3  -3  194.73    2.98
   3  -2   3   59.40    1.88
   3  -2   3   60.39    1.81
  -3   2  -3   57.44    1.37
   3  -1   3    1.26    0.62
   3  -1   3    0.10    0.59
  -3   1  -3    0.22    0.30
   3   0   3    9.85    1.27
  -3   0  -3   11.20    0.65
   3   1   3  260.02    5.19
   3   1   3  262.71    3.79
  -3  -1  -3  252.32    4.49
   3   2   3   59.09    1.69
   3   2   3   63.96    2.68
  -3  -2  -3   58.18    2.02
   3   3   3  124.08    3.97
   3   3   3  123.11    2.65
  -3  -3  -3  118.11    3.03
   3   4   3   -0.65    0.60
   3   4   3    0.26    1.04
  -3  -4  -3    0.54    0.71
   3   5   3   -0.22    1.05
   3   5   3   -0.46    0.66
  -3  -5  -3    0.15    0.65
   3   6   3   -0.62    1.31
   3   7   3    4.58    1.92
  -4  12  -3   14.63    1.74
  -4  11  -3    5.65    1.25
  -4  10  -3    7.70    1.19
  -4   9  -3    2.41    0.84
   4  -8   3   24.19    1.52
   4  -8   3   24.66    1.35
  -4   8  -3   21.57    1.50
   4  -7   3    1.19    0.65
   4  -7   3    1.15    0.63
  -4   7  -3    1.33    0.64
   4  -6   3  129.79    2.89
   4  -6   3  129.12    2.86
  -4   6  -3  130.49    2.93
   4  -5   3   14.60    1.25
   4  -5   3   13.57    1.08
  -4   5  -3   14.19    1.10
   4  -4   3   78.43    2.03
   4  -4   3   84.02    2.37
  -4   4  -3   77.46    1.99
   4  -3   3    3.61    0.85
   4  -3   3    3.34    0.70
  -4   3  -3    3.24    0.60
   4  -2   3   48.36    1.96
   4  -2   3   50.66    1.76
  -4   2  -3   48.32    1.44
   4  -1   3   35.83    1.73
   4  -1   3   37.02    1.78
  -4   1  -3   37.46    1.22
   4   0   3   15.93    1.45
   4   0   3   16.24    1.39
  -4   0  -3   15.54    0.83
   4   1   3   51.75    2.49
   4   1   3   53.28    1.79
  -4  -1  -3   49.89    2.02
   4   2   3    1.41    0.78
   4   2   3    0.82    1.06
  -4  -2  -3    2.26    0.81
   4   3   3   32.59    2.46
   4   3   3   32.25    1.65
  -4  -3  -3   29.66    1.71
   4   4   3    0.24    0.75
   4   4   3   -0.80    0.97
  -4  -4  -3    0.63    0.71
   4   5   3   25.07    2.67
  -4  -5  -3   25.60    1.63
   4   6   3    1.50    1.69
   5 -12   3    3.89    1.25
  -5  12  -3    0.62    1.01
   5 -11   3   17.97    1.79
  -5  11  -3   10.23    1.43
   5 -10   3   38.68    2.07
  -5  10  -3   34.00    2.02
   5  -9   3   56.53    2.13
   5  -9   3   53.52    2.02
  -5   9  -3   53.68    2.26
   5  -8   3   15.70    1.41
   5  -8   3   16.32    1.38
  -5   8  -3   15.80    1.39
   5  -7   3   15.28    1.34
   5  -7   3   14.65    1.46
  -5   7  -3   14.73    1.39
   5  -6   3    1.01    0.68
   5  -6   3    1.40    0.84
  -5   6  -3    1.46    0.72
   5  -5   3    0.96    0.60
   5  -5   3    0.56    0.79
  -5   5  -3    2.39    0.65
   5  -4   3  242.66    4.04
   5  -4   3  248.07    4.75
  -5   4  -3  246.72    4.12
   5  -3   3   84.64    2.71
   5  -3   3   85.27    2.27
  -5   3  -3   86.15    2.16
   5  -2   3  193.33    4.26
   5  -2   3  197.32    3.88
  -5   2  -3  194.00    3.37
   5  -1   3    2.32    0.96
   5  -1   3    3.76    0.94
  -5   1  -3    3.52    0.60
   5   0   3    1.81    1.06
   5   0   3    1.41    0.95
  -5   0  -3    1.61    0.48
   5   1   3    4.72    1.24
  -5  -1  -3    6.37    1.11
   5   2   3   25.00    2.23
   5   2   3   22.63    1.61
  -5  -2  -3   24.47    1.64
   5   3   3   40.74    2.84
   5   3   3   44.32    2.01
  -5  -3  -3   45.49    2.14
   5   4   3   28.55    2.74
  -5  -4  -3   28.56    1.81
   5   5   3    6.20    1.92
  -5  -5  -3    9.96    1.85
   5   6   3   -0.68    1.66
   6 -12   3    1.73    0.95
  -6  12  -3    1.57    1.10
   6 -11   3   10.51    1.38
  -6  11  -3    8.54    1.43
   6 -10   3    1.52    0.83
  -6  10  -3    0.07    0.82
   6  -9   3   11.83    1.45
   6  -9   3   18.20    1.57
  -6   9  -3   14.09    1.51
   6  -8   3    4.51    1.12
   6  -8   3    4.75    0.95
  -6   8  -3    3.48    1.00
   6  -7   3   59.25    2.07
   6  -7   3   59.66    2.44
  -6   7  -3   60.31    2.34
   6  -6   3   11.96    1.06
   6  -6   3   11.23    1.47
  -6   6  -3   11.65    1.24
   6  -5   3    9.59    0.97
   6  -5   3    8.38    1.35
  -6   5  -3    7.64    1.04
   6  -4   3    0.62    0.89
   6  -4   3    0.78    0.65
  -6   4  -3    0.25    0.58
   6  -3   3    1.06    0.66
   6  -3   3    1.36    1.00
  -6   3  -3    1.66    0.64
   6  -2   3   49.26    2.04
   6  -2   3   45.84    2.37
  -6   2  -3   47.47    1.69
   6  -1   3   27.64    1.85
   6  -1   3   23.96    1.95
  -6   1  -3   25.07    1.26
   6   0   3   77.19    3.02
   6   0   3   80.14    2.96
  -6   0  -3   80.98    2.07
   6   1   3   -0.10    1.02
  -6  -1  -3    1.56    0.56
   6   2   3   10.35    1.66
  -6  -2  -3    8.09    1.30
   6   3   3    2.62    1.38
  -6  -3  -3    3.48    1.04
   6   4   3   11.62    2.11
  -6  -4  -3   12.22    1.52
   6   5   3    6.36    1.94
  -7  12  -3    1.33    1.13
  -7  11  -3    0.84    0.99
   7 -10   3    0.39    0.93
   7 -10   3   -0.18    0.84
  -7  10  -3    0.24    0.87
   7  -9   3   37.70    1.90
   7  -9   3   36.25    2.12
  -7   9  -3   38.80    2.21
   7  -8   3   15.83    1.51
   7  -8   3   19.02    1.78
  -7   8  -3   18.48    1.72
   7  -7   3   43.03    2.39
   7  -7   3   45.90    1.81
  -7   7  -3   44.23    2.19
   7  -6   3    1.59    0.70
   7  -6   3    1.34    1.02
  -7   6  -3    3.67    0.97
   7  -5   3    3.12    0.77
   7  -5   3    2.04    1.10
  -7   5  -3    2.88    0.85
   7  -4   3    3.53    0.81
   7  -4   3    3.05    1.21
  -7   4  -3    3.84    0.89
   7  -3   3   41.88    2.42
   7  -3   3   44.68    1.89
  -7   3  -3   44.14    1.83
   7  -2   3   24.17    1.73
   7  -2   3   23.13    2.20
  -7   2  -3   24.96    1.40
   7  -1   3   28.28    2.18
   7  -1   3   25.99    1.99
  -7   1  -3   26.88    1.37
   7   0   3    6.60    1.29
   7   0   3    4.62    1.37
  -7   0  -3    6.00    0.85
   7   1   3   -0.03    1.07
  -7  -1  -3    1.28    0.60
   7   2   3    7.21    1.62
  -7  -2  -3    6.30    1.35
   7   3   3    4.04    1.59
  -7  -3  -3    2.07    0.93
   7   4   3   16.93    2.33
  -7  -4  -3   11.23    1.58
  -8  12  -3   11.42    1.82
  -8  11  -3   -0.23    1.02
   8 -10   3   -1.07    0.94
  -8  10  -3   -0.45    0.86
   8  -9   3    4.37    1.28
  -8   9  -3    4.96    1.23
   8  -8   3    0.54    1.04
  -8   8  -3    0.10    0.89
   8  -7   3   15.87    1.81
  -8   7  -3   15.43    1.66
   8  -6   3   31.72    2.28
  -8   6  -3   32.31    1.92
   8  -5   3   50.80    2.59
   8  -5   3   56.05    2.88
  -8   5  -3   50.74    2.23
   8  -4   3    1.00    1.06
   8  -4   3   -0.13    0.68
  -8   4  -3    0.32    0.65
   8  -3   3   -0.48    0.74
   8  -3   3    0.24    1.03
  -8   3  -3    0.75    0.64
   8  -2   3   11.11    1.34
   8  -2   3    8.86    1.62
  -8   2  -3    9.68    1.08
   8  -1   3   18.45    2.10
   8  -1   3   22.12    1.89
  -8   1  -3   20.72    1.31
   8   0   3    9.66    1.72
   8   0   3    8.09    1.45
  -8   0  -3    9.93    1.05
   8   1   3   41.90    2.62
  -8  -1  -3   38.87    2.32
   8   2   3    2.46    1.49
  -8  -2  -3    3.35    1.07
   8   3   3    0.03    1.47
  -8  -3  -3    0.17    0.95
  -9  11  -3    0.10    1.13
   9 -10   3    3.34    1.31
  -9  10  -3    1.82    1.24
   9  -9   3    0.24    1.11
  -9   9  -3   -0.89    0.91
   9  -8   3    9.59    1.65
  -9   8  -3    8.91    1.46
   9  -7   3   -0.29    1.04
  -9   7  -3    0.39    0.88
   9  -6   3    4.24    1.41
  -9   6  -3    6.17    1.21
   9  -5   3   -0.81    0.96
  -9   5  -3    1.20    0.79
   9  -4   3    3.43    1.33
  -9   4  -3    3.03    0.88
   9  -3   3    7.52    1.59
  -9   3  -3    7.64    1.08
   9  -2   3    2.24    1.29
  -9   2  -3    2.16    0.71
   9  -1   3    5.88    1.64
  -9   1  -3    7.03    1.04
   9   0   3   -0.39    1.22
   9   0   3   -0.52    1.06
   9   1   3    3.81    1.44
  -9  -1  -3    3.11    1.07
  10 -11   3    5.89    1.63
  10 -10   3    6.78    1.63
 -10  10  -3    6.13    1.46
  10  -9   3   -0.10    1.28
 -10   9  -3    0.46    1.15
  10  -8   3   -0.16    1.18
 -10   8  -3    1.27    1.03
  10  -7   3    5.44    1.52
 -10   7  -3    6.84    1.32
  10  -6   3    6.09    1.59
 -10   6  -3    9.95    1.42
  10  -5   3    6.13    1.52
 -10   5  -3    8.02    1.22
  10  -4   3   24.62    2.29
 -10   4  -3   25.28    1.70
  10  -3   3    0.57    1.17
 -10   3  -3    1.15    0.74
  10  -2   3   -0.52    1.14
 -10   2  -3    0.96    0.65
  10  -1   3    3.28    1.55
  10   0   3    0.82    1.37
  11  -9   3    4.99    1.61
 -11   9  -3    6.11    1.49
  11  -8   3    2.08    1.34
 -11   8  -3    2.68    1.12
  11  -7   3    2.58    1.43
 -11   7  -3    3.05    1.06
  11  -6   3   -0.63    1.09
 -11   6  -3    0.70    0.86
  11  -5   3   -0.06    1.26
 -11   5  -3    2.02    0.90
  11  -4   3   -0.18    1.31
 -11   4  -3    0.63    0.75
  11  -3   3    1.18    1.38
 -11   3  -3    2.54    0.87
  11  -2   3    6.06    1.72
 -12   0   4    3.17    1.05
  12   0  -4    1.75    1.44
 -12   1   4    0.36    0.80
  12  -1  -4    0.54    1.38
 -12   2   4    7.34    1.33
  12  -2  -4    9.30    1.77
 -12   3   4    7.05    1.26
  12  -3  -4    2.53    1.42
 -12   4   4   13.81    1.60
  12  -4  -4   15.69    1.98
 -12   5   4    3.26    1.07
  12  -5  -4    4.44    1.43
 -12   6   4    1.96    1.06
  12  -6  -4    1.25    1.25
 -11  -2   4    0.80    0.89
  11   2  -4    0.70    1.33
 -11  -1   4    0.16    0.80
  11   1  -4    0.50    1.28
 -11   0   4    1.15    0.94
  11   0  -4    1.89    1.26
 -11   1   4    4.70    1.07
  11  -1  -4    4.36    1.48
 -11   2   4   20.45    1.69
  11  -2  -4   21.41    2.20
 -11   3   4   19.41    1.63
  11  -3  -4   16.16    1.87
 -11   4   4   15.37    1.67
  11  -4  -4   11.30    1.72
 -11   5   4    0.67    0.81
  11  -5  -4   -0.37    1.02
 -11   6   4    0.76    0.91
  11  -6  -4    1.39    1.25
 -11   7   4    0.49    1.00
  11  -7  -4   -0.30    1.11
 -11   8   4    7.85    1.48
  11  -8  -4    7.73    1.67
 -10  -3   4    9.84    1.50
  10   3  -4    6.64    1.54
 -10  -2   4    7.95    1.36
  10   2  -4   10.10    1.79
 -10  -1   4   49.87    2.40
  10   1  -4   41.80    2.55
 -10   0   4    0.82    0.76
  10   0  -4    2.70    1.32
 -10   1   4    0.17    0.66
  10  -1  -4    0.56    1.14
 -10   2   4    7.57    1.14
  10  -2  -4    9.50    1.59
 -10   3   4    7.93    1.20
  10  -3  -4    6.96    1.41
 -10   4   4   21.23    1.70
  10  -4  -4   20.87    2.05
 -10   5   4   41.81    2.23
  10  -5  -4   42.06    2.45
 -10   6   4   16.95    1.76
  10  -6  -4   16.92    2.07
 -10   7   4   -0.82    0.82
  10  -7  -4   -0.09    1.30
 -10   8   4    1.98    1.04
  10  -8  -4    0.92    1.34
   9   5  -4   -1.14    1.08
   9   4  -4    7.55    1.65
   9   3  -4    5.29    1.31
   9   3  -4    4.80    1.42
  -9  -2   4   10.24    1.43
   9   2  -4   10.52    1.62
  -9  -1   4    7.16    1.20
   9   1  -4    7.47    1.48
  -9   0   4    0.88    0.65
   9   0  -4    0.76    0.98
  -9   1   4   17.38    1.43
   9  -1  -4   16.72    1.78
  -9   2   4    0.25    0.59
   9  -2  -4   -0.19    0.87
  -9   3   4   12.04    1.31
   9  -3  -4   13.02    1.57
  -9   4   4    0.16    0.63
   9  -4  -4   -0.40    0.88
  -9   5   4   16.11    1.58
   9  -5  -4   19.53    1.98
  -9   6   4    3.59    0.96
   9  -6  -4    1.52    1.21
  -9   7   4   21.07    1.95
   9  -7  -4   22.77    2.42
  -9   8   4    9.44    1.47
   9  -8  -4    7.71    1.79
  -9   9   4    2.03    1.14
   9  -9  -4    4.66    1.54
   8   6  -4   20.37    2.13
   8   5  -4   -0.48    1.04
   8   4  -4    0.49    0.97
   8   4  -4    0.25    1.07
   8   3  -4   20.07    2.00
   8   3  -4   21.16    1.84
   8   2  -4   16.72    1.72
   8   2  -4   15.05    1.72
  -8  -1   4   23.22    1.59
   8   1  -4   22.39    1.85
  -8   0   4  123.99    3.27
   8   0  -4  119.95    3.32
  -8   1   4    7.42    1.05
   8  -1  -4    6.75    1.23
  -8   2   4    1.17    0.61
   8  -2  -4    0.19    0.86
  -8   3   4   11.52    1.23
   8  -3  -4   10.58    1.44
  -8   4   4    4.57    0.94
   8  -4  -4    4.60    1.15
  -8   5   4   32.19    1.84
   8  -5  -4   30.50    2.04
  -8   6   4   29.25    1.83
   8  -6  -4   28.53    2.05
  -8   7   4   43.96    2.20
   8  -7  -4   42.99    2.42
  -8   8   4    0.78    0.84
   8  -8  -4   -0.12    1.15
  -8   9   4    1.43    0.99
   8  -9  -4    1.83    1.40
   7   7  -4    1.76    1.19
   7   6  -4    0.53    1.01
   7   5  -4   10.65    1.59
   7   4  -4   20.97    1.86
   7   4  -4   25.77    1.73
   7   3  -4    5.45    1.22
   7   3  -4    8.65    1.30
   7   2  -4    5.72    1.24
   7   2  -4    5.55    1.22
  -7  -1   4   22.64    1.12
   7   1  -4   28.23    1.78
  -7   0   4    8.26    1.04
   7   0  -4   10.07    1.28
  -7   1   4    4.83    0.82
   7  -1  -4    5.65    1.09
  -7   2   4  143.62    3.34
   7  -2  -4  142.37    3.45
  -7   3   4   16.14    1.27
   7  -3  -4   17.49    1.60
  -7   4   4   12.14    1.26
   7  -4  -4   12.95    1.48
  -7   5   4   15.71    1.43
   7  -5  -4   16.04    1.68
  -7   6   4    0.76    0.74
   7  -6  -4   -0.10    0.91
  -7   7   4    6.03    1.13
   7  -7  -4    6.89    1.37
  -7   8   4   14.33    1.61
   7  -8  -4   15.50    1.79
  -7   9   4   19.74    1.75
   7  -9  -4   20.63    2.03
   6   8  -4    4.28    1.36
   6   7  -4   15.16    1.83
   6   6  -4    7.39    1.42
   6   5  -4   77.93    2.92
   6   4  -4    0.64    0.83
   6   4  -4    2.24    1.04
   6   3  -4    1.67    0.89
   6   3  -4   -0.30    0.79
   6   2  -4   25.56    1.57
   6   2  -4   23.31    1.69
  -6  -1   4    1.96    0.54
   6   1  -4    2.26    0.85
   6   1  -4    2.13    0.80
  -6   0   4   32.31    1.52
   6   0  -4   31.59    1.61
  -6   1   4   44.34    1.70
   6  -1  -4   41.68    1.77
  -6   2   4   76.89    2.29
   6  -2  -4   76.31    2.42
  -6   3   4    0.08    0.51
   6  -3  -4   -0.34    0.75
  -6   4   4   19.79    1.03
  -6   4   4   17.49    1.29
   6  -4  -4   21.26    1.63
  -6   5   4    8.54    1.07
  -6   5   4    6.86    0.87
   6  -5  -4   10.78    1.48
  -6   6   4   21.91    1.52
   6  -6  -4   20.12    1.76
  -6   7   4   -1.47    0.61
   6  -7  -4    0.55    0.99
  -6   8   4   17.96    1.53
   6  -8  -4   17.69    1.88
  -6   9   4   -1.70    0.69
   6  -9  -4   -1.60    1.04
   5   9  -4   12.35    1.63
   5   8  -4    5.53    1.26
   5   7  -4    0.96    0.88
   5   6  -4   10.68    1.40
   5   5  -4    3.67    0.99
   5   5  -4    4.85    0.92
   5   4  -4   13.29    1.17
   5   4  -4   12.88    1.39
   5   3  -4  253.98    4.77
   5   3  -4  250.39    4.15
  -5  -2   4   26.40    1.26
   5   2  -4   24.96    1.49
   5   2  -4   26.81    1.41
  -5  -1   4   15.08    0.95
   5   1  -4   15.48    1.37
   5   1  -4   15.97    1.15
  -5   0   4  123.47    2.20
  -5   0   4  126.64    2.78
   5   0  -4  122.74    2.77
  -5   1   4   -0.35    0.38
   5  -1  -4    0.67    0.67
  -5   2   4    6.53    0.82
   5  -2  -4    4.60    0.95
  -5   3   4  166.22    2.91
  -5   3   4  166.65    3.24
   5  -3  -4  164.72    3.61
  -5   4   4  112.15    2.54
  -5   4   4  108.47    2.61
   5  -4  -4  113.02    3.03
  -5   5   4   13.59    1.26
  -5   5   4   14.44    1.20
   5  -5  -4   15.01    1.57
  -5   6   4    3.26    0.88
  -5   6   4    2.87    0.77
   5  -6  -4    1.95    1.03
  -5   7   4   20.03    1.49
  -5   7   4   22.63    1.72
   5  -7  -4   21.95    1.89
  -5   8   4    6.68    1.08
   5  -8  -4    6.21    1.42
  -5   9   4    5.72    1.08
   4  10  -4   14.57    1.78
   4   9  -4   -1.84    0.81
   4   8  -4    9.80    1.40
   4   7  -4    0.62    0.77
   4   6  -4   17.41    1.60
   4   5  -4   11.75    1.31
   4   5  -4   10.24    0.91
   4   4  -4   15.33    1.31
   4   4  -4   16.07    1.03
   4   3  -4   30.94    1.58
   4   3  -4   30.72    1.28
  -4  -2   4    4.52    0.65
   4   2  -4    6.03    0.77
   4   2  -4    5.92    0.93
  -4  -1   4   99.29    2.10
   4   1  -4  102.04    2.49
   4   1  -4  101.58    2.28
  -4   0   4    1.25    0.47
  -4   0   4    2.68    0.51
   4   0  -4    2.25    0.69
  -4   1   4   62.65    1.54
  -4   1   4   59.49    1.70
   4  -1  -4   63.95    1.98
  -4   2   4   10.04    0.81
  -4   2   4    9.42    0.80
   4  -2  -4   12.10    1.23
  -4   3   4   30.51    1.33
  -4   3   4   27.38    1.21
   4  -3  -4   30.77    1.63
  -4   4   4    7.97    0.97
  -4   4   4    7.54    0.83
   4  -4  -4    8.39    1.25
  -4   5   4   58.70    2.16
  -4   5   4   55.00    1.81
   4  -5  -4   57.81    2.31
  -4   6   4   24.85    1.77
  -4   6   4   26.18    1.45
   4  -6  -4   23.91    1.85
  -4   7   4   25.13    1.92
  -4   7   4   23.00    1.46
   4  -7  -4   22.74    1.87
  -4   8   4    0.11    0.72
   4  -8  -4   -1.47    0.93
  -4   9   4    0.16    0.75
   3  10  -4    0.70    0.98
   3   9  -4   11.49    1.45
   3   8  -4   80.92    2.76
   3   7  -4    6.33    1.04
   3   6  -4   18.04    1.36
   3   5  -4   69.91    2.19
   3   4  -4    8.21    0.72
   3   4  -4    7.45    0.94
   3   3  -4    6.44    0.83
   3   3  -4    7.88    0.74
  -3  -2   4  445.65    6.15
   3   2  -4  438.10    5.92
   3   2  -4  443.34    5.70
  -3  -1   4  179.16    3.07
   3   1  -4  184.21    3.10
   3   1  -4  183.73    3.15
  -3   0   4   65.40    1.66
  -3   0   4   67.25    1.66
   3   0  -4   66.44    1.87
  -3   1   4   25.40    1.23
  -3   1   4   24.28    1.00
   3  -1  -4   26.73    1.35
  -3   2   4   66.76    1.59
  -3   2   4   68.39    1.95
   3  -2  -4   66.27    2.06
  -3   3   4   17.33    1.21
  -3   3   4   17.62    0.93
   3  -3  -4   18.20    1.33
  -3   4   4   54.42    2.07
  -3   4   4   53.25    1.57
   3  -4  -4   56.12    2.10
  -3   5   4  133.11    3.51
  -3   5   4  132.03    2.70
   3  -5  -4  128.86    3.32
  -3   6   4    2.44    0.70
  -3   6   4    2.01    0.99
   3  -6  -4    2.34    1.03
  -3   7   4    9.37    1.50
  -3   7   4    9.74    1.10
   3  -7  -4   11.95    1.58
  -3   8   4    5.62    0.98
  -3   8   4    4.17    1.35
   3  -8  -4    4.40    1.30
  -3   9   4    3.66    0.94
   2  11  -4   13.23    1.71
   2  10  -4    0.19    0.85
   2   9  -4    2.11    0.94
   2   8  -4    2.31    0.86
   2   7  -4   21.69    1.50
   2   6  -4   91.83    2.55
   2   5  -4   43.34    1.68
   2   4  -4  117.73    1.87
   2   4  -4  118.59    2.56
  -2  -3   4   73.54    2.01
   2   3  -4   73.00    1.56
   2   3  -4   76.30    1.89
  -2  -2   4   10.13    0.88
   2   2  -4    9.76    0.79
   2   2  -4    9.31    0.78
  -2  -1   4    8.75    0.84
   2   1  -4    8.81    0.77
   2   1  -4    5.63    0.76
  -2   0   4  420.98    5.07
  -2   0   4  418.34    5.89
   2   0  -4  420.13    5.69
  -2   1   4  157.90    2.35
  -2   1   4  159.92    3.18
   2  -1  -4  157.18    3.03
  -2   2   4  206.37    3.98
  -2   2   4  203.95    2.90
   2  -2  -4  202.65    3.71
  -2   3   4    7.91    1.07
  -2   3   4    7.63    0.66
   2  -3  -4    8.40    1.03
  -2   4   4   11.28    0.86
  -2   4   4   12.23    1.34
   2  -4  -4   12.60    1.38
  -2   5   4    0.29    0.51
  -2   5   4    0.01    0.82
   2  -5  -4   -0.56    0.87
  -2   6   4   14.62    1.17
  -2   6   4   19.58    1.88
   2  -6  -4   18.44    1.71
  -2   7   4   56.26    2.97
  -2   7   4   54.80    1.99
   2  -7  -4   59.56    2.53
  -2   8   4   10.09    1.21
  -2   8   4   10.69    1.89
   1  11  -4    4.13    1.17
   1  10  -4    3.52    1.05
   1   9  -4   16.91    1.49
   1   8  -4    1.80    0.72
   1   7  -4  148.76    3.29
   1   6  -4   29.07    1.44
   1   5  -4   62.17    1.81
  -1  -4   4   10.75    1.02
   1   4  -4    9.37    0.59
   1   4  -4    9.52    0.85
  -1  -3   4   12.84    1.09
   1   3  -4   13.13    0.86
   1   3  -4   13.04    0.69
  -1  -2   4   46.95    1.56
   1   2  -4   47.29    1.20
   1   2  -4   45.88    1.27
  -1  -1   4   63.06    1.79
   1   1  -4   64.05    1.29
   1   1  -4   63.74    1.61
  -1   0   4  283.64    3.29
  -1   0   4  277.59    4.57
   1   0  -4  285.76    4.26
  -1   1   4   12.87    0.54
  -1   1   4   13.01    1.23
   1  -1  -4   13.53    1.03
  -1   2   4   99.55    1.67
  -1   2   4   97.63    2.81
   1  -2  -4  100.10    2.46
  -1   3   4    2.28    0.45
  -1   3   4    1.67    0.84
   1  -3  -4    1.39    0.71
  -1   4   4   55.36    2.47
  -1   4   4   58.71    1.59
   1  -4  -4   51.73    2.06
  -1   5   4    0.16    0.92
  -1   5   4    0.03    0.54
   1  -5  -4   -0.32    0.81
  -1   6   4   27.67    2.26
  -1   6   4   27.22    1.41
   1  -6  -4   26.67    1.80
  -1   7   4    1.56    0.71
  -1   7   4    0.74    1.21
   1  -7  -4   -0.28    0.88
  -1   8   4    5.29    1.62
   0  12  -4    8.98    1.47
   0  11  -4   20.35    1.70
   0  10  -4   21.97    1.70
   0   9  -4   11.73    1.38
   0   8  -4   12.69    1.26
   0   7  -4    0.45    0.61
   0   6  -4    0.43    0.51
   0  -5   4  461.92    6.96
   0   5  -4  475.02    6.26
   0  -4   4  138.29    2.95
   0   4  -4  144.19    2.59
   0   4  -4  140.47    2.08
   0  -3   4  260.90    4.26
   0   3  -4  255.12    3.47
   0   3  -4  251.90    3.47
   0  -2   4   51.65    1.71
   0   2  -4   52.61    1.11
   0   2  -4   50.37    1.35
   0  -1   4    0.15    0.52
   0   1  -4   -0.15    0.43
   0   0   4    1.70    0.68
   0   0  -4    1.62    0.54
   0  -1  -4  149.14    3.02
   0   2   4  269.14    3.32
   0   2   4  267.69    5.26
   0  -2  -4  265.55    4.52
   0   3   4   89.98    1.80
   0   3   4   89.74    3.14
   0  -3  -4   85.51    2.45
   0   4   4   21.08    1.07
   0   4   4   21.01    1.99
   0  -4  -4   20.88    1.52
   0   5   4   15.99    1.12
   0   5   4   15.33    1.86
   0  -5  -4   15.23    1.50
   0   6   4    3.11    1.27
   0   6   4    2.60    0.72
   0  -6  -4    4.61    1.10
   0   7   4    1.14    1.38
   0  -7  -4    1.51    1.19
   0   8   4   28.59    2.94
  -1  12  -4   14.16    1.75
  -1  11  -4   -0.23    0.79
  -1  10  -4   15.91    1.63
  -1   9  -4   -0.08    0.61
  -1   8  -4   36.98    1.69
  -1   7  -4   16.54    1.22
   1  -6   4   13.26    1.19
  -1   6  -4   11.10    0.99
   1  -5   4   14.30    1.14
  -1   5  -4   15.27    0.63
  -1   5  -4   15.08    0.98
   1  -4   4   18.97    1.30
  -1   4  -4   17.82    0.78
  -1   4  -4   18.45    0.96
   1  -3   4  287.69    4.67
  -1   3  -4  283.49    3.66
  -1   3  -4  281.13    3.98
   1  -2   4   47.22    1.66
  -1   2  -4   47.07    0.95
  -1   2  -4   46.60    1.41
   1  -1   4  242.93    4.26
  -1   1  -4  251.07    3.95
   1   0   4    6.00    0.96
  -1   0  -4    5.87    0.79
   1   1   4   51.73    2.23
  -1  -1  -4   53.54    1.77
   1   2   4   14.24    1.59
   1   2   4   11.59    0.63
  -1  -2  -4   11.51    1.15
   1   3   4   65.71    1.56
   1   3   4   66.86    2.86
  -1  -3  -4   66.27    2.22
   1   4   4   33.31    2.38
   1   4   4   32.93    1.32
  -1  -4  -4   31.52    1.77
   1   5   4   49.75    3.03
   1   5   4   53.23    1.72
  -1  -5  -4   54.22    2.20
   1   6   4   11.73    1.98
  -1  -6  -4   12.81    1.43
   1   7   4    1.00    1.48
   1   8   4   -0.29    1.60
  -2  12  -4    0.55    0.99
  -2  11  -4    1.75    0.96
  -2  10  -4   68.28    2.46
  -2   9  -4   19.27    1.47
  -2   8  -4   43.76    1.88
   2  -7   4   25.86    1.52
  -2   7  -4   27.58    1.43
   2  -6   4    4.51    0.63
   2  -6   4    1.74    0.68
  -2   6  -4    2.26    0.62
   2  -5   4    0.60    0.48
   2  -5   4    0.26    0.58
  -2   5  -4    0.20    0.45
   2  -4   4  251.12    4.31
   2  -4   4  249.08    3.86
  -2   4  -4  254.65    3.68
   2  -3   4  168.79    3.31
   2  -3   4  174.68    3.12
  -2   3  -4  175.56    2.58
   2  -2   4  170.91    3.40
  -2   2  -4  179.50    2.35
  -2   2  -4  176.35    3.29
   2  -1   4   14.32    1.27
  -2   1  -4   13.41    1.03
   2   0   4   12.46    1.36
  -2   0  -4   11.94    1.13
   2   1   4   12.48    1.41
   2   1   4   10.20    0.70
  -2  -1  -4   10.97    1.14
   2   2   4   12.25    0.84
   2   2   4   12.76    1.63
  -2  -2  -4   12.79    1.16
   2   3   4  117.86    4.01
   2   3   4  117.36    2.30
  -2  -3  -4  113.54    3.04
   2   4   4    9.49    0.93
   2   4   4    6.99    1.49
  -2  -4  -4   10.69    1.29
   2   5   4   33.51    2.73
  -2  -5  -4   34.59    1.81
   2   6   4   -0.53    1.27
  -2  -6  -4    1.36    0.82
   2   7   4    0.98    1.57
  -3  12  -4    1.74    0.97
  -3  11  -4   -0.27    0.79
  -3  10  -4    0.00    0.70
   3  -9   4    3.19    0.98
  -3   9  -4    3.18    0.87
   3  -8   4   61.25    1.65
   3  -8   4   61.71    2.34
  -3   8  -4   63.49    2.23
   3  -7   4   55.17    2.04
   3  -7   4   55.98    1.65
  -3   7  -4   55.57    1.97
   3  -6   4  136.19    2.68
   3  -6   4  133.91    3.10
  -3   6  -4  134.62    2.87
   3  -5   4   13.06    1.21
   3  -5   4   12.94    1.06
  -3   5  -4   13.96    0.98
   3  -4   4    0.69    0.63
   3  -4   4    1.32    0.62
  -3   4  -4    0.17    0.42
   3  -3   4   35.79    1.58
   3  -3   4   35.93    1.55
  -3   3  -4   33.09    1.12
   3  -2   4  169.09    3.48
   3  -2   4  160.82    3.34
  -3   2  -4  161.88    2.40
   3  -1   4   93.62    2.73
  -3   1  -4   99.27    2.65
  -3   1  -4   93.95    1.63
   3   0   4  257.10    5.09
  -3   0  -4  257.61    3.30
  -3   0  -4  254.08    4.68
   3   1   4    7.48    0.75
   3   1   4    5.87    1.26
  -3  -1  -4    5.74    1.01
   3   2   4   -2.13    0.90
   3   2   4    0.79    0.60
  -3  -2  -4   -0.67    0.64
   3   3   4    0.64    1.11
   3   3   4    0.46    0.64
  -3  -3  -4    0.90    0.74
   3   4   4    0.31    1.07
  -3  -4  -4    1.84    0.83
   3   5   4   34.41    2.90
  -3  -5  -4   34.70    1.90
   3   6   4    8.94    2.03
   4 -12   4    3.60    1.26
  -4  12  -4    2.69    1.04
   4 -11   4    4.23    1.23
  -4  11  -4    3.87    1.05
   4 -10   4    2.03    0.98
  -4  10  -4    1.30    0.75
   4  -9   4   44.06    2.06
  -4   9  -4   40.52    1.96
   4  -8   4   14.91    1.46
   4  -8   4   17.27    1.25
  -4   8  -4   16.01    1.43
   4  -7   4   32.80    1.55
   4  -7   4   32.17    1.74
  -4   7  -4   32.29    1.63
   4  -6   4   -0.52    0.63
   4  -6   4    0.86    0.70
  -4   6  -4   -0.15    0.48
   4  -5   4    2.34    0.76
   4  -5   4    4.65    0.93
  -4   5  -4    2.79    0.65
   4  -4   4   13.62    1.22
   4  -4   4   15.52    1.32
  -4   4  -4   12.93    0.93
   4  -3   4   12.18    1.34
   4  -3   4   12.75    1.15
  -4   3  -4   10.26    0.83
   4  -2   4   67.51    2.38
   4  -2   4   73.69    2.33
  -4   2  -4   66.84    1.60
   4  -1   4    2.81    0.91
   4  -1   4    3.43    0.92
  -4   1  -4    3.54    0.51
   4   0   4   41.39    2.30
  -4   0  -4   41.29    1.90
  -4   0  -4   42.80    1.21
   4   1   4    1.28    1.05
  -4  -1  -4    0.31    0.74
  -4  -1  -4    1.03    0.40
   4   2   4   45.90    1.76
   4   2   4   48.32    2.74
  -4  -2  -4   45.39    2.14
   4   3   4   -0.46    1.06
  -4  -3  -4    2.08    0.87
   4   4   4   14.28    2.07
  -4  -4  -4   15.97    1.64
   4   5   4    0.52    1.44
  -4  -5  -4    1.83    0.87
   4   6   4    2.60    1.87
   5 -12   4   11.87    1.68
  -5  12  -4    9.98    1.55
   5 -11   4   17.52    1.80
  -5  11  -4   14.18    1.59
   5 -10   4    4.01    1.05
  -5  10  -4    3.33    1.01
   5  -9   4    0.77    0.84
   5  -9   4    2.38    0.86
  -5   9  -4    1.51    0.80
   5  -8   4   19.38    1.60
   5  -8   4   19.29    1.59
  -5   8  -4   20.95    1.54
   5  -7   4   71.34    2.48
   5  -7   4   71.64    2.34
  -5   7  -4   68.73    2.28
   5  -6   4   46.61    2.11
   5  -6   4   48.78    1.97
  -5   6  -4   47.48    1.86
   5  -5   4  140.63    3.56
   5  -5   4  140.20    3.09
  -5   5  -4  145.70    3.05
   5  -4   4    0.60    0.63
   5  -4   4    0.87    0.87
  -5   4  -4    1.05    0.53
   5  -3   4    3.36    0.79
   5  -3   4    2.50    1.05
  -5   3  -4    2.90    0.61
   5  -2   4   16.09    1.49
   5  -2   4   15.72    1.64
  -5   2  -4   18.19    1.01
   5  -1   4   11.53    1.43
   5  -1   4    7.40    1.27
  -5   1  -4   11.89    0.89
   5   0   4   72.48    3.00
  -5   0  -4   70.72    1.79
  -5   0  -4   68.48    2.58
   5   1   4   38.87    2.53
  -5  -1  -4   39.25    1.35
  -5  -1  -4   41.63    2.10
   5   2   4   17.01    2.03
  -5  -2  -4   19.91    1.61
   5   3   4    2.54    1.43
  -5  -3  -4    3.42    1.03
   5   4   4   -0.47    1.28
  -5  -4  -4    1.20    0.87
   5   5   4   -0.02    1.57
   6 -12   4    5.77    1.40
  -6  12  -4    3.91    1.20
   6 -11   4   -0.15    0.90
  -6  11  -4   -0.72    0.86
   6 -10   4    9.25    1.36
  -6  10  -4    5.56    1.21
   6  -9   4    9.26    1.29
   6  -9   4    5.90    1.19
  -6   9  -4    6.01    1.18
   6  -8   4    2.42    1.02
   6  -8   4    0.55    0.82
  -6   8  -4    2.18    0.87
   6  -7   4    1.58    1.00
   6  -7   4    0.02    0.78
  -6   7  -4    0.38    0.69
   6  -6   4    1.72    0.79
   6  -6   4    1.94    1.06
  -6   6  -4    2.01    0.79
   6  -5   4   21.19    1.89
   6  -5   4   24.60    1.53
  -6   5  -4   21.12    1.43
   6  -4   4    7.51    1.43
   6  -4   4    5.19    0.96
  -6   4  -4    5.69    0.88
   6  -3   4   82.92    2.54
   6  -3   4   79.51    3.04
  -6   3  -4   79.74    2.20
   6  -2   4    0.11    0.82
   6  -2   4    0.53    1.03
  -6   2  -4    0.76    0.56
   6  -1   4    6.13    1.27
   6  -1   4    4.37    1.28
  -6   1  -4    5.72    0.76
   6   0   4   11.63    1.59
  -6   0  -4   10.74    1.52
  -6   0  -4   12.45    0.91
   6   1   4    4.15    1.35
  -6  -1  -4    4.92    1.07
   6   2   4    4.95    1.62
  -6  -2  -4    5.42    1.21
   6   3   4   20.13    2.33
  -6  -3  -4   20.15    1.80
   6   4   4    4.63    1.83
  -6  -4  -4    3.99    1.08
  -7  12  -4   10.37    1.70
   7 -11   4    3.34    1.25
  -7  11  -4    5.04    1.31
   7 -10   4   20.50    1.90
   7 -10   4   20.66    1.89
  -7  10  -4   21.97    1.87
   7  -9   4    2.57    1.09
   7  -9   4    1.47    0.99
  -7   9  -4    1.43    0.86
   7  -8   4   -1.50    0.70
   7  -8   4   -0.50    0.89
  -7   8  -4   -0.37    0.73
   7  -7   4    7.92    1.47
   7  -7   4    9.49    1.17
  -7   7  -4   10.19    1.33
   7  -6   4   10.60    1.59
   7  -6   4   11.64    1.21
  -7   6  -4    9.28    1.21
   7  -5   4   19.26    1.47
   7  -5   4   19.21    2.01
  -7   5  -4   23.72    1.60
   7  -4   4   23.55    1.59
   7  -4   4   21.74    2.00
  -7   4  -4   27.53    1.59
   7  -3   4    7.82    1.56
   7  -3   4    7.84    1.21
  -7   3  -4    7.45    0.95
   7  -2   4    3.72    1.27
   7  -2   4    3.87    1.09
  -7   2  -4    2.87    0.68
   7  -1   4    2.49    1.06
   7  -1   4    1.73    1.09
  -7   1  -4    2.35    0.64
   7   0   4   -0.17    1.10
  -7   0  -4   -1.09    0.77
   7   1   4   16.67    2.00
  -7  -1  -4   12.71    1.63
   7   2   4    1.66    1.35
  -7  -2  -4    1.73    0.98
   7   3   4    3.70    1.71
  -7  -3  -4    8.74    1.42
  -8  12  -4    0.54    1.14
  -8  11  -4    0.06    1.07
   8 -10   4    4.66    1.41
  -8  10  -4    1.83    1.07
   8  -9   4   10.00    1.66
  -8   9  -4    9.50    1.48
   8  -8   4   32.59    2.40
  -8   8  -4   32.89    2.12
   8  -7   4    0.21    1.06
  -8   7  -4   -0.55    0.80
   8  -6   4    0.48    0.71
   8  -6   4    0.05    1.04
  -8   6  -4   -0.44    0.70
   8  -5   4   22.87    2.22
   8  -5   4   20.62    1.48
  -8   5  -4   24.52    1.65
   8  -4   4    5.71    1.42
   8  -4   4    3.62    0.94
  -8   4  -4    5.15    0.92
   8  -3   4    2.73    0.95
   8  -3   4    5.55    1.53
  -8   3  -4    2.52    0.79
   8  -2   4   36.53    2.56
   8  -2   4   41.68    2.27
  -8   2  -4   38.62    1.68
   8  -1   4    3.20    1.38
   8  -1   4    6.46    1.36
   8   0   4    0.05    1.14
  -8   0  -4    0.69    0.89
   8   1   4    1.18    1.34
  -8  -1  -4    2.37    1.08
   8   2   4    0.38    1.42
  -8  -2  -4    1.44    0.99
  -9  11  -4    4.73    1.41
   9 -10   4    2.20    1.26
  -9  10  -4    2.37    1.14
   9  -9   4    4.15    1.47
  -9   9  -4    4.74    1.25
   9  -8   4   -0.76    1.12
  -9   8  -4    1.13    1.01
   9  -7   4   -1.37    0.99
  -9   7  -4    1.55    0.99
   9  -6   4    1.81    1.27
  -9   6  -4    1.91    0.91
   9  -5   4   -1.66    1.01
  -9   5  -4   -0.24    0.70
   9  -4   4    5.05    1.44
  -9   4  -4    8.47    1.22
   9  -3   4   -0.03    1.13
  -9   3  -4    1.62    0.75
   9  -2   4    4.50    1.46
   9  -1   4    0.65    1.33
   9  -1   4    0.95    1.41
   9   0   4    5.13    1.46
  -9   0  -4    3.36    1.18
   9   1   4   -1.47    1.19
  -9  -1  -4    0.80    1.01
  10 -10   4    4.77    1.48
 -10  10  -4    3.40    1.32
  10  -9   4    2.97    1.38
 -10   9  -4    1.17    1.08
  10  -8   4    5.19    1.54
 -10   8  -4    3.47    1.21
  10  -7   4   20.93    2.45
 -10   7  -4   16.82    1.76
  10  -6   4   -0.44    1.14
 -10   6  -4    2.03    0.96
  10  -5   4   -0.23    1.16
 -10   5  -4    0.48    0.78
  10  -4   4    3.46    1.49
 -10   4  -4    3.62    0.97
  10  -3   4    0.29    1.31
  10  -2   4    4.42    1.60
  10  -1   4    2.01    1.49
  11  -9   4    0.02    1.21
 -11   9  -4    0.68    1.16
  11  -8   4   -2.68    1.09
 -11   8  -4    0.72    1.01
  11  -7   4    1.52    1.38
 -11   7  -4    0.91    0.97
  11  -6   4    1.81    1.41
 -11   6  -4    1.30    0.90
  11  -5   4    6.48    1.71
 -11   5  -4    8.38    1.26
  11  -4   4    3.58    1.46
  11  -3   4    0.40    1.38
 -12   0   5    0.29    0.81
  12   0  -5    0.07    1.29
 -12   1   5    8.89    1.35
  12  -1  -5   10.72    1.85
 -12   2   5    2.31    0.95
  12  -2  -5    1.06    1.40
 -12   3   5    2.64    0.96
  12  -3  -5    0.58    1.26
 -12   4   5    1.50    0.91
  12  -4  -5    1.33    1.30
 -12   5   5    0.88    0.93
  12  -5  -5   -0.41    1.13
 -12   6   5    7.51    1.38
  12  -6  -5    5.97    1.56
 -11  -3   5   -0.07    0.86
 -11  -2   5    0.58    0.82
  11   2  -5    0.42    1.30
 -11  -1   5   11.62    1.54
  11   1  -5   11.68    1.80
 -11   0   5    9.22    1.35
  11   0  -5   10.40    1.79
 -11   1   5   13.56    1.59
  11  -1  -5   14.02    1.93
 -11   2   5    1.34    0.78
  11  -2  -5   -0.44    1.10
 -11   3   5    0.42    0.76
  11  -3  -5   -0.14    1.10
 -11   4   5    0.16    0.79
  11  -4  -5    0.42    1.10
 -11   5   5    7.58    1.29
  11  -5  -5   12.37    1.84
 -11   6   5    3.82    1.15
  11  -6  -5    2.92    1.44
 -11   7   5    9.80    1.54
  11  -7  -5   10.51    2.05
 -10  -3   5    2.81    0.97
  10   3  -5    1.21    1.27
 -10  -2   5   -0.49    0.72
  10   2  -5    0.68    1.22
 -10  -1   5   10.67    1.39
  10   1  -5   11.03    1.77
 -10   0   5    0.99    0.76
  10   0  -5    0.22    1.06
 -10   1   5   10.81    1.35
  10  -1  -5   10.86    1.64
 -10   2   5   41.39    2.11
  10  -2  -5   38.58    2.36
 -10   3   5   26.09    1.78
  10  -3  -5   26.24    2.04
 -10   4   5    1.56    0.79
  10  -4  -5   -1.02    0.93
 -10   5   5    1.85    0.92
  10  -5  -5    3.33    1.30
 -10   6   5   10.58    1.50
  10  -6  -5    5.04    1.48
 -10   7   5    9.14    1.54
  10  -7  -5    8.55    1.83
 -10   8   5    5.19    1.38
  10  -8  -5    8.08    1.83
   9   5  -5    1.66    1.35
   9   4  -5    4.33    1.56
   9   3  -5   -0.07    1.04
   9   3  -5   -1.40    1.03
  -9  -2   5    7.05    1.16
   9   2  -5    7.07    1.44
  -9  -1   5    1.87    0.78
   9   1  -5    0.30    0.93
  -9   0   5   16.54    1.46
   9   0  -5   13.51    1.67
  -9   1   5    0.59    0.58
   9  -1  -5    1.33    0.95
  -9   2   5   17.04    1.42
   9  -2  -5   15.26    1.73
  -9   3   5    0.21    0.62
   9  -3  -5   -0.94    0.85
  -9   4   5   13.97    1.48
   9  -4  -5   13.06    1.68
  -9   5   5    5.42    1.09
   9  -5  -5    3.56    1.27
  -9   6   5    5.60    1.15
   9  -6  -5    2.68    1.33
  -9   7   5    2.19    1.02
   9  -7  -5    2.35    1.41
  -9   8   5   -1.89    0.82
   9  -8  -5   -0.69    1.21
   8   7  -5    1.58    1.27
   8   6  -5    9.28    1.68
   8   5  -5    1.08    1.19
   8   4  -5   14.83    1.69
   8   4  -5   14.60    1.85
  -8  -3   5   59.09    2.11
   8   3  -5   59.28    2.84
   8   3  -5   58.15    2.51
   8   2  -5   33.66    1.98
   8   2  -5   32.38    2.19
  -8  -1   5    0.93    0.63
   8   1  -5   -0.04    0.89
  -8   0   5    2.97    0.79
   8   0  -5    4.79    1.11
  -8   1   5   28.91    1.64
   8  -1  -5   29.38    1.89
  -8   2   5   20.94    1.50
   8  -2  -5   21.42    1.72
  -8   3   5   31.97    1.77
   8  -3  -5   29.57    1.92
  -8   4   5   90.84    2.83
   8  -4  -5   94.98    3.13
  -8   5   5    1.76    0.82
   8  -5  -5    2.11    1.03
  -8   6   5    3.31    0.97
   8  -6  -5    0.91    1.09
  -8   7   5    8.27    1.31
   8  -7  -5    7.14    1.47
  -8   8   5    2.68    1.02
   8  -8  -5    3.41    1.32
  -8   9   5    5.54    1.26
   8  -9  -5    4.20    1.51
   7   8  -5    0.95    1.27
   7   7  -5   13.89    1.84
   7   6  -5    3.97    1.27
   7   5  -5   14.72    1.79
   7   4  -5    2.63    1.10
   7   4  -5    3.93    1.07
  -7  -3   5   15.39    1.31
   7   3  -5   17.91    1.64
   7   3  -5   19.16    1.86
  -7  -2   5    1.53    0.67
   7   2  -5    0.83    0.98
   7   2  -5    1.84    0.96
  -7  -1   5   65.65    2.36
   7   1  -5   64.30    2.32
  -7   0   5   25.42    1.49
   7   0  -5   27.21    1.69
  -7   1   5   32.36    1.64
   7  -1  -5   28.81    1.72
  -7   2   5    6.03    0.96
   7  -2  -5    5.07    1.09
  -7   3   5    4.19    0.82
   7  -3  -5    6.10    1.20
  -7   4   5    5.30    0.93
   7  -4  -5    7.07    1.29
  -7   5   5   22.98    1.54
   7  -5  -5   22.29    1.87
  -7   6   5   65.64    2.43
   7  -6  -5   62.59    2.73
  -7   7   5    7.31    1.18
   7  -7  -5    5.27    1.39
  -7   8   5    2.96    0.99
   7  -8  -5    2.25    1.26
  -7   9   5    5.74    1.22
   7  -9  -5    6.11    1.52
   6   8  -5   29.76    2.26
   6   7  -5    8.51    1.47
   6   6  -5    6.19    1.28
   6   5  -5   -0.93    0.79
   6   4  -5    0.42    0.89
   6   4  -5    1.53    0.88
  -6  -3   5   28.59    1.58
   6   3  -5   28.25    1.62
   6   3  -5   32.83    1.93
  -6  -2   5   32.79    1.48
   6   2  -5   33.21    1.66
   6   2  -5   31.76    1.85
  -6  -1   5  165.16    3.02
   6   1  -5  169.14    3.48
   6   1  -5  165.81    3.80
  -6   0   5    0.44    0.46
   6   0  -5    1.08    0.73
  -6   1   5   22.71    1.30
   6  -1  -5   22.97    1.58
  -6   2   5   10.60    1.08
   6  -2  -5   11.57    1.36
  -6   3   5   32.56    1.53
   6  -3  -5   29.57    1.79
  -6   4   5    5.40    0.92
  -6   4   5    6.56    0.82
   6  -4  -5    6.18    1.29
  -6   5   5   45.08    1.89
  -6   5   5   44.37    1.81
   6  -5  -5   43.25    2.28
  -6   6   5    6.74    1.07
  -6   6   5    6.16    1.06
   6  -6  -5    5.16    1.30
  -6   7   5    3.26    0.92
   6  -7  -5    3.21    1.29
  -6   8   5    2.68    0.88
   6  -8  -5    2.41    1.24
  -6   9   5    0.43    0.90
   5   9  -5    1.56    1.09
   5   8  -5    3.99    1.17
   5   7  -5    3.94    1.11
   5   6  -5  100.46    3.12
   5   5  -5   29.74    1.41
   5   5  -5   27.83    1.83
   5   4  -5   43.61    2.11
   5   4  -5   43.42    1.65
  -5  -3   5   28.20    1.50
   5   3  -5   24.83    1.65
   5   3  -5   26.70    1.45
  -5  -2   5    5.05    0.80
   5   2  -5    4.59    0.95
   5   2  -5    5.30    0.86
  -5  -1   5   10.13    0.97
   5   1  -5   13.40    1.30
   5   1  -5   10.53    1.16
  -5   0   5  167.77    2.95
  -5   0   5  172.94    3.36
   5   0  -5  171.48    3.50
  -5   1   5  300.57    4.73
  -5   1   5  286.13    4.35
   5  -1  -5  289.92    4.97
  -5   2   5   40.08    1.53
  -5   2   5   40.44    1.41
   5  -2  -5   38.63    1.84
  -5   3   5    6.81    0.86
  -5   3   5    6.93    0.87
   5  -3  -5    7.54    1.25
  -5   4   5   56.09    1.97
  -5   4   5   51.99    1.82
   5  -4  -5   53.81    2.36
  -5   5   5    2.67    0.75
  -5   5   5    3.56    0.88
   5  -5  -5    4.17    1.20
  -5   6   5    4.79    1.05
  -5   6   5    5.27    0.89
   5  -6  -5    3.52    1.21
  -5   7   5   70.80    2.33
  -5   7   5   76.98    2.85
   5  -7  -5   73.55    2.92
  -5   8   5   14.70    1.43
   5  -8  -5   13.43    1.81
  -5   9   5    4.80    1.16
   4  10  -5    0.16    1.02
   4   9  -5    4.08    1.18
   4   8  -5   16.10    1.64
   4   7  -5    8.20    1.23
   4   6  -5   28.43    1.73
   4   5  -5    1.62    0.63
   4   5  -5    2.75    0.82
  -4  -4   5   83.07    2.51
   4   4  -5   78.60    2.43
   4   4  -5   79.84    1.98
  -4  -3   5    3.35    0.71
   4   3  -5    4.48    0.70
   4   3  -5    5.62    0.92
  -4  -2   5  131.12    2.78
   4   2  -5  131.41    2.94
   4   2  -5  134.94    2.70
  -4  -1   5    0.74    0.50
   4   1  -5    0.93    0.64
   4   1  -5    3.17    0.77
  -4   0   5   74.93    1.94
  -4   0   5   73.40    1.89
   4   0  -5   74.50    2.18
  -4   1   5    1.07    0.42
  -4   1   5    1.43    0.54
   4  -1  -5    1.50    0.73
  -4   2   5   79.41    1.91
  -4   2   5   80.05    2.17
   4  -2  -5   76.88    2.41
  -4   3   5   48.70    1.88
  -4   3   5   50.62    1.59
   4  -3  -5   51.11    2.12
  -4   4   5   29.36    1.34
  -4   4   5   30.87    1.69
   4  -4  -5   31.83    1.89
  -4   5   5   18.19    1.23
  -4   5   5   18.90    1.60
   4  -5  -5   18.13    1.77
  -4   6   5    1.10    0.86
  -4   6   5    0.50    0.58
   4  -6  -5    1.31    1.08
  -4   7   5    5.35    1.32
  -4   7   5    6.88    1.02
   4  -7  -5    5.90    1.37
  -4   8   5    0.58    0.69
  -4   8   5   -0.99    0.99
   4  -8  -5   -0.58    1.14
   3  10  -5    7.01    1.32
   3   9  -5    9.59    1.35
   3   8  -5   15.09    1.50
   3   7  -5    1.42    0.75
   3   6  -5    7.28    1.03
   3   5  -5  173.92    3.61
   3   5  -5  174.60    2.66
  -3  -4   5  194.02    3.90
   3   4  -5  188.55    3.67
   3   4  -5  188.99    2.94
  -3  -3   5   78.37    2.24
   3   3  -5   81.43    1.85
   3   3  -5   80.56    2.12
  -3  -2   5    7.47    0.89
   3   2  -5    7.75    0.89
   3   2  -5    8.42    0.93
  -3  -1   5   68.97    1.91
   3   1  -5   67.09    1.86
   3   1  -5   69.76    1.98
  -3   0   5   33.89    1.40
  -3   0   5   34.76    1.20
   3   0  -5   35.24    1.51
  -3   1   5   23.80    0.96
  -3   1   5   25.15    1.33
   3  -1  -5   24.01    1.38
  -3   2   5  340.88    5.63
  -3   2   5  345.74    4.59
   3  -2  -5  337.36    5.57
  -3   3   5   29.51    1.68
  -3   3   5   30.48    1.15
   3  -3  -5   26.68    1.65
  -3   4   5   75.12    1.91
  -3   4   5   70.63    2.61
   3  -4  -5   74.50    2.58
  -3   5   5    4.39    1.12
  -3   5   5    7.00    0.85
   3  -5  -5    8.37    1.41
  -3   6   5    3.95    0.75
  -3   6   5    2.52    1.05
   3  -6  -5    3.50    1.24
  -3   7   5    2.99    1.28
  -3   7   5    2.85    0.82
   3  -7  -5    2.36    1.21
  -3   8   5   17.38    2.09
   3  -8  -5   16.52    1.88
   2  11  -5   -0.29    0.88
   2  10  -5    0.80    0.88
   2   9  -5   30.91    1.86
   2   8  -5   19.51    1.53
   2   7  -5   51.84    2.07
   2   6  -5    5.81    0.94
  -2  -5   5   14.88    1.30
   2   5  -5   13.76    1.10
   2   5  -5   13.30    0.71
  -2  -4   5    0.11    0.57
   2   4  -5    0.37    0.41
   2   4  -5    0.44    0.49
  -2  -3   5  216.48    3.98
   2   3  -5  221.05    3.36
   2   3  -5  217.93    3.56
  -2  -2   5  171.65    3.39
   2   2  -5  174.25    3.07
   2   2  -5  173.00    2.92
  -2  -1   5  251.64    4.31
   2   1  -5  249.66    4.03
   2   1  -5  249.98    3.64
  -2   0   5    1.36    0.31
  -2   0   5    1.85    0.62
   2   0  -5    0.79    0.61
  -2   1   5   11.61    1.16
  -2   1   5   10.96    0.61
   2  -1  -5   11.28    1.17
  -2   2   5    7.52    0.60
  -2   2   5    5.84    1.05
   2  -2  -5    7.16    1.01
  -2   3   5   15.88    1.54
  -2   3   5   14.01    0.82
   2  -3  -5   14.59    1.34
  -2   4   5  157.44    4.16
  -2   4   5  156.52    2.79
   2  -4  -5  158.81    3.75
  -2   5   5   37.15    2.37
  -2   5   5   35.21    1.41
   2  -5  -5   35.10    2.07
  -2   6   5   40.44    1.59
  -2   6   5   42.20    2.59
   2  -6  -5   40.24    2.20
  -2   7   5    6.68    1.63
   2  -7  -5    3.64    1.25
  -2   8   5    3.37    1.46
   1  11  -5    0.27    0.87
   1  10  -5   35.12    2.04
   1   9  -5   20.61    1.60
   1   8  -5   15.29    1.45
   1   7  -5    1.27    0.65
   1   6  -5    3.86    0.76
  -1  -5   5   26.61    1.49
   1   5  -5   26.76    1.28
   1   5  -5   25.47    0.83
  -1  -4   5   23.47    1.41
   1   4  -5   22.79    1.09
   1   4  -5   22.78    0.89
  -1  -3   5  283.79    4.80
   1   3  -5  290.24    4.00
   1   3  -5  284.73    4.03
  -1  -2   5    6.89    0.88
   1   2  -5    7.86    0.67
   1   2  -5    6.69    0.77
  -1  -1   5  142.87    3.07
   1   1  -5  141.29    2.76
   1   1  -5  141.42    2.15
  -1   0   5    0.31    0.57
   1   0  -5    0.71    0.53
  -1   1   5   95.58    1.43
  -1   1   5   94.66    2.78
   1  -1  -5   93.99    2.47
  -1   2   5    2.77    0.92
  -1   2   5    2.07    0.38
   1  -2  -5    1.62    0.72
  -1   3   5   82.44    3.04
  -1   3   5   81.26    1.68
   1  -3  -5   81.08    2.52
  -1   4   5    9.47    1.49
  -1   4   5   10.49    0.89
   1  -4  -5    8.39    1.29
  -1   5   5   11.23    0.99
  -1   5   5    9.68    1.61
   1  -5  -5   10.05    1.36
  -1   6   5    7.56    1.54
   1  -6  -5   10.34    1.52
  -1   7   5    5.08    1.63
   1  -7  -5    4.55    1.23
  -1   8   5    9.76    2.02
   0  12  -5    7.32    1.38
   0  11  -5    2.58    0.98
   0  10  -5    0.36    0.80
   0   9  -5    2.17    0.82
   0   8  -5   88.25    2.62
   0  -7   5   55.33    2.32
   0   7  -5   57.85    1.98
   0  -6   5  120.92    3.10
   0   6  -5  119.78    2.67
   0  -5   5    3.08    0.78
   0   5  -5    3.40    0.65
   0   5  -5    4.38    0.48
   0  -4   5   38.78    1.74
   0   4  -5   37.87    1.14
   0   4  -5   39.31    1.29
   0  -3   5    8.43    1.05
   0   3  -5    8.44    0.80
   0   3  -5    9.60    0.72
   0  -2   5   85.25    2.36
   0   2  -5   85.52    1.99
   0   2  -5   85.02    1.44
   0  -1   5  416.99    6.42
   0   1  -5  415.19    5.86
   0   0   5  147.92    3.50
   0   0  -5  156.46    3.18
   0   1   5   81.60    2.78
   0  -1  -5   84.46    2.39
   0   2   5   40.43    0.98
   0   2   5   39.39    2.19
   0  -2  -5   38.80    1.81
   0   3   5    0.36    0.43
   0   3   5    0.31    1.00
   0  -3  -5    0.24    0.72
   0   4   5    0.43    0.48
   0   4   5    0.45    1.09
   0  -4  -5    0.40    0.81
   0   5   5   83.52    3.66
   0  -5  -5   78.55    2.81
   0   6   5   16.68    2.09
   0  -6  -5   20.28    1.69
   0   7   5   14.68    2.24
  -1  12  -5   -0.07    0.93
  -1  11  -5    1.30    0.91
  -1  10  -5    8.49    1.26
  -1   9  -5    1.76    0.82
   1  -8   5   20.32    1.64
  -1   8  -5   19.23    1.39
   1  -7   5    1.33    0.75
  -1   7  -5    0.43    0.55
   1  -6   5   55.84    2.09
  -1   6  -5   56.53    1.23
  -1   6  -5   57.37    1.81
   1  -5   5    1.31    0.69
  -1   5  -5    1.21    0.48
  -1   5  -5    1.17    0.36
   1  -4   5  187.27    3.81
  -1   4  -5  188.12    2.95
  -1   4  -5  186.35    3.08
   1  -3   5    0.50    0.62
  -1   3  -5    0.83    0.33
  -1   3  -5    0.35    0.44
   1  -2   5   37.75    1.67
  -1   2  -5   38.22    1.45
   1  -1   5   12.09    1.29
  -1   1  -5   11.27    0.99
   1   0   5   27.95    1.72
  -1   0  -5   25.03    1.34
   1   1   5   42.77    2.17
  -1  -1  -5   42.07    1.79
   1   2   5   68.57    2.91
  -1  -2  -5   66.29    2.33
   1   3   5   35.63    1.20
   1   3   5   33.26    2.46
  -1  -3  -5   34.89    1.88
   1   4   5   -1.35    0.99
  -1  -4  -5    1.07    0.86
   1   5   5    1.20    1.14
  -1  -5  -5    2.90    0.97
   1   6   5    0.65    1.31
  -1  -6  -5    2.25    0.95
   1   7   5   17.45    2.56
   2 -12   5    9.93    1.73
  -2  12  -5    5.05    1.19
   2 -11   5   22.37    2.24
  -2  11  -5   19.52    1.87
   2 -10   5    6.73    1.33
  -2  10  -5    6.10    1.07
   2  -9   5    1.05    0.84
  -2   9  -5    1.60    0.77
   2  -8   5    8.31    1.14
  -2   8  -5    9.15    1.12
   2  -7   5   34.19    1.85
  -2   7  -5   31.79    1.57
  -2   7  -5   34.82    1.06
   2  -6   5  129.49    3.22
  -2   6  -5  131.47    2.41
  -2   6  -5  128.17    2.74
   2  -5   5   94.04    2.65
  -2   5  -5   94.33    2.11
  -2   5  -5   90.24    2.12
   2  -4   5   31.75    1.65
  -2   4  -5   30.47    1.09
  -2   4  -5   31.90    1.28
   2  -3   5   69.06    2.25
  -2   3  -5   69.73    1.44
  -2   3  -5   73.27    2.04
   2  -2   5    0.41    0.61
  -2   2  -5    0.65    0.54
   2  -1   5    1.32    0.72
  -2   1  -5   -0.41    0.50
   2   0   5  149.72    3.76
  -2   0  -5  143.93    3.33
   2   1   5   18.10    1.83
  -2  -1  -5   19.14    1.40
   2   2   5   50.33    2.79
  -2  -2  -5   53.65    2.16
   2   3   5    0.63    1.09
  -2  -3  -5    1.76    0.84
   2   4   5    3.67    1.47
  -2  -4  -5    3.77    1.01
   2   5   5    0.62    1.30
  -2  -5  -5    1.96    0.85
   2   6   5    7.88    1.97
  -2  -6  -5    8.99    1.33
   3 -12   5    0.36    1.15
  -3  12  -5   -0.24    0.84
   3 -11   5   12.98    1.76
  -3  11  -5   10.08    1.37
   3 -10   5    7.51    1.33
  -3  10  -5    6.35    1.13
   3  -9   5   45.03    2.18
  -3   9  -5   45.78    2.08
   3  -8   5    0.94    0.85
  -3   8  -5    3.88    0.85
   3  -7   5    1.54    0.80
   3  -7   5    1.93    0.70
  -3   7  -5    1.54    0.64
   3  -6   5   41.35    1.65
   3  -6   5   47.13    2.04
  -3   6  -5   44.53    1.66
   3  -5   5   26.88    1.58
   3  -5   5   27.18    1.43
  -3   5  -5   27.80    1.25
   3  -4   5   46.03    1.88
   3  -4   5   50.27    1.82
  -3   4  -5   47.64    1.39
   3  -3   5  168.23    3.64
  -3   3  -5  170.49    2.62
  -3   3  -5  170.22    3.65
   3  -2   5   19.83    1.51
  -3   2  -5   18.69    0.72
  -3   2  -5   18.55    1.31
   3  -1   5   10.02    1.26
  -3   1  -5   11.54    1.27
   3   0   5    3.20    1.08
  -3   0  -5    1.95    0.79
   3   1   5    2.60    1.22
  -3  -1  -5    3.12    0.94
   3   2   5   55.06    2.93
  -3  -2  -5   47.67    2.17
   3   3   5   18.27    2.14
  -3  -3  -5   20.70    1.67
   3   4   5   40.73    3.05
  -3  -4  -5   41.89    2.19
   3   5   5   -0.33    1.35
  -3  -5  -5    1.35    0.85
   3   6   5    1.90    1.68
   4 -13   5    1.94    1.25
  -4  13  -5   -0.08    0.89
   4 -12   5    9.69    1.64
  -4  12  -5    6.65    1.34
   4 -11   5    4.43    1.20
  -4  11  -5    5.94    1.23
   4 -10   5   12.30    1.54
  -4  10  -5    8.94    1.24
   4  -9   5    0.93    0.89
  -4   9  -5    1.67    0.81
   4  -8   5    0.82    0.83
   4  -8   5    1.87    0.80
  -4   8  -5    2.46    0.80
   4  -7   5    3.04    0.87
   4  -7   5    2.83    0.93
  -4   7  -5    2.10    0.72
   4  -6   5   -0.11    0.71
   4  -6   5    1.78    0.75
  -4   6  -5    1.07    0.61
   4  -5   5   58.22    2.17
   4  -5   5   56.92    2.12
  -4   5  -5   58.07    1.77
   4  -4   5    1.38    0.71
   4  -4   5    0.95    0.80
  -4   4  -5    1.05    0.50
   4  -3   5   38.97    1.87
   4  -3   5   40.96    1.90
  -4   3  -5   41.25    1.27
   4  -2   5    1.74    0.86
  -4   2  -5    2.38    0.41
  -4   2  -5    1.65    0.82
   4  -1   5   23.13    1.89
  -4   1  -5   24.44    0.88
  -4   1  -5   27.81    1.67
   4   0   5   -0.72    0.93
  -4   0  -5   -0.24    0.65
   4   1   5   18.53    2.01
  -4  -1  -5   18.50    1.64
   4   2   5    2.08    1.17
  -4  -2  -5    0.95    0.87
   4   3   5    0.55    1.26
  -4  -3  -5    1.67    0.96
   4   4   5    2.75    1.59
  -4  -4  -5    0.66    0.82
   4   5   5   -0.70    1.52
  -4  -5  -5    2.74    0.96
   5 -12   5    0.51    1.26
  -5  12  -5   -0.19    0.90
   5 -11   5    8.43    1.55
  -5  11  -5    5.56    1.20
   5 -10   5   14.16    1.64
  -5  10  -5   12.95    1.51
   5  -9   5   18.68    1.74
   5  -9   5   15.91    1.47
  -5   9  -5   16.62    1.59
   5  -8   5   60.93    2.42
   5  -8   5   60.52    2.25
  -5   8  -5   56.85    2.24
   5  -7   5    1.46    0.88
   5  -7   5    2.16    0.94
  -5   7  -5    0.35    0.71
   5  -6   5    5.66    1.15
   5  -6   5    5.43    1.05
  -5   6  -5    4.75    0.88
   5  -5   5   19.28    1.68
   5  -5   5   21.05    1.55
  -5   5  -5   21.54    1.30
   5  -4   5    1.11    0.75
   5  -4   5    1.88    0.98
  -5   4  -5    1.44    0.54
   5  -3   5   45.56    2.13
   5  -3   5   50.80    2.37
  -5   3  -5   48.23    1.52
   5  -2   5   33.26    2.01
   5  -2   5   30.21    2.03
  -5   2  -5   30.49    1.21
   5  -1   5   57.10    2.74
  -5   1  -5   60.74    2.48
  -5   1  -5   61.71    1.56
   5   0   5    8.28    1.50
  -5   0  -5    4.47    1.09
   5   1   5   -0.13    1.15
  -5  -1  -5    1.18    0.87
   5   2   5    8.62    1.80
  -5  -2  -5    7.01    1.29
   5   3   5    9.98    1.96
  -5  -3  -5   11.19    1.41
   5   4   5    3.95    1.70
  -5  -4  -5    5.62    1.23
   6 -12   5    4.74    1.42
  -6  12  -5    1.83    1.14
   6 -11   5    1.44    1.13
  -6  11  -5   -0.37    0.83
   6 -10   5    2.29    1.10
  -6  10  -5    2.53    1.03
   6  -9   5    0.62    0.97
   6  -9   5    2.22    1.00
  -6   9  -5    0.95    0.88
   6  -8   5    9.92    1.30
   6  -8   5   11.55    1.49
  -6   8  -5    9.08    1.27
   6  -7   5    0.75    0.93
   6  -7   5   -0.60    0.79
  -6   7  -5   -0.29    0.71
   6  -6   5   44.22    2.30
   6  -6   5   43.31    1.97
  -6   6  -5   40.24    1.85
   6  -5   5    0.00    0.72
   6  -5   5    1.14    1.07
  -6   5  -5   -0.05    0.59
   6  -4   5    8.38    1.46
   6  -4   5    7.79    1.16
  -6   4  -5    8.62    0.94
   6  -3   5    7.08    1.19
   6  -3   5    5.17    1.34
  -6   3  -5    7.23    0.85
   6  -2   5    0.81    0.98
   6  -2   5    0.06    0.90
  -6   2  -5    1.05    0.49
   6  -1   5    1.84    1.10
  -6   1  -5    0.21    0.83
   6   0   5   11.34    1.67
  -6   0  -5   15.09    1.70
   6   1   5   14.76    2.04
  -6  -1  -5   19.62    1.81
   6   2   5    0.72    1.35
  -6  -2  -5    1.82    1.03
   6   3   5    0.30    1.41
  -6  -3  -5    3.49    1.06
  -7  12  -5    0.85    1.05
   7 -11   5   -1.35    1.01
  -7  11  -5    0.83    0.96
   7 -10   5    0.87    1.08
   7 -10   5    3.74    1.18
  -7  10  -5    2.97    1.11
   7  -9   5   -1.41    0.91
   7  -9   5    0.43    0.99
  -7   9  -5    1.54    0.94
   7  -8   5   14.62    1.79
   7  -8   5   17.85    1.57
  -7   8  -5   13.93    1.60
   7  -7   5   19.99    1.63
   7  -7   5   18.65    2.03
  -7   7  -5   19.63    1.61
   7  -6   5   16.81    1.89
   7  -6   5   18.52    1.55
  -7   6  -5   17.13    1.48
   7  -5   5    2.66    1.25
   7  -5   5    1.05    0.78
  -7   5  -5    3.17    0.82
   7  -4   5   -0.26    0.78
   7  -4   5   -0.41    1.03
  -7   4  -5   -0.48    0.56
   7  -3   5    2.88    1.25
   7  -3   5    2.50    1.01
  -7   3  -5    3.17    0.73
   7  -2   5   12.85    1.74
   7  -2   5   13.88    1.62
   7  -1   5    1.57    1.08
  -7   1  -5    2.33    1.05
   7   0   5   12.90    1.76
  -7   0  -5   10.33    1.52
   7   1   5   -0.32    1.24
  -7  -1  -5    0.63    1.00
   7   2   5    1.32    1.60
  -7  -2  -5    0.01    0.98
  -8  12  -5    1.71    1.22
  -8  11  -5   13.91    1.74
   8 -10   5    2.47    1.19
  -8  10  -5    0.92    1.00
   8  -9   5    2.66    1.21
  -8   9  -5    2.87    1.10
   8  -8   5    9.17    1.62
  -8   8  -5   10.44    1.43
   8  -7   5    0.17    0.86
   8  -7   5    0.44    1.06
  -8   7  -5    0.46    0.85
   8  -6   5    3.68    0.98
   8  -6   5    4.35    1.35
  -8   6  -5    4.22    1.02
   8  -5   5   31.45    1.85
   8  -5   5   33.06    2.44
  -8   5  -5   28.61    1.70
   8  -4   5   13.06    1.46
   8  -4   5   12.87    1.94
  -8   4  -5   12.43    1.24
   8  -3   5    1.53    1.19
   8  -3   5   -0.65    0.86
   8  -2   5    0.59    1.02
   8  -2   5    0.36    1.06
   8  -1   5    1.58    1.19
  -8   1  -5    2.39    1.07
   8   0   5    0.65    1.29
  -8   0  -5    2.32    1.11
   8   1   5    0.16    1.41
  -8  -1  -5    2.50    1.17
  -9  11  -5    2.55    1.24
   9 -10   5   -1.15    1.08
  -9  10  -5    0.21    1.01
   9  -9   5    3.19    1.42
  -9   9  -5    1.66    1.11
   9  -8   5   -0.90    1.16
  -9   8  -5    1.38    0.94
   9  -7   5    5.76    1.51
  -9   7  -5    6.93    1.27
   9  -6   5   -0.86    1.02
  -9   6  -5   -0.03    0.76
   9  -5   5    3.36    1.39
  -9   5  -5    3.43    0.88
   9  -4   5   -0.15    1.16
   9  -3   5    5.09    1.50
   9  -2   5    0.83    1.33
   9  -2   5    1.09    1.38
   9  -1   5    3.26    1.38
  -9   1  -5    3.88    1.24
   9   0   5    1.43    1.37
  -9   0  -5   -0.84    0.82
  10 -10   5   12.56    2.03
 -10  10  -5   10.38    1.66
  10  -9   5    5.94    1.74
 -10   9  -5    3.13    1.21
  10  -8   5    0.50    1.24
 -10   8  -5   -1.33    0.90
  10  -7   5    0.82    1.32
 -10   7  -5    1.04    0.93
  10  -6   5    0.51    1.24
 -10   6  -5    1.11    0.83
  10  -5   5    5.29    1.64
  10  -4   5    3.16    1.46
  10  -3   5    9.04    1.82
  11  -8   5    5.33    1.74
 -11   8  -5    6.65    1.37
  11  -7   5   -0.85    1.28
 -11   7  -5    2.53    1.08
  11  -6   5    2.14    1.47
  11  -5   5    0.13    1.35
 -12   0   6    1.68    0.95
  12   0  -6   -0.51    1.28
 -12   1   6   -0.95    0.74
  12  -1  -6    0.51    1.27
 -12   2   6    0.41    0.80
  12  -2  -6   -1.82    1.08
 -12   3   6    2.23    0.98
  12  -3  -6    2.66    1.39
 -12   4   6    3.73    1.11
  12  -4  -6    8.02    1.72
 -12   5   6   12.16    1.65
  12  -5  -6   10.43    1.78
 -11  -3   6    9.70    1.57
 -11  -2   6   18.16    1.88
  11   2  -6   17.63    2.08
 -11  -1   6   -0.13    0.69
  11   1  -6   -2.10    1.10
 -11   0   6    0.66    0.82
  11   0  -6    0.37    1.22
 -11   1   6    2.57    0.94
  11  -1  -6    1.65    1.24
 -11   2   6    4.58    1.10
  11  -2  -6    3.72    1.38
 -11   3   6    8.27    1.31
  11  -3  -6    8.80    1.62
 -11   4   6   15.33    1.67
  11  -4  -6   16.41    2.02
 -11   5   6    5.13    1.15
  11  -5  -6    4.82    1.49
 -11   6   6    0.28    0.96
  11  -6  -6   -1.64    1.24
 -10  -3   6    0.41    0.85
  10   3  -6   -0.34    1.12
 -10  -2   6    5.99    1.22
  10   2  -6    7.08    1.56
 -10  -1   6   21.09    1.76
  10   1  -6   22.13    2.02
 -10   0   6   42.11    2.15
  10   0  -6   37.28    2.28
 -10   1   6    2.48    0.89
  10  -1  -6    1.41    1.10
 -10   2   6    1.21    0.80
  10  -2  -6    0.02    0.99
 -10   3   6   11.19    1.37
  10  -3  -6   13.30    1.70
 -10   4   6    1.45    0.83
  10  -4  -6    3.24    1.30
 -10   5   6    9.37    1.34
  10  -5  -6    7.40    1.61
 -10   6   6   41.88    2.35
  10  -6  -6   38.41    2.57
 -10   7   6    5.38    1.24
  10  -7  -6    8.32    1.94
   9   6  -6    0.77    1.38
   9   5  -6   -1.10    1.23
   9   4  -6   -0.20    1.19
   9   3  -6   18.54    2.11
   9   3  -6   20.65    1.95
  -9  -2   6    3.30    0.95
   9   2  -6    3.69    1.20
  -9  -1   6   22.81    1.68
   9   1  -6   19.41    1.90
  -9   0   6    3.93    0.89
   9   0  -6    6.06    1.29
  -9   1   6   11.61    1.38
   9  -1  -6   11.80    1.51
  -9   2   6    6.55    1.13
   9  -2  -6    5.98    1.32
  -9   3   6    3.74    0.95
   9  -3  -6    3.68    1.24
  -9   4   6    9.02    1.26
   9  -4  -6    8.24    1.49
  -9   5   6    0.22    0.72
   9  -5  -6    0.39    1.06
  -9   6   6    7.64    1.29
   9  -6  -6    5.77    1.53
  -9   7   6    3.06    1.09
   9  -7  -6    0.26    1.26
   9  -8  -6   12.17    1.92
   8   7  -6    3.87    1.43
  -8  -6   6   31.64    2.10
   8   6  -6   33.90    2.56
  -8  -5   6   33.20    1.97
   8   5  -6   36.38    2.52
  -8  -4   6    5.68    0.97
   8   4  -6    4.84    1.19
   8   4  -6    3.64    1.32
   8   3  -6    1.19    1.10
   8   3  -6   -0.24    0.90
   8   2  -6   13.66    1.58
  -8  -1   6   17.75    1.46
   8   1  -6   19.42    1.71
  -8   0   6   23.55    1.58
   8   0  -6   24.78    1.75
  -8   1   6  124.62    3.30
   8  -1  -6  121.83    3.37
  -8   2   6   16.46    1.44
   8  -2  -6   17.27    1.62
  -8   3   6    6.70    1.08
   8  -3  -6    7.30    1.28
  -8   4   6    7.95    1.13
   8  -4  -6   10.11    1.56
  -8   5   6   -0.42    0.68
   8  -5  -6    0.86    1.11
  -8   6   6   14.08    1.51
   8  -6  -6   12.83    1.83
  -8   7   6   17.05    1.70
   8  -7  -6   18.99    2.14
  -8   8   6   19.77    1.88
   8  -8  -6   18.09    2.07
   7   8  -6   10.61    1.81
   7   7  -6   -0.55    1.08
   7   6  -6   11.07    1.71
  -7  -5   6    2.83    0.87
   7   5  -6    1.76    1.07
  -7  -4   6   49.22    2.09
   7   4  -6   50.42    2.60
   7   4  -6   49.93    2.19
  -7  -3   6   30.23    1.69
   7   3  -6   33.49    1.81
   7   3  -6   37.26    2.24
  -7  -2   6   34.17    1.54
   7   2  -6   34.03    1.82
   7   2  -6   32.60    2.02
  -7  -1   6    0.48    0.52
  -7  -1   6   -0.19    0.47
   7   1  -6   -0.25    0.80
  -7   0   6    1.21    0.62
   7   0  -6   -0.22    0.79
  -7   1   6   12.46    1.28
   7  -1  -6   15.76    1.59
  -7   2   6   21.55    1.44
   7  -2  -6   23.55    1.81
  -7   3   6  114.73    2.99
   7  -3  -6  115.86    3.42
  -7   4   6   24.73    1.52
   7  -4  -6   21.37    1.82
  -7   5   6   16.96    1.40
   7  -5  -6   21.43    2.03
  -7   6   6    4.28    0.99
   7  -6  -6    2.02    1.20
  -7   7   6    1.40    0.82
   7  -7  -6    0.28    1.15
  -7   8   6    0.67    0.88
   7  -8  -6   -2.71    1.13
   6   9  -6   -0.02    1.05
   6   8  -6   -0.43    0.97
   6   7  -6    0.68    0.98
   6   6  -6   17.53    1.85
  -6  -5   6   24.25    1.74
   6   5  -6   26.91    2.00
   6   5  -6   27.03    2.31
  -6  -4   6   99.86    2.93
   6   4  -6  104.23    2.72
   6   4  -6  105.94    3.31
  -6  -3   6    4.67    0.89
   6   3  -6    6.09    1.02
   6   3  -6    5.02    1.11
  -6  -2   6   21.82    1.37
   6   2  -6   23.50    1.74
   6   2  -6   21.08    1.43
  -6  -1   6    2.20    0.63
  -6  -1   6    2.82    0.65
   6   1  -6    1.99    0.86
  -6   0   6   20.40    1.29
  -6   0   6   21.16    1.12
   6   0  -6   19.64    1.50
  -6   1   6   18.05    1.24
  -6   1   6   18.29    1.06
   6  -1  -6   17.27    1.59
  -6   2   6   82.17    2.07
  -6   2   6   81.45    2.36
   6  -2  -6   85.55    2.82
  -6   3   6   44.88    1.77
  -6   3   6   43.69    1.65
   6  -3  -6   45.48    2.25
  -6   4   6   12.36    1.19
  -6   4   6   12.19    1.22
   6  -4  -6   14.15    1.71
  -6   5   6   10.48    1.15
  -6   5   6   10.01    1.19
   6  -5  -6    9.03    1.50
  -6   6   6    1.01    0.86
  -6   6   6   -0.36    0.64
   6  -6  -6    1.04    1.18
  -6   7   6   14.74    2.47
  -6   7   6   15.45    1.50
   6  -7  -6   14.42    1.92
  -6   8   6    3.20    1.01
   6  -8  -6    1.62    1.33
   5   9  -6   24.26    2.05
   5   8  -6   14.97    1.76
   5   7  -6   28.40    1.91
   5   6  -6    2.06    0.89
  -5  -5   6    7.26    1.16
   5   5  -6    5.94    0.89
   5   5  -6    5.61    1.07
  -5  -4   6    3.03    0.86
   5   4  -6    3.66    0.95
   5   4  -6    2.19    0.78
  -5  -3   6   74.06    2.34
   5   3  -6   75.93    2.14
   5   3  -6   69.22    2.45
  -5  -2   6  218.68    4.01
   5   2  -6  220.07    4.29
   5   2  -6  219.53    3.94
  -5  -1   6   76.63    2.11
   5   1  -6   79.81    2.35
  -5   0   6   43.77    1.67
  -5   0   6   44.15    1.59
   5   0  -6   41.54    1.87
  -5   1   6   42.14    1.64
  -5   1   6   44.57    1.61
   5  -1  -6   39.32    1.94
  -5   2   6    2.29    0.58
  -5   2   6    1.87    0.65
   5  -2  -6    0.51    0.84
  -5   3   6    3.59    0.72
  -5   3   6    3.39    0.83
   5  -3  -6    2.95    1.09
  -5   4   6  147.69    3.53
  -5   4   6  151.19    3.14
   5  -4  -6  149.26    3.92
  -5   5   6   50.20    2.26
  -5   5   6   53.79    1.91
   5  -5  -6   51.80    2.54
  -5   6   6   24.11    1.87
  -5   6   6   21.04    1.44
   5  -6  -6   25.93    2.12
  -5   7   6   -0.42    0.69
  -5   7   6   -0.38    1.03
   5  -7  -6   -0.76    1.07
  -5   8   6   -0.41    1.10
   5  -8  -6    0.05    1.23
   4  10  -6    1.46    1.05
   4   9  -6   14.23    1.65
   4   8  -6    0.19    0.77
   4   7  -6   12.80    1.45
  -4  -6   6    1.88    0.90
   4   6  -6    0.44    0.73
  -4  -5   6   50.69    2.22
   4   5  -6   48.76    2.10
   4   5  -6   53.06    1.63
  -4  -4   6    2.36    0.83
   4   4  -6    2.65    0.84
   4   4  -6    2.59    0.67
  -4  -3   6   45.79    1.84
   4   3  -6   44.61    1.63
   4   3  -6   46.15    1.87
  -4  -2   6   17.42    1.27
   4   2  -6   15.78    1.16
   4   2  -6   15.26    1.24
  -4  -1   6   42.15    1.64
   4   1  -6   42.71    1.77
  -4   0   6   48.81    1.74
  -4   0   6   53.34    1.61
   4   0  -6   49.62    1.93
  -4   1   6   43.50    1.71
  -4   1   6   42.19    1.44
   4  -1  -6   41.31    1.93
  -4   2   6   44.39    1.85
  -4   2   6   46.25    1.48
   4  -2  -6   46.56    2.07
  -4   3   6    0.55    0.46
  -4   3   6    0.22    0.68
   4  -3  -6   -0.31    0.88
  -4   4   6   10.96    1.31
  -4   4   6    8.95    0.92
   4  -4  -6   12.12    1.63
  -4   5   6    1.30    0.90
  -4   5   6    0.85    0.60
   4  -5  -6    1.64    1.07
  -4   6   6   44.83    2.47
  -4   6   6   45.48    1.78
   4  -6  -6   49.05    2.53
  -4   7   6    6.33    1.49
   4  -7  -6    8.37    1.64
  -4   8   6   13.59    1.93
   3  11  -6    2.48    1.13
   3  10  -6    0.01    0.85
   3   9  -6    0.42    0.78
   3   8  -6   25.10    1.67
   3   7  -6   76.05    2.52
  -3  -6   6   29.64    1.85
   3   6  -6   29.72    1.65
  -3  -5   6   11.20    1.28
   3   5  -6   12.28    1.22
   3   5  -6   12.23    0.86
  -3  -4   6   54.50    2.11
   3   4  -6   55.45    1.59
   3   4  -6   60.77    1.99
  -3  -3   6    3.62    0.81
   3   3  -6    1.56    0.62
   3   3  -6    3.33    0.70
  -3  -2   6    4.74    0.85
   3   2  -6    5.27    0.76
   3   2  -6    4.32    0.82
  -3  -1   6  348.22    5.64
   3   1  -6  366.52    5.50
  -3   0   6   84.61    1.84
  -3   0   6   86.56    2.44
   3   0  -6   85.63    2.47
  -3   1   6   65.14    2.21
  -3   1   6   65.48    1.55
   3  -1  -6   66.40    2.27
  -3   2   6   13.61    0.81
  -3   2   6   17.49    1.46
   3  -2  -6   14.07    1.50
  -3   3   6    1.09    0.46
  -3   3   6    0.30    0.76
   3  -3  -6    0.40    0.95
  -3   4   6    7.90    0.82
  -3   4   6    7.86    1.28
   3  -4  -6    7.89    1.37
  -3   5   6   29.31    2.18
  -3   5   6   28.55    1.35
   3  -5  -6   27.23    2.02
  -3   6   6   33.46    2.51
   3  -6  -6   32.91    2.22
  -3   7   6    7.10    1.62
   3  -7  -6    6.74    1.54
  -3   8   6    3.68    1.57
   2  11  -6    1.37    0.96
   2  10  -6   13.42    1.54
   2   9  -6    1.26    0.82
   2   8  -6    4.62    0.98
  -2  -7   6    4.42    1.06
   2   7  -6    3.25    0.82
  -2  -6   6   38.20    1.94
   2   6  -6   38.81    1.71
  -2  -5   6   55.11    2.21
   2   5  -6   52.65    1.83
   2   5  -6   51.75    1.40
  -2  -4   6  115.71    2.94
   2   4  -6  115.87    2.59
   2   4  -6  113.44    2.27
  -2  -3   6   19.77    1.42
   2   3  -6   18.49    1.09
   2   3  -6   19.58    1.09
  -2  -2   6   31.24    1.55
   2   2  -6   28.82    1.16
   2   2  -6   30.84    1.34
  -2  -1   6    3.21    0.45
  -2  -1   6    2.93    0.74
   2   1  -6    4.12    0.81
  -2   0   6    0.31    0.26
  -2   0   6    0.26    0.57
   2   0  -6    0.55    0.61
  -2   1   6  201.46    4.27
  -2   1   6  200.72    2.75
   2  -1  -6  208.71    4.12
  -2   2   6   88.38    1.66
  -2   2   6   85.41    2.90
   2  -2  -6   89.63    2.75
  -2   3   6   77.09    1.68
  -2   3   6   75.46    2.92
   2  -3  -6   72.60    2.60
  -2   4   6    4.72    0.68
  -2   4   6    4.42    1.18
   2  -4  -6    4.15    1.16
  -2   5   6    0.93    1.12
   2  -5  -6    0.68    1.02
  -2   6   6    0.84    1.19
   2  -6  -6    0.56    1.04
  -2   7   6   12.51    2.06
   2  -7  -6   11.96    1.72
   1  11  -6    2.90    1.11
   1  10  -6   -0.04    0.75
  -1  -9   6    5.29    1.23
   1   9  -6    5.55    1.07
  -1  -8   6    2.28    0.89
   1   8  -6    1.97    0.77
  -1  -7   6    1.47    0.83
   1   7  -6    1.49    0.67
  -1  -6   6  131.61    3.40
   1   6  -6  124.33    2.90
   1   6  -6  129.42    2.02
  -1  -5   6    3.54    0.88
   1   5  -6    2.57    0.64
   1   5  -6    3.23    0.51
  -1  -4   6   50.30    2.02
   1   4  -6   50.98    1.55
   1   4  -6   50.28    1.46
  -1  -3   6   22.48    1.49
   1   3  -6   19.77    0.96
   1   3  -6   20.58    1.07
  -1  -2   6   15.36    1.31
   1   2  -6   13.04    0.76
   1   2  -6   11.72    0.94
  -1  -1   6    0.29    0.62
  -1  -1   6    1.28    0.27
   1   1  -6    1.46    0.60
  -1   0   6   65.48    2.33
   1   0  -6   65.01    2.09
  -1   1   6   27.20    1.82
   1  -1  -6   31.69    1.65
  -1   2   6    6.71    0.57
  -1   2   6    6.18    1.23
   1  -2  -6    6.15    1.10
  -1   3   6   16.91    0.85
  -1   3   6   17.07    1.87
   1  -3  -6   15.61    1.60
  -1   4   6    0.38    0.98
   1  -4  -6    0.45    0.89
  -1   5   6   18.24    2.11
   1  -5  -6   18.64    1.72
  -1   6   6    0.37    1.23
   1  -6  -6    1.81    1.08
  -1   7   6    7.54    1.91
   1  -7  -6    9.27    1.56
   0 -12   6    2.23    1.22
   0  12  -6    3.34    1.18
   0 -11   6   17.34    2.11
   0  11  -6   12.61    1.56
   0 -10   6   12.73    1.70
   0  10  -6   13.27    1.45
   0  -9   6   45.51    2.34
   0   9  -6   42.94    2.05
   0  -8   6    0.50    0.80
   0   8  -6    0.55    0.64
   0  -7   6   18.17    1.57
   0   7  -6   18.70    1.36
   0  -6   6   23.16    1.65
   0   6  -6   20.49    1.28
   0   6  -6   22.44    0.83
   0  -5   6    2.94    0.86
   0   5  -6    1.87    0.55
   0  -4   6  174.82    3.84
   0   4  -6  169.09    2.86
   0   4  -6  166.99    2.96
   0  -3   6   90.29    2.62
   0   3  -6   86.31    2.12
   0   3  -6   91.72    1.74
   0  -2   6  136.31    3.25
   0   2  -6  135.12    1.96
   0   2  -6  137.30    2.90
   0  -1   6   44.37    1.96
   0   1  -6   43.43    1.72
   0   0   6    6.63    1.11
   0   0  -6    7.64    1.06
   0   1   6   20.22    1.83
   0  -1  -6   22.24    1.50
   0   2   6   59.63    2.74
   0  -2  -6   57.83    2.30
   0   3   6   37.35    2.49
   0  -3  -6   39.13    2.04
   0   4   6   37.57    2.74
   0  -4  -6   37.27    2.07
   0   5   6    0.32    1.21
   0  -5  -6    2.32    1.03
   0   6   6    0.19    1.23
   0  -6  -6    0.89    0.98
   0   7   6   -0.58    1.59
   1 -12   6    1.60    1.23
  -1  12  -6    2.53    1.04
   1 -11   6   12.33    1.72
  -1  11  -6    6.30    1.22
   1 -10   6    2.20    1.14
  -1  10  -6    0.41    0.74
   1  -9   6   10.80    1.46
  -1   9  -6    9.69    1.26
   1  -8   6    0.43    0.79
  -1   8  -6    0.36    0.65
   1  -7   6   40.58    2.07
  -1   7  -6   40.16    1.07
  -1   7  -6   38.27    1.67
   1  -6   6    1.02    0.73
  -1   6  -6    3.05    0.51
  -1   6  -6    2.36    0.61
   1  -5   6   12.27    1.32
  -1   5  -6   13.83    0.95
  -1   5  -6   12.51    0.81
   1  -4   6    0.43    0.72
  -1   4  -6    0.12    0.41
  -1   4  -6    0.48    0.41
   1  -3   6    8.26    1.14
  -1   3  -6    8.56    0.58
  -1   3  -6    8.64    0.95
   1  -2   6   18.02    1.42
  -1   2  -6   16.42    1.12
   1  -1   6   23.30    1.58
  -1   1  -6   22.59    1.38
   1   0   6   48.73    2.27
  -1   0  -6   47.05    1.95
   1   1   6    1.34    0.97
  -1  -1  -6    2.27    0.85
   1   2   6    1.71    1.10
  -1  -2  -6    3.37    1.01
   1   3   6    9.32    1.66
  -1  -3  -6    7.77    1.32
   1   4   6   12.85    1.89
  -1  -4  -6   13.05    1.53
   1   5   6    2.05    1.38
  -1  -5  -6    3.47    1.08
   1   6   6   16.93    2.41
  -1  -6  -6   20.28    1.88
   2 -12   6    2.27    1.22
  -2  12  -6   -0.01    0.87
   2 -11   6    2.67    1.15
  -2  11  -6    2.26    1.00
   2 -10   6    4.59    1.23
  -2  10  -6    2.58    0.86
   2  -9   6   38.55    2.22
  -2   9  -6   34.86    1.80
   2  -8   6   21.77    1.77
  -2   8  -6   23.01    1.30
  -2   8  -6   24.45    1.52
   2  -7   6   23.87    1.67
  -2   7  -6   24.83    1.06
  -2   7  -6   22.30    1.38
   2  -6   6   18.15    1.64
  -2   6  -6   18.67    1.22
  -2   6  -6   18.06    1.01
   2  -5   6    2.53    0.87
  -2   5  -6    2.33    0.61
  -2   5  -6    1.67    0.53
   2  -4   6   24.16    1.59
  -2   4  -6   25.68    1.32
  -2   4  -6   24.51    1.01
   2  -3   6   91.69    2.79
  -2   3  -6   93.28    1.60
  -2   3  -6   94.96    2.54
   2  -2   6   23.23    1.61
  -2   2  -6   25.73    1.48
   2  -1   6   62.83    2.57
  -2   1  -6   69.51    2.36
   2   0   6    2.63    1.02
  -2   0  -6    3.57    0.90
   2   1   6    0.85    1.05
  -2  -1  -6    0.05    0.73
   2   2   6    0.47    1.10
  -2  -2  -6   -0.34    0.74
   2   3   6    3.83    1.43
  -2  -3  -6    4.35    1.13
   2   4   6   14.07    2.10
  -2  -4  -6   15.25    1.66
   2   5   6    1.55    1.56
  -2  -5  -6    3.90    1.10
   2   6   6    2.04    1.63
   3 -12   6   17.17    2.08
  -3  12  -6   14.06    1.67
   3 -11   6    1.12    1.09
  -3  11  -6   -0.43    0.72
   3 -10   6    1.17    1.02
  -3  10  -6    1.14    0.78
   3  -9   6    9.26    1.42
  -3   9  -6    6.73    1.09
   3  -8   6    4.52    1.07
  -3   8  -6    5.13    0.96
  -3   8  -6    6.83    0.78
   3  -7   6   17.62    1.73
  -3   7  -6   19.12    1.31
  -3   7  -6   18.30    1.12
   3  -6   6   73.11    2.61
  -3   6  -6   71.94    2.10
  -3   6  -6   69.35    2.02
   3  -5   6   34.32    1.83
  -3   5  -6   31.92    1.54
  -3   5  -6   33.44    1.36
   3  -4   6    4.37    0.92
  -3   4  -6    5.62    0.96
  -3   4  -6    5.35    0.66
   3  -3   6    6.90    1.06
  -3   3  -6    7.07    0.64
  -3   3  -6    7.48    1.04
   3  -2   6   21.78    1.67
  -3   2  -6   24.76    1.58
   3  -1   6   35.29    2.12
  -3   1  -6   33.27    1.81
   3   0   6   19.70    1.96
  -3   0  -6   19.39    1.59
   3   1   6   72.36    3.22
  -3  -1  -6   68.87    2.63
   3   2   6   -0.35    1.00
  -3  -2  -6    0.95    0.85
   3   3   6   -0.21    1.29
  -3  -3  -6    0.97    0.95
   3   4   6    5.08    1.81
  -3  -4  -6    5.69    1.22
   3   5   6    0.56    1.53
  -3  -5  -6    0.20    0.85
   4 -13   6    4.76    1.59
  -4  13  -6    2.63    1.09
   4 -12   6    2.26    1.47
  -4  12  -6    1.75    1.04
   4 -11   6    0.76    1.16
  -4  11  -6    1.55    0.93
   4 -10   6    4.19    1.25
  -4  10  -6    2.54    0.93
   4  -9   6   -1.34    0.84
  -4   9  -6    0.15    0.68
   4  -8   6   36.97    2.18
   4  -8   6   36.93    1.76
  -4   8  -6   36.98    1.77
   4  -7   6    1.71    0.98
   4  -7   6    2.20    0.92
  -4   7  -6    1.05    0.71
   4  -6   6   24.56    1.78
   4  -6   6   22.96    1.59
  -4   6  -6   22.93    1.33
   4  -5   6    1.50    0.87
  -4   5  -6    0.50    0.54
   4  -4   6    7.40    1.17
  -4   4  -6    9.03    1.25
  -4   4  -6   10.89    0.85
   4  -3   6    0.91    0.82
  -4   3  -6    0.36    0.41
  -4   3  -6   -0.15    0.67
   4  -2   6   13.43    1.54
  -4   2  -6   14.36    1.56
   4  -1   6    3.64    1.25
  -4   1  -6    4.38    1.05
   4   0   6    1.84    1.06
  -4   0  -6    1.48    0.94
   4   1   6    2.87    1.26
  -4  -1  -6    3.70    1.13
   4   2   6   -0.57    1.10
  -4  -2  -6    0.25    0.85
   4   3   6    6.36    1.76
  -4  -3  -6    7.64    1.31
   4   4   6    2.84    1.65
  -4  -4  -6    2.90    1.05
   5 -12   6    4.16    1.47
  -5  12  -6    3.79    1.16
   5 -11   6   31.24    2.36
  -5  11  -6   24.70    1.87
   5 -10   6    9.68    1.49
  -5  10  -6    8.73    1.32
   5  -9   6    0.93    1.05
   5  -9   6    1.33    0.88
  -5   9  -6    1.10    0.82
   5  -8   6    7.52    1.31
   5  -8   6    8.00    1.29
  -5   8  -6    7.28    1.16
   5  -7   6    4.05    1.14
   5  -7   6    2.40    1.03
  -5   7  -6    5.50    0.95
   5  -6   6   33.36    2.04
   5  -6   6   33.60    1.97
  -5   6  -6   31.41    1.57
   5  -5   6   29.94    1.95
   5  -5   6   32.07    2.00
  -5   5  -6   34.02    1.50
   5  -4   6   75.60    2.86
   5  -4   6   78.44    2.79
  -5   4  -6   75.29    1.92
   5  -3   6   -0.21    0.89
  -5   3  -6    0.32    0.72
  -5   3  -6    1.26    0.48
   5  -2   6   -0.61    0.84
  -5   2  -6    0.01    0.79
   5  -1   6    8.40    1.49
  -5   1  -6    8.61    1.37
   5   0   6    6.83    1.55
  -5   0  -6    6.50    1.24
   5   1   6    6.92    1.71
  -5  -1  -6    4.99    1.21
   5   2   6   17.60    2.26
  -5  -2  -6   14.44    1.69
   5   3   6    2.93    1.64
  -5  -3  -6    2.75    1.15
   6 -12   6    0.17    1.21
  -6  12  -6   -1.71    0.82
   6 -11   6    5.28    1.45
  -6  11  -6    3.04    1.08
   6 -10   6    0.76    1.12
  -6  10  -6   -1.57    0.71
   6  -9   6   21.73    1.85
   6  -9   6   22.21    1.97
  -6   9  -6   20.13    1.73
   6  -8   6    2.00    1.06
   6  -8   6    1.59    1.02
  -6   8  -6    1.59    0.81
   6  -7   6    7.98    1.49
   6  -7   6    9.77    1.39
  -6   7  -6    8.39    1.10
   6  -6   6    1.05    1.04
   6  -6   6   -0.81    0.76
  -6   6  -6   -0.08    0.65
   6  -5   6   -1.13    0.78
   6  -5   6    1.15    1.04
  -6   5  -6   -0.03    0.59
   6  -4   6    6.23    1.20
   6  -4   6    3.39    1.17
  -6   4  -6    3.69    0.71
   6  -3   6   13.68    1.58
  -6   3  -6   13.86    1.73
   6  -2   6   28.59    2.18
  -6   2  -6   25.65    1.92
   6  -1   6    1.71    1.19
  -6   1  -6    0.05    0.79
   6   0   6    2.46    1.34
  -6   0  -6    2.39    1.06
   6   1   6    1.13    1.35
  -6  -1  -6    2.10    1.06
   6   2   6    3.64    1.63
  -6  -2  -6    4.17    1.24
   7 -12   6   -0.64    1.34
  -7  12  -6    0.43    1.01
   7 -11   6    7.40    1.53
  -7  11  -6    6.49    1.37
   7 -10   6    8.86    1.47
   7 -10   6    9.27    1.50
  -7  10  -6    8.18    1.33
   7  -9   6   17.67    1.90
   7  -9   6   20.45    1.84
  -7   9  -6   17.36    1.69
   7  -8   6    0.30    1.06
   7  -8   6   -0.47    0.90
  -7   8  -6   -0.89    0.74
   7  -7   6    1.48    1.17
   7  -7   6   -1.03    0.85
  -7   7  -6    1.15    0.81
   7  -6   6    3.34    1.07
   7  -6   6    4.91    1.38
  -7   6  -6    4.31    0.91
   7  -5   6   13.33    1.83
   7  -5   6   18.57    1.77
  -7   5  -6   15.52    1.29
   7  -4   6    6.49    1.29
   7  -4   6    8.36    1.56
   7  -3   6   12.72    1.58
   7  -2   6    0.75    1.08
  -7   2  -6    0.54    0.84
   7  -1   6    0.32    1.09
  -7   1  -6    1.29    0.98
   7   0   6    0.28    1.24
  -7   0  -6   -0.30    0.90
   7   1   6   -0.19    1.36
  -7  -1  -6    1.79    1.11
  -8  11  -6   -0.19    1.01
   8 -10   6   -0.55    1.05
  -8  10  -6    0.63    0.98
   8  -9   6    3.13    1.38
  -8   9  -6    1.28    0.95
   8  -8   6   16.54    1.67
   8  -8   6   16.12    2.05
  -8   8  -6   12.82    1.53
   8  -7   6   20.68    2.30
   8  -7   6   22.90    1.90
  -8   7  -6   23.98    1.75
   8  -6   6    2.96    1.07
   8  -6   6    2.43    1.32
  -8   6  -6    2.85    0.92
   8  -5   6    1.65    1.01
   8  -5   6   -0.99    1.06
   8  -4   6    3.72    1.15
   8  -4   6    1.67    1.23
   8  -3   6    4.40    1.19
   8  -2   6    4.72    1.43
  -8   2  -6    3.64    1.14
   8  -1   6   26.70    2.45
  -8   1  -6   15.10    1.79
   8   0   6    0.84    1.40
  -8   0  -6    2.65    1.17
  -9  11  -6   -0.17    0.99
   9 -10   6    3.36    1.38
  -9  10  -6    3.10    1.16
   9  -9   6    1.29    1.31
  -9   9  -6    1.04    0.99
   9  -8   6    7.68    1.74
  -9   8  -6    5.85    1.20
   9  -7   6   -0.08    1.25
  -9   7  -6    0.49    0.87
   9  -6   6    2.06    1.38
   9  -5   6    0.22    1.18
   9  -4   6    4.96    1.54
   9  -3   6    3.35    2.24
  -9   3  -6    1.63    1.00
   9  -2   6    1.52    1.24
  -9   2  -6    0.29    0.97
  10  -9   6   -0.13    1.27
 -10   9  -6   -0.12    1.05
  10  -8   6    2.02    1.48
 -10   8  -6    1.04    1.01
  10  -7   6    3.72    1.58
  10  -6   6   11.58    2.00
  10  -5   6    0.49    1.35
  10  -4   6    0.17    1.35
 -12   0   7    4.75    1.27
  12   0  -7    4.40    1.54
 -12   1   7    2.65    0.99
  12  -1  -7    3.54    1.42
 -12   2   7   15.85    1.66
  12  -2  -7   20.62    2.23
 -12   3   7    1.89    0.88
  12  -3  -7    1.61    1.37
 -11  -2   7    0.87    0.93
  11   2  -7    1.40    1.33
 -11  -1   7    4.45    1.13
  11   1  -7    2.26    1.26
 -11   0   7   12.38    1.51
  11   0  -7   14.44    1.91
 -11   1   7   21.04    1.74
  11  -1  -7   19.59    2.10
 -11   2   7   10.52    1.42
  11  -2  -7   11.54    1.75
 -11   3   7    2.15    0.93
  11  -3  -7    0.74    1.26
 -11   4   7    2.13    1.02
  11  -4  -7    2.17    1.30
 -11   5   7    1.37    0.99
  11  -5  -7    1.09    1.35
 -10  -3   7   34.24    2.12
  10   3  -7   32.12    2.32
 -10  -2   7    7.05    1.32
  10   2  -7    5.78    1.38
 -10  -1   7    4.73    1.14
  10   1  -7    2.26    1.26
 -10   0   7    7.69    1.27
  10   0  -7    5.48    1.41
 -10   1   7    5.07    1.07
  10  -1  -7    6.47    1.44
 -10   2   7   10.66    1.39
  10  -2  -7    8.69    1.63
 -10   3   7   47.01    2.29
  10  -3  -7   44.51    2.59
 -10   4   7   19.61    1.69
  10  -4  -7   15.48    1.95
 -10   5   7    6.12    1.21
  10  -5  -7    4.13    1.47
 -10   6   7    0.19    0.85
  10  -6  -7   -0.23    1.31
   9   6  -7    7.98    1.78
   9   5  -7    4.13    1.53
   9   4  -7   12.31    1.87
   9   3  -7    6.22    1.32
  -9  -2   7    8.34    1.24
   9   2  -7    8.53    1.43
  -9  -1   7    9.53    1.33
   9   1  -7    9.99    1.50
  -9   0   7    4.83    1.00
   9   0  -7    3.86    1.22
  -9   1   7   12.84    1.40
   9  -1  -7   15.54    1.81
  -9   2   7    3.91    0.92
   9  -2  -7    2.87    1.13
  -9   3   7   17.14    1.53
   9  -3  -7   16.18    1.93
  -9   4   7    3.14    0.95
   9  -4  -7    1.01    1.16
  -9   5   7   20.12    1.71
   9  -5  -7   22.32    2.23
  -9   6   7    5.85    1.20
   9  -6  -7    3.19    1.35
  -9   7   7    8.99    1.46
   9  -7  -7    7.42    1.67
  -8  -7   7    3.61    1.10
   8   7  -7    1.71    1.28
  -8  -6   7    3.58    1.08
   8   6  -7    1.66    1.28
  -8  -5   7    7.08    1.27
   8   5  -7    9.47    1.70
   8   4  -7    5.56    1.45
   8   4  -7    5.57    1.25
   8   3  -7   11.63    1.45
   8   3  -7   11.62    1.60
  -8  -2   7  103.16    3.22
   8   2  -7  100.56    3.05
  -8  -1   7   37.01    1.91
   8   1  -7   37.57    2.09
  -8   0   7    7.21    1.10
   8   0  -7   11.65    1.46
  -8   1   7    7.59    1.10
   8  -1  -7    9.38    1.38
  -8   2   7    0.93    0.66
   8  -2  -7    1.36    1.04
  -8   3   7   14.42    1.40
   8  -3  -7   11.87    1.67
  -8   4   7   34.23    1.82
   8  -4  -7   31.94    2.30
  -8   5   7   53.93    2.28
   8  -5  -7   49.61    2.73
  -8   6   7    5.82    1.16
   8  -6  -7    6.36    1.67
  -8   7   7    3.36    1.05
   8  -7  -7    2.14    1.45
  -7  -8   7    3.02    1.12
   7   8  -7   -1.11    1.06
  -7  -7   7    7.49    1.42
   7   7  -7    9.72    1.69
  -7  -6   7   10.78    1.42
   7   6  -7   10.24    1.62
  -7  -5   7   13.18    1.51
   7   5  -7   15.46    1.80
  -7  -4   7   13.74    1.48
   7   4  -7    9.94    1.48
   7   4  -7   11.50    1.37
  -7  -3   7    0.40    0.69
   7   3  -7    0.62    0.80
   7   3  -7    0.03    0.94
  -7  -2   7    3.63    0.82
   7   2  -7    5.50    1.14
  -7  -1   7    0.67    0.61
  -7  -1   7    1.09    0.65
   7   1  -7    0.98    0.84
  -7   0   7  116.11    3.00
  -7   0   7  104.93    2.92
   7   0  -7  110.89    3.19
  -7   1   7   34.69    1.73
   7  -1  -7   34.35    2.04
  -7   2   7   35.84    1.74
   7  -2  -7   34.56    2.12
  -7   3   7    2.76    0.76
   7  -3  -7    1.15    1.11
  -7   4   7    1.68    0.70
   7  -4  -7    0.64    1.09
  -7   5   7   -0.23    0.69
   7  -5  -7    0.76    1.14
  -7   6   7   26.61    1.76
   7  -6  -7   23.40    2.20
  -7   7   7   24.04    1.73
   7  -7  -7   20.54    2.22
  -6  -9   7    4.47    1.28
   6   9  -7    1.48    1.19
  -6  -8   7    3.64    1.16
   6   8  -7    3.64    1.27
  -6  -7   7   45.46    2.56
   6   7  -7   40.77    2.43
  -6  -6   7    6.38    1.19
   6   6  -7    5.29    1.24
  -6  -5   7    7.29    1.26
   6   5  -7   12.98    1.38
   6   5  -7    8.05    1.36
  -6  -4   7   11.23    1.37
   6   4  -7   12.95    1.31
   6   4  -7   13.28    1.56
  -6  -3   7   -0.58    0.69
   6   3  -7    0.33    0.83
   6   3  -7    1.06    0.79
  -6  -2   7   14.24    1.31
   6   2  -7   16.68    1.58
   6   2  -7   15.60    1.45
  -6  -1   7   54.39    2.02
  -6  -1   7   55.81    1.93
   6   1  -7   51.23    2.11
  -6   0   7   56.65    1.85
  -6   0   7   60.63    2.07
   6   0  -7   57.67    2.35
  -6   1   7   10.22    1.01
  -6   1   7   10.62    1.11
   6  -1  -7   10.39    1.43
  -6   2   7   16.27    1.20
  -6   2   7   16.26    1.23
   6  -2  -7   17.66    1.87
  -6   3   7    1.11    0.65
  -6   3   7    0.50    0.57
   6  -3  -7    1.59    1.10
  -6   4   7   19.35    1.32
  -6   4   7   18.37    1.46
   6  -4  -7   19.64    2.02
  -6   5   7    3.50    0.86
  -6   5   7    3.95    0.98
   6  -5  -7    2.98    1.31
  -6   6   7   17.70    1.49
  -6   6   7   17.90    2.13
   6  -6  -7   20.12    2.14
   6  -7  -7    2.51    1.45
  -5  -9   7    1.72    1.09
   5   9  -7    1.10    0.99
  -5  -8   7    3.86    1.15
   5   8  -7    2.45    0.98
  -5  -7   7    0.32    0.90
   5   7  -7    0.80    0.82
  -5  -6   7    2.46    1.01
   5   6  -7    0.14    0.78
  -5  -5   7   94.24    3.09
   5   5  -7   95.93    2.41
   5   5  -7   97.44    3.12
  -5  -4   7   33.27    1.91
   5   4  -7   29.60    1.50
   5   4  -7   31.14    1.89
  -5  -3   7   44.06    1.96
   5   3  -7   40.78    1.73
   5   3  -7   44.35    2.01
  -5  -2   7   58.40    2.07
   5   2  -7   56.96    2.23
   5   2  -7   60.59    2.13
  -5  -1   7    0.04    0.56
  -5  -1   7    0.92    0.50
   5   1  -7    1.01    0.84
  -5   0   7    0.91    0.61
  -5   0   7    0.69    0.51
   5   0  -7    0.75    0.85
  -5   1   7  122.17    2.74
  -5   1   7  117.72    2.92
   5  -1  -7  116.31    3.33
  -5   2   7   81.57    2.51
  -5   2   7   85.91    2.21
   5  -2  -7   87.84    2.94
  -5   3   7   45.29    1.64
  -5   3   7   46.18    2.04
   5  -3  -7   41.41    2.26
  -5   4   7    0.52    0.77
  -5   4   7    0.07    0.52
   5  -4  -7   -0.43    0.97
  -5   5   7    5.88    1.24
  -5   5   7    8.28    1.03
   5  -5  -7   10.26    1.66
  -5   6   7    4.70    1.25
   5  -6  -7    0.62    1.27
  -5   7   7    5.05    1.48
   5  -7  -7    6.79    1.71
  -4 -10   7    3.23    1.26
   4  10  -7    2.85    1.13
  -4  -9   7    0.77    1.01
   4   9  -7    0.68    0.90
  -4  -8   7   10.21    1.58
   4   8  -7    8.18    1.26
  -4  -7   7    0.19    0.91
   4   7  -7    0.54    0.75
  -4  -6   7   12.01    1.50
   4   6  -7   11.31    1.39
  -4  -5   7    3.91    1.02
   4   5  -7    4.20    0.79
   4   5  -7    3.80    0.93
  -4  -4   7    5.22    1.06
   4   4  -7    6.59    1.08
   4   4  -7    5.62    0.91
  -4  -3   7   22.66    1.57
   4   3  -7   24.27    1.49
   4   3  -7   21.11    1.38
  -4  -2   7    8.29    1.07
   4   2  -7    8.39    1.12
   4   2  -7    5.90    0.96
  -4  -1   7   38.83    1.73
  -4  -1   7   36.89    1.44
   4   1  -7   38.77    1.87
  -4   0   7    1.52    0.69
  -4   0   7    1.43    0.47
   4   0  -7    1.27    0.84
  -4   1   7   14.39    1.29
  -4   1   7   18.87    1.01
   4  -1  -7   17.05    1.57
  -4   2   7    3.93    0.99
  -4   2   7    2.81    0.57
   4  -2  -7    2.45    1.06
  -4   3   7   36.33    2.04
  -4   3   7   38.11    1.41
   4  -3  -7   40.01    2.26
  -4   4   7   11.19    1.00
  -4   4   7   10.78    1.40
   4  -4  -7   11.50    1.63
  -4   5   7   29.40    2.27
   4  -5  -7   29.11    2.33
  -4   6   7    3.24    1.26
   4  -6  -7    3.23    1.39
  -4   7   7   -0.46    1.17
   4  -7  -7    0.27    1.31
  -3 -11   7    4.71    1.49
   3  11  -7    2.00    1.04
  -3 -10   7   24.95    2.26
   3  10  -7   21.23    1.84
  -3  -9   7    4.28    1.23
   3   9  -7    3.51    1.00
  -3  -8   7    5.40    1.26
   3   8  -7    5.25    1.05
  -3  -7   7   26.10    1.99
   3   7  -7   24.00    1.61
  -3  -6   7    1.51    0.92
   3   6  -7    0.14    0.65
   3   6  -7    0.69    0.66
  -3  -5   7    5.19    1.09
   3   5  -7    3.17    0.83
   3   5  -7    4.83    0.77
  -3  -4   7  147.31    3.57
   3   4  -7  138.81    2.85
   3   4  -7  143.26    3.15
  -3  -3   7   56.46    2.14
   3   3  -7   55.92    1.87
   3   3  -7   55.25    1.87
  -3  -2   7   68.94    2.28
   3   2  -7   71.33    2.18
   3   2  -7   66.86    1.98
  -3  -1   7   12.72    0.83
  -3  -1   7   11.36    1.24
   3   1  -7   13.56    1.34
  -3   0   7   19.44    0.92
  -3   0   7   18.27    1.45
   3   0  -7   17.02    1.44
  -3   1   7    1.01    0.37
  -3   1   7    0.89    0.71
   3  -1  -7    1.32    0.85
  -3   2   7    9.07    0.74
  -3   2   7    9.69    1.37
   3  -2  -7    8.79    1.34
  -3   3   7   86.70    3.13
  -3   3   7   85.19    1.89
   3  -3  -7   85.19    3.05
  -3   4   7   13.26    1.68
   3  -4  -7   11.67    1.66
  -3   5   7   11.70    1.75
   3  -5  -7   10.69    1.72
  -3   6   7    4.57    1.45
   3  -6  -7    5.03    1.52
  -3   7   7    3.62    1.57
   3  -7  -7    4.87    1.55
  -2 -11   7    1.29    1.09
   2  11  -7    1.36    0.92
  -2 -10   7   -0.21    0.89
   2  10  -7    1.43    0.86
  -2  -9   7    5.33    1.29
   2   9  -7    5.88    1.11
  -2  -8   7   11.31    1.46
   2   8  -7   14.11    1.45
  -2  -7   7   19.88    1.84
   2   7  -7   19.66    1.44
  -2  -6   7   22.78    1.81
   2   6  -7   20.04    1.39
   2   6  -7   18.89    0.95
  -2  -5   7   10.24    1.32
   2   5  -7   11.01    0.95
   2   5  -7   12.52    1.17
  -2  -4   7    1.06    0.79
   2   4  -7    2.62    0.66
   2   4  -7    1.57    0.62
  -2  -3   7   13.58    1.36
   2   3  -7   13.46    1.03
   2   3  -7   15.34    1.02
  -2  -2   7   96.46    2.82
   2   2  -7   93.95    2.51
   2   2  -7   98.37    2.16
  -2  -1   7   31.99    1.74
  -2  -1   7   33.01    1.02
   2   1  -7   31.76    1.62
  -2   0   7   94.65    2.90
  -2   0   7  100.56    1.70
   2   0  -7  100.33    2.88
  -2   1   7    2.21    0.95
  -2   1   7    3.08    0.39
   2  -1  -7    1.74    0.85
  -2   2   7    0.04    0.34
  -2   2   7    0.88    0.92
   2  -2  -7    1.21    0.91
  -2   3   7   13.96    1.69
   2  -3  -7   10.44    1.43
  -2   4   7    5.91    1.41
   2  -4  -7    4.37    1.21
  -2   5   7   25.64    2.47
   2  -5  -7   24.46    2.06
  -2   6   7   15.15    2.13
   2  -6  -7   15.71    1.84
  -2   7   7    8.12    1.94
   2  -7  -7    5.25    1.49
  -1 -12   7    4.10    1.52
   1  12  -7    2.07    1.12
  -1 -11   7    2.91    1.24
   1  11  -7    2.14    1.01
  -1 -10   7    0.64    1.00
   1  10  -7    0.31    0.73
  -1  -9   7   35.37    2.22
   1   9  -7   37.59    1.90
  -1  -8   7    6.53    1.29
   1   8  -7    7.70    1.11
  -1  -7   7   22.40    1.87
   1   7  -7   21.68    1.42
  -1  -6   7    6.85    1.23
   1   6  -7    7.78    1.03
   1   6  -7    8.71    0.78
  -1  -5   7    0.42    0.78
   1   5  -7    1.02    0.56
   1   5  -7   -0.37    0.44
  -1  -4   7   -0.43    0.67
   1   4  -7    0.01    0.41
   1   4  -7    0.51    0.48
  -1  -3   7   14.53    1.43
   1   3  -7   12.25    1.02
   1   3  -7   14.85    0.86
  -1  -2   7   38.56    1.89
   1   2  -7   38.43    1.17
   1   2  -7   37.20    1.59
  -1  -1   7    7.59    1.15
   1   1  -7    8.73    1.07
  -1   0   7   25.23    1.84
   1   0  -7   24.82    1.55
  -1   1   7    5.70    1.22
   1  -1  -7    4.92    1.03
  -1   2   7   16.65    1.82
   1  -2  -7   13.06    1.50
  -1   3   7    1.98    1.13
   1  -3  -7   -0.17    0.85
  -1   4   7   17.67    2.05
   1  -4  -7   21.75    1.95
  -1   5   7    1.16    1.27
   1  -5  -7    2.06    1.18
  -1   6   7    4.30    1.69
   1  -6  -7    3.66    1.30
   0 -12   7   11.42    1.89
   0  12  -7    9.02    1.45
   0 -11   7    3.53    1.26
   0  11  -7    3.54    1.06
   0 -10   7    1.95    1.06
   0  10  -7    2.58    0.93
   0  -9   7    0.76    0.90
   0   9  -7    2.22    0.85
   0  -8   7    3.80    1.11
   0   8  -7    2.60    0.82
   0  -7   7   72.42    2.81
   0   7  -7   70.57    2.27
   0   7  -7   73.42    1.56
   0  -6   7   41.95    2.16
   0   6  -7   41.31    1.63
   0   6  -7   39.75    1.29
   0  -5   7  108.80    3.17
   0   5  -7  105.99    2.38
   0   5  -7  105.21    2.35
   0  -4   7   21.88    1.60
   0   4  -7   21.71    1.19
   0   4  -7   21.64    1.02
   0  -3   7    5.26    1.06
   0   3  -7    5.25    0.84
   0   3  -7    4.91    0.52
   0  -2   7   32.96    1.88
   0   2  -7   34.05    1.60
   0  -1   7   36.19    2.01
   0   1  -7   33.86    1.70
   0   0   7   49.27    2.37
   0   0  -7   50.01    2.10
   0   1   7   69.66    2.92
   0  -1  -7   67.82    2.52
   0   2   7    3.35    1.20
   0  -2  -7    3.28    0.97
   0   3   7    6.66    1.51
   0  -3  -7    5.40    1.19
   0   4   7   -0.85    1.13
   0  -4  -7    1.32    1.02
   0   5   7    0.78    1.30
   0  -5  -7    1.17    1.05
   0   6   7   10.81    2.17
   1 -12   7    3.99    1.49
  -1  12  -7    2.42    1.11
   1 -11   7    1.69    1.10
  -1  11  -7    0.99    0.95
   1 -10   7   13.82    1.75
  -1  10  -7   11.20    1.39
   1  -9   7    2.39    1.05
  -1   9  -7    1.82    0.82
   1  -8   7    7.74    1.29
  -1   8  -7    9.55    1.17
   1  -7   7    3.05    1.06
  -1   7  -7    1.31    0.70
  -1   7  -7    2.53    0.52
   1  -6   7    0.07    0.80
  -1   6  -7    0.31    0.44
  -1   6  -7    0.66    0.50
   1  -5   7   24.29    1.81
  -1   5  -7   20.53    1.15
  -1   5  -7   23.90    1.17
   1  -4   7   13.41    1.41
  -1   4  -7   13.11    0.82
  -1   4  -7   13.57    1.11
   1  -3   7   71.44    2.56
  -1   3  -7   68.59    2.19
   1  -2   7    0.98    0.71
  -1   2  -7    0.03    0.55
   1  -1   7    5.91    1.14
  -1   1  -7    5.93    1.00
   1   0   7   16.18    1.75
  -1   0  -7   15.47    1.45
   1   1   7   13.32    1.76
  -1  -1  -7   10.09    1.34
   1   2   7    4.27    1.35
  -1  -2  -7    3.28    0.99
   1   3   7   27.19    2.51
  -1  -3  -7   27.15    1.98
   1   4   7    2.47    1.38
  -1  -4  -7    3.93    1.15
   1   5   7    1.65    1.51
  -1  -5  -7    2.98    1.12
   2 -12   7   15.67    2.14
   2 -11   7   12.73    1.89
  -2  11  -7   10.25    1.46
   2 -10   7   23.96    2.14
  -2  10  -7   23.20    1.79
   2  -9   7    5.33    1.24
  -2   9  -7    7.85    1.14
   2  -8   7   -0.27    0.86
  -2   8  -7    0.73    0.41
  -2   8  -7   -0.11    0.60
   2  -7   7   14.80    1.60
  -2   7  -7   15.10    1.22
  -2   7  -7   13.81    1.01
   2  -6   7   62.66    2.58
  -2   6  -7   63.50    1.90
  -2   6  -7   66.92    1.97
   2  -5   7   42.67    2.20
  -2   5  -7   45.06    1.43
  -2   5  -7   42.67    1.73
   2  -4   7   78.79    2.73
  -2   4  -7   78.06    1.70
  -2   4  -7   77.92    2.40
   2  -3   7    0.21    0.74
  -2   3  -7    0.77    0.68
   2  -2   7    1.71    0.89
  -2   2  -7    3.86    0.90
   2  -1   7    0.56    0.89
  -2   1  -7   -0.43    0.60
   2   0   7    1.40    1.09
  -2   0  -7    1.40    0.86
   2   1   7   30.52    2.38
  -2  -1  -7   30.60    1.92
   2   2   7    7.58    1.68
  -2  -2  -7    6.55    1.32
   2   3   7   10.03    1.91
  -2  -3  -7   14.20    1.74
   2   4   7    0.04    1.31
  -2  -4  -7   -0.05    0.87
   2   5   7    0.13    1.48
  -2  -5  -7    6.78    1.32
   3 -12   7    2.21    1.40
  -3  12  -7    0.91    1.00
   3 -11   7    0.26    1.17
  -3  11  -7    1.65    0.93
   3 -10   7    3.88    1.28
  -3  10  -7    4.21    1.01
   3  -9   7   24.82    2.14
  -3   9  -7   25.71    1.68
   3  -8   7   50.13    2.46
  -3   8  -7   49.13    2.03
  -3   8  -7   49.50    1.70
   3  -7   7   -0.87    0.89
  -3   7  -7   -0.12    0.54
  -3   7  -7    0.13    0.64
   3  -6   7   -0.55    0.81
  -3   6  -7   -0.12    0.53
  -3   6  -7    0.23    0.63
   3  -5   7   25.35    1.91
  -3   5  -7   26.20    1.22
  -3   5  -7   25.14    1.55
   3  -4   7   28.99    1.90
  -3   4  -7   29.40    1.10
  -3   4  -7   29.92    1.72
   3  -3   7   23.05    1.89
  -3   3  -7   21.33    1.60
   3  -2   7   98.44    3.30
  -3   2  -7   95.60    3.07
   3  -1   7    3.09    1.17
  -3   1  -7    5.04    1.15
   3   0   7    0.40    1.01
  -3   0  -7    1.65    0.89
   3   1   7    5.95    1.45
  -3  -1  -7    1.34    0.93
   3   2   7   -1.33    1.14
  -3  -2  -7    0.79    0.90
   3   3   7    7.52    1.83
  -3  -3  -7    8.61    1.42
   3   4   7    8.43    1.95
  -3  -4  -7    9.28    1.49
   4 -12   7   -1.08    1.25
  -4  12  -7   -1.46    0.81
   4 -11   7   17.34    2.13
  -4  11  -7   14.19    1.61
   4 -10   7    7.27    1.45
  -4  10  -7    5.89    1.12
   4  -9   7   25.20    2.16
  -4   9  -7   20.14    1.59
  -4   9  -7   20.20    1.28
   4  -8   7   -0.90    0.92
  -4   8  -7   -1.17    0.57
  -4   8  -7    0.09    0.57
   4  -7   7    6.04    1.26
  -4   7  -7    3.05    0.79
  -4   7  -7    5.20    0.97
   4  -6   7    0.70    0.92
  -4   6  -7    1.10    0.62
  -4   6  -7    0.68    0.68
   4  -5   7    7.11    1.26
  -4   5  -7    8.06    1.26
  -4   5  -7    6.64    0.83
   4  -4   7   17.12    1.71
  -4   4  -7   13.93    1.52
  -4   4  -7   18.54    0.99
   4  -3   7    3.15    1.06
  -4   3  -7    2.69    0.97
   4  -2   7   19.46    1.81
  -4   2  -7   17.63    1.64
   4  -1   7    1.10    1.05
  -4   1  -7   -0.26    0.79
   4   0   7   16.30    1.94
  -4   0  -7   14.73    1.74
   4   1   7    1.63    1.26
  -4  -1  -7   -0.10    0.92
   4   2   7    9.19    1.88
  -4  -2  -7   10.16    1.60
   4   3   7    0.02    1.44
  -4  -3  -7    1.17    1.06
   5 -12   7   -1.39    1.32
  -5  12  -7    0.38    0.97
   5 -11   7   -0.15    1.28
  -5  11  -7    1.00    0.97
   5 -10   7    1.80    1.27
  -5  10  -7    3.78    1.03
   5  -9   7   13.59    1.69
  -5   9  -7   11.52    1.24
  -5   9  -7    9.62    1.25
   5  -8   7   14.51    1.65
  -5   8  -7   13.96    1.38
   5  -7   7   69.19    2.76
  -5   7  -7   65.09    2.48
  -5   7  -7   65.28    2.20
   5  -6   7    1.77    0.96
  -5   6  -7    1.80    0.70
  -5   6  -7    1.57    0.82
   5  -5   7    2.64    1.04
  -5   5  -7    1.48    0.88
  -5   5  -7    0.79    0.57
   5  -4   7   10.81    1.48
  -5   4  -7   11.00    1.45
   5  -3   7    1.28    1.03
  -5   3  -7    4.20    1.03
   5  -2   7   10.96    1.63
  -5   2  -7   11.74    1.56
   5  -1   7   35.24    2.51
  -5   1  -7   37.09    2.32
   5   0   7   12.79    1.95
  -5   0  -7   12.74    1.68
   5   1   7   -0.81    1.30
  -5  -1  -7    0.06    0.99
   5   2   7    0.29    1.34
  -5  -2  -7    1.62    1.16
   6 -12   7    3.53    1.63
  -6  12  -7    3.01    1.17
   6 -11   7   -1.19    1.30
  -6  11  -7   -0.60    0.83
   6 -10   7    3.42    1.32
  -6  10  -7    3.96    1.05
   6  -9   7    2.60    1.20
   6  -9   7    0.07    1.00
  -6   9  -7   -0.08    0.80
   6  -8   7    0.27    0.99
   6  -8   7   -0.82    0.94
  -6   8  -7    0.23    0.73
   6  -7   7    2.84    1.16
   6  -7   7    4.52    1.16
  -6   7  -7    2.51    0.80
   6  -6   7    3.12    1.13
  -6   6  -7    2.81    0.76
   6  -5   7   30.19    2.09
  -6   5  -7   27.99    1.98
   6  -4   7    3.90    1.19
  -6   4  -7    5.74    1.23
   6  -3   7   12.69    1.65
  -6   3  -7    9.28    1.51
   6  -2   7    1.68    1.16
  -6   2  -7    2.03    1.08
   6  -1   7    1.09    1.18
  -6   1  -7    1.34    1.03
   6   0   7    1.11    1.34
  -6   0  -7    1.74    1.07
  -6  -1  -7   10.73    1.72
   7 -12   7    8.52    1.76
  -7  12  -7    9.97    1.54
   7 -11   7   -1.32    1.14
  -7  11  -7   -0.09    0.93
   7 -10   7   -1.03    1.07
   7 -10   7   -1.04    1.01
  -7  10  -7   -0.88    0.86
   7  -9   7    3.35    1.27
   7  -9   7    2.15    1.24
  -7   9  -7    0.78    0.89
   7  -8   7    3.78    1.22
   7  -8   7    1.98    1.25
  -7   8  -7    2.28    0.90
   7  -7   7    4.86    1.45
   7  -7   7    7.33    1.35
  -7   7  -7    5.07    0.99
   7  -6   7   19.74    2.16
   7  -6   7   21.87    1.97
   7  -5   7    3.44    1.25
  -7   5  -7    4.12    1.19
   7  -4   7    1.06    1.02
  -7   4  -7    0.40    0.85
   7  -3   7    0.56    1.11
  -7   3  -7    0.14    0.87
   7  -2   7    0.32    1.10
  -7   2  -7   -0.11    0.86
   7  -1   7    4.97    1.49
  -7   1  -7    6.87    1.39
   7   0   7    2.18    1.48
  -7   0  -7    2.52    1.25
  -8  11  -7    2.15    1.15
   8 -10   7   11.16    1.77
  -8  10  -7    9.75    1.46
   8  -9   7    0.32    1.15
   8  -9   7    1.32    1.48
  -8   9  -7    2.41    1.05
   8  -8   7    0.37    1.00
   8  -8   7   -0.07    1.18
  -8   8  -7    1.91    0.93
   8  -7   7    3.26    1.42
   8  -7   7    4.96    1.29
   8  -6   7    0.40    1.09
   8  -6   7   -0.14    1.02
   8  -5   7    2.57    1.14
   8  -4   7   13.73    1.73
  -8   4  -7   11.41    1.65
   8  -3   7    3.66    1.35
  -8   3  -7    1.13    0.95
   8  -2   7    1.42    1.29
  -8   2  -7    3.69    1.21
   8  -1   7    0.16    1.26
  -8   1  -7    0.39    1.01
   9 -10   7    0.01    1.35
  -9  10  -7   -0.78    0.91
   9  -9   7   -0.33    1.25
  -9   9  -7   -0.43    0.91
   9  -8   7   -1.15    1.17
   9  -7   7    0.36    1.29
   9  -6   7    1.23    1.27
  -9   5  -7    0.07    0.88
  -9   4  -7    3.01    1.12
   9  -3   7   -0.34    1.51
  -9   3  -7    0.24    0.95
  10  -7   7    0.20    1.32
 -11  -2   8   12.83    1.61
  11   2  -8   15.93    2.03
 -11  -1   8   12.18    1.54
  11   1  -8   12.44    1.81
 -11   0   8    1.33    0.87
  11   0  -8    1.78    1.27
 -11   1   8    1.24    0.80
  11  -1  -8    1.12    1.26
 -11   2   8    1.04    0.82
  11  -2  -8   -0.25    1.11
 -11   3   8    8.53    1.35
  11  -3  -8    8.38    1.77
 -11   4   8    9.21    1.36
  11  -4  -8    7.61    1.77
 -10  -4   8    4.29    1.22
 -10  -3   8    4.82    1.14
  10   3  -8    2.66    1.29
 -10  -2   8   -0.40    0.71
  10   2  -8   -1.37    1.03
 -10  -1   8    2.78    0.93
  10   1  -8    4.67    1.36
 -10   0   8   29.92    1.89
  10   0  -8   28.46    2.09
 -10   1   8   36.65    2.09
  10  -1  -8   39.15    2.46
 -10   2   8    8.45    1.26
  10  -2  -8    8.95    1.67
 -10   3   8   -0.39    0.67
  10  -3  -8   -0.02    1.19
 -10   4   8    4.43    1.13
  10  -4  -8    4.46    1.46
 -10   5   8    4.36    1.11
  10  -5  -8    3.01    1.51
   9   5  -8    0.39    1.34
   9   4  -8    3.18    1.40
  -9  -3   8    1.16    0.72
   9   3  -8   -0.14    1.00
  -9  -2   8    8.08    1.25
   9   2  -8   10.66    1.56
  -9  -1   8    2.61    0.90
   9   1  -8    2.89    1.18
  -9   0   8   16.18    1.45
   9   0  -8   14.80    1.80
  -9   1   8    0.95    0.75
   9  -1  -8   -0.86    0.94
  -9   2   8   12.72    1.44
   9  -2  -8   12.72    1.71
  -9   3   8    4.60    1.00
   9  -3  -8    5.43    1.51
  -9   4   8    9.38    1.29
   9  -4  -8    7.95    1.67
  -9   5   8    2.78    0.97
   9  -5  -8    0.34    1.27
  -9   6   8    2.83    1.03
   9  -6  -8    1.02    1.37
  -8  -7   8    0.47    1.10
   8   7  -8    3.24    1.40
  -8  -6   8    2.45    1.15
   8   6  -8    0.50    1.22
   8   5  -8   31.62    2.49
   8   4  -8   20.87    1.83
   8   4  -8   20.41    2.25
   8   3  -8    6.89    1.29
   8   3  -8   11.10    1.67
  -8  -2   8    2.43    0.82
   8   2  -8    2.76    1.09
  -8  -1   8   12.64    1.37
   8   1  -8   13.18    1.62
  -8   0   8    2.73    0.81
   8   0  -8    2.73    1.13
  -8   1   8   17.89    1.47
   8  -1  -8   22.42    2.07
  -8   2   8   65.41    2.42
   8  -2  -8   70.59    2.93
  -8   3   8    8.34    1.13
   8  -3  -8    9.94    1.67
  -8   4   8    4.94    1.01
   8  -4  -8    3.51    1.37
  -8   5   8    5.64    1.09
   8  -5  -8    1.96    1.34
  -8   6   8    0.04    0.86
   8  -6  -8    1.54    1.34
  -7  -8   8    6.04    1.44
   7   8  -8    2.76    1.28
  -7  -7   8    2.88    1.23
   7   7  -8    2.19    1.24
  -7  -6   8    0.78    1.03
   7   6  -8    0.00    1.07
  -7  -5   8    1.62    1.05
   7   5  -8    1.50    1.10
  -7  -4   8   -2.01    0.68
   7   4  -8   -0.62    0.94
   7   4  -8    0.61    0.86
  -7  -3   8   32.73    1.80
   7   3  -8   28.47    2.04
   7   3  -8   31.32    1.87
  -7  -2   8    9.56    1.20
  -7  -2   8    8.89    1.11
   7   2  -8    8.99    1.28
  -7  -1   8   19.86    1.44
  -7  -1   8   21.31    1.38
   7   1  -8   20.26    1.72
  -7   0   8    3.30    0.76
   7   0  -8    2.41    1.05
  -7   1   8    0.18    0.55
   7  -1  -8    0.72    1.02
  -7   2   8    2.26    0.69
   7  -2  -8   -0.17    1.01
  -7   3   8   13.19    1.31
   7  -3  -8   16.81    1.97
  -7   4   8   35.28    1.77
   7  -4  -8   34.26    2.43
  -7   5   8   12.47    1.34
   7  -5  -8   11.49    1.85
   7  -6  -8    8.76    1.82
  -6  -9   8    5.41    1.47
   6   9  -8    2.38    1.19
  -6  -8   8    2.81    1.28
  -6  -7   8    2.86    1.21
   6   7  -8    1.76    1.12
  -6  -6   8    0.72    1.00
   6   6  -8    0.97    0.97
  -6  -5   8    0.30    0.85
   6   5  -8    1.68    1.01
   6   5  -8    1.87    0.89
  -6  -4   8   12.40    1.44
   6   4  -8   10.86    1.46
   6   4  -8   15.79    1.45
  -6  -3   8   32.29    1.80
   6   3  -8   31.36    1.70
   6   3  -8   31.03    2.00
  -6  -2   8    6.45    1.00
   6   2  -8    7.05    1.20
  -6  -1   8    8.57    1.04
  -6  -1   8    9.82    1.14
   6   1  -8    9.09    1.34
  -6   0   8    9.37    1.02
  -6   0   8    8.99    1.06
   6   0  -8    8.63    1.40
  -6   1   8    4.51    0.90
  -6   1   8    5.28    0.86
   6  -1  -8    7.45    1.38
  -6   2   8    2.34    0.63
  -6   2   8    1.68    0.74
   6  -2  -8    1.31    1.05
  -6   3   8   27.63    1.73
  -6   3   8   28.32    1.46
   6  -3  -8   27.80    2.16
  -6   4   8    7.13    1.19
  -6   4   8    4.41    0.87
   6  -4  -8    5.36    1.46
  -6   5   8    4.89    1.53
   6  -5  -8    2.68    1.50
   6  -6  -8    0.40    1.40
  -5  -9   8    1.62    1.20
   5   9  -8   -0.97    0.82
  -5  -8   8   25.66    2.31
   5   8  -8   22.72    1.91
  -5  -7   8   13.45    1.79
   5   7  -8   14.67    1.70
  -5  -6   8   19.56    1.97
   5   6  -8   17.54    1.78
  -5  -5   8   14.60    1.67
   5   5  -8   17.91    1.72
   5   5  -8   14.49    1.24
  -5  -4   8    3.81    1.05
   5   4  -8    4.13    0.89
   5   4  -8    4.31    1.04
  -5  -3   8    1.93    0.92
   5   3  -8    5.76    1.11
   5   3  -8    3.63    0.95
  -5  -2   8   31.75    1.79
   5   2  -8   28.86    1.77
  -5  -1   8   87.02    2.69
  -5  -1   8   83.95    2.36
   5   1  -8   84.65    2.79
  -5   0   8   52.93    2.13
  -5   0   8   57.32    1.88
   5   0  -8   55.37    2.37
  -5   1   8    2.72    0.61
  -5   1   8    3.02    0.86
   5  -1  -8    3.47    1.14
  -5   2   8   27.29    1.30
  -5   2   8   27.05    1.77
   5  -2  -8   25.67    2.00
  -5   3   8    1.39    0.84
  -5   3   8    1.95    0.59
   5  -3  -8    1.74    1.11
  -5   4   8   -0.31    0.84
   5  -4  -8    0.38    1.12
  -5   5   8   45.73    2.56
   5  -5  -8   41.78    2.74
  -5   6   8    8.21    1.57
   5  -6  -8    8.70    1.80
  -4 -10   8    3.80    1.32
   4  10  -8    3.30    1.08
  -4  -9   8    6.17    1.47
   4   9  -8    4.77    1.21
  -4  -8   8    3.92    1.28
   4   8  -8    2.71    0.96
  -4  -7   8    0.02    1.00
   4   7  -8    1.55    0.87
  -4  -6   8    7.30    1.38
   4   6  -8    9.45    1.26
  -4  -5   8   -0.58    0.81
   4   5  -8    0.36    0.71
   4   5  -8    0.43    0.65
  -4  -4   8   16.32    1.64
   4   4  -8   14.09    1.30
   4   4  -8   16.37    1.48
  -4  -3   8    0.40    0.72
   4   3  -8    0.73    0.73
   4   3  -8    0.80    0.80
  -4  -2   8   21.23    1.63
   4   2  -8   17.93    1.53
   4   2  -8   19.55    1.46
  -4  -1   8    2.16    0.55
  -4  -1   8    1.78    0.79
   4   1  -8    1.88    0.97
  -4   0   8   16.16    1.01
  -4   0   8   16.07    1.45
   4   0  -8   19.77    1.72
  -4   1   8    6.77    1.15
  -4   1   8    8.62    0.79
   4  -1  -8    8.37    1.34
  -4   2   8   21.40    1.07
  -4   2   8   22.52    1.80
   4  -2  -8   20.27    1.97
  -4   3   8    2.01    0.97
   4  -3  -8    2.69    1.25
  -4   4   8    1.34    1.03
   4  -4  -8    0.24    1.15
  -4   5   8    0.68    1.10
   4  -5  -8    0.23    1.33
  -4   6   8    0.52    1.16
   4  -6  -8    1.06    1.39
  -3 -11   8    7.65    1.71
   3  11  -8    3.80    1.17
  -3 -10   8    6.15    1.53
   3  10  -8    5.25    1.19
  -3  -9   8   -0.59    0.97
   3   9  -8    0.86    0.84
  -3  -8   8    2.20    1.15
   3   8  -8    1.58    0.82
  -3  -7   8   39.08    2.41
   3   7  -8   37.24    1.95
  -3  -6   8   45.25    2.40
   3   6  -8   47.51    1.55
   3   6  -8   42.96    2.01
  -3  -5   8   47.49    2.41
   3   5  -8   50.89    2.02
   3   5  -8   48.11    1.72
  -3  -4   8    0.26    0.78
   3   4  -8    0.13    0.64
   3   4  -8    0.63    0.66
  -3  -3   8   33.74    1.90
   3   3  -8   32.80    1.60
   3   3  -8   33.33    1.53
  -3  -2   8    1.45    0.78
   3   2  -8    1.08    0.82
  -3  -1   8    3.19    0.53
  -3  -1   8    2.50    0.91
   3   1  -8    2.19    0.88
  -3   0   8   86.75    1.82
  -3   0   8   88.90    2.92
   3   0  -8   87.22    2.87
  -3   1   8   19.14    0.87
  -3   1   8   14.02    1.61
   3  -1  -8   16.80    1.69
  -3   2   8   21.36    1.96
   3  -2  -8   22.99    1.91
  -3   3   8    4.20    1.19
   3  -3  -8    5.11    1.30
  -3   4   8    1.16    1.13
   3  -4  -8    1.44    1.18
  -3   5   8   -0.59    1.07
   3  -5  -8   -0.21    1.17
  -3   6   8    9.48    1.81
   3  -6  -8    6.51    1.64
  -2 -11   8    4.04    1.42
   2  11  -8    2.73    1.06
  -2 -10   8    6.34    1.50
   2  10  -8    4.34    1.10
  -2  -9   8   14.30    1.86
   2   9  -8   14.09    1.54
  -2  -8   8   -0.52    0.86
   2   8  -8    0.38    0.71
  -2  -7   8    0.61    0.95
   2   7  -8    0.63    0.65
  -2  -6   8   10.15    1.52
   2   6  -8   10.34    1.19
   2   6  -8   10.93    0.98
  -2  -5   8   40.04    2.27
   2   5  -8   38.96    1.69
   2   5  -8   40.82    1.57
  -2  -4   8   33.59    2.05
   2   4  -8   33.72    1.50
   2   4  -8   32.59    1.49
  -2  -3   8  104.45    3.11
   2   3  -8   99.21    2.63
   2   3  -8  103.64    2.37
  -2  -2   8    0.66    0.76
   2   2  -8    0.48    0.69
  -2  -1   8    2.97    0.94
  -2  -1   8    3.72    0.44
   2   1  -8    3.55    0.96
  -2   0   8    8.09    1.33
   2   0  -8    8.07    1.28
  -2   1   8    1.24    0.97
   2  -1  -8    3.87    1.09
  -2   2   8   34.38    2.34
   2  -2  -8   37.96    2.17
  -2   3   8   23.47    2.24
   2  -3  -8   25.38    2.01
  -2   4   8   16.94    2.08
   2  -4  -8   15.84    1.88
  -2   5   8    2.45    1.44
   2  -5  -8    0.07    1.21
  -2   6   8    0.41    1.41
   2  -6  -8    2.09    1.35
  -1 -12   8   14.97    2.18
   1  12  -8   10.97    1.60
  -1 -11   8    7.24    1.63
   1  11  -8    7.00    1.33
  -1 -10   8   10.94    1.76
   1  10  -8   10.97    1.40
  -1  -9   8   -0.40    0.92
   1   9  -8    1.12    0.83
  -1  -8   8   -0.85    0.88
   1   8  -8   -0.10    0.68
  -1  -7   8    2.23    1.01
   1   7  -8    0.03    0.61
  -1  -6   8   10.83    1.51
   1   6  -8   12.08    1.17
   1   6  -8   12.08    0.96
  -1  -5   8   56.54    2.53
   1   5  -8   57.23    1.83
   1   5  -8   57.65    1.85
  -1  -4   8    7.48    1.22
   1   4  -8    5.55    0.75
   1   4  -8    7.09    0.96
  -1  -3   8   34.35    2.03
   1   3  -8   31.39    1.57
   1   3  -8   35.02    1.25
  -1  -2   8    3.62    0.98
   1   2  -8    2.34    0.78
  -1  -1   8   19.14    1.73
   1   1  -8   19.42    1.49
  -1   0   8    0.89    0.88
   1   0  -8    0.00    0.77
  -1   1   8   22.58    2.06
   1  -1  -8   23.89    1.79
  -1   2   8    2.15    1.11
   1  -2  -8    2.37    1.02
  -1   3   8    5.66    1.42
   1  -3  -8    5.76    1.37
  -1   4   8    2.64    1.34
   1  -4  -8    2.40    1.15
  -1   5   8    0.16    1.37
   1  -5  -8    2.57    1.24
   0 -12   8   -0.39    1.27
   0  12  -8   -0.70    0.83
   0 -11   8    2.62    1.27
   0  11  -8    1.36    0.97
   0 -10   8   24.70    2.33
   0  10  -8   18.49    1.66
   0  -9   8   23.50    2.10
   0   9  -8   23.27    1.68
   0  -8   8   65.30    2.77
   0   8  -8   65.19    2.33
   0  -7   8    0.78    0.88
   0   7  -8    1.54    0.51
   0   7  -8    0.59    0.66
   0  -6   8   -0.63    0.92
   0   6  -8    1.08    0.61
   0   6  -8    0.47    0.52
   0  -5   8   19.68    1.83
   0   5  -8   21.64    1.17
   0   5  -8   21.32    1.30
   0  -4   8    9.71    1.38
   0   4  -8   11.04    0.86
   0   4  -8   10.24    1.10
   0  -3   8   74.08    2.78
   0   3  -8   74.57    2.38
   0   3  -8   73.76    1.53
   0  -2   8  102.28    3.22
   0   2  -8  103.28    2.89
   0  -1   8   36.50    2.22
   0   1  -8   35.61    1.91
   0   0   8    4.17    1.16
   0   0  -8    4.38    1.06
   0   1   8   -1.42    0.90
   0  -1  -8   -0.04    0.80
   0   2   8    1.65    1.19
   0  -2  -8    2.32    1.02
   0   3   8   14.60    1.97
   0  -3  -8   20.95    1.87
   0   4   8    6.88    1.69
   0  -4  -8    6.95    1.46
   0   5   8   11.86    2.26
   0  -5  -8   10.87    1.64
   1 -12   8    2.31    1.46
  -1  12  -8    0.28    0.95
   1 -11   8    3.91    1.46
  -1  11  -8    3.17    1.12
   1 -10   8    5.24    1.38
  -1  10  -8    3.03    0.99
   1  -9   8    1.28    1.00
  -1   9  -8    0.75    0.75
   1  -8   8   11.21    1.56
  -1   8  -8   11.11    1.26
   1  -7   8    3.25    1.15
  -1   7  -8    4.17    0.84
   1  -6   8   39.60    2.26
  -1   6  -8   37.11    1.53
  -1   6  -8   36.20    1.58
   1  -5   8    2.60    1.02
  -1   5  -8    3.11    0.62
  -1   5  -8    3.19    0.74
   1  -4   8   32.28    2.05
  -1   4  -8   28.98    1.04
  -1   4  -8   29.52    1.60
   1  -3   8    3.36    1.03
  -1   3  -8    1.78    0.77
   1  -2   8   10.71    1.44
  -1   2  -8   10.12    1.23
   1  -1   8    5.83    1.22
  -1   1  -8    6.65    1.18
   1   0   8   31.97    2.26
  -1   0  -8   30.97    1.94
   1   1   8   11.09    1.65
  -1  -1  -8   13.60    1.66
   1   2   8    2.27    1.25
  -1  -2  -8    2.90    1.06
   1   3   8    1.01    1.24
  -1  -3  -8    1.72    1.02
   1   4   8    0.79    1.40
  -1  -4  -8    1.23    1.09
   2 -12   8    0.90    1.42
  -2  12  -8   -0.02    0.91
   2 -11   8    1.13    1.22
  -2  11  -8   -0.36    0.79
   2 -10   8    5.14    1.39
  -2  10  -8    4.87    1.10
   2  -9   8    9.51    1.52
  -2   9  -8   10.46    1.31
   2  -8   8   25.10    2.12
  -2   8  -8   22.27    1.56
  -2   8  -8   22.62    1.20
   2  -7   8   63.15    2.82
  -2   7  -8   64.38    2.00
  -2   7  -8   62.78    2.13
   2  -6   8   19.96    1.92
  -2   6  -8   20.85    1.28
  -2   6  -8   20.83    1.35
   2  -5   8    2.02    1.02
  -2   5  -8    1.00    0.72
  -2   5  -8    0.82    0.50
   2  -4   8    1.00    0.90
  -2   4  -8    0.48    0.73
   2  -3   8   -0.01    0.77
  -2   3  -8   -0.31    0.63
   2  -2   8   48.19    2.50
  -2   2  -8   47.00    2.27
   2  -1   8   12.44    1.61
  -2   1  -8   11.46    1.47
   2   0   8   34.90    2.47
  -2   0  -8   38.92    2.16
   2   1   8    1.28    1.14
  -2  -1  -8    0.24    0.85
   2   2   8    1.58    1.30
  -2  -2  -8    3.27    1.19
   2   3   8   -0.19    1.25
  -2  -3  -8   -0.39    0.95
   2   4   8    5.06    1.72
  -2  -4  -8    6.43    1.37
   3 -12   8    1.66    1.43
  -3  12  -8    2.06    1.10
   3 -11   8   15.63    2.14
  -3  11  -8   16.19    1.76
   3 -10   8   -0.37    1.13
  -3  10  -8    0.63    0.80
   3  -9   8    2.59    1.27
  -3   9  -8    1.48    0.82
   3  -8   8    6.86    1.41
  -3   8  -8    5.72    0.95
  -3   8  -8    7.46    1.00
   3  -7   8    7.22    1.33
  -3   7  -8    5.48    0.90
  -3   7  -8    7.80    1.11
   3  -6   8   10.47    1.50
  -3   6  -8    9.44    0.95
  -3   6  -8   11.45    1.30
   3  -5   8   79.81    2.99
  -3   5  -8   73.12    2.59
  -3   5  -8   72.96    1.80
   3  -4   8   14.43    1.60
  -3   4  -8   15.20    1.62
   3  -3   8    3.58    1.14
  -3   3  -8    4.10    1.08
   3  -2   8    1.43    1.01
  -3   2  -8    3.21    1.05
   3  -1   8   -0.06    0.95
  -3   1  -8    0.07    0.81
   3   0   8    7.77    1.49
  -3   0  -8    8.55    1.46
   3   1   8   14.26    2.02
  -3  -1  -8   13.79    1.72
   3   2   8   22.79    2.56
  -3  -2  -8   24.09    2.17
   3   3   8    1.45    1.44
  -3  -3  -8    3.08    1.32
   4 -12   8    9.10    1.86
  -4  12  -8    8.74    1.40
   4 -11   8   -0.74    1.23
  -4  11  -8    0.35    0.84
   4 -10   8    0.51    1.21
  -4  10  -8   -0.41    0.77
   4  -9   8   -0.44    1.04
  -4   9  -8    1.51    0.67
  -4   9  -8   -0.65    0.69
   4  -8   8    2.45    1.10
  -4   8  -8    0.67    0.68
  -4   8  -8    0.58    0.69
   4  -7   8   16.95    1.83
  -4   7  -8   13.37    1.24
  -4   7  -8   14.81    1.49
   4  -6   8    1.42    0.99
  -4   6  -8    2.43    0.70
  -4   6  -8    1.77    0.87
   4  -5   8   18.74    1.87
  -4   5  -8   15.83    1.68
   4  -4   8    0.48    0.97
  -4   4  -8    0.13    0.80
   4  -3   8   10.49    1.59
  -4   3  -8   11.38    1.54
   4  -2   8    1.13    1.07
  -4   2  -8    0.78    0.94
   4  -1   8   18.09    2.03
  -4   1  -8   13.58    1.71
   4   0   8    1.16    1.23
  -4   0  -8    1.88    1.13
   4   1   8    4.33    1.46
  -4  -1  -8    3.73    1.25
   4   2   8   -0.79    1.24
  -4  -2  -8    1.57    1.16
   5 -12   8    2.00    1.60
  -5  12  -8    2.19    1.08
   5 -11   8    4.71    1.65
  -5  11  -8    2.99    1.05
   5 -10   8   26.85    2.40
  -5  10  -8   24.72    1.87
   5  -9   8    1.50    1.14
  -5   9  -8    4.10    0.92
  -5   9  -8    1.87    0.83
   5  -8   8   -0.38    1.02
  -5   8  -8    1.14    0.75
  -5   8  -8    1.02    0.71
   5  -7   8    6.11    1.38
  -5   7  -8    5.54    1.15
  -5   7  -8    7.45    1.00
   5  -6   8   -0.51    0.99
  -5   6  -8    0.02    0.75
   5  -5   8    7.81    1.42
  -5   5  -8    7.96    1.33
   5  -4   8   24.49    2.13
  -5   4  -8   24.31    1.89
   5  -3   8   21.61    2.11
  -5   3  -8   24.38    2.00
   5  -2   8    0.15    1.13
  -5   2  -8    1.75    1.01
   5  -1   8   -1.37    1.03
  -5   1  -8    0.90    1.05
   5   0   8    0.39    1.31
  -5   0  -8    2.11    1.05
   5   1   8    2.49    1.58
  -5  -1  -8    3.42    1.23
   6 -12   8   -1.87    1.31
  -6  12  -8    1.02    1.02
   6 -11   8   -2.43    1.21
  -6  11  -8   -0.35    0.88
   6 -10   8    0.74    1.21
  -6  10  -8   -0.09    0.83
   6  -9   8   -0.12    1.10
  -6   9  -8   -0.11    0.71
  -6   9  -8    0.25    0.78
   6  -8   8    9.32    1.52
  -6   8  -8    7.98    1.12
  -6   8  -8   10.04    1.37
   6  -7   8   -0.02    1.01
  -6   7  -8    1.31    0.89
   6  -6   8    6.61    1.41
  -6   6  -8    5.55    1.16
   6  -5   8    0.06    0.97
  -6   5  -8    0.62    0.87
   6  -4   8    0.01    0.97
  -6   4  -8    3.68    1.16
   6  -3   8   -0.45    1.12
  -6   3  -8   -0.16    0.95
   6  -2   8    9.00    1.60
  -6   2  -8    3.57    1.23
   6  -1   8    3.96    1.54
  -6   1  -8    6.03    1.41
   6   0   8    5.37    1.66
  -6   0  -8    2.38    1.19
   7 -11   8   -1.42    1.24
  -7  11  -8    0.08    0.88
   7 -10   8   -0.05    1.25
  -7  10  -8    1.79    0.92
  -7  10  -8    2.22    0.93
   7  -9   8    6.12    1.47
  -7   9  -8    7.47    1.23
  -7   9  -8    5.92    1.16
   7  -8   8    4.52    1.37
  -7   8  -8    2.78    0.96
   7  -7   8   -0.58    1.01
  -7   7  -8    0.74    0.87
   7  -6   8   -1.06    0.91
  -7   6  -8    0.49    0.82
   7  -5   8   -0.68    0.96
  -7   5  -8   -0.15    0.82
   7  -4   8    3.04    1.27
  -7   4  -8    2.13    1.04
   7  -3   8    0.80    1.22
  -7   3  -8    0.09    0.92
   7  -2   8    7.98    1.67
  -7   2  -8    4.80    1.34
   7  -1   8    1.93    1.43
  -7   1  -8    1.73    1.16
  -8  10  -8    2.09    1.07
  -8  10  -8    2.63    1.06
   8  -9   8   -1.42    1.09
   8  -8   8   -1.70    1.00
  -8   8  -8   -0.24    0.89
   8  -7   8    7.46    1.44
  -8   7  -8    5.63    1.28
   8  -6   8    2.59    1.20
  -8   6  -8    1.94    1.00
   8  -5   8    1.22    1.25
  -8   5  -8    2.11    1.05
   8  -4   8    0.25    1.23
  -8   4  -8    1.22    0.97
   8  -3   8    2.64    1.43
  -8   3  -8    0.71    1.01
  -9   8  -8   -0.79    0.86
  -9   7  -8    1.02    1.01
  -9   6  -8    0.22    0.90
  -9   5  -8    0.58    0.91
 -11  -1   9    2.87    1.03
  11   1  -9    0.18    1.23
 -11   0   9    2.58    1.02
  11   0  -9    3.62    1.43
 -11   1   9    2.91    0.97
  11  -1  -9    1.77    1.29
 -11   2   9   12.59    1.52
  11  -2  -9   13.15    2.06
 -10  -4   9    0.63    0.85
 -10  -3   9    7.30    1.31
  10   3  -9    9.84    1.65
 -10  -2   9   15.24    1.66
  10   2  -9   16.32    1.86
 -10  -1   9    4.61    1.07
  10   1  -9    2.17    1.22
 -10   0   9    1.22    0.83
  10   0  -9   -1.61    1.13
 -10   1   9    5.45    1.11
  10  -1  -9    3.86    1.46
 -10   2   9   -0.66    0.68
  10  -2  -9   -0.89    1.18
 -10   3   9    1.17    0.83
  10  -3  -9    0.06    1.27
 -10   4   9   26.90    2.01
  10  -4  -9   27.75    2.64
   9   5  -9    2.90    1.53
  -9  -3   9    8.52    1.26
   9   3  -9    7.47    1.41
  -9  -2   9    1.28    0.78
   9   2  -9   -0.39    1.02
  -9  -1   9    6.26    1.12
   9   1  -9    9.08    1.54
  -9   0   9    0.28    0.68
   9   0  -9    0.16    1.09
  -9   1   9    1.96    0.85
   9  -1  -9    4.36    1.37
  -9   2   9    0.55    0.71
   9  -2  -9   -0.37    1.19
  -9   3   9    0.75    0.78
   9  -3  -9    1.25    1.27
  -9   4   9    2.76    0.91
   9  -4  -9    0.05    1.35
  -9   5   9    2.50    1.03
   9  -5  -9   -1.24    1.27
   8   6  -9    4.79    1.53
   8   5  -9   -1.07    1.13
   8   4  -9    8.02    1.55
   8   4  -9    9.58    1.46
  -8  -3   9    0.70    0.72
   8   3  -9    0.78    1.01
  -8  -2   9    5.76    1.02
   8   2  -9    5.97    1.30
  -8  -1   9   45.38    2.08
   8   1  -9   45.61    2.37
  -8   0   9    8.24    1.18
   8   0  -9   12.54    1.76
  -8   1   9    5.21    1.02
   8  -1  -9    6.19    1.45
  -8   2   9    7.73    1.08
   8  -2  -9   10.31    1.72
  -8   3   9    1.15    0.77
   8  -3  -9    0.37    1.22
  -8   4   9    2.02    0.82
   8  -4  -9    0.79    1.33
   8  -5  -9   13.23    2.07
  -7  -8   9    3.93    1.54
   7   8  -9    0.69    1.24
  -7  -7   9    0.58    1.20
   7   7  -9    0.39    1.14
  -7  -6   9    8.13    1.49
   7   6  -9   10.85    1.73
  -7  -5   9    4.95    1.23
   7   5  -9    3.66    1.25
  -7  -4   9   20.59    1.77
   7   4  -9   22.95    2.17
   7   4  -9   20.97    1.65
  -7  -3   9   -0.21    0.73
   7   3  -9   -0.27    0.82
  -7  -2   9    1.85    0.79
  -7  -2   9    2.37    0.79
   7   2  -9    3.64    1.16
  -7  -1   9    0.40    0.76
  -7  -1   9    0.97    0.64
   7   1  -9    0.60    0.96
  -7   0   9    3.77    0.83
   7   0  -9    4.06    1.31
  -7   1   9   32.43    1.67
   7  -1  -9   34.13    2.27
  -7   2   9   15.22    1.29
   7  -2  -9   13.05    1.83
  -7   3   9   12.02    1.25
   7  -3  -9   11.37    1.79
   7  -4  -9    1.79    1.40
   7  -5  -9   -0.20    1.26
  -6  -8   9    5.87    1.50
   6   8  -9   -0.94    0.95
  -6  -7   9   12.11    1.92
   6   7  -9    9.25    1.60
  -6  -6   9   34.61    2.48
   6   6  -9   30.86    2.19
  -6  -5   9    2.79    1.11
   6   5  -9    5.01    1.05
   6   5  -9    2.97    1.08
  -6  -4   9    4.37    1.09
   6   4  -9    5.70    1.24
   6   4  -9    5.55    1.10
  -6  -3   9    7.87    1.20
   6   3  -9   10.24    1.35
   6   3  -9    7.86    1.28
  -6  -2   9    2.39    0.71
  -6  -2   9    3.26    0.89
   6   2  -9    2.86    1.09
  -6  -1   9    0.53    0.73
  -6  -1   9    0.92    0.56
   6   1  -9    0.13    0.96
  -6   0   9   27.73    1.47
  -6   0   9   25.78    1.65
   6   0  -9   28.11    2.05
  -6   1   9   13.72    1.46
  -6   1   9   11.65    1.11
   6  -1  -9   14.84    1.76
  -6   2   9   10.09    1.30
  -6   2   9    9.63    1.06
   6  -2  -9    7.90    1.55
  -6   3   9    1.00    0.88
   6  -3  -9    0.37    1.20
  -6   4   9   -0.03    1.10
   6  -4  -9    0.49    1.27
   6  -5  -9    2.60    1.46
  -5  -9   9   16.23    2.22
   5   9  -9   16.34    1.85
  -5  -8   9    0.15    1.22
   5   8  -9   -0.74    0.84
  -5  -7   9    0.14    1.10
   5   7  -9    0.80    0.87
  -5  -6   9    1.45    1.13
   5   6  -9    1.87    1.02
  -5  -5   9   10.58    1.53
   5   5  -9   11.94    1.29
   5   5  -9   11.50    1.44
  -5  -4   9   59.34    2.55
   5   4  -9   64.18    2.57
   5   4  -9   60.60    2.20
  -5  -3   9   42.75    2.14
   5   3  -9   44.40    2.06
   5   3  -9   38.04    2.08
  -5  -2   9   18.82    1.61
  -5  -2   9   16.32    1.21
   5   2  -9   17.90    1.66
  -5  -1   9   15.10    1.47
   5   1  -9   19.44    1.71
  -5   0   9    1.23    0.78
  -5   0   9    1.43    0.55
   5   0  -9    1.72    1.03
  -5   1   9    1.77    0.57
  -5   1   9    2.40    0.96
   5  -1  -9    0.72    1.11
  -5   2   9   49.11    2.34
   5  -2  -9   47.62    2.63
  -5   3   9   21.11    1.89
   5  -3  -9   21.33    2.19
  -5   4   9   14.38    1.71
   5  -4  -9   13.09    1.98
  -5   5   9    0.42    1.10
   5  -5  -9    0.05    1.40
  -4 -10   9    2.78    1.44
   4  10  -9    1.89    1.00
  -4  -9   9    5.87    1.64
   4   9  -9    4.28    1.16
  -4  -8   9   -0.35    1.14
   4   8  -9   -0.32    0.80
  -4  -7   9   13.31    1.77
   4   7  -9   12.15    1.43
  -4  -6   9    1.96    1.11
   4   6  -9    0.43    0.78
  -4  -5   9   22.15    2.04
   4   5  -9   23.41    1.44
   4   5  -9   25.11    1.72
  -4  -4   9   -0.24    0.82
   4   4  -9    0.45    0.77
   4   4  -9    0.25    0.71
  -4  -3   9   23.26    1.81
   4   3  -9   23.63    1.61
   4   3  -9   21.49    1.63
  -4  -2   9    7.23    0.87
  -4  -2   9    7.11    1.23
   4   2  -9    7.04    1.25
  -4  -1   9   22.20    1.11
  -4  -1   9   21.80    1.80
   4   1  -9   19.27    1.73
  -4   0   9    9.98    1.42
  -4   0   9   10.91    0.84
   4   0  -9    8.56    1.40
  -4   1   9    3.30    0.97
   4  -1  -9    0.46    0.95
  -4   2   9    0.80    0.93
   4  -2  -9    0.71    1.02
  -4   3   9   -0.28    0.92
   4  -3  -9    0.69    1.21
  -4   4   9   10.58    1.59
   4  -4  -9   11.34    1.88
  -4   5   9    5.46    1.51
   4  -5  -9    5.97    1.83
  -3 -11   9    2.49    1.49
  -3 -10   9    7.06    1.75
   3  10  -9    6.81    1.33
  -3  -9   9   18.92    2.21
   3   9  -9   21.06    1.94
  -3  -8   9   27.33    2.42
   3   8  -9   25.77    1.82
  -3  -7   9   10.47    1.69
   3   7  -9   10.66    1.34
  -3  -6   9    9.01    1.49
   3   6  -9    8.05    1.02
   3   6  -9    7.56    1.12
  -3  -5   9    0.96    0.98
   3   5  -9    1.28    0.76
   3   5  -9    1.17    0.78
  -3  -4   9   -1.03    0.76
   3   4  -9   -0.55    0.69
   3   4  -9    0.07    0.61
  -3  -3   9   88.77    3.11
   3   3  -9   94.41    2.52
   3   3  -9   89.20    2.74
  -3  -2   9   35.92    2.14
  -3  -2   9   39.65    1.41
   3   2  -9   38.66    1.99
  -3  -1   9   58.73    2.64
  -3  -1   9   58.55    1.54
   3   1  -9   58.26    2.46
  -3   0   9    3.23    1.08
   3   0  -9    2.38    1.02
  -3   1   9   -0.14    0.89
   3  -1  -9    0.30    0.94
  -3   2   9    1.23    1.02
   3  -2  -9    1.46    1.07
  -3   3   9   12.59    1.81
   3  -3  -9   12.32    1.79
  -3   4   9   15.75    2.01
   3  -4  -9   17.52    2.09
  -3   5   9    4.98    1.59
   3  -5  -9    5.42    1.71
  -2 -11   9   -1.07    1.26
   2  11  -9   -0.27    0.84
  -2 -10   9    4.75    1.54
   2  10  -9    3.11    1.01
  -2  -9   9    0.31    1.18
   2   9  -9    1.48    0.85
  -2  -8   9    9.60    1.65
   2   8  -9   11.35    1.35
  -2  -7   9   12.04    1.65
   2   7  -9   11.93    1.33
  -2  -6   9   65.47    2.93
   2   6  -9   66.66    2.29
   2   6  -9   62.87    1.96
  -2  -5   9   13.33    1.68
   2   5  -9   10.95    1.20
   2   5  -9   10.24    1.11
  -2  -4   9    1.35    0.94
   2   4  -9    0.58    0.72
   2   4  -9    0.21    0.58
  -2  -3   9    2.14    0.96
   2   3  -9    2.60    0.87
   2   3  -9    1.83    0.68
  -2  -2   9   -0.21    0.80
  -2  -2   9   -0.22    0.26
   2   2  -9   -0.07    0.77
  -2  -1   9   33.51    2.18
   2   1  -9   34.39    1.97
  -2   0   9   40.18    2.36
   2   0  -9   38.41    2.13
  -2   1   9   64.41    2.96
   2  -1  -9   56.42    2.62
  -2   2   9   -0.01    1.02
   2  -2  -9   -0.60    0.90
  -2   3   9    0.37    1.20
   2  -3  -9    0.55    1.09
  -2   4   9    5.57    1.62
   2  -4  -9    4.35    1.48
  -2   5   9    4.98    1.64
   2  -5  -9    4.40    1.55
  -1 -11   9    1.45    1.36
   1  11  -9    0.69    0.89
  -1 -10   9    0.37    1.13
   1  10  -9    0.53    0.81
  -1  -9   9    2.34    1.14
   1   9  -9    2.14    0.86
  -1  -8   9   35.24    2.42
   1   8  -9   32.04    1.80
  -1  -7   9    9.71    1.59
   1   7  -9   11.28    0.96
   1   7  -9   11.30    1.27
  -1  -6   9   29.95    2.25
   1   6  -9   29.68    1.55
   1   6  -9   30.81    1.47
  -1  -5   9    0.01    0.89
   1   5  -9   -0.08    0.53
   1   5  -9    1.77    0.71
  -1  -4   9    7.06    1.34
   1   4  -9    7.40    1.06
   1   4  -9    5.85    0.78
  -1  -3   9   -0.17    0.85
   1   3  -9   -0.45    0.50
   1   3  -9    1.04    0.76
  -1  -2   9   33.71    2.11
   1   2  -9   31.91    1.82
  -1  -1   9   18.55    1.89
   1   1  -9   15.28    1.57
  -1   0   9   14.52    1.74
   1   0  -9   15.23    1.71
  -1   1   9    2.02    1.10
   1  -1  -9    3.09    1.09
  -1   2   9    1.11    1.13
   1  -2  -9    2.50    1.20
  -1   3   9    7.37    1.59
   1  -3  -9    7.78    1.53
  -1   4   9    1.23    1.53
   1  -4  -9    3.41    1.37
   0 -12   9    5.25    1.76
   0  12  -9    0.74    0.98
   0 -11   9   23.69    2.55
   0 -10   9    1.97    1.19
   0  10  -9    1.13    0.81
   0  -9   9    0.70    1.07
   0   9  -9    0.37    0.75
   0  -8   9    7.29    1.44
   0   8  -9    4.82    0.97
   0  -7   9    1.21    1.14
   0   7  -9    0.95    0.56
   0   7  -9    0.59    0.68
   0  -6   9   33.94    2.36
   0   6  -9   33.18    1.53
   0   6  -9   32.46    1.54
   0  -5   9   56.61    2.71
   0   5  -9   54.91    2.05
   0   5  -9   56.87    1.74
   0  -4   9   69.25    2.85
   0   4  -9   62.38    1.65
   0   4  -9   65.40    2.32
   0  -3   9   -0.37    0.80
   0   3  -9    0.81    0.77
   0  -2   9    0.63    0.86
   0   2  -9   -0.15    0.74
   0  -1   9    8.69    1.48
   0   1  -9    9.83    1.38
   0   0   9   24.34    2.19
   0   0  -9   23.47    1.80
   0   1   9   15.48    1.92
   0  -1  -9   14.21    1.68
   0   2   9   32.48    2.69
   0  -2  -9   33.71    2.33
   0   3   9    0.33    1.25
   0  -3  -9    1.96    1.17
   0   4   9    0.45    1.44
   0  -4  -9    0.90    1.16
   1 -12   9   -0.66    1.36
  -1  12  -9   -0.15    0.87
   1 -11   9    3.21    1.42
  -1  11  -9    2.97    1.06
   1 -10   9    1.54    1.18
  -1  10  -9    1.26    0.87
   1  -9   9   12.40    1.79
  -1   9  -9   11.14    1.35
   1  -8   9    0.84    1.06
  -1   8  -9   -0.46    0.59
   1  -7   9   15.80    1.83
  -1   7  -9   13.21    1.22
  -1   7  -9   14.99    1.17
   1  -6   9    0.36    0.99
  -1   6  -9    1.49    0.70
  -1   6  -9    0.12    0.56
   1  -5   9    7.05    1.40
  -1   5  -9    8.09    1.14
  -1   5  -9    5.78    0.71
   1  -4   9    6.17    1.27
  -1   4  -9    5.56    1.06
   1  -3   9   23.26    1.92
  -1   3  -9   22.31    1.66
   1  -2   9   19.81    1.91
  -1   2  -9   18.51    1.66
   1  -1   9    2.01    1.05
  -1   1  -9    4.70    1.17
   1   0   9    0.07    1.04
  -1   0  -9    1.53    0.99
   1   1   9   -0.25    1.02
  -1  -1  -9    0.32    0.94
   1   2   9    4.06    1.49
  -1  -2  -9    5.49    1.31
   1   3   9    3.66    1.50
  -1  -3  -9    2.73    1.23
   2 -12   9    1.17    1.62
  -2  12  -9    0.60    0.99
   2 -11   9    4.07    1.55
  -2  11  -9    6.96    1.29
   2 -10   9   13.50    1.98
  -2  10  -9   16.47    1.66
   2  -9   9   10.82    1.75
  -2   9  -9    9.39    1.28
   2  -8   9    1.81    1.14
  -2   8  -9    1.89    0.78
  -2   8  -9    2.84    0.70
   2  -7   9    0.19    0.96
  -2   7  -9    0.78    0.64
  -2   7  -9    0.10    0.63
   2  -6   9    3.97    1.23
  -2   6  -9    3.31    0.71
  -2   6  -9    3.83    0.91
   2  -5   9   23.04    2.02
  -2   5  -9   27.16    1.75
   2  -4   9    8.15    1.42
  -2   4  -9    8.77    1.32
   2  -3   9   44.97    2.52
  -2   3  -9   39.33    2.14
   2  -2   9   -1.45    0.89
  -2   2  -9    0.39    0.84
   2  -1   9    1.40    1.09
  -2   1  -9    1.62    1.00
   2   0   9   -0.19    1.05
  -2   0  -9    2.66    1.10
   2   1   9    2.72    1.39
  -2  -1  -9    4.81    1.29
   2   2   9    5.51    1.65
  -2  -2  -9    4.56    1.35
   2   3   9    3.11    1.51
  -2  -3  -9    3.80    1.31
   3 -12   9    2.78    1.74
  -3  12  -9    1.29    0.96
   3 -11   9    5.32    1.66
  -3  11  -9    2.68    1.00
   3 -10   9    0.78    1.36
  -3  10  -9   -0.05    0.81
   3  -9   9    0.58    1.17
  -3   9  -9   -0.17    0.72
   3  -8   9   32.94    2.40
  -3   8  -9   29.96    1.62
  -3   8  -9   28.93    1.68
   3  -7   9   10.26    1.64
  -3   7  -9    9.86    1.23
  -3   7  -9    8.32    1.04
   3  -6   9    0.22    0.95
  -3   6  -9    0.93    0.80
   3  -5   9    1.68    1.01
  -3   5  -9    0.87    0.86
   3  -4   9    3.68    1.16
  -3   4  -9    4.81    1.16
   3  -3   9    4.84    1.28
  -3   3  -9    1.54    0.88
   3  -2   9    7.85    1.46
  -3   2  -9    6.16    1.29
   3  -1   9   29.49    2.51
  -3   1  -9   29.62    2.18
   3   0   9    1.53    1.26
  -3   0  -9    3.21    1.18
   3   1   9   -0.19    1.34
  -3  -1  -9    2.76    1.24
   3   2   9    1.92    1.50
  -3  -2  -9    4.20    1.41
   4 -12   9    0.17    1.56
  -4  12  -9   -0.90    0.85
   4 -11   9   -1.54    1.38
  -4  11  -9   -1.02    0.75
   4 -10   9    4.62    1.56
  -4  10  -9    5.68    1.08
   4  -9   9    0.56    1.12
  -4   9  -9    0.63    0.66
  -4   9  -9    1.40    0.82
   4  -8   9    8.30    1.51
  -4   8  -9    6.53    0.96
  -4   8  -9    8.68    1.22
   4  -7   9    1.24    1.12
  -4   7  -9    0.04    0.73
   4  -6   9    3.50    1.24
  -4   6  -9    3.79    1.04
   4  -5   9   -1.16    0.87
  -4   5  -9   -0.27    0.83
   4  -4   9    5.24    1.35
  -4   4  -9    5.68    1.26
   4  -3   9    0.81    1.16
  -4   3  -9    1.42    0.96
   4  -2   9    2.69    1.23
  -4   2  -9    1.79    1.03
   4  -1   9    0.08    1.20
  -4   1  -9    2.41    1.13
   4   0   9    1.96    1.33
  -4   0  -9    0.25    0.98
   4   1   9    4.70    1.59
  -4  -1  -9    2.50    1.23
   5 -12   9    1.16    1.61
  -5  12  -9    2.03    1.02
   5 -11   9    0.26    1.42
  -5  11  -9   -0.28    0.77
   5 -10   9    3.31    1.50
  -5  10  -9    1.45    0.86
   5  -9   9    2.99    1.32
  -5   9  -9    2.53    0.88
  -5   9  -9    1.61    0.82
   5  -8   9   -0.75    1.15
  -5   8  -9    2.67    0.99
   5  -7   9    6.92    1.50
  -5   7  -9    7.57    1.28
   5  -6   9   19.36    2.02
  -5   6  -9   20.50    1.79
   5  -5   9   -1.04    1.05
  -5   5  -9    0.59    0.91
   5  -4   9    1.12    1.17
  -5   4  -9    0.42    0.95
   5  -3   9    6.36    1.50
  -5   3  -9    6.30    1.41
   5  -2   9   -0.05    1.20
  -5   2  -9    1.02    1.02
   5  -1   9    2.55    1.39
  -5   1  -9    0.29    1.11
   5   0   9    8.24    1.87
  -5   0  -9    7.10    1.49
   6 -11   9    2.21    1.53
  -6  11  -9    0.84    0.92
   6 -10   9    0.44    1.23
  -6  10  -9   -0.32    0.81
   6  -9   9    3.81    1.48
  -6   9  -9    3.74    1.05
   6  -8   9   -1.82    0.95
  -6   8  -9    1.14    0.90
   6  -7   9   -1.57    1.02
  -6   7  -9   -1.26    0.74
   6  -6   9    1.10    1.16
  -6   6  -9    1.36    0.87
   6  -5   9    1.63    1.27
  -6   5  -9    4.20    1.22
   6  -4   9    5.20    1.53
  -6   4  -9    4.96    1.33
   6  -3   9   -0.29    1.16
  -6   3  -9    2.45    1.20
   6  -2   9   -0.31    1.33
  -6   2  -9    1.41    1.14
   6  -1   9    0.55    1.38
  -6   1  -9    1.25    1.12
   7 -11   9    3.59    1.58
  -7  11  -9    3.42    1.12
   7 -10   9   -0.60    1.27
  -7  10  -9   -0.11    0.74
  -7   9  -9    0.32    0.84
   7  -8   9    0.66    1.25
  -7   8  -9    2.09    1.03
   7  -7   9   -0.34    1.13
  -7   7  -9   -0.15    0.85
   7  -6   9    0.78    1.24
  -7   6  -9    0.54    0.97
   7  -5   9    5.59    1.51
  -7   5  -9    7.06    1.41
   7  -4   9   -1.69    1.17
  -7   4  -9   -1.15    0.90
   7  -3   9    0.92    1.32
  -7   3  -9    0.56    1.04
   8  -9   9    1.84    1.34
  -8   9  -9    0.73    0.93
   8  -8   9    1.26    1.18
  -8   8  -9    2.66    1.08
   8  -7   9   -0.66    1.18
  -8   7  -9    0.29    0.98
   8  -6   9    1.87    1.29
  -8   6  -9    0.65    0.89
   8  -5   9   -0.20    1.19
  -8   5  -9    1.21    1.07
 -10  -3  10    1.03    0.87
  10   3 -10    0.19    1.12
 -10  -2  10    3.12    1.00
  10   2 -10    3.35    1.37
 -10  -1  10    0.82    0.78
  10   1 -10   -0.06    1.17
 -10   0  10    1.09    0.82
  10   0 -10    0.59    1.29
 -10   1  10   22.52    1.78
  10  -1 -10   22.86    2.32
 -10   2  10   13.89    1.52
  10  -2 -10   14.46    2.08
   9   5 -10    0.36    1.31
  -9  -4  10    2.46    0.97
  -9  -3  10    1.49    0.81
   9   3 -10    0.83    1.18
  -9  -2  10    0.91    0.76
   9   2 -10    2.00    1.22
  -9  -1  10    7.44    1.17
   9   1 -10    8.27    1.60
  -9   0  10    1.93    0.85
   9   0 -10    1.97    1.38
  -9   1  10    3.92    0.91
   9  -1 -10    4.06    1.45
  -9   2  10    1.95    0.84
   9  -2 -10   -1.69    1.24
  -9   3  10    9.95    1.30
   9  -3 -10    9.64    1.92
   8   6 -10    2.41    1.38
   8   5 -10    2.38    1.40
   8   4 -10   29.84    1.96
  -8  -3  10   20.94    1.64
   8   3 -10   20.95    1.90
  -8  -2  10    9.03    1.22
   8   2 -10   11.88    1.68
  -8  -1  10    4.73    0.99
   8   1 -10    6.49    1.48
  -8   0  10    2.03    0.78
   8   0 -10    0.47    1.21
  -8   1  10    1.38    0.72
   8  -1 -10    1.07    1.30
  -8   2  10   14.27    1.40
   8  -2 -10    8.25    1.82
   8  -3 -10   18.65    2.32
   8  -4 -10    9.55    2.00
  -7  -7  10    4.10    1.52
   7   7 -10   11.10    1.78
  -7  -6  10    2.89    1.32
   7   6 -10    3.56    1.38
  -7  -5  10   -0.82    0.89
   7   5 -10    0.01    1.05
  -7  -4  10   -0.40    0.83
   7   4 -10    0.60    0.90
   7   4 -10    1.40    1.06
  -7  -3  10    0.26    0.65
  -7  -3  10   -0.89    0.74
   7   3 -10    0.31    0.94
  -7  -2  10   26.23    1.64
  -7  -2  10   28.26    1.91
   7   2 -10   21.57    1.86
  -7  -1  10   13.31    1.31
   7   1 -10   15.27    1.86
  -7   0  10   24.35    1.58
   7   0 -10   24.20    2.28
  -7   1  10    0.99    0.63
   7  -1 -10    1.64    1.28
   7  -2 -10    0.72    1.27
   7  -3 -10   -0.03    1.29
   7  -4 -10    6.87    1.75
  -6  -8  10    3.77    1.66
   6   8 -10    6.19    1.44
  -6  -7  10    7.69    1.65
   6   7 -10    7.64    1.50
  -6  -6  10   -1.25    1.06
   6   6 -10    0.59    0.94
  -6  -5  10   -0.19    0.95
   6   5 -10    0.09    0.76
   6   5 -10   -0.66    0.85
  -6  -4  10   -0.09    0.83
   6   4 -10   -0.02    0.92
   6   4 -10    0.41    0.89
  -6  -3  10   22.53    1.90
  -6  -3  10   24.41    1.60
   6   3 -10   22.66    1.81
  -6  -2  10   23.73    1.85
  -6  -2  10   26.94    1.57
   6   2 -10   28.23    2.05
  -6  -1  10   18.28    1.29
  -6  -1  10   16.96    1.67
   6   1 -10   21.46    2.12
  -6   0  10    4.20    0.76
  -6   0  10    3.27    0.95
   6   0 -10    3.43    1.29
  -6   1  10    0.60    0.85
   6  -1 -10    1.40    1.16
  -6   2  10    5.07    1.12
   6  -2 -10    6.06    1.55
  -6   3  10    1.70    1.19
   6  -3 -10    1.29    1.37
   6  -4 -10    8.73    1.82
  -5  -9  10   -0.51    1.47
   5   9 -10    0.19    0.98
  -5  -8  10    0.98    1.38
   5   8 -10    3.45    1.20
  -5  -7  10   25.12    2.51
   5   7 -10   28.47    2.08
  -5  -6  10   21.26    2.18
   5   6 -10   20.65    1.95
  -5  -5  10   23.61    2.13
   5   5 -10   24.32    1.81
   5   5 -10   26.61    1.66
  -5  -4  10    1.88    1.02
   5   4 -10    1.56    0.94
   5   4 -10    1.84    0.95
  -5  -3  10    0.19    0.83
   5   3 -10    1.02    1.02
  -5  -2  10    2.26    0.97
  -5  -2  10    3.05    0.71
   5   2 -10    2.67    1.07
  -5  -1  10   34.27    1.52
  -5  -1  10   34.34    2.12
   5   1 -10   39.05    2.29
  -5   0  10   43.34    2.27
   5   0 -10   44.70    2.54
  -5   1  10   39.41    2.30
   5  -1 -10   39.74    2.58
  -5   2  10    1.71    1.01
   5  -2 -10   -0.15    1.15
  -5   3  10    0.16    0.96
   5  -3 -10    0.34    1.36
  -5   4  10    0.32    1.06
   5  -4 -10    1.21    1.47
  -4 -10  10    2.61    1.66
   4  10 -10    2.60    1.19
  -4  -9  10   -1.78    1.16
   4   9 -10    1.40    0.94
  -4  -8  10    6.52    1.67
   4   8 -10    8.57    1.39
  -4  -7  10    1.59    1.30
   4   7 -10    1.89    0.95
  -4  -6  10    8.24    1.62
   4   6 -10    9.09    1.36
   4   6 -10    9.15    1.39
  -4  -5  10    5.96    1.38
   4   5 -10    4.68    1.03
   4   5 -10    4.79    1.06
  -4  -4  10    9.18    1.43
   4   4 -10    8.01    1.27
   4   4 -10    7.69    1.20
  -4  -3  10   18.97    1.81
   4   3 -10   19.50    1.76
  -4  -2  10    4.76    1.16
  -4  -2  10    5.10    0.73
   4   2 -10    4.66    1.15
  -4  -1  10    5.47    1.22
   4   1 -10    4.30    1.18
  -4   0  10    0.39    0.88
   4   0 -10   -0.88    0.89
  -4   1  10   15.51    1.80
   4  -1 -10   14.66    1.82
  -4   2  10    3.56    1.22
   4  -2 -10    6.77    1.53
  -4   3  10   15.19    1.90
   4  -3 -10   12.55    1.97
  -4   4  10    1.40    1.22
   4  -4 -10    2.32    1.51
  -3 -10  10    5.77    1.71
   3  10 -10    1.48    1.00
  -3  -9  10    4.08    1.61
   3   9 -10    2.33    1.00
  -3  -8  10    0.31    1.21
   3   8 -10    0.32    0.79
  -3  -7  10   -0.14    1.13
   3   7 -10    0.69    0.80
  -3  -6  10   34.42    2.43
   3   6 -10   32.70    1.93
   3   6 -10   35.60    1.65
  -3  -5  10   34.31    2.25
   3   5 -10   32.75    1.76
   3   5 -10   36.62    1.88
  -3  -4  10   45.05    2.48
   3   4 -10   46.80    1.96
   3   4 -10   47.56    2.08
  -3  -3  10   -0.06    0.86
   3   3 -10    1.70    0.95
  -3  -2  10    0.43    0.87
   3   2 -10    1.30    0.99
  -3  -1  10   -0.45    0.82
   3   1 -10   -0.29    0.87
  -3   0  10    3.63    1.19
   3   0 -10    4.06    1.27
  -3   1  10   29.57    2.30
   3  -1 -10   27.85    2.21
  -3   2  10   15.64    1.90
   3  -2 -10   14.14    1.89
  -3   3  10    4.92    1.45
   3  -3 -10    9.16    1.84
  -3   4  10    1.92    1.36
   3  -4 -10    0.02    1.34
  -2 -11  10    1.06    1.44
   2  11 -10   -1.83    0.75
  -2 -10  10    3.23    1.50
   2  10 -10    1.55    0.94
  -2  -9  10   14.78    2.07
   2   9 -10   15.64    1.65
  -2  -8  10    9.52    1.74
   2   8 -10    8.99    1.32
  -2  -7  10   -0.77    1.12
   2   7 -10   -1.10    0.61
  -2  -6  10    1.17    1.10
   2   6 -10   -0.22    0.63
   2   6 -10   -0.27    0.67
  -2  -5  10    0.76    1.01
   2   5 -10    3.03    0.90
   2   5 -10    2.41    0.77
  -2  -4  10   22.05    2.09
   2   4 -10   23.41    1.42
   2   4 -10   25.65    1.66
  -2  -3  10   19.98    2.00
   2   3 -10   18.08    1.55
  -2  -2  10   45.84    2.53
   2   2 -10   47.07    2.27
  -2  -1  10   -0.54    0.93
   2   1 -10    1.33    0.93
  -2   0  10    2.59    1.16
   2   0 -10    2.27    1.10
  -2   1  10    2.98    1.26
   2  -1 -10    2.87    1.17
  -2   2  10    2.28    1.31
   2  -2 -10    3.20    1.26
  -2   3  10    7.27    1.68
   2  -3 -10    5.79    1.55
  -2   4  10   14.10    2.22
   2  -4 -10   14.02    2.06
  -1 -11  10    8.71    1.96
   1  11 -10    9.25    1.39
  -1 -10  10    1.68    1.46
   1  10 -10    2.87    1.01
  -1  -9  10    8.09    1.67
   1   9 -10    7.81    1.23
  -1  -8  10    0.19    1.14
   1   8 -10    0.29    0.70
  -1  -7  10    1.56    1.10
   1   7 -10    0.87    0.68
   1   7 -10    2.07    0.69
  -1  -6  10    1.45    1.02
   1   6 -10   -0.17    0.60
   1   6 -10    0.68    0.69
  -1  -5  10    8.00    1.43
   1   5 -10    7.81    1.12
   1   5 -10    8.59    0.99
  -1  -4  10    9.98    1.50
   1   4 -10   10.62    1.28
  -1  -3  10    8.62    1.43
   1   3 -10   11.23    1.42
  -1  -2  10    8.15    1.44
   1   2 -10    7.16    1.27
  -1  -1  10    0.54    1.02
   1   1 -10    1.09    0.87
  -1   0  10    3.22    1.28
   1   0 -10    5.19    1.17
  -1   1  10    1.82    1.26
   1  -1 -10   -0.64    0.94
  -1   2  10    5.63    1.59
   1  -2 -10    6.68    1.50
  -1   3  10    1.40    1.45
   1  -3 -10    1.55    1.18
   0 -11  10    0.85    1.48
   0  11 -10    3.07    1.09
   0 -10  10   -1.36    1.07
   0  10 -10   -0.14    0.78
   0  -9  10    8.49    1.66
   0   9 -10    5.00    1.07
   0  -8  10   14.80    2.00
   0   8 -10   14.95    1.42
   0  -7  10   36.28    2.55
   0   7 -10   35.25    1.72
   0   7 -10   34.78    1.59
   0  -6  10   -1.01    0.92
   0   6 -10   -0.42    0.53
   0   6 -10    1.69    0.75
   0  -5  10    0.89    1.06
   0   5 -10    0.20    0.70
   0  -4  10   16.50    1.85
   0   4 -10   18.86    1.56
   0  -3  10    7.93    1.42
   0   3 -10    4.64    1.09
   0  -2  10   13.65    1.84
   0   2 -10    9.83    1.37
   0  -1  10   30.43    2.38
   0   1 -10   34.12    2.09
   0   0  10    3.82    1.43
   0   0 -10    4.73    1.24
   0   1  10   -0.22    1.10
   0  -1 -10    0.14    0.96
   0   2  10    0.21    1.24
   0  -2 -10    1.41    1.13
   0   3  10   -0.79    1.26
   0  -3 -10   -1.71    1.13
   1 -12  10    2.10    1.61
  -1  12 -10    0.79    0.90
   1 -11  10    2.26    1.50
  -1  11 -10   -1.24    0.76
   1 -10  10    1.07    1.29
  -1  10 -10    1.72    0.96
   1  -9  10   -0.16    1.26
  -1   9 -10   -0.43    0.71
   1  -8  10   -0.25    1.15
  -1   8 -10    1.73    0.72
  -1   8 -10    1.09    0.70
   1  -7  10   -1.05    0.93
  -1   7 -10    1.10    0.68
  -1   7 -10   -0.78    0.55
   1  -6  10    3.42    1.27
  -1   6 -10    3.26    0.86
   1  -5  10    9.83    1.54
  -1   5 -10   11.55    1.40
   1  -4  10    2.44    1.08
  -1   4 -10    1.34    0.87
   1  -3  10    1.82    1.13
  -1   3 -10    0.86    0.93
   1  -2  10    2.44    1.17
  -1   2 -10    1.82    0.99
   1  -1  10    2.16    1.18
  -1   1 -10    1.97    1.00
   1   0  10   -0.41    1.02
  -1   0 -10    0.86    0.97
   1   1  10    7.82    1.67
  -1  -1 -10   10.65    1.61
   1   2  10    3.06    1.50
  -1  -2 -10    3.79    1.33
   2 -12  10    4.89    1.88
  -2  12 -10    6.72    1.32
   2 -11  10    0.18    1.48
  -2  11 -10    0.01    0.78
   2 -10  10    0.73    1.47
  -2  10 -10    0.97    0.84
   2  -9  10    6.17    1.54
  -2   9 -10    5.99    1.06
   2  -8  10    4.45    1.36
  -2   8 -10    3.47    0.84
  -2   8 -10    7.03    1.06
   2  -7  10    6.01    1.41
  -2   7 -10    8.80    1.20
   2  -6  10   30.19    2.29
  -2   6 -10   27.00    1.78
   2  -5  10   -0.08    0.90
  -2   5 -10    0.99    0.85
   2  -4  10   -0.45    0.86
  -2   4 -10    0.60    0.90
   2  -3  10    1.34    1.07
  -2   3 -10    2.56    1.04
   2  -2  10   -0.68    0.95
  -2   2 -10    0.68    0.96
   2  -1  10    4.02    1.43
  -2   1 -10    4.33    1.30
   2   0  10    1.34    1.29
  -2   0 -10    5.86    1.40
   2   1  10    4.99    1.67
  -2  -1 -10    5.40    1.48
   3 -12  10    0.14    1.62
  -3  12 -10    1.44    0.96
   3 -11  10    3.37    1.67
  -3  11 -10    2.19    1.00
   3 -10  10    8.26    1.85
  -3  10 -10    4.61    1.08
   3  -9  10   -0.72    1.16
  -3   9 -10    3.05    0.87
   3  -8  10    0.95    1.12
  -3   8 -10    0.83    0.73
   3  -7  10    7.99    1.59
  -3   7 -10    6.27    1.16
   3  -6  10   -1.72    0.89
  -3   6 -10   -0.58    0.77
   3  -5  10    1.70    1.10
  -3   5 -10    1.76    1.02
   3  -4  10   22.53    2.26
  -3   4 -10   21.06    1.87
   3  -3  10    0.97    1.10
  -3   3 -10    2.25    1.08
   3  -2  10    1.56    1.27
  -3   2 -10    1.53    1.00
   3  -1  10    4.90    1.50
  -3   1 -10    6.03    1.41
   3   0  10   -0.66    1.19
  -3   0 -10    1.82    1.19
   3   1  10    1.32    1.46
  -3  -1 -10   -0.53    1.11
   4 -12  10   -0.68    1.55
  -4  12 -10    1.32    0.97
   4 -11  10    4.76    1.85
  -4  11 -10    4.51    1.16
   4 -10  10   -0.54    1.33
  -4  10 -10   -0.16    0.85
   4  -9  10    0.53    1.29
  -4   9 -10    1.43    0.77
   4  -8  10    0.01    1.24
  -4   8 -10    1.68    0.87
   4  -7  10    2.17    1.28
  -4   7 -10    0.10    0.83
   4  -6  10    1.75    1.11
  -4   6 -10    1.06    0.88
   4  -5  10    0.57    1.20
  -4   5 -10    1.79    1.08
   4  -4  10    1.94    1.24
  -4   4 -10    1.15    0.97
   4  -3  10   -1.21    1.07
  -4   3 -10    0.82    1.07
   4  -2  10   -0.56    1.16
  -4   2 -10    0.96    1.14
   4  -1  10   -1.62    1.22
  -4   1 -10    1.36    1.18
   4   0  10    1.23    1.52
  -4   0 -10    3.20    1.34
   5 -11  10    0.38    1.44
  -5  11 -10   -0.32    0.79
   5 -10  10    0.89    1.48
   5  -9  10   17.42    2.27
  -5   9 -10   11.70    1.48
   5  -8  10    1.00    1.28
  -5   8 -10    2.47    0.98
   5  -7  10   -0.28    1.16
  -5   7 -10    0.75    0.89
   5  -6  10    6.42    1.61
  -5   6 -10    4.59    1.22
   5  -5  10   -1.03    1.09
  -5   5 -10    0.77    1.03
   5  -4  10    0.45    1.17
  -5   4 -10    0.93    1.05
   5  -3  10    8.75    1.80
  -5   3 -10    7.91    1.59
   5  -2  10    2.26    1.59
  -5   2 -10    2.79    1.27
   5  -1  10   -0.15    1.41
  -5   1 -10    0.56    1.10
   6 -11  10   -0.94    1.37
   6 -10  10    0.30    1.38
   6  -9  10   -3.95    1.13
  -6   9 -10    1.47    0.97
   6  -8  10   -1.45    1.23
  -6   8 -10    1.78    0.99
   6  -7  10    3.47    1.51
  -6   7 -10    1.50    1.02
   6  -6  10    0.60    1.30
  -6   6 -10    1.67    1.08
   6  -5  10    0.86    1.35
  -6   5 -10    1.11    1.02
   6  -4  10   -0.28    1.34
  -6   4 -10   -0.33    0.99
   6  -3  10   -0.49    1.29
  -6   3 -10    1.00    1.12
   7  -9  10    0.05    1.31
  -7   9 -10    1.37    1.01
   7  -8  10    4.72    1.58
  -7   8 -10    4.25    1.20
   7  -7  10   -0.22    1.24
  -7   7 -10    0.65    0.98
   7  -6  10    0.16    1.29
  -7   6 -10    0.95    1.05
   7  -5  10   -0.59    1.29
  -7   5 -10    0.07    0.94
  -9  -4  11    2.73    0.97
  -9  -3  11    3.40    0.94
   9   3 -11    2.40    1.28
  -9  -2  11    6.82    1.18
   9   2 -11    5.90    1.50
  -9  -1  11    2.96    0.96
   9   1 -11    1.44    1.31
  -9   0  11    6.92    1.16
   9   0 -11    6.30    1.66
  -9   1  11    2.60    0.91
   9  -1 -11   -0.79    1.37
   8   6 -11    9.36    1.91
   8   5 -11    9.16    1.79
  -8  -4  11    1.06    0.76
   8   4 -11   -1.03    1.01
  -8  -3  11    0.48    0.69
   8   3 -11    0.07    1.00
  -8  -2  11    0.40    0.64
   8   2 -11   -0.20    1.10
  -8  -1  11    7.28    1.13
   8   1 -11    5.10    1.53
  -8   0  11   27.62    1.73
   8   0 -11   26.20    2.37
   8  -1 -11   13.08    2.03
   8  -2 -11    3.89    1.64
  -7  -7  11   -0.58    1.36
   7   7 -11    0.41    1.25
  -7  -6  11   -0.78    1.10
   7   6 -11   -0.38    1.11
  -7  -5  11   15.21    1.80
   7   5 -11   16.31    1.95
  -7  -4  11    7.30    1.34
   7   4 -11    7.53    1.39
  -7  -3  11   15.01    1.45
  -7  -3  11   11.52    1.52
   7   3 -11   17.09    1.84
  -7  -2  11    1.25    0.66
   7   2 -11    0.91    1.17
  -7  -1  11    1.80    0.75
   7   1 -11    0.87    1.21
   7   0 -11    1.81    1.35
   7  -1 -11    9.05    1.86
   7  -2 -11   17.29    2.32
   7  -3 -11   13.38    2.18
  -6  -8  11   -2.90    1.24
   6   8 -11    0.17    1.14
  -6  -7  11    1.07    1.44
   6   7 -11   -0.73    1.00
  -6  -6  11    8.55    1.66
   6   6 -11    9.37    1.57
  -6  -5  11   12.02    1.73
   6   5 -11   10.16    1.54
   6   5 -11   13.21    1.56
  -6  -4  11    9.75    1.49
   6   4 -11   13.51    1.66
  -6  -3  11    6.02    1.01
  -6  -3  11    4.90    1.18
   6   3 -11    7.49    1.42
  -6  -2  11    0.19    0.86
  -6  -2  11    0.30    0.57
   6   2 -11    0.23    1.16
  -6  -1  11    2.39    1.03
   6   1 -11    3.30    1.33
  -6   0  11    2.32    0.96
   6   0 -11    1.50    1.31
  -6   1  11   11.81    1.53
   6  -1 -11   20.11    2.29
  -6   2  11    2.42    1.47
   6  -2 -11    3.32    1.61
   6  -3 -11    7.59    1.82
  -5  -9  11    7.56    1.98
   5   9 -11    7.32    1.50
  -5  -8  11   12.88    2.15
   5   8 -11   10.84    1.64
  -5  -7  11   -1.74    1.24
   5   7 -11   -0.18    0.94
  -5  -6  11   -0.88    1.13
   5   6 -11    0.76    0.85
  -5  -5  11    3.91    1.27
   5   5 -11    3.84    1.06
   5   5 -11    3.97    1.11
  -5  -4  11   11.66    1.66
   5   4 -11   13.27    1.60
   5   4 -11   13.35    1.50
  -5  -3  11   24.81    1.47
  -5  -3  11   27.55    2.14
   5   3 -11   25.16    1.99
  -5  -2  11   32.79    2.22
   5   2 -11   32.76    2.25
  -5  -1  11    5.26    1.24
   5   1 -11    7.00    1.54
  -5   0  11    1.61    1.03
   5   0 -11    3.83    1.41
  -5   1  11   -0.17    0.98
   5  -1 -11   -0.07    1.27
  -5   2  11    0.78    0.99
   5  -2 -11   -0.91    1.40
  -5   3  11   10.53    1.68
   5  -3 -11   10.15    1.98
  -4  -9  11    0.43    1.56
   4   9 -11   -0.53    0.96
  -4  -8  11    0.03    1.37
   4   8 -11    1.80    1.01
  -4  -7  11    3.01    1.54
   4   7 -11    0.34    0.92
  -4  -6  11    3.82    1.40
   4   6 -11    5.68    1.16
   4   6 -11    4.57    1.14
  -4  -5  11    0.77    1.07
   4   5 -11    1.33    0.86
   4   5 -11    1.79    0.98
  -4  -4  11    8.15    1.54
   4   4 -11    8.22    1.20
   4   4 -11    6.77    1.37
  -4  -3  11    0.19    0.95
   4   3 -11   -0.92    0.89
  -4  -2  11   11.10    1.65
   4   2 -11    8.35    1.51
  -4  -1  11    1.01    1.06
   4   1 -11    1.17    1.11
  -4   0  11   11.67    1.68
   4   0 -11   13.42    1.77
  -4   1  11    2.42    1.23
   4  -1 -11    3.32    1.35
  -4   2  11    2.33    1.25
   4  -2 -11    0.99    1.27
  -4   3  11    0.02    1.13
   4  -3 -11    0.82    1.41
  -3 -10  11    1.97    1.72
   3  10 -11    3.10    1.11
  -3  -9  11    4.85    1.71
   3   9 -11    3.75    1.16
  -3  -8  11   13.47    2.14
   3   8 -11    9.37    1.39
  -3  -7  11   19.46    2.28
   3   7 -11   26.43    1.89
  -3  -6  11   -0.01    1.08
   3   6 -11   -0.28    0.71
   3   6 -11    1.10    0.84
  -3  -5  11    0.81    1.11
   3   5 -11    4.65    1.08
   3   5 -11    3.21    0.86
  -3  -4  11    3.21    1.21
   3   4 -11    5.41    1.17
  -3  -3  11    0.92    1.04
   3   3 -11    0.39    0.90
  -3  -2  11   14.09    1.79
   3   2 -11   17.48    1.87
  -3  -1  11   13.44    1.86
   3   1 -11   13.06    1.75
  -3   0  11    9.36    1.65
   3   0 -11   11.93    1.80
  -3   1  11   -0.15    1.12
   3  -1 -11    0.68    1.13
  -3   2  11    1.76    1.35
   3  -2 -11    1.83    1.39
  -3   3  11   -0.11    1.19
   3  -3 -11   -1.33    1.29
  -2 -10  11    1.11    1.51
   2  10 -11   -0.79    0.80
  -2  -9  11   -2.61    1.17
   2   9 -11   -0.66    0.78
  -2  -8  11    2.39    1.42
   2   8 -11    3.30    1.06
  -2  -7  11    4.13    1.44
   2   7 -11    4.09    0.94
  -2  -6  11    4.39    1.34
   2   6 -11    5.50    1.10
   2   6 -11    4.17    0.94
  -2  -5  11   26.38    2.38
   2   5 -11   28.05    1.74
  -2  -4  11   -1.08    0.92
   2   4 -11    0.76    0.87
  -2  -3  11    0.42    1.02
   2   3 -11    0.68    0.86
  -2  -2  11    8.83    1.57
   2   2 -11    6.54    1.27
  -2  -1  11   -0.53    1.01
   2   1 -11   -0.58    0.92
  -2   0  11    3.92    1.40
   2   0 -11    3.83    1.22
  -2   1  11   12.24    1.92
   2  -1 -11   11.96    1.73
  -2   2  11    8.37    1.82
   2  -2 -11    8.24    1.71
  -1 -11  11   -0.81    1.44
   1  11 -11    0.11    0.85
  -1 -10  11   -0.50    1.36
   1  10 -11    0.67    0.82
  -1  -9  11    1.37    1.46
   1   9 -11    0.23    0.81
  -1  -8  11    3.07    1.41
   1   8 -11    1.34    0.83
  -1  -7  11    3.50    1.34
   1   7 -11    5.15    0.99
   1   7 -11    6.55    1.01
  -1  -6  11    5.62    1.45
   1   6 -11    6.74    1.11
  -1  -5  11    3.78    1.29
   1   5 -11    3.18    1.03
  -1  -4  11    0.91    1.07
   1   4 -11    0.11    0.81
  -1  -3  11    1.18    1.04
   1   3 -11    0.19    0.85
  -1  -2  11   -0.55    1.00
   1   2 -11    0.47    0.93
  -1  -1  11    5.22    1.39
   1   1 -11    6.34    1.30
  -1   0  11    0.35    1.20
   1   0 -11    2.66    1.24
  -1   1  11    2.74    1.42
   1  -1 -11    1.35    1.20
  -1   2  11   -0.88    1.19
   1  -2 -11    0.94    1.23
   0 -11  11    2.73    1.71
   0  11 -11    3.61    1.16
   0 -10  11   14.65    2.26
   0  10 -11   13.64    1.56
   0  -9  11    0.20    1.26
   0   9 -11    1.38    0.83
   0  -8  11   -0.71    1.11
   0   8 -11    0.91    0.69
   0  -7  11   11.62    1.82
   0   7 -11   15.41    1.27
   0  -6  11    0.41    1.12
   0   6 -11    0.03    0.71
   0  -5  11    6.79    1.48
   0   5 -11    7.05    1.18
   0  -4  11   25.42    2.25
   0   4 -11   24.63    1.79
   0  -3  11    7.18    1.53
   0   3 -11    7.62    1.27
   0  -2  11   -0.22    1.08
   0   2 -11    0.04    0.83
   0  -1  11    3.45    1.34
   0   1 -11    1.74    1.00
   0   0  11    1.70    1.27
   0   0 -11    3.16    1.21
   0   1  11    2.25    1.39
   0  -1 -11    3.17    1.30
   1 -11  11   -1.43    1.46
  -1  11 -11    0.63    0.92
   1 -10  11   -1.25    1.36
  -1  10 -11   -0.37    0.80
   1  -9  11   -0.46    1.33
  -1   9 -11    1.05    0.78
   1  -8  11    3.31    1.39
  -1   8 -11    7.27    1.11
   1  -7  11   -1.09    1.02
  -1   7 -11    1.16    0.74
   1  -6  11    3.40    1.27
  -1   6 -11    3.95    1.06
   1  -5  11    0.17    1.01
  -1   5 -11    0.40    0.85
   1  -4  11    1.53    1.06
  -1   4 -11    2.37    1.04
   1  -3  11   -1.05    0.92
  -1   3 -11    0.60    0.96
   1  -2  11    4.72    1.46
  -1   2 -11    7.63    1.39
   1  -1  11    2.47    1.43
  -1   1 -11    1.16    1.05
   1   0  11   -0.01    1.21
  -1   0 -11    2.07    1.23
   1   1  11    0.27    1.31
  -1  -1 -11    0.77    1.14
   2 -11  11    1.23    1.57
  -2  11 -11    1.34    0.89
   2 -10  11    3.25    1.60
  -2  10 -11    2.10    0.95
   2  -9  11   16.83    2.23
   2  -8  11    3.78    1.43
  -2   8 -11    4.02    0.92
   2  -7  11    0.93    1.23
  -2   7 -11    0.90    0.81
   2  -6  11    1.27    1.16
  -2   6 -11    2.44    0.99
   2  -5  11    0.60    1.08
  -2   5 -11    0.61    0.91
   2  -4  11    2.95    1.32
  -2   4 -11    3.60    1.18
   2  -3  11    5.13    1.57
  -2   3 -11    5.45    1.39
   2  -2  11    5.13    1.49
  -2   2 -11    6.89    1.45
   2  -1  11    0.94    1.22
  -2   1 -11    2.39    1.31
   2   0  11   -0.65    1.25
  -2   0 -11    0.68    1.14
   3 -11  11   -1.29    1.57
  -3  11 -11   -0.77    0.76
   3 -10  11    0.65    1.46
   3  -9  11    0.33    1.37
   3  -8  11    0.14    1.31
  -3   8 -11    1.56    0.89
   3  -7  11   10.21    1.87
  -3   7 -11   12.21    1.51
   3  -6  11    1.62    1.28
  -3   6 -11    2.77    1.04
   3  -5  11    3.15    1.40
  -3   5 -11    3.76    1.13
   3  -4  11    3.36    1.43
  -3   4 -11    2.39    1.17
   3  -3  11    0.98    1.17
  -3   3 -11    0.83    1.09
   3  -2  11    0.69    1.36
  -3   2 -11    0.91    1.08
   3  -1  11    1.93    1.43
  -3   1 -11    3.45    1.29
   4 -11  11   -2.07    1.39
   4 -10  11   -1.84    1.38
   4  -9  11    1.10    1.50
  -4   9 -11    2.18    0.89
   4  -8  11    3.78    1.55
  -4   8 -11    3.15    1.07
   4  -7  11    3.01    1.50
  -4   7 -11    3.57    1.14
   4  -6  11   -0.09    1.22
  -4   6 -11   -0.99    0.83
   4  -5  11   -0.59    1.16
  -4   5 -11    1.32    1.15
   4  -4  11   -0.20    1.24
  -4   4 -11    0.82    1.14
   4  -3  11    0.87    1.43
  -4   3 -11    4.71    1.42
   4  -2  11    0.63    1.45
  -4   2 -11    2.26    1.32
   5 -10  11    0.55    1.55
   5  -9  11    0.29    1.47
  -5   9 -11    4.95    1.17
   5  -8  11   -0.97    1.42
  -5   8 -11    0.98    0.92
   5  -7  11   -0.05    1.39
  -5   7 -11    1.59    1.06
   5  -6  11    5.40    1.59
  -5   6 -11    7.71    1.49
   5  -5  11    3.93    1.68
  -5   5 -11    4.99    1.31
   5  -4  11   -1.57    1.29
  -5   4 -11   -0.63    1.08
   5  -3  11    2.51    1.52
  -5   3 -11    2.91    1.36
   6  -9  11    1.06    1.53
  -6   9 -11    1.19    0.98
   6  -8  11    1.97    1.56
  -6   8 -11    3.15    1.22
   6  -7  11   -1.19    1.22
  -6   7 -11    0.10    0.97
   6  -6  11    1.39    1.46
  -6   6 -11    0.50    1.02
   6  -5  11   -1.30    1.30
  -6   5 -11    1.90    1.16
  -8  -4  12    2.48    0.91
   8   4 -12    0.86    1.16
  -8  -3  12   16.77    1.63
   8   3 -12   21.30    2.11
  -8  -2  12    9.55    1.22
   8   2 -12   11.80    1.87
   8   1 -12    4.60    1.62
   8   0 -12   -1.45    1.41
  -7  -6  12    6.00    1.60
   7   6 -12    4.19    1.43
  -7  -5  12   -1.79    0.99
  -7  -4  12    0.00    0.64
   7   4 -12    0.42    1.05
  -7  -3  12    1.39    0.79
   7   3 -12    0.88    1.21
   7   2 -12    0.38    1.27
   7   1 -12   10.18    1.85
   7   0 -12    6.98    1.76
   7  -1 -12    8.49    2.02
  -6  -7  12    3.16    1.63
   6   7 -12    4.26    1.35
  -6  -6  12   -0.18    1.23
   6   6 -12    3.63    1.22
  -6  -5  12    2.43    1.26
   6   5 -12    2.54    1.18
   6   5 -12    0.86    1.01
  -6  -4  12    0.50    0.64
  -6  -4  12   -1.23    0.92
   6   4 -12   -0.21    1.02
  -6  -3  12   -0.81    0.88
   6   3 -12    0.36    1.23
  -6  -2  12   11.12    1.63
   6   2 -12    7.98    1.63
  -6  -1  12    2.30    1.12
   6   1 -12    7.10    1.62
  -6   0  12    5.86    1.35
   6   0 -12    8.27    1.83
   6  -1 -12   -1.78    1.31
  -5  -8  12   -0.36    1.56
   5   8 -12    2.42    1.25
  -5  -7  12   -0.52    1.38
   5   7 -12   -0.67    0.78
  -5  -6  12    5.73    1.58
   5   6 -12    9.83    1.52
  -5  -5  12   14.39    1.95
   5   5 -12   17.05    1.79
   5   5 -12   19.02    1.90
  -5  -4  12    8.33    1.56
   5   4 -12    9.17    1.55
  -5  -3  12    2.01    1.16
   5   3 -12    1.44    1.14
  -5  -2  12    4.25    1.26
   5   2 -12    4.02    1.39
  -5  -1  12    2.99    1.26
   5   1 -12    0.58    1.36
  -5   0  12    7.56    1.49
   5   0 -12    8.15    1.79
  -5   1  12    8.50    1.65
   5  -1 -12    8.36    1.93
  -5   2  12    7.45    1.63
   5  -2 -12   10.07    2.06
  -4  -9  12   -3.01    1.51
   4   9 -12   -0.55    0.98
  -4  -8  12   -0.88    1.35
   4   8 -12    0.93    0.97
  -4  -7  12    5.22    1.61
   4   7 -12    4.76    1.21
  -4  -6  12   -0.55    1.11
   4   6 -12    1.11    0.88
   4   6 -12    1.11    0.99
  -4  -5  12    0.96    1.24
   4   5 -12    1.38    1.04
  -4  -4  12    0.47    1.13
   4   4 -12    1.75    1.13
  -4  -3  12    3.89    1.30
   4   3 -12    6.15    1.44
  -4  -2  12    1.73    1.16
   4   2 -12    3.37    1.30
  -4  -1  12   -1.72    0.96
   4   1 -12    1.61    1.22
  -4   0  12    1.33    1.24
   4   0 -12    1.22    1.29
  -4   1  12    0.28    1.17
   4  -1 -12    1.95    1.43
   4  -2 -12    1.78    1.51
  -3  -9  12    3.01    1.74
   3   9 -12    1.15    1.08
  -3  -8  12    0.13    1.41
   3   8 -12    1.92    1.06
  -3  -7  12    5.08    1.59
   3   7 -12    2.60    1.03
  -3  -6  12    0.49    1.16
   3   6 -12    2.57    1.04
  -3  -5  12    7.42    1.61
   3   5 -12   10.45    1.42
  -3  -4  12    8.28    1.68
   3   4 -12    8.92    1.45
  -3  -3  12   12.21    1.84
   3   3 -12   13.79    1.75
  -3  -2  12    2.19    1.27
   3   2 -12    0.48    1.04
  -3  -1  12   -1.18    1.05
   3   1 -12    1.07    1.18
  -3   0  12    1.73    1.42
   3   0 -12    3.04    1.36
  -3   1  12    0.97    1.30
   3  -1 -12    1.80    1.36
  -2 -10  12   -0.79    1.67
   2  10 -12    0.18    0.89
  -2  -9  12   -0.55    1.40
   2   9 -12    1.63    1.05
  -2  -8  12   11.45    2.00
   2   8 -12    9.89    1.37
  -2  -7  12    2.98    1.43
  -2  -6  12    1.18    1.20
   2   6 -12    1.11    0.88
  -2  -5  12    1.18    1.20
   2   5 -12    3.60    1.03
  -2  -4  12    1.31    1.18
   2   4 -12    1.33    0.97
  -2  -3  12    2.48    1.32
   2   3 -12    2.61    1.08
  -2  -2  12    4.55    1.44
   2   2 -12    4.83    1.32
  -2  -1  12   14.46    2.06
   2   1 -12    7.18    1.49
  -2   0  12    1.88    1.37
   2   0 -12    2.35    1.31
  -2   1  12   -1.09    1.30
   2  -1 -12   -0.49    1.24
  -1 -10  12    2.30    1.64
   1  10 -12    2.73    1.06
  -1  -9  12    1.49    1.59
   1   9 -12    3.87    1.09
  -1  -8  12    5.84    1.71
  -1  -7  12   -1.52    1.16
   1   7 -12    0.75    0.78
  -1  -6  12   -0.11    1.15
   1   6 -12    0.09    0.85
  -1  -5  12    1.23    1.14
   1   5 -12   -0.16    0.84
  -1  -4  12    2.55    1.31
   1   4 -12    3.80    1.19
  -1  -3  12    0.92    1.23
   1   3 -12    1.76    1.11
  -1  -2  12    5.24    1.55
  -1  -1  12   -0.07    1.20
   1   1 -12    1.14    1.18
  -1   0  12   -1.28    1.13
   1   0 -12    0.67    1.17
  -1   1  12    1.39    1.47
   1  -1 -12    5.13    1.55
   0 -10  12    3.44    1.75
   0  10 -12    1.64    0.96
   0  -9  12    0.72    1.33
   0  -8  12    0.46    1.34
   0  -7  12   12.57    2.03
   0   7 -12   13.10    1.46
   0  -6  12   14.44    2.00
   0   6 -12   14.57    1.62
   0  -5  12   -0.23    1.08
   0   5 -12    1.37    0.90
   0  -4  12   -0.18    1.10
   0   4 -12    0.62    0.90
   0  -3  12    2.64    1.31
   0   3 -12    4.96    1.32
   0  -2  12    2.69    1.31
   0   2 -12    2.56    1.21
   0  -1  12    1.90    1.39
   0   1 -12    5.03    1.33
   0   0  12    7.85    1.82
   0   0 -12    9.50    1.72
   1 -10  12   -0.54    1.44
   1  -9  12    2.31    1.48
   1  -8  12    0.08    1.32
  -1   8 -12    2.79    0.89
   1  -7  12    2.66    1.39
  -1   7 -12    1.38    0.87
   1  -6  12   -0.66    1.11
  -1   6 -12    0.93    0.90
   1  -5  12    4.23    1.37
  -1   5 -12    5.04    1.26
   1  -4  12    1.85    1.31
  -1   4 -12    3.49    1.21
   1  -3  12    3.33    1.49
  -1   3 -12    2.90    1.23
   1  -2  12   -0.03    1.17
  -1   2 -12    2.87    1.22
   1  -1  12   -0.26    1.25
  -1   1 -12    1.64    1.18
   2 -10  12    0.13    1.54
   2  -9  12    0.92    1.52
   2  -8  12   -1.24    1.31
  -2   8 -12    2.54    0.97
   2  -7  12    2.59    1.46
  -2   7 -12    3.24    1.05
   2  -6  12    2.56    1.38
  -2   6 -12    4.34    1.23
   2  -5  12   11.06    1.96
  -2   5 -12   11.35    1.64
   2  -4  12    0.61    1.31
  -2   4 -12    0.53    1.11
   2  -3  12    0.34    1.32
  -2   3 -12    3.26    1.32
   2  -2  12    2.15    1.47
  -2   2 -12    1.22    1.23
   3 -10  12    3.36    1.77
   3  -9  12    3.10    1.65
   3  -8  12    1.45    1.55
  -3   8 -12    3.52    1.05
   3  -7  12    0.46    1.36
  -3   7 -12    0.27    0.92
   3  -6  12    0.49    1.30
  -3   6 -12    2.48    1.15
   3  -5  12   -0.87    1.22
  -3   5 -12    1.80    1.15
   3  -4  12    0.71    1.39
  -3   4 -12    3.86    1.34
   3  -3  12    5.96    1.84
  -3   3 -12   10.03    1.76
   4  -9  12   -0.79    1.52
  -4   9 -12    2.63    1.03
   4  -8  12    0.29    1.54
  -4   8 -12    1.16    0.95
   4  -7  12    0.14    1.41
  -4   7 -12    1.01    1.01
   4  -6  12    0.50    1.43
  -4   6 -12    3.75    1.22
   4  -5  12   -1.50    1.40
  -4   5 -12    0.05    1.12
   4  -4  12    2.08    1.51
  -4   4 -12    1.89    1.23
   5  -8  12    4.94    1.79
  -5   8 -12    5.18    1.32
   5  -7  12    1.48    1.57
  -5   7 -12    1.59    1.09
   7   4 -13    2.68    1.30
   7   3 -13    5.83    1.62
   7   2 -13    4.61    1.61
  -6  -6  13   -0.10    1.33
   6   6 -13   -1.05    1.07
  -6  -5  13    2.28    1.34
   6   5 -13    4.81    1.37
  -6  -4  13    3.08    1.38
   6   4 -13    2.65    1.38
  -6  -3  13    2.99    1.34
   6   3 -13    5.84    1.63
  -6  -2  13   -0.16    1.05
   6   2 -13    0.64    1.34
  -6  -1  13    3.31    1.25
   6   1 -13   -0.36    1.34
  -5  -7  13    1.12    1.58
   5   7 -13    6.05    1.45
  -5  -6  13   -0.93    1.33
  -5  -5  13   -1.26    1.09
   5   5 -13   -0.24    1.13
  -5  -4  13    1.59    1.32
   5   4 -13    3.79    1.42
  -5  -3  13    2.25    1.30
   5   3 -13    3.50    1.46
  -5  -2  13    5.47    1.46
   5   2 -13    6.91    1.73
  -5  -1  13   13.80    1.94
   5   1 -13   10.60    1.98
  -5   0  13    0.20    1.14
   5   0 -13    0.15    1.48
  -4  -8  13    0.61    1.58
   4   8 -13    0.48    0.99
  -4  -7  13    0.03    1.37
  -4  -6  13    2.77    1.57
   4   6 -13    1.87    1.46
  -4  -5  13    1.14    1.33
   4   5 -13    1.19    1.16
  -4  -4  13    1.28    1.21
   4   4 -13    2.11    1.31
  -4  -3  13    0.02    1.28
   4   3 -13    1.05    1.30
  -4  -2  13   -1.10    1.09
   4   2 -13   -0.39    1.24
  -4  -1  13    1.18    1.26
   4   1 -13    2.63    1.44
  -4   0  13   -0.44    1.12
   4   0 -13   -1.01    1.32
  -3  -8  13    1.06    1.52
  -3  -7  13    6.28    1.86
  -3  -6  13   12.15    2.06
   3   6 -13   10.59    1.51
  -3  -5  13   -0.20    1.21
   3   5 -13    1.85    1.08
  -3  -4  13   -1.03    1.09
   3   4 -13   -1.13    1.04
  -3  -3  13    2.86    1.44
   3   3 -13    2.37    1.30
  -3  -2  13    0.66    1.37
   3   2 -13    1.64    1.29
  -3  -1  13    2.42    1.46
   3   1 -13    5.52    1.57
  -3   0  13    3.73    1.49
   3   0 -13    8.94    1.84
  -2  -9  13    0.15    1.55
  -2  -8  13   -0.26    1.42
  -2  -7  13    0.79    1.42
  -2  -6  13    1.17    1.40
   2   6 -13    1.42    1.02
  -2  -5  13    3.35    1.55
   2   5 -13    5.20    1.34
  -2  -4  13   10.99    1.97
   2   4 -13   11.96    1.66
  -2  -3  13   -0.04    1.28
   2   3 -13    2.38    1.21
  -2  -2  13    0.13    1.28
   2   2 -13    1.59    1.26
  -2  -1  13    2.06    1.48
   2   1 -13    1.61    1.27
  -1  -9  13    0.66    1.49
  -1  -8  13   -0.76    1.33
  -1  -7  13    2.23    1.54
   1   7 -13    3.56    1.06
  -1  -6  13    2.37    1.43
   1   6 -13    3.24    1.14
  -1  -5  13    5.29    1.58
   1   5 -13    6.80    1.41
  -1  -4  13    1.53    1.43
   1   4 -13    0.97    1.13
  -1  -3  13    0.37    1.28
   1   3 -13    2.01    1.25
  -1  -2  13    1.40    1.32
   1   2 -13    3.11    1.32
  -1  -1  13    1.03    1.42
   1   1 -13    3.17    1.46
   0  -9  13    9.55    2.03
   0  -8  13    2.53    1.67
   0  -7  13   -1.23    1.22
   0   7 -13    2.10    1.02
   0  -6  13    2.92    1.57
   0   6 -13    4.71    1.17
   0  -5  13    1.69    1.46
   0  -4  13    3.02    1.54
   0   4 -13    3.91    1.28
   0  -3  13    7.67    1.84
   0   3 -13    9.64    1.66
   0  -2  13    1.81    1.49
   0   2 -13    2.45    1.26
   1  -9  13   -0.82    1.49
   1  -8  13   -0.61    1.35
  -1   8 -13    2.47    1.42
   1  -7  13   -0.28    1.32
  -1   7 -13    5.11    1.22
   1  -6  13    2.42    1.52
  -1   6 -13    2.49    1.04
   1  -5  13    0.64    1.41
  -1   5 -13    2.08    1.08
  -1   4 -13    1.31    1.10
   1  -3  13   -1.28    1.21
  -1   3 -13    2.62    1.30
   2  -9  13    2.54    1.74
   2  -8  13   10.39    2.13
  -2   8 -13    6.98    1.26
   2  -7  13    0.45    1.46
   2  -6  13   -2.18    1.15
  -2   6 -13    2.02    1.17
   2  -5  13    0.19    1.38
  -2   5 -13    0.10    1.03
   2  -4  13   -0.63    1.34
  -2   4 -13    2.26    1.30
   3  -8  13   -1.83    1.40
  -3   8 -13    2.50    1.05
   3  -7  13    0.06    1.54
  -3   7 -13    1.72    1.04
   3  -6  13    4.41    1.80
  -3   6 -13    5.92    1.42
  -4  -6  14   -0.35    1.38
  -4  -5  14    0.78    1.46
   4   5 -14    1.75    1.35
  -4  -4  14    1.60    1.43
   4   4 -14    1.52    1.38
  -4  -3  14    1.06    1.37
   4   3 -14    1.56    1.43
  -3  -7  14   -2.77    1.21
  -3  -6  14   -0.73    1.39
   3   6 -14    1.87    1.24
  -3  -5  14   -1.61    1.21
   3   5 -14   -1.16    1.06
  -3  -4  14    3.02    1.66
   3   4 -14    2.98    1.43
  -3  -3  14    5.65    1.75
   3   3 -14    5.60    1.61
  -2  -7  14    5.12    1.80
  -2  -6  14    2.71    1.63
   2   6 -14    3.64    1.25
  -2  -5  14    1.14    1.44
   2   5 -14    1.64    1.21
  -2  -4  14    0.27    1.42
   2   4 -14    2.18    1.27
  -2  -3  14    1.23    1.58
   2   3 -14    1.06    1.24
  -1  -7  14    0.67    1.53
   1   7 -14    2.87    1.12
  -1  -6  14   -0.84    1.36
   1   6 -14    0.25    1.04
  -1  -5  14   -0.75    1.37
   1   5 -14    0.35    1.10
  -1  -4  14   -1.72    1.24
   1   4 -14    0.26    1.15
   0  -7  14   -0.77    1.39
   0   7 -14    2.57    1.09
   0  -6  14    3.23    1.67
   0   6 -14    7.54    1.55
   0  -5  14    5.06    1.69
   0   5 -14    3.87    1.36
   0   0   0    0.00    0.00
;
_shelx_hkl_checksum              64302
loop_
_space_group_symop_operation_xyz
'x, y, z'
'-x, -y, -z'
loop_
_atom_site_label
_atom_site_type_symbol
_atom_site_fract_x
_atom_site_fract_y
_atom_site_fract_z
_atom_site_U_iso_or_equiv
_atom_site_adp_type
_atom_site_occupancy
_atom_site_site_symmetry_order
_atom_site_calc_flag
_atom_site_refinement_flags_posn
_atom_site_refinement_flags_adp
_atom_site_refinement_flags_occupancy
Pt1 Pt 0.0000 0.0000 0.0000 0.03267(11) Uani 1 2 d S . P
Cl1 Cl 0.0632(2) -0.0107(2) 0.2255(2) 0.0402(4) Uani 1 1 d . . .
C3 C 0.7100(10) 0.3381(11) -0.0427(9) 0.049(2) Uani 1 1 d . . .
H3A H 0.7815 0.2933 -0.0935 0.059 Uiso 1 1 calc R U .
H3B H 0.6318 0.3450 -0.1180 0.059 Uiso 1 1 calc R U .
C1 C 0.3688(9) 0.1975(9) 0.0625(8) 0.0338(15) Uani 1 1 d . . .
N1 N 0.2335(7) 0.1208(7) 0.0369(7) 0.0381(14) Uani 1 1 d . . .
C6 C 0.6208(10) 0.4613(10) 0.2295(9) 0.053(2) Uani 1 1 d . . .
H6A H 0.6980 0.4531 0.3045 0.064 Uiso 1 1 calc R U .
H6B H 0.5474 0.5038 0.2789 0.064 Uiso 1 1 calc R U .
N2 N 0.5233(8) 0.2866(8) 0.0917(7) 0.0465(17) Uani 1 1 d . . .
C2 C 0.6156(10) 0.2106(10) 0.0024(9) 0.0462(19) Uani 1 1 d . . .
H2A H 0.5396 0.0978 -0.0909 0.055 Uiso 1 1 calc R U .
H2B H 0.6921 0.1882 0.0647 0.055 Uiso 1 1 calc R U .
C5 C 0.7134(10) 0.5866(10) 0.1854(9) 0.049(2) Uani 1 1 d . . .
H5A H 0.7874 0.6993 0.2796 0.059 Uiso 1 1 calc R U .
H5B H 0.6356 0.6089 0.1242 0.059 Uiso 1 1 calc R U .
C4 C 0.8131(10) 0.5189(11) 0.0926(10) 0.054(2) Uani 1 1 d . . .
H4A H 0.8618 0.5997 0.0556 0.064 Uiso 1 1 calc R U .
H4B H 0.9036 0.5162 0.1594 0.064 Uiso 1 1 calc R U .
I1S I 0.45183(6) 0.16166(6) 0.42152(5) 0.03705(13) Uani 1 1 d . . .
I3S I 0.81790(7) 0.54017(6) 0.67015(6) 0.04741(15) Uani 1 1 d . . .
I2S I 0.83434(6) 0.14581(6) 0.41543(6) 0.04318(14) Uani 1 1 d . . .
C1S C 0.7035(9) 0.2588(9) 0.5515(8) 0.0330(15) Uani 1 1 d . . .
H1SA H 0.7064 0.2230 0.6320 0.040 Uiso 1 1 calc R U .
loop_
_atom_site_aniso_label
_atom_site_aniso_U_11
_atom_site_aniso_U_22
_atom_site_aniso_U_33
_atom_site_aniso_U_23
_atom_site_aniso_U_13
_atom_site_aniso_U_12
Pt1 0.0280(2) 0.02254(19) 0.0390(2) 0.00731(16) 0.01707(16) 0.00861(15)
Cl1 0.0321(9) 0.0391(10) 0.0429(10) 0.0164(8) 0.0173(8) 0.0106(8)
C3 0.043(5) 0.057(5) 0.056(5) 0.027(4) 0.031(4) 0.025(4)
C1 0.041(4) 0.029(4) 0.033(4) 0.013(3) 0.019(3) 0.017(3)
N1 0.025(3) 0.028(3) 0.041(4) 0.004(3) 0.013(3) 0.003(3)
C6 0.042(5) 0.037(4) 0.039(4) -0.003(3) 0.015(4) -0.004(4)
N2 0.034(3) 0.030(3) 0.049(4) 0.002(3) 0.024(3) 0.000(3)
C2 0.043(4) 0.038(4) 0.050(5) 0.014(4) 0.023(4) 0.015(4)
C5 0.045(5) 0.032(4) 0.055(5) 0.014(4) 0.010(4) 0.012(4)
C4 0.044(5) 0.045(5) 0.071(6) 0.029(4) 0.032(4) 0.011(4)
I1S 0.0371(3) 0.0317(2) 0.0412(3) 0.0161(2) 0.0174(2) 0.0139(2)
I3S 0.0432(3) 0.0297(3) 0.0565(3) 0.0138(2) 0.0153(2) 0.0118(2)
I2S 0.0450(3) 0.0424(3) 0.0483(3) 0.0210(2) 0.0267(2) 0.0222(2)
C1S 0.042(4) 0.029(3) 0.036(4) 0.019(3) 0.022(3) 0.017(3)
loop_
_atom_type_symbol
_atom_type_description
_atom_type_scat_dispersion_real
_atom_type_scat_dispersion_imag
_atom_type_scat_source
C C 0.0033 0.0016 'International Tables Vol C Tables 4.2.6.8 and 6.1.1.4'
H H 0.0000 0.0000 'International Tables Vol C Tables 4.2.6.8 and 6.1.1.4'
N N 0.0061 0.0033 'International Tables Vol C Tables 4.2.6.8 and 6.1.1.4'
Cl Cl 0.1484 0.1585 'International Tables Vol C Tables 4.2.6.8 and 6.1.1.4'
I I -0.4742 1.8119 'International Tables Vol C Tables 4.2.6.8 and 6.1.1.4'
Pt Pt -1.7033 8.3905 'International Tables Vol C Tables 4.2.6.8 and 6.1.1.4'
loop_
_geom_angle_atom_site_label_1
_geom_angle_atom_site_label_2
_geom_angle_atom_site_label_3
_geom_angle
_geom_angle_site_symmetry_1
_geom_angle_site_symmetry_3
N1 Pt1 N1 180.0 . 2
N1 Pt1 Cl1 90.88(19) . .
N1 Pt1 Cl1 89.12(19) 2 .
N1 Pt1 Cl1 89.12(19) . 2
N1 Pt1 Cl1 90.88(19) 2 2
Cl1 Pt1 Cl1 180.0 . 2
C4 C3 C2 112.7(7) . .
C4 C3 H3A 109.0 . .
C2 C3 H3A 109.0 . .
C4 C3 H3B 109.0 . .
C2 C3 H3B 109.0 . .
H3A C3 H3B 107.8 . .
N1 C1 N2 179.4(9) . .
C1 N1 Pt1 177.0(6) . .
N2 C6 C5 109.9(7) . .
N2 C6 H6A 109.7 . .
C5 C6 H6A 109.7 . .
N2 C6 H6B 109.7 . .
C5 C6 H6B 109.7 . .
H6A C6 H6B 108.2 . .
C1 N2 C2 122.1(6) . .
C1 N2 C6 121.7(6) . .
C2 N2 C6 115.7(6) . .
N2 C2 C3 108.7(6) . .
N2 C2 H2A 110.0 . .
C3 C2 H2A 110.0 . .
N2 C2 H2B 110.0 . .
C3 C2 H2B 110.0 . .
H2A C2 H2B 108.3 . .
C6 C5 C4 112.3(7) . .
C6 C5 H5A 109.1 . .
C4 C5 H5A 109.1 . .
C6 C5 H5B 109.1 . .
C4 C5 H5B 109.1 . .
H5A C5 H5B 107.9 . .
C3 C4 C5 111.5(7) . .
C3 C4 H4A 109.3 . .
C5 C4 H4A 109.3 . .
C3 C4 H4B 109.3 . .
C5 C4 H4B 109.3 . .
H4A C4 H4B 108.0 . .
I1S C1S I3S 110.7(3) . .
I1S C1S I2S 112.7(3) . .
I3S C1S I2S 112.5(3) . .
I1S C1S H1SA 106.8 . .
I3S C1S H1SA 106.8 . .
I2S C1S H1SA 106.8 . .
loop_
_geom_bond_atom_site_label_1
_geom_bond_atom_site_label_2
_geom_bond_distance
_geom_bond_site_symmetry_2
Pt1 N1 1.967(6) .
Pt1 N1 1.967(6) 2
Pt1 Cl1 2.3139(19) .
Pt1 Cl1 2.3139(19) 2
C3 C4 1.504(11) .
C3 C2 1.515(11) .
C3 H3A 0.9900 .
C3 H3B 0.9900 .
C1 N1 1.140(9) .
C1 N2 1.305(9) .
C6 N2 1.477(9) .
C6 C5 1.487(11) .
C6 H6A 0.9900 .
C6 H6B 0.9900 .
N2 C2 1.465(9) .
C2 H2A 0.9900 .
C2 H2B 0.9900 .
C5 C4 1.514(11) .
C5 H5A 0.9900 .
C5 H5B 0.9900 .
C4 H4A 0.9900 .
C4 H4B 0.9900 .
I1S C1S 2.135(7) .
I3S C1S 2.147(7) .
I2S C1S 2.149(6) .
C1S H1SA 1.0000 .
loop_
_geom_torsion_atom_site_label_1
_geom_torsion_atom_site_label_2
_geom_torsion_atom_site_label_3
_geom_torsion_atom_site_label_4
_geom_torsion
C5 C6 N2 C1 -131.4(8)
C5 C6 N2 C2 56.6(10)
C1 N2 C2 C3 132.1(8)
C6 N2 C2 C3 -55.9(10)
C4 C3 C2 N2 52.8(9)
N2 C6 C5 C4 -52.6(10)
C2 C3 C4 C5 -52.5(10)
C6 C5 C4 C3 52.3(10)
