#------------------------------------------------------------------------------
#$Date: 2016-05-06 03:19:51 +0300 (Fri, 06 May 2016) $
#$Revision: 182609 $
#$URL: svn://www.crystallography.net/cod/cif/7/11/89/7118914.cif $
#------------------------------------------------------------------------------
#
# This file is available in the Crystallography Open Database (COD),
# http://www.crystallography.net/
#
# All data on this site have been placed in the public domain by the
# contributors.
#
data_7118914
loop_
_publ_author_name
'Ivanov, Daniil M.'
'Novikov, Alexander S.'
'Ananyev, Ivan V.'
'Kirina, Yulia V.'
'Kukushkin, Vadim Yu'
_publ_section_title
;
 Halogen bonding between metal centers and halocarbons.
;
_journal_issue                   32
_journal_name_full
'Chemical communications (Cambridge, England)'
_journal_page_first              5565
_journal_page_last               5568
_journal_paper_doi               10.1039/c6cc01107a
_journal_volume                  52
_journal_year                    2016
_chemical_formula_moiety         'C12 H20 Cl2 N4 Pt, 2(C H I3)'
_chemical_formula_sum            'C14 H22 Cl2 I6 N4 Pt'
_chemical_formula_weight         1273.74
_space_group_crystal_system      triclinic
_space_group_IT_number           2
_space_group_name_Hall           '-P 1'
_space_group_name_H-M_alt        'P -1'
_symmetry_space_group_name_Hall  '-P 1'
_symmetry_space_group_name_H-M   'P -1'
_atom_sites_solution_hydrogens   geom
_audit_creation_method           SHELXL-2014/6
_audit_update_record
;
2016-01-11 deposited with the CCDC.
2016-03-16 downloaded from the CCDC.
;
_cell_angle_alpha                114.801(3)
_cell_angle_beta                 99.221(3)
_cell_angle_gamma                108.383(3)
_cell_formula_units_Z            1
_cell_length_a                   9.1580(14)
_cell_length_b                   9.3355(14)
_cell_length_c                   10.2955(16)
_cell_measurement_reflns_used    321
_cell_measurement_temperature    300(2)
_cell_measurement_theta_max      25
_cell_measurement_theta_min      3
_cell_volume                     713.20(19)
_computing_cell_refinement       'Bruker SAINT'
_computing_data_collection       'Bruker APEX II'
_computing_data_reduction        'Bruker SAINT'
_computing_molecular_graphics    'Bruker SHELXTL'
_computing_publication_material  'Bruker SHELXTL'
_computing_structure_refinement  'SHELXL-97 (Sheldrick, 1997)'
_computing_structure_solution    'SHELXS-97 (Sheldrick, 1997)'
_diffrn_ambient_temperature      300(2)
_diffrn_measured_fraction_theta_full 1.000
_diffrn_measured_fraction_theta_max 0.999
_diffrn_measurement_device_type  'Bruker APEX II CCD area detector''
_diffrn_measurement_method       'omega scans'
_diffrn_radiation_type           MoK\a
_diffrn_radiation_wavelength     0.71073
_diffrn_reflns_av_R_equivalents  0.0243
_diffrn_reflns_av_unetI/netI     0.0364
_diffrn_reflns_Laue_measured_fraction_full 1.000
_diffrn_reflns_Laue_measured_fraction_max 0.999
_diffrn_reflns_limit_h_max       12
_diffrn_reflns_limit_h_min       -12
_diffrn_reflns_limit_k_max       12
_diffrn_reflns_limit_k_min       -12
_diffrn_reflns_limit_l_max       13
_diffrn_reflns_limit_l_min       -13
_diffrn_reflns_number            7566
_diffrn_reflns_point_group_measured_fraction_full 1.000
_diffrn_reflns_point_group_measured_fraction_max 0.999
_diffrn_reflns_theta_full        25.242
_diffrn_reflns_theta_max         27.999
_diffrn_reflns_theta_min         2.317
_exptl_absorpt_coefficient_mu    11.608
_exptl_absorpt_correction_T_max  0.268
_exptl_absorpt_correction_T_min  0.182
_exptl_absorpt_correction_type   multi-scan
_exptl_absorpt_process_details   SADABS
_exptl_crystal_colour            yellow
_exptl_crystal_density_diffrn    2.966
_exptl_crystal_description       prism
_exptl_crystal_F_000             564
_exptl_crystal_size_max          0.210
_exptl_crystal_size_mid          0.190
_exptl_crystal_size_min          0.160
_refine_diff_density_max         1.236
_refine_diff_density_min         -0.776
_refine_diff_density_rms         0.148
_refine_ls_extinction_method     none
_refine_ls_goodness_of_fit_ref   1.040
_refine_ls_hydrogen_treatment    constr
_refine_ls_matrix_type           full
_refine_ls_number_parameters     124
_refine_ls_number_reflns         3443
_refine_ls_number_restraints     0
_refine_ls_restrained_S_all      1.040
_refine_ls_R_factor_all          0.0584
_refine_ls_R_factor_gt           0.0348
_refine_ls_shift/su_max          0.000
_refine_ls_shift/su_mean         0.000
_refine_ls_structure_factor_coef Fsqd
_refine_ls_weighting_details
'w=1/[\s^2^(Fo^2^)+(0.0369P)^2^] where P=(Fo^2^+2Fc^2^)/3'
_refine_ls_weighting_scheme      calc
_refine_ls_wR_factor_gt          0.0719
_refine_ls_wR_factor_ref         0.0792
_reflns_Friedel_coverage         0.000
_reflns_number_gt                2449
_reflns_number_total             3443
_reflns_threshold_expression     I>2\s(I)
_cod_data_source_file            c6cc01107a2.cif
_cod_data_source_block           300
_cod_depositor_comments
'Adding full bibliography for 7118900--7118914.cif.'
_cod_original_cell_volume        713.19(19)
_cod_database_code               7118914
_shelx_space_group_comment
;
The symmetry employed for this shelxl refinement is uniquely defined
by the following loop, which should always be used as a source of
symmetry information in preference to the above space-group names.
They are only intended as comments.
;
_shelx_estimated_absorpt_t_min   0.194
_shelx_estimated_absorpt_t_max   0.258
_shelxl_version_number           2014/6
_shelx_res_file
;
TITL 300 in P-1
CELL 0.71073   9.1580   9.3355  10.2955 114.801  99.221 108.383
ZERR    1.00   0.0014   0.0014   0.0016   0.003   0.003   0.003
LATT  1
SFAC C H N CL I PT
UNIT 14 22 4 2 6 1
size 0.21 0.19 0.16
L.S. 20
PLAN  20
temp  27.00
BOND $H
fmap 2
conf
htab
omit -4 56
acta

WGHT    0.036900
FVAR       0.11181
PT1   6    0.000000    0.000000    0.000000    10.50000    0.03812    0.03063 =
         0.06135    0.01026    0.02497    0.00918
CL1   4    0.061239   -0.012550    0.220504    11.00000    0.04803    0.06281 =
         0.07043    0.02746    0.02718    0.01640
C3    1    0.709912    0.338034   -0.041602    11.00000    0.07520    0.09576 =
         0.08922    0.04179    0.05279    0.03248
AFIX  23
H3A   2    0.635255    0.348897   -0.111352    11.00000   -1.20000
H3B   2    0.779011    0.293771   -0.093094    11.00000   -1.20000
AFIX   0
C1    1    0.367321    0.196627    0.061414    11.00000    0.05380    0.03477 =
         0.04933    0.01302    0.02571    0.01158
N1    3    0.233844    0.120286    0.036733    11.00000    0.04409    0.03813 =
         0.06913    0.01505    0.02926    0.00926
C6    1    0.620300    0.456560    0.227044    11.00000    0.05517    0.06652 =
         0.06986    0.00543    0.02641   -0.01173
AFIX  23
H6A   2    0.694334    0.445222    0.296893    11.00000   -1.20000
H6B   2    0.549316    0.498498    0.277188    11.00000   -1.20000
AFIX   0
N2    3    0.521936    0.286613    0.090051    11.00000    0.04400    0.04888 =
         0.06574    0.00940    0.03182    0.00242
C2    1    0.613516    0.211021    0.000146    11.00000    0.06420    0.05562 =
         0.09674    0.02168    0.05280    0.02271
AFIX  23
H2A   2    0.538731    0.101986   -0.091262    11.00000   -1.20000
H2B   2    0.686915    0.187159    0.058599    11.00000   -1.20000
AFIX   0
C5    1    0.715696    0.583671    0.187583    11.00000    0.06671    0.04830 =
         0.08581    0.01525    0.01889    0.01276
AFIX  23
H5A   2    0.641607    0.607049    0.129296    11.00000   -1.20000
H5B   2    0.788097    0.692604    0.280118    11.00000   -1.20000
AFIX   0
C4    1    0.814585    0.514659    0.096618    11.00000    0.05278    0.06676 =
         0.12004    0.04857    0.04374    0.01319
AFIX  23
H4A   2    0.898558    0.506466    0.159972    11.00000   -1.20000
H4B   2    0.868456    0.595467    0.065020    11.00000   -1.20000
AFIX   0
I1S   5    0.450658    0.161156    0.420818    11.00000    0.05452    0.04690 =
         0.06557    0.02566    0.02664    0.01891
I3S   5    0.816693    0.537179    0.666365    11.00000    0.06461    0.04299 =
         0.09113    0.02172    0.02170    0.01567
I2S   5    0.831825    0.143953    0.413206    11.00000    0.06556    0.06281 =
         0.07708    0.03272    0.03967    0.03107
C1S   1    0.701387    0.258473    0.547763    11.00000    0.04869    0.04056 =
         0.05420    0.02248    0.02243    0.01478
AFIX  13
H1SA  2    0.703190    0.224039    0.625568    11.00000   -1.20000

AFIX   0
HKLF 4

REM  300 in P-1
REM R1 =  0.0348 for    2449 Fo > 4sig(Fo)  and  0.0584 for all    3443 data
REM    124 parameters refined using      0 restraints

END

WGHT      0.0410      0.0000

REM Instructions for potential hydrogen bonds
EQIV $1 -x+1, -y, -z
HTAB C2 I1S_$1
EQIV $2 -x+1, -y, -z+1
HTAB C1S I1S_$2

REM Highest difference peak  1.236,  deepest hole -0.776,  1-sigma level  0.148
Q1    1   0.0632 -0.0464  0.0466  11.00000  0.05    1.24
Q2    1   0.0965  0.0869  0.0610  11.00000  0.05    1.15
Q3    1   0.0280 -0.0032 -0.0823  11.00000  0.05    1.08
Q4    1   0.8598  0.4781  0.6154  11.00000  0.05    1.07
Q5    1   0.0175 -0.0937 -0.0600  11.00000  0.05    0.95
Q6    1   0.8510  0.5555  0.7595  11.00000  0.05    0.94
Q7    1   0.8127  0.2195  0.3749  11.00000  0.05    0.86
Q8    1   0.4986  0.2002  0.3619  11.00000  0.05    0.75
Q9    1   0.5042  0.1116  0.4816  11.00000  0.05    0.68
Q10   1   0.9146  0.2422  0.4425  11.00000  0.05    0.68
Q11   1   0.0790  0.0019  0.1563  11.00000  0.05    0.62
Q12   1   0.4203  0.1379  0.5022  11.00000  0.05    0.61
Q13   1   0.4714  0.0817  0.3655  11.00000  0.05    0.59
Q14   1   0.7297  0.4680  0.6228  11.00000  0.05    0.57
Q15   1   0.3776  0.2084  0.3703  11.00000  0.05    0.57
Q16   1   0.5404  0.2735  0.4857  11.00000  0.05    0.54
Q17   1   0.0792 -0.0754  0.1824  11.00000  0.05    0.54
Q18   1   0.7762  0.0934  0.4593  11.00000  0.05    0.51
Q19   1   0.0615 -0.0512  0.2574  11.00000  0.05    0.50
Q20   1   0.7483  0.5804  0.6161  11.00000  0.05    0.50
;
_shelx_res_checksum              38585
_shelx_hkl_file
;
   0   1   0  117.45    2.42
   0   1   0  111.67    2.06
   0   1   0  118.89    2.03
   0  -1   0  118.90    2.07
   0   2   0  133.46    2.40
   0   2   0  133.37    2.90
   0  -2   0  133.22    2.40
   0   3   0  208.85    3.78
   0   3   0  214.79    4.58
   0  -3   0  209.59    3.80
   0   4   0    9.42    0.81
   0   4   0   10.41    0.53
   0  -4   0    7.96    0.41
   0   5   0   18.43    0.74
   0   5   0   18.55    1.11
   0  -5   0   17.58    0.60
   0   6   0  125.85    2.66
   0  -6   0  128.55    2.50
   0   7   0   68.79    1.78
   0  -7   0   67.65    1.68
   0   8   0    7.67    0.76
   0   9   0    1.53    0.63
   0  10   0   -0.14    0.67
  -1  11   0    3.55    0.89
  -1  10   0   -0.65    0.56
  -1   9   0   20.73    1.11
  -1   8   0    1.23    0.50
   1  -7   0   43.15    1.13
  -1   7   0   42.85    1.31
   1  -6   0    0.78    0.31
  -1   6   0    0.47    0.35
   1  -5   0   91.35    1.83
  -1   5   0   89.18    1.93
   1  -4   0   19.67    0.61
  -1   4   0   19.68    0.92
  -1   4   0   20.76    0.70
   1  -3   0  243.94    4.41
  -1   3   0  247.61    5.13
  -1   3   0  247.90    4.35
   1  -2   0  133.38    2.50
  -1   2   0  141.41    2.47
   1  -1   0    6.12    0.22
  -1   1   0    4.59    0.24
   1   0   0   45.10    0.87
   1   0   0   43.85    0.96
   1   0   0   43.37    0.85
  -1   0   0   44.87    0.98
   1   1   0   80.97    1.50
   1   1   0   79.62    1.84
   1   1   0   82.02    1.52
   1   2   0  648.03   13.93
   1   2   0  691.31   11.59
  -1  -2   0  681.75   11.89
   1   3   0   39.25    0.99
   1   3   0   36.61    1.37
  -1  -3   0   37.95    0.89
   1   4   0  181.72    3.45
   1   4   0  183.01    4.29
  -1  -4   0  184.00    3.41
   1   5   0    8.22    1.00
   1   5   0    9.32    0.66
  -1  -5   0    8.93    0.45
   1   6   0   17.99    0.89
  -1  -6   0   17.77    0.66
   1   7   0    0.59    0.49
   1   8   0   29.95    1.27
   1   9   0    8.67    0.94
   1  10   0    7.24    0.96
  -2  11   0    5.61    0.90
  -2  10   0    2.07    0.65
  -2   9   0   -0.36    0.48
  -2   8   0    9.77    0.84
   2  -7   0   23.10    0.82
  -2   7   0   23.70    0.98
   2  -6   0   32.98    0.95
  -2   6   0   32.79    1.06
   2  -5   0  468.38    8.39
  -2   5   0  472.09    8.24
   2  -4   0   37.61    0.92
  -2   4   0   37.58    1.00
   2  -3   0  112.58    2.16
  -2   3   0  111.75    2.16
   2  -2   0  273.85    4.89
  -2   2   0  269.83    4.76
   2  -1   0  119.88    2.29
   2  -1   0  127.29    2.43
  -2   1   0  117.21    2.42
  -2   1   0  118.95    2.24
   2   0   0   10.59    0.43
   2   0   0    9.70    0.44
   2   0   0   10.09    0.47
   2   1   0  595.70   10.54
   2   1   0  591.21   11.85
   2   1   0  596.54   10.29
   2   2   0  222.55    4.07
   2   2   0  223.11    4.84
   2   2   0  223.08    4.00
   2   3   0   64.46    1.94
   2   3   0   62.62    1.43
  -2  -3   0   62.33    1.38
   2   4   0    8.90    0.98
   2   4   0    8.82    0.60
  -2  -4   0    8.36    0.44
   2   5   0    0.75    0.66
   2   5   0    0.10    0.40
  -2  -5   0    1.48    0.30
   2   6   0   39.21    1.31
  -2  -6   0   39.45    1.07
   2   7   0    7.71    0.78
   2   8   0   22.24    1.16
   2   9   0    0.02    0.65
  -3  11   0   -0.14    0.66
  -3  10   0   12.12    1.03
  -3   9   0    8.16    0.83
   3  -8   0   26.92    0.97
  -3   8   0   27.67    1.16
   3  -7   0    0.65    0.39
  -3   7   0    0.13    0.40
   3  -6   0    2.07    0.37
  -3   6   0    1.67    0.41
   3  -5   0    5.27    0.49
  -3   5   0    5.62    0.53
   3  -4   0   67.95    1.51
  -3   4   0   66.80    1.54
   3  -3   0  483.11    8.63
  -3   3   0  483.40    8.38
   3  -2   0  110.62    2.27
   3  -2   0  112.19    2.21
  -3   2   0  110.62    2.19
   3  -1   0  162.21    3.01
   3  -1   0  154.31    3.17
  -3   1   0  151.33    2.92
   3   0   0  149.80    3.18
   3   0   0  151.09    2.90
   3   0   0  144.93    2.82
   3   1   0   10.30    0.67
   3   1   0    9.24    0.56
   3   1   0    9.91    0.54
   3   2   0    4.16    0.41
   3   2   0    2.63    0.52
   3   2   0    3.59    0.41
   3   3   0  353.16    7.45
   3   3   0  336.60    6.24
   3   3   0  336.29    6.13
   3   4   0   69.58    1.70
   3   4   0   70.01    2.29
  -3  -4   0   68.91    1.61
   3   5   0   91.49    2.16
   3   5   0   91.55    2.92
  -3  -5   0   89.65    2.00
   3   6   0    0.25    0.51
   3   7   0   -0.13    0.57
   3   8   0   -0.25    0.61
   3   9   0    2.54    0.80
  -4  11   0    3.83    0.82
  -4  10   0   17.01    1.12
  -4   9   0    0.27    0.50
   4  -8   0   15.41    0.86
  -4   8   0   14.95    0.98
   4  -7   0    6.55    0.67
  -4   7   0    7.22    0.72
   4  -6   0   32.14    1.03
  -4   6   0   32.58    1.13
   4  -5   0    1.45    0.39
  -4   5   0   -0.09    0.32
   4  -4   0  123.00    2.54
  -4   4   0  124.49    2.56
   4  -3   0   33.63    0.98
   4  -3   0   33.16    0.86
  -4   3   0   32.64    1.00
   4  -2   0   52.22    1.32
  -4   2   0   51.14    1.30
   4  -1   0   10.66    0.65
   4  -1   0   10.28    0.51
  -4   1   0   10.98    0.60
   4   0   0   22.09    0.85
   4   0   0   22.29    0.84
   4   0   0   20.20    0.96
   4   1   0   75.23    1.75
   4   1   0   74.12    1.98
   4   1   0   73.13    1.72
   4   2   0    6.08    0.77
   4   2   0    6.07    0.60
   4   2   0    5.91    0.55
   4   3   0   54.58    1.44
   4   3   0   56.27    1.50
   4   3   0   56.72    1.95
   4   4   0    0.85    0.72
   4   4   0   -0.41    0.45
  -4  -4   0    0.28    0.32
   4   5   0   24.89    1.63
   4   5   0   24.31    1.09
  -4  -5   0   23.40    0.89
   4   6   0    0.59    0.56
   4   7   0   23.01    1.22
   4   8   0    2.06    0.76
  -5  11   0   -0.07    0.70
  -5  10   0   -0.26    0.62
   5  -9   0   12.79    0.90
  -5   9   0   14.57    1.07
   5  -8   0   52.30    1.53
  -5   8   0   51.39    1.68
   5  -7   0   20.55    0.95
  -5   7   0   19.42    1.01
   5  -6   0   12.63    0.76
  -5   6   0   12.18    0.83
   5  -5   0   72.88    1.76
  -5   5   0   71.71    1.81
   5  -4   0    0.61    0.27
   5  -4   0    0.70    0.40
  -5   4   0    0.21    0.33
   5  -3   0    3.92    0.52
  -5   3   0    3.85    0.47
   5  -2   0  404.62    8.09
   5  -2   0  421.50    7.60
  -5   2   0  402.86    7.36
   5  -1   0   95.13    2.15
   5  -1   0   93.45    2.14
  -5   1   0   93.50    2.11
   5   0   0  124.48    2.89
   5   0   0  124.64    2.72
  -5   0   0  123.45    2.64
   5   1   0   17.31    0.98
   5   1   0   18.48    0.86
   5   1   0   16.57    0.89
   5   2   0    0.71    0.50
   5   2   0    0.84    0.61
   5   2   0   -0.17    0.51
   5   3   0    2.41    0.60
   5   3   0    3.59    0.63
   5   3   0    3.77    0.80
   5   4   0   29.28    1.26
   5   4   0   28.13    1.67
  -5  -4   0   27.30    1.07
   5   5   0   34.96    1.42
  -5  -5   0   32.18    1.14
   5   6   0   10.23    1.01
   5   7   0    3.55    0.87
  -6  11   0    5.01    0.96
  -6  10   0    0.38    0.70
   6  -9   0    6.34    0.78
  -6   9   0    7.14    0.88
   6  -8   0   -0.32    0.53
  -6   8   0    0.27    0.51
   6  -7   0   13.73    0.92
  -6   7   0   13.59    0.99
   6  -6   0    8.80    0.65
   6  -6   0    9.47    0.79
  -6   6   0    8.77    0.81
   6  -5   0   35.68    1.04
   6  -5   0   36.86    1.22
  -6   5   0   34.45    1.27
   6  -4   0   19.31    0.91
  -6   4   0   19.01    0.91
   6  -3   0    3.90    0.57
  -6   3   0    3.27    0.50
   6  -2   0    0.81    0.46
  -6   2   0    0.61    0.34
   6  -1   0    0.72    0.47
   6  -1   0    0.71    0.32
  -6   1   0    0.77    0.36
   6   0   0   73.60    1.96
   6   0   0   72.91    1.89
  -6   0   0   72.29    1.82
   6   1   0   12.36    0.93
   6   1   0   13.26    1.03
   6   1   0   11.04    1.00
   6   2   0   64.21    1.88
   6   2   0   61.35    1.81
   6   2   0   62.36    2.16
   6   3   0   -0.22    0.59
   6   3   0    1.09    0.63
   6   3   0   -0.04    0.66
   6   4   0    2.66    0.74
  -6  -4   0    2.33    0.52
   6   5   0    0.19    0.70
   6   6   0    6.26    0.96
   6   7   0    3.81    0.94
  -7  11   0    0.68    0.86
   7 -10   0    1.53    0.73
  -7  10   0    2.97    0.85
   7  -9   0   -0.76    0.53
  -7   9   0   -0.23    0.60
   7  -8   0   -0.53    0.54
  -7   8   0   -0.41    0.54
   7  -7   0   55.11    1.74
   7  -7   0   60.99    2.12
  -7   7   0   55.15    1.81
   7  -6   0   12.20    0.96
  -7   6   0   13.49    1.00
   7  -5   0   33.19    1.26
  -7   5   0   31.43    1.29
   7  -4   0   15.78    0.96
  -7   4   0   16.77    0.93
   7  -3   0    1.19    0.51
  -7   3   0    0.91    0.40
   7  -2   0    1.85    0.56
   7  -2   0    0.95    0.31
  -7   2   0    1.33    0.42
   7  -1   0   24.89    1.15
   7  -1   0   24.78    0.98
  -7   1   0   23.79    1.03
   7   0   0   20.25    1.08
   7   0   0   19.45    1.06
  -7   0   0   19.40    0.93
   7   1   0   10.03    1.11
   7   1   0   11.28    1.04
  -7  -1   0   10.74    0.86
   7   2   0    3.91    0.76
   7   2   0    2.93    0.75
   7   2   0    1.95    0.76
   7   3   0    0.05    0.69
   7   3   0   -0.53    0.69
   7   4   0    5.63    0.95
  -7  -4   0    6.82    0.77
   7   5   0    0.61    0.81
   7   6   0    5.54    1.04
  -8  11   0    2.75    1.00
   8 -10   0    9.39    1.06
  -8  10   0    9.66    1.15
   8  -9   0    0.36    0.66
  -8   9   0    1.34    0.74
   8  -8   0    0.09    0.60
  -8   8   0    0.82    0.66
   8  -7   0    2.23    0.66
  -8   7   0    1.96    0.68
   8  -6   0   -0.45    0.54
  -8   6   0   -0.04    0.52
   8  -5   0   39.69    1.48
  -8   5   0   38.05    1.48
   8  -4   0   24.46    1.19
  -8   4   0   24.61    1.16
   8  -3   0   34.55    1.40
  -8   3   0   37.29    1.35
   8  -2   0    8.50    0.91
  -8   2   0    7.82    0.77
   8  -1   0   -0.45    0.46
   8  -1   0   -1.18    0.56
  -8   1   0    0.38    0.42
   8   0   0    5.48    0.73
   8   0   0    5.47    0.84
  -8   0   0    6.49    0.73
   8   1   0   16.28    1.15
   8   1   0   16.91    1.25
  -8  -1   0   16.44    1.01
   8   2   0   10.79    1.13
  -8  -2   0   11.86    0.99
   8   3   0   14.32    1.23
   8   3   0   13.10    1.33
   8   4   0    0.70    0.88
   8   5   0   -0.32    0.90
  -9  11   0    0.52    1.06
   9 -10   0    1.09    0.78
  -9  10   0    2.92    1.05
   9  -9   0    0.19    0.70
  -9   9   0   -0.45    0.74
   9  -8   0    2.12    0.76
  -9   8   0    4.83    0.90
   9  -7   0    1.39    0.68
  -9   7   0    0.66    0.66
   9  -6   0    6.69    0.86
  -9   6   0    7.86    0.87
   9  -5   0    0.84    0.60
  -9   5   0    0.25    0.50
   9  -4   0    3.17    0.70
  -9   4   0    4.38    0.68
   9  -3   0    2.20    0.66
  -9   3   0    2.38    0.56
   9  -2   0    3.47    0.77
  -9   2   0    4.45    0.68
   9  -1   0    9.98    1.04
  -9   1   0   10.19    0.85
   9   0   0    0.25    0.67
  -9   0   0    0.17    0.45
   9   1   0    3.47    0.89
  -9  -1   0    4.29    0.71
   9   2   0   -0.08    0.82
  -9  -2   0    1.05    0.57
   9   3   0    1.37    0.95
  -9  -3   0    3.18    0.82
  -9  -4   0    0.23    0.68
  10 -10   0    3.15    0.89
 -10  10   0    4.61    1.08
  10  -9   0    6.12    0.98
 -10   9   0    6.68    1.15
  10  -8   0    5.67    0.93
 -10   8   0    5.65    1.03
  10  -7   0    0.32    0.64
 -10   7   0    1.14    0.78
  10  -6   0    0.52    0.63
 -10   6   0    0.65    0.59
  10  -5   0    0.68    0.63
 -10   5   0    1.92    0.64
  10  -4   0   13.03    1.08
 -10   4   0   14.03    1.07
  10  -3   0    8.03    1.02
 -10   3   0    7.10    0.81
  10  -2   0   14.65    1.16
 -10   2   0   14.75    1.02
  10  -1   0   -0.23    0.66
 -10   1   0    0.35    0.52
  10   0   0    0.09    0.73
 -10   0   0    0.01    0.54
  10   1   0    0.50    0.84
 -10  -1   0    0.10    0.56
  10   2   0   -0.11    0.87
 -10  -2   0    0.47    0.65
  11  -9   0    0.67    0.80
 -11   9   0    2.23    1.03
  11  -8   0    0.93    0.74
 -11   8   0    2.14    0.93
  11  -7   0    3.71    0.83
 -11   7   0    7.39    1.04
  11  -6   0    4.17    0.87
 -11   6   0    4.53    0.87
  11  -5   0    0.66    0.71
 -11   5   0    1.67    0.70
  11  -4   0    0.14    0.73
 -11   4   0    0.53    0.56
  11  -3   0   -0.62    0.64
 -11   3   0    0.49    0.59
  11  -2   0    1.49    0.79
 -11   2   0    2.62    0.68
  11  -1   0    1.69    0.89
 -11   1   0    2.92    0.71
  11   0   0    7.31    1.20
 -11   0   0    8.70    0.98
  11   1   0   -0.36    0.93
 -11  -1   0    2.19    0.71
  12  -8   0    1.41    0.81
 -12   8   0    2.48    0.99
  12  -7   0    3.13    0.86
 -12   7   0    4.03    0.95
  12  -6   0    0.54    0.77
 -12   6   0    1.69    0.79
  12  -5   0    0.89    0.81
 -12   5   0    0.89    0.68
  12  -4   0    0.06    0.70
 -12   4   0    0.63    0.66
  12  -3   0    0.12    0.76
 -12   3   0    2.53    0.70
  12  -2   0    3.29    0.96
 -12   2   0    3.02    0.72
 -12   1   1   -0.06    0.61
  12  -1  -1    0.41    0.80
 -12   2   1    0.95    0.62
  12  -2  -1    1.23    0.80
 -12   3   1    0.03    0.61
  12  -3  -1   -0.16    0.83
 -12   4   1    3.31    0.79
  12  -4  -1    2.89    0.90
 -12   5   1    2.67    0.82
  12  -5  -1    0.41    0.79
 -12   6   1    2.83    0.84
  12  -6  -1    2.90    0.85
 -12   7   1    0.82    0.86
  12  -7  -1    0.82    0.77
 -12   8   1    1.11    0.94
  12  -8  -1   -0.10    0.76
 -11  -1   1    2.57    0.75
  11   1  -1    0.27    0.90
 -11   0   1    0.59    0.62
  11   0  -1    0.70    0.83
 -11   1   1    0.77    0.61
  11  -1  -1   -0.08    0.71
 -11   2   1    0.79    0.59
  11  -2  -1   -0.24    0.76
 -11   3   1    2.17    0.65
  11  -3  -1    2.74    0.85
 -11   4   1    8.97    0.96
  11  -4  -1    8.65    1.03
 -11   5   1    1.27    0.68
  11  -5  -1    2.72    0.77
 -11   6   1    2.50    0.78
  11  -6  -1    1.36    0.74
 -11   7   1    0.58    0.74
  11  -7  -1    0.24    0.68
 -11   8   1    0.94    0.89
  11  -8  -1   -0.46    0.71
 -11   9   1    0.61    0.95
  11  -9  -1    0.60    0.79
 -10  -3   1    1.01    0.72
  10   3  -1   -1.11    0.90
 -10  -2   1    0.79    0.62
  10   2  -1   -0.80    0.80
 -10  -1   1    6.65    0.88
  10   1  -1    5.87    1.02
 -10   0   1    6.84    0.86
  10   0  -1    6.46    0.96
 -10   1   1   13.42    1.06
  10  -1  -1   13.69    1.15
 -10   2   1    0.30    0.51
  10  -2  -1    0.10    0.67
 -10   3   1    0.72    0.51
  10  -3  -1   -0.28    0.63
 -10   4   1    1.03    0.54
  10  -4  -1    1.99    0.67
 -10   5   1    4.74    0.79
  10  -5  -1    2.89    0.74
 -10   6   1   12.62    1.15
  10  -6  -1   10.99    1.07
 -10   7   1    8.35    1.05
  10  -7  -1    8.21    1.01
 -10   8   1    2.51    0.87
  10  -8  -1    2.07    0.80
 -10   9   1    1.34    0.94
  10  -9  -1   -0.69    0.71
 -10  10   1    0.84    1.00
  10 -10  -1   -0.75    0.72
  -9  -3   1    1.40    0.72
   9   3  -1    0.67    0.83
  -9  -2   1    5.33    0.80
   9   2  -1    4.16    0.92
  -9  -1   1    5.94    0.77
   9   1  -1   10.30    1.06
  -9   0   1    1.68    0.57
   9   0  -1    0.97    0.65
  -9   1   1    6.47    0.74
   9  -1  -1    6.23    0.88
  -9   2   1    0.50    0.45
   9  -2  -1    0.64    0.62
  -9   3   1   10.26    0.89
   9  -3  -1    9.42    0.94
  -9   4   1    0.35    0.49
   9  -4  -1    0.07    0.56
  -9   5   1    5.16    0.74
   9  -5  -1    5.86    0.79
  -9   6   1    0.07    0.51
   9  -6  -1    0.51    0.60
  -9   7   1    7.10    0.97
   9  -7  -1    6.61    0.87
  -9   8   1    0.94    0.72
   9  -8  -1    0.80    0.69
  -9   9   1    5.34    1.04
   9  -9  -1    2.94    0.81
  -9  10   1    2.41    0.97
   9 -10  -1    1.05    0.75
   8   5  -1    4.29    1.05
   8   4  -1   13.47    1.40
   8   4  -1   11.89    1.15
   8   3  -1   -0.38    0.71
   8   3  -1   -0.13    0.77
   8   2  -1    0.68    0.67
  -8  -1   1    1.49    0.52
   8   1  -1    2.10    0.70
  -8   0   1   28.29    1.23
   8   0  -1   31.10    1.38
  -8   1   1   42.11    1.43
   8  -1  -1   39.84    1.51
  -8   2   1   46.98    1.55
   8  -2  -1   43.68    1.56
  -8   3   1    5.56    0.69
   8  -3  -1    6.19    0.78
  -8   4   1    2.49    0.56
   8  -4  -1    2.68    0.65
  -8   5   1    0.77    0.48
   8  -5  -1    1.45    0.61
  -8   6   1    0.38    0.56
   8  -6  -1   -0.58    0.53
  -8   7   1   30.32    1.41
   8  -7  -1   27.61    1.34
  -8   8   1   11.64    1.19
   8  -8  -1   10.57    1.02
  -8   9   1   12.86    1.26
   8  -9  -1   10.66    1.07
  -8  10   1    0.20    0.86
   8 -10  -1   -0.76    0.63
  -8  11   1   -1.02    0.86
   7   6  -1    0.96    0.87
   7   5  -1    1.28    0.83
   7   4  -1    8.18    0.98
   7   4  -1    8.56    0.94
   7   3  -1   11.91    1.10
   7   3  -1   11.58    0.99
   7   2  -1   51.55    1.69
   7   2  -1   52.16    1.76
   7   1  -1    0.13    0.60
  -7   0   1    7.76    0.69
   7   0  -1    8.43    0.86
  -7   1   1    8.56    0.75
   7  -1  -1    9.57    0.81
  -7   2   1   41.49    1.39
   7  -2  -1   43.91    1.43
  -7   3   1   19.82    0.96
   7  -3  -1   21.09    1.00
  -7   4   1   93.86    2.34
   7  -4  -1   92.13    2.29
  -7   5   1   13.55    0.92
   7  -5  -1   13.01    0.90
  -7   6   1    3.10    0.63
   7  -6  -1    3.08    0.64
  -7   7   1    3.02    0.65
   7  -7  -1    3.16    0.68
  -7   8   1   -0.51    0.54
   7  -8  -1    0.34    0.57
  -7   9   1    7.03    0.92
   7  -9  -1    6.04    0.83
  -7  10   1    6.80    0.99
   7 -10  -1    5.22    1.28
  -7  11   1    6.77    1.08
   6   7  -1    2.49    0.92
   6   6  -1   -1.26    0.72
   6   5  -1   33.61    1.52
   6   4  -1   20.66    1.08
   6   4  -1   20.44    1.20
   6   3  -1   64.83    1.93
   6   3  -1   65.33    1.82
   6   2  -1    3.27    0.63
   6   2  -1    4.14    0.69
   6   1  -1   -0.44    0.49
   6   1  -1    0.31    0.52
  -6   0   1    0.45    0.34
   6   0  -1    0.71    0.46
  -6   1   1    8.44    0.67
   6  -1  -1    9.84    0.73
  -6   2   1  122.90    2.69
   6  -2  -1  120.23    2.68
  -6   3   1   47.73    1.45
   6  -3  -1   49.24    1.40
  -6   4   1   87.56    2.16
   6  -4  -1   91.05    2.13
  -6   5   1    1.65    0.48
   6  -5  -1    1.80    0.30
   6  -5  -1    0.69    0.47
  -6   6   1   16.46    1.00
   6  -6  -1   16.31    0.94
  -6   7   1    0.19    0.49
   6  -7  -1   -0.31    0.50
  -6   8   1   16.31    1.10
   6  -8  -1   16.72    1.02
  -6   9   1    1.19    0.65
   6  -9  -1    1.09    0.60
  -6  10   1    5.07    0.89
  -6  11   1    0.86    0.77
   5   8  -1    6.50    1.02
   5   7  -1   15.71    1.29
   5   6  -1    1.74    0.73
  -5  -5   1    4.76    0.53
   5   5  -1    4.60    0.73
   5   4  -1    5.74    0.77
   5   4  -1    8.45    0.79
   5   3  -1   50.39    1.58
   5   3  -1   52.67    1.48
   5   2  -1   56.30    1.50
   5   2  -1   54.80    1.55
   5   1  -1  436.40    7.95
   5   1  -1  427.33    7.75
   5   1  -1  428.01    8.82
  -5   0   1   30.85    1.06
   5   0  -1   30.71    1.04
  -5   1   1    8.67    0.64
   5  -1  -1    9.98    0.69
  -5   2   1   54.95    1.46
   5  -2  -1   53.76    1.42
  -5   3   1    0.75    0.34
   5  -3  -1    1.24    0.39
  -5   4   1  105.57    2.39
   5  -4  -1  109.14    2.36
  -5   5   1  163.58    3.39
   5  -5  -1  167.27    3.39
  -5   6   1  100.17    2.37
   5  -6  -1  100.80    2.32
  -5   7   1   -0.23    0.44
   5  -7  -1    0.93    0.52
  -5   8   1    0.56    0.50
   5  -8  -1   -0.01    0.52
  -5   9   1    3.57    0.70
   5  -9  -1    3.31    0.68
  -5  10   1    7.53    0.92
  -5  11   1    2.39    0.85
   4   9  -1    0.98    0.80
   4   8  -1   10.84    1.07
   4   7  -1    0.82    0.63
   4   6  -1   10.15    0.91
  -4  -5   1    1.97    0.39
   4   5  -1    2.51    0.63
   4   4  -1   38.15    1.12
   4   4  -1   36.14    1.29
   4   3  -1   76.11    1.75
   4   3  -1   77.26    1.86
   4   2  -1   21.97    0.89
   4   2  -1   22.58    0.82
   4   2  -1   23.12    1.04
   4   1  -1  103.22    2.48
   4   1  -1  107.32    2.28
   4   1  -1  107.80    2.25
   4   0  -1   20.46    0.79
   4   0  -1   21.57    0.92
  -4   1   1  328.39    5.89
   4  -1  -1  323.48    5.98
  -4   2   1    7.19    0.53
   4  -2  -1    7.97    0.57
  -4   3   1  158.95    3.13
   4  -3  -1  158.49    3.13
  -4   4   1   10.98    0.65
   4  -4  -1   11.92    0.63
  -4   5   1   36.61    1.13
   4  -5  -1   36.33    1.08
  -4   6   1    6.16    0.66
   4  -6  -1    6.05    0.60
  -4   7   1   61.90    1.71
   4  -7  -1   63.77    1.66
  -4   8   1   23.12    1.09
   4  -8  -1   22.50    1.02
  -4   9   1    8.03    0.83
  -4  10   1    1.10    0.67
  -4  11   1    0.22    0.68
   3   9  -1   -0.20    0.70
   3   8  -1   11.69    1.06
   3   7  -1   12.05    0.98
   3   6  -1  111.71    2.58
  -3  -5   1    7.96    0.46
   3   5  -1    8.92    0.79
   3   4  -1    5.27    0.56
   3   3  -1   63.05    1.51
   3   3  -1   60.25    1.37
   3   2  -1   75.02    1.69
   3   2  -1   76.08    1.99
   3   2  -1   76.64    1.66
   3   1  -1  222.33    4.05
   3   1  -1  222.38    4.13
   3   0  -1  698.94   12.36
   3   0  -1  691.44   11.86
  -3   1   1  384.82    6.76
   3  -1  -1  387.00    6.92
  -3   2   1    2.64    0.32
   3  -2  -1    4.07    0.44
  -3   3   1    0.22    0.28
   3  -3  -1    0.59    0.31
  -3   4   1   24.24    0.82
   3  -4  -1   23.45    0.80
  -3   5   1  135.51    2.74
   3  -5  -1  135.15    2.74
  -3   6   1   39.95    1.20
   3  -6  -1   40.80    1.18
  -3   7   1  106.47    2.42
   3  -7  -1  106.90    2.37
  -3   8   1    0.29    0.47
   3  -8  -1   -0.08    0.47
  -3   9   1    7.02    0.80
  -3  10   1    0.16    0.59
  -3  11   1    2.80    0.81
   2  10  -1    2.36    0.82
   2   9  -1    7.42    0.91
   2   8  -1    3.24    0.68
   2   7  -1   -0.05    0.47
  -2  -6   1   13.85    0.52
   2   6  -1   12.30    0.85
  -2  -5   1   29.69    0.77
   2   5  -1   29.65    1.03
  -2  -4   1  306.37    5.48
   2   4  -1  301.62    5.50
   2   3  -1   31.43    0.76
   2   3  -1   30.54    0.92
   2   2  -1  100.73    1.95
   2   2  -1  101.89    2.01
   2   1  -1  166.87    3.07
   2   1  -1  165.26    3.02
   2   0  -1   93.82    1.83
   2   0  -1   94.57    1.82
  -2   1   1   14.72    0.40
  -2   1   1   12.50    0.53
   2  -1  -1   15.54    0.50
  -2   2   1  996.29   17.49
  -2   2   1 1000.00   20.09
   2  -2  -1  985.34   17.89
  -2   3   1  268.23    5.52
  -2   3   1  263.28    4.72
   2  -3  -1  269.12    4.87
  -2   4   1  141.86    2.77
  -2   4   1  144.38    3.32
   2  -4  -1  148.32    2.83
  -2   5   1    6.46    0.53
  -2   5   1    6.58    0.74
   2  -5  -1    7.39    0.53
  -2   6   1    7.63    0.63
   2  -6  -1    6.45    0.59
  -2   7   1   11.38    0.80
   2  -7  -1   10.41    0.75
  -2   8   1   13.16    0.88
  -2   9   1   37.37    1.41
  -2  10   1    3.54    0.76
  -2  11   1    2.74    0.81
   1  10  -1   -0.76    0.65
   1   9  -1    2.26    0.68
   1   8  -1    3.97    0.66
   1   7  -1   29.27    1.16
  -1  -6   1   26.61    0.70
   1   6  -1   26.95    1.02
   1   5  -1  149.25    2.97
  -1  -4   1   57.34    1.13
   1   4  -1   55.59    1.36
  -1  -3   1   19.83    0.48
   1   3  -1   19.63    0.71
   1   2  -1    1.95    0.16
   1   2  -1    1.50    0.24
   1   1  -1    0.78    0.17
   1   1  -1    1.14    0.15
  -1   0   1  201.19    4.09
   1   0  -1  199.07    3.99
   1   0  -1  197.90    3.58
   1   0  -1  207.13    3.57
  -1   1   1  163.79    3.38
  -1   1   1  170.58    2.89
   1  -1  -1  162.41    3.00
  -1   2   1  539.89   11.35
  -1   2   1  540.54    9.53
   1  -2  -1  543.05    9.66
  -1   3   1    2.74    0.45
  -1   3   1    2.63    0.30
   1  -3  -1    1.65    0.31
  -1   4   1  108.09    2.71
  -1   4   1  107.57    2.14
   1  -4  -1  106.70    2.15
  -1   5   1   -0.01    0.46
  -1   5   1    1.01    0.32
   1  -5  -1    0.19    0.31
  -1   6   1   65.12    2.19
  -1   6   1   64.12    1.61
   1  -6  -1   64.87    1.53
  -1   7   1    1.82    0.50
   1  -7  -1    2.57    0.50
  -1   8   1   15.91    0.94
  -1   9   1    0.87    0.57
  -1  10   1    1.74    0.74
   0  11  -1    1.27    0.78
   0  10  -1    8.22    0.94
   0   9  -1   34.31    1.38
   0   8  -1    2.87    0.57
   0   7  -1    8.09    0.74
   0   6  -1   64.51    1.59
   0   5  -1   18.40    0.73
   0   4  -1    7.02    0.48
   0   3  -1  852.37   15.02
   0   2  -1  241.52    4.18
   0  -1   1  189.21    3.95
   0  -1   1  202.56    3.46
   0   1  -1  195.35    3.47
   0   0   1   57.87    1.47
   0   0  -1   79.16    1.29
   0   1   1   58.49    1.44
   0   1   1   59.16    1.09
   0  -1  -1   60.31    1.18
   0   2   1   10.00    0.66
   0   2   1    9.36    0.38
   0  -2  -1    9.02    0.39
   0   3   1  235.43    4.17
   0   3   1  229.29    5.13
   0  -3  -1  238.98    4.31
   0   4   1  348.90    7.62
   0   4   1  358.39    6.27
   0  -4  -1  360.09    6.45
   0   5   1   26.11    1.38
   0   5   1   26.15    0.89
   0  -5  -1   27.03    0.84
   0   6   1   18.39    1.40
   0   6   1   17.98    0.85
   0  -6  -1   18.39    0.78
   0   7   1   13.81    0.87
   0  -7  -1   15.45    0.76
   0   8   1    8.25    0.83
   0   9   1    2.05    0.66
   0  10   1   17.73    1.24
  -1  11  -1    0.72    0.76
  -1  10  -1    8.08    0.91
  -1   9  -1    1.14    0.54
  -1   8  -1    9.97    0.81
  -1   7  -1    3.33    0.50
   1  -6   1   15.20    0.53
  -1   6  -1   14.92    0.76
   1  -5   1   37.30    0.83
  -1   5  -1   34.57    1.03
   1  -4   1    4.22    0.30
  -1   4  -1    4.00    0.43
   1  -3   1   76.47    1.47
  -1   3  -1   79.59    1.56
   1  -2   1   23.69    0.61
  -1   2  -1   24.82    0.63
   1  -1   1  426.41    9.05
   1  -1   1  436.34    8.04
  -1   1  -1  467.92    7.66
   1   0   1   15.10    0.59
   1   0   1   14.33    0.38
   1   0   1   16.04    0.45
   1   1   1  267.87    4.52
   1   1   1  258.66    5.49
  -1  -1  -1  262.90    4.77
   1   2   1   16.18    0.89
   1   2   1   16.47    0.54
  -1  -2  -1   16.35    0.57
   1   3   1   13.34    0.99
   1   3   1   14.11    0.61
  -1  -3  -1   14.08    0.55
   1   4   1    2.78    0.65
   1   4   1    4.13    0.44
  -1  -4  -1    3.55    0.38
   1   5   1   57.07    2.13
   1   5   1   57.34    1.46
  -1  -5  -1   58.84    1.40
   1   6   1   34.94    1.81
   1   6   1   34.18    1.17
  -1  -6  -1   34.55    1.05
   1   7   1   31.88    1.19
   1   8   1    7.60    0.80
   1   9   1    0.55    0.64
  -2  11  -1    2.18    0.76
  -2  10  -1    4.23    0.74
  -2   9  -1    2.08    0.56
  -2   8  -1  101.73    2.41
   2  -7   1   10.32    0.54
  -2   7  -1   10.20    0.71
   2  -6   1   25.81    0.74
  -2   6  -1   23.56    0.90
   2  -5   1   99.35    1.95
  -2   5  -1   96.27    2.07
   2  -4   1    0.74    0.26
  -2   4  -1    0.99    0.29
   2  -3   1    5.98    0.38
  -2   3  -1    6.60    0.40
   2  -2   1  191.93    3.42
   2  -2   1  185.70    3.79
  -2   2  -1  177.58    3.29
   2  -1   1  549.13   11.14
   2  -1   1  546.07    9.87
  -2   1  -1  543.26    9.56
   2   0   1   28.18    0.92
   2   0   1   28.64    0.76
   2   0   1   27.86    0.72
   2   1   1    7.57    0.50
   2   2   1   79.67    1.63
   2   2   1   75.74    2.20
  -2  -2  -1   79.30    1.71
   2   3   1   49.59    1.22
   2   3   1   49.22    1.76
  -2  -3  -1   50.08    1.24
   2   4   1    7.86    0.59
   2   4   1    8.62    1.06
  -2  -4  -1    6.84    0.48
   2   5   1   94.83    2.18
   2   5   1   99.60    3.05
  -2  -5  -1   99.53    2.16
   2   6   1    2.86    0.55
   2   6   1    1.73    0.88
  -2  -6  -1    2.81    0.44
   2   7   1   10.67    0.89
   2   8   1   -0.06    0.58
   2   9   1    3.82    0.82
  -3  12  -1    1.66    0.83
  -3  11  -1    6.09    0.88
  -3  10  -1    1.58    0.61
  -3   9  -1    0.12    0.48
   3  -8   1    0.07    0.38
  -3   8  -1    0.17    0.45
   3  -7   1    1.81    0.40
  -3   7  -1    2.01    0.47
   3  -6   1  186.57    3.56
  -3   6  -1  183.98    3.63
   3  -5   1   42.17    1.07
  -3   5  -1   42.02    1.17
   3  -4   1  124.87    2.44
  -3   4  -1  118.23    2.43
   3  -3   1  166.12    3.45
   3  -3   1  163.10    3.13
  -3   3  -1  159.55    3.06
   3  -2   1    6.84    0.44
   3  -2   1    7.36    0.49
  -3   2  -1    7.89    0.46
   3  -1   1   97.02    2.03
   3  -1   1   97.44    2.20
  -3   1  -1   95.82    1.94
   3   0   1  281.83    5.16
   3   0   1  276.21    4.94
   3   0   1  277.40    5.81
   3   1   1  192.49    3.57
   3   1   1  197.88    3.75
   3   1   1  192.43    4.33
   3   2   1  151.81    2.90
   3   2   1  151.29    3.01
   3   2   1  150.64    3.65
   3   3   1    0.33    0.33
   3   3   1    0.11    0.54
  -3  -3  -1    0.71    0.30
   3   4   1   10.10    1.25
   3   4   1    9.95    0.74
  -3  -4  -1   10.76    0.63
   3   5   1    0.21    0.47
   3   5   1    0.52    0.81
  -3  -5  -1    0.90    0.36
   3   6   1    0.51    0.86
   3   6   1    0.58    0.51
  -3  -6  -1    1.91    0.55
   3   7   1   20.64    1.15
   3   8   1    4.59    0.81
  -4  12  -1    0.31    0.78
  -4  11  -1    2.86    0.83
  -4  10  -1    2.71    0.67
  -4   9  -1    5.52    0.77
   4  -8   1    2.59    0.51
  -4   8  -1    1.94    0.58
   4  -7   1   52.60    1.39
  -4   7  -1   49.52    1.51
   4  -6   1   20.42    0.80
  -4   6  -1   19.13    0.89
   4  -5   1   10.30    0.62
  -4   5  -1   10.96    0.67
   4  -4   1    2.76    0.40
   4  -4   1    2.83    0.43
  -4   4  -1    2.09    0.42
   4  -3   1    5.25    0.46
   4  -3   1    6.09    0.57
  -4   3  -1    4.80    0.50
   4  -2   1   65.21    1.58
   4  -2   1   66.12    1.57
  -4   2  -1   63.05    1.50
   4  -1   1    0.17    0.31
   4  -1   1    0.54    0.37
  -4   1  -1    0.45    0.28
   4   0   1   86.03    1.94
   4   0   1   82.89    2.14
   4   1   1    5.71    0.53
   4   1   1    6.02    0.67
   4   1   1    5.28    0.59
   4   2   1   48.68    1.31
   4   2   1   49.46    1.75
   4   2   1   49.71    1.37
   4   3   1    0.71    0.46
   4   3   1    0.93    0.68
  -4  -3  -1    1.06    0.40
   4   4   1   26.27    1.11
   4   4   1   25.11    1.69
  -4  -4  -1   24.72    0.99
   4   5   1    0.47    0.79
   4   5   1    0.78    0.54
  -4  -5  -1    1.53    0.39
   4   6   1    3.94    1.05
   4   6   1    6.86    0.83
   4   7   1    0.49    0.68
   4   8   1    1.05    0.94
  -5  12  -1    1.11    0.85
  -5  11  -1   13.43    1.25
  -5  10  -1    9.04    0.98
   5  -9   1   13.53    0.88
  -5   9  -1   12.46    1.03
   5  -8   1   16.46    0.93
  -5   8  -1   17.53    1.06
   5  -7   1    1.11    0.49
  -5   7  -1    1.45    0.48
   5  -6   1   10.76    0.75
   5  -6   1    9.80    0.74
  -5   6  -1   10.50    0.79
   5  -5   1  178.67    3.85
   5  -5   1  175.56    3.59
  -5   5  -1  175.82    3.57
   5  -4   1   93.42    2.15
   5  -4   1   92.65    2.11
  -5   4  -1   92.75    2.14
   5  -3   1  134.65    2.88
   5  -3   1  140.87    2.92
  -5   3  -1  130.58    2.78
   5  -2   1   12.95    0.75
   5  -2   1   12.57    0.65
  -5   2  -1   12.87    0.67
   5  -1   1   24.67    0.99
   5  -1   1   23.73    0.94
  -5   1  -1   23.23    0.87
   5   0   1    5.99    0.62
   5   0   1    4.42    0.57
  -5   0  -1    5.30    0.51
   5   1   1   13.24    0.82
   5   1   1   11.79    0.81
   5   1   1   12.06    0.97
   5   2   1   78.11    1.99
   5   2   1   75.53    2.41
   5   2   1   80.05    1.94
   5   3   1    9.12    1.08
   5   3   1    8.79    0.88
  -5  -3  -1    9.65    0.73
   5   4   1   17.85    1.06
   5   4   1   16.94    1.50
  -5  -4  -1   18.10    0.92
   5   5   1    2.22    0.70
   5   5   1    1.97    0.99
  -5  -5  -1    3.03    0.53
   5   6   1    1.60    0.74
   5   7   1    0.33    0.80
  -6  12  -1    1.34    0.87
  -6  11  -1    1.14    0.80
  -6  10  -1    2.70    0.80
   6  -9   1    3.90    0.68
  -6   9  -1    3.54    0.73
   6  -8   1    8.84    0.87
   6  -8   1   10.36    0.89
  -6   8  -1    8.80    0.95
   6  -7   1   14.81    0.97
   6  -7   1   18.94    0.97
  -6   7  -1   17.22    1.05
   6  -6   1    0.03    0.45
   6  -6   1   -0.35    0.38
  -6   6  -1    0.22    0.46
   6  -5   1    2.06    0.39
   6  -5   1    2.90    0.57
  -6   5  -1    2.45    0.53
   6  -4   1    2.88    0.38
   6  -4   1    2.88    0.58
  -6   4  -1    2.15    0.46
   6  -3   1   66.20    1.59
   6  -3   1   63.65    1.74
  -6   3  -1   62.97    1.67
   6  -2   1   13.44    0.68
   6  -2   1   14.58    0.87
  -6   2  -1   13.56    0.76
   6  -1   1   94.28    2.29
   6  -1   1   94.10    2.33
  -6   1  -1   89.45    2.12
   6   0   1   -0.18    0.49
   6   0   1   -0.40    0.58
  -6   0  -1    0.13    0.30
   6   1   1    0.74    0.58
   6   1   1    1.23    0.60
   6   2   1    4.70    0.85
   6   2   1    4.90    0.78
   6   2   1    5.98    0.79
   6   3   1    3.39    0.70
   6   3   1    3.28    0.86
   6   4   1    7.39    1.16
   6   4   1    8.74    0.94
  -6  -4  -1    8.49    0.79
   6   5   1    9.74    1.00
   6   6   1    6.51    1.01
  -7  12  -1    0.80    0.91
  -7  11  -1   -0.21    0.80
   7 -10   1   13.70    1.06
  -7  10  -1   16.68    1.33
   7  -9   1    9.08    0.94
   7  -9   1   12.01    1.40
  -7   9  -1    8.48    0.98
   7  -8   1   18.05    1.11
   7  -8   1   21.20    1.11
  -7   8  -1   19.31    1.22
   7  -7   1    0.65    0.58
   7  -7   1    0.63    0.48
  -7   7  -1    1.09    0.57
   7  -6   1   -0.84    0.35
   7  -6   1    0.15    0.55
  -7   6  -1    0.29    0.51
   7  -5   1   -0.17    0.31
   7  -5   1    0.23    0.51
  -7   5  -1    0.31    0.45
   7  -4   1   15.87    0.96
  -7   4  -1   15.83    0.95
   7  -3   1   46.84    1.54
   7  -3   1   48.37    1.30
  -7   3  -1   48.05    1.48
   7  -2   1   19.88    0.90
   7  -2   1   20.20    1.07
  -7   2  -1   19.08    0.94
   7  -1   1    8.41    0.83
   7  -1   1    8.85    0.93
  -7   1  -1    9.20    0.72
   7   0   1    4.61    0.79
   7   0   1    3.64    0.84
  -7   0  -1    5.02    0.62
   7   1   1    7.26    0.92
   7   1   1    7.42    0.92
  -7  -1  -1    7.17    0.75
   7   2   1    0.14    0.69
   7   2   1    0.01    0.69
   7   2   1    0.25    0.70
   7   3   1   17.25    1.25
   7   3   1   15.76    1.57
  -7  -3  -1   17.25    1.03
   7   4   1    0.57    0.78
   7   4   1   -1.60    0.83
  -7  -4  -1    0.76    0.50
   7   5   1    3.63    0.95
  -8  11  -1   -0.64    0.89
   8 -10   1   -0.38    0.61
  -8  10  -1   -0.39    0.74
   8  -9   1    0.24    0.62
  -8   9  -1   -0.28    0.67
   8  -8   1   18.71    1.15
  -8   8  -1   18.36    1.29
   8  -7   1   14.12    1.07
  -8   7  -1   16.38    1.17
   8  -6   1   38.65    1.51
  -8   6  -1   39.03    1.53
   8  -5   1    0.65    0.57
  -8   5  -1    0.46    0.53
   8  -4   1   -0.42    0.55
  -8   4  -1   -0.39    0.43
   8  -3   1   11.54    1.01
  -8   3  -1   13.91    0.88
   8  -2   1    7.67    0.88
   8  -2   1    9.65    0.79
  -8   2  -1    7.63    0.79
   8  -1   1   23.78    1.17
   8  -1   1   20.08    1.25
  -8   1  -1   20.77    1.02
   8   0   1   37.08    1.57
   8   0   1   39.06    1.60
  -8   0  -1   37.72    1.39
   8   1   1    6.02    0.92
   8   1   1    6.83    0.98
  -8  -1  -1    8.19    0.80
   8   2   1   -0.45    0.78
   8   2   1   -0.18    0.78
  -8  -2  -1    0.14    0.49
   8   3   1   -0.93    0.85
  -8  -3  -1    1.30    0.57
  -9  11  -1    1.34    1.05
   9 -10   1   -0.02    0.67
  -9  10  -1    0.11    0.91
   9  -9   1    3.17    0.79
  -9   9  -1    2.70    0.90
   9  -8   1    4.13    0.81
  -9   8  -1    3.48    0.84
   9  -7   1    3.76    0.76
  -9   7  -1    5.49    0.85
   9  -6   1    4.30    0.77
  -9   6  -1    3.46    0.70
   9  -5   1    0.83    0.62
  -9   5  -1    0.31    0.50
   9  -4   1    9.83    0.99
  -9   4  -1    9.97    0.92
   9  -3   1    1.59    0.64
  -9   3  -1    2.56    0.57
   9  -2   1   10.47    1.03
  -9   2  -1    9.13    0.81
   9  -1   1   -0.33    0.68
  -9   1  -1    0.81    0.47
   9   0   1    4.77    0.95
  -9   0  -1    4.63    0.67
   9   1   1    0.18    0.83
  -9  -1  -1    1.54    0.59
   9   2   1    5.20    1.08
  -9  -2  -1    6.26    0.80
  -9  -3  -1    1.76    0.65
  -9  -3  -1    1.03    0.70
  10 -10   1    0.35    0.76
 -10  10  -1   -0.94    0.88
  10  -9   1   -0.59    0.69
 -10   9  -1    0.70    0.92
  10  -8   1    2.20    0.80
 -10   8  -1    1.93    0.88
  10  -7   1    5.65    0.94
 -10   7  -1    4.60    0.89
  10  -6   1    7.35    0.94
 -10   6  -1    8.29    0.97
  10  -5   1   18.91    1.27
 -10   5  -1   20.81    1.24
  10  -4   1    2.98    0.75
 -10   4  -1    3.14    0.69
  10  -3   1    1.05    0.69
 -10   3  -1    0.33    0.53
  10  -2   1   -0.11    0.66
 -10   2  -1   -0.12    0.48
  10  -1   1   -0.25    0.74
 -10   1  -1    1.15    0.54
  10   0   1    3.63    0.98
 -10   0  -1    6.32    0.79
  10   1   1    3.02    0.99
 -10  -1  -1    3.93    0.72
  10   2   1    1.85    1.08
 -10  -2  -1    4.58    0.96
  11 -10   1    0.06    0.74
 -11  10  -1    1.77    1.09
  11  -9   1    2.02    0.85
 -11   9  -1    2.44    1.01
  11  -8   1    0.92    0.76
 -11   8  -1    0.70    0.84
  11  -7   1    0.00    0.68
 -11   7  -1    1.08    0.77
  11  -6   1    0.37    0.75
 -11   6  -1    0.49    0.67
  11  -5   1    1.81    0.73
 -11   5  -1    3.44    0.75
  11  -4   1    1.56    0.75
 -11   4  -1    2.09    0.70
  11  -3   1    8.33    1.10
 -11   3  -1   10.56    1.02
  11  -2   1    1.65    0.86
 -11   2  -1    3.18    0.70
  11  -1   1    0.69    0.87
 -11   1  -1    1.61    0.58
  11   0   1   -0.31    0.95
 -11   0  -1    1.33    0.64
  12  -8   1    0.99    0.83
 -12   8  -1    0.54    0.88
  12  -7   1    1.33    0.82
 -12   7  -1    1.01    0.78
  12  -6   1    0.69    0.74
 -12   6  -1    1.27    0.76
  12  -5   1    0.86    0.72
 -12   5  -1    3.68    0.81
  12  -4   1    0.63    0.78
 -12   4  -1    2.65    0.76
  12  -3   1    0.78    0.87
 -12   3  -1    2.99    0.70
 -12   0   2    0.51    0.69
  12   0  -2   -0.42    0.82
 -12   1   2    3.50    0.79
  12  -1  -2    1.50    0.86
 -12   2   2    2.28    0.73
  12  -2  -2    1.66    0.95
 -12   3   2    3.58    0.77
  12  -3  -2    3.81    0.96
 -12   4   2    1.28    0.70
  12  -4  -2    0.58    0.79
 -12   5   2    1.28    0.74
  12  -5  -2    0.62    0.75
 -12   6   2    1.26    0.79
  12  -6  -2   -0.05    0.73
 -12   7   2    0.75    0.86
  12  -7  -2    0.10    0.76
 -11  -2   2    1.69    0.79
  11   2  -2    0.48    0.89
 -11  -1   2    2.29    0.77
  11   1  -2    1.71    0.85
 -11   0   2    1.41    0.68
  11   0  -2    0.79    0.77
 -11   1   2   13.07    1.13
  11  -1  -2   10.46    1.19
 -11   2   2    5.41    0.81
  11  -2  -2    3.98    0.92
 -11   3   2    5.34    0.84
  11  -3  -2    4.95    0.92
 -11   4   2    0.71    0.58
  11  -4  -2    0.36    0.69
 -11   5   2    1.21    0.66
  11  -5  -2    0.14    0.68
 -11   6   2    1.08    0.72
  11  -6  -2    0.04    0.70
 -11   7   2    3.60    0.91
  11  -7  -2    2.96    0.84
 -11   8   2    2.16    0.90
  11  -8  -2    0.59    0.75
 -11   9   2    2.68    1.06
  11  -9  -2    1.27    0.80
 -10  -3   2    4.38    0.89
  10   3  -2    2.84    0.98
 -10  -2   2   13.26    1.15
  10   2  -2   12.21    1.25
 -10  -1   2    1.38    0.64
  10   1  -2    0.18    0.72
 -10   0   2    1.75    0.62
  10   0  -2    0.22    0.73
 -10   1   2    0.89    0.52
  10  -1  -2    0.55    0.74
 -10   2   2    3.06    0.63
  10  -2  -2    3.15    0.76
 -10   3   2   22.74    1.22
  10  -3  -2   22.37    1.25
 -10   4   2   22.98    1.26
  10  -4  -2   22.19    1.27
 -10   5   2   11.70    1.09
  10  -5  -2   10.13    1.02
 -10   6   2    0.92    0.63
  10  -6  -2    0.53    0.63
 -10   7   2    0.23    0.73
  10  -7  -2   -0.05    0.66
 -10   8   2    0.14    0.77
  10  -8  -2   -0.21    0.72
 -10   9   2    5.34    1.11
  10  -9  -2    3.86    0.89
   9   5  -2    4.70    1.15
   9   4  -2    6.14    1.18
   9   3  -2    2.88    0.83
  -9  -2   2   11.37    1.08
   9   2  -2    9.97    1.08
  -9  -1   2    0.78    0.51
   9   1  -2    0.20    0.62
  -9   0   2   14.47    1.02
   9   0  -2   14.31    1.10
  -9   1   2    2.89    0.60
   9  -1  -2    2.50    0.67
  -9   2   2   27.31    1.25
   9  -2  -2   26.17    1.27
  -9   3   2    1.55    0.54
   9  -3  -2    0.85    0.56
  -9   4   2   10.80    0.92
   9  -4  -2   10.61    0.93
  -9   5   2    4.57    0.72
   9  -5  -2    4.40    0.73
  -9   6   2    6.83    0.83
   9  -6  -2    9.30    0.97
  -9   7   2    5.57    0.89
   9  -7  -2    6.06    0.87
  -9   8   2    2.89    0.84
   9  -8  -2    0.60    0.70
  -9   9   2    2.51    0.92
   9  -9  -2    1.24    0.75
  -9  10   2   -0.06    0.90
   9 -10  -2   -0.05    0.73
   8   6  -2    0.87    0.97
   8   5  -2    1.39    0.95
   8   4  -2    0.48    0.84
   8   4  -2    0.42    0.72
   8   3  -2   11.57    1.25
   8   3  -2   12.00    1.03
   8   2  -2   31.31    1.38
   8   2  -2   32.37    1.56
  -8  -1   2   73.23    2.11
   8   1  -2   74.31    2.14
  -8   0   2   33.94    1.31
   8   0  -2   33.66    1.41
  -8   1   2    1.20    0.46
   8  -1  -2    0.70    0.60
  -8   2   2   -0.38    0.38
   8  -2  -2    0.22    0.55
  -8   3   2    1.91    0.52
   8  -3  -2    0.82    0.55
  -8   4   2   58.18    1.79
   8  -4  -2   57.29    1.74
  -8   5   2   32.74    1.38
   8  -5  -2   32.58    1.32
  -8   6   2   55.97    1.83
   8  -6  -2   53.19    1.74
  -8   7   2    0.72    0.62
   8  -7  -2    0.03    0.58
  -8   8   2    1.13    0.70
   8  -8  -2   -0.11    0.58
  -8   9   2   -0.03    0.73
   8  -9  -2    0.45    0.68
  -8  10   2    2.61    0.93
   8 -10  -2    2.58    0.79
   7   7  -2    2.45    1.00
   7   6  -2    0.28    0.85
   7   5  -2   24.36    1.46
   7   4  -2    3.69    0.75
   7   4  -2    4.26    0.85
   7   3  -2   25.18    1.19
   7   3  -2   22.07    1.27
   7   2  -2    0.73    0.57
   7   2  -2    0.72    0.67
   7   1  -2   27.31    1.20
  -7   0   2   12.59    0.84
   7   0  -2   13.79    0.91
  -7   1   2  123.51    2.83
   7  -1  -2  123.42    2.81
  -7   2   2   44.14    1.45
   7  -2  -2   46.15    1.44
  -7   3   2   13.30    0.84
   7  -3  -2   13.29    0.83
  -7   4   2    0.58    0.43
   7  -4  -2    0.30    0.48
  -7   5   2    0.83    0.46
   7  -5  -2    1.32    0.54
  -7   6   2   28.26    1.28
   7  -6  -2   28.09    1.26
  -7   7   2   20.84    1.17
   7  -7  -2   20.95    1.15
  -7   8   2   38.95    1.57
   7  -8  -2   37.60    1.51
  -7   9   2    1.33    0.70
   7  -9  -2    0.45    0.65
  -7  10   2    0.91    0.79
   6   8  -2    4.58    1.05
   6   7  -2    7.24    1.06
   6   6  -2   21.63    1.38
   6   5  -2    7.06    0.94
   6   4  -2    1.28    0.56
   6   4  -2    0.36    0.62
   6   3  -2    0.32    0.56
   6   3  -2    1.94    0.67
   6   2  -2    0.47    0.53
   6   2  -2    1.47    0.58
   6   1  -2  108.27    2.46
   6   1  -2  107.41    2.54
  -6   0   2   62.49    1.71
   6   0  -2   65.06    1.68
  -6   1   2  185.65    3.83
   6  -1  -2  192.17    3.83
  -6   2   2    0.15    0.32
   6  -2  -2    0.48    0.41
  -6   3   2   39.49    1.30
   6  -3  -2   40.01    1.26
  -6   4   2   -0.34    0.32
   6  -4  -2    0.12    0.42
  -6   5   2   44.79    1.44
   6  -5  -2   45.72    1.44
  -6   6   2   10.18    0.84
   6  -6  -2    9.41    0.86
  -6   7   2   24.79    1.20
   6  -7  -2   24.20    1.15
  -6   8   2    5.39    0.79
   6  -8  -2    6.97    0.84
  -6   9   2    0.90    0.65
   6  -9  -2    1.70    0.71
  -6  10   2    3.54    0.85
  -6  11   2    0.38    0.81
   5   8  -2    3.12    0.88
   5   7  -2    2.02    0.77
   5   6  -2   14.57    1.11
   5   5  -2   11.28    1.00
   5   4  -2  121.80    2.84
   5   4  -2  125.79    2.66
   5   3  -2   31.13    1.21
   5   3  -2   29.64    1.06
   5   2  -2   14.87    0.88
   5   2  -2   15.38    0.76
   5   1  -2   24.28    1.02
   5   1  -2   23.93    0.93
  -5   0   2    3.12    0.48
   5   0  -2    3.38    0.48
  -5   1   2  113.54    2.48
   5  -1  -2  112.57    2.41
  -5   2   2  284.23    5.22
   5  -2  -2  273.06    5.25
  -5   3   2  283.36    5.27
   5  -3  -2  281.12    5.33
  -5   4   2    8.08    0.64
   5  -4  -2    8.29    0.64
  -5   5   2    4.96    0.60
   5  -5  -2    6.09    0.62
  -5   6   2   29.81    1.16
   5  -6  -2   31.07    1.16
  -5   7   2   11.79    0.89
   5  -7  -2   12.67    0.88
  -5   8   2   11.24    0.93
   5  -8  -2   10.90    0.93
  -5   9   2   41.55    1.57
   5  -9  -2   38.51    1.46
  -5  10   2    3.47    0.78
  -5  11   2    1.01    0.78
   4   9  -2   -0.06    0.74
   4   8  -2    2.68    0.79
   4   7  -2    2.93    0.72
   4   6  -2   26.24    1.23
   4   5  -2    0.64    0.51
   4   4  -2   63.85    1.48
   4   4  -2   62.62    1.69
   4   3  -2    0.28    0.37
   4   3  -2    0.87    0.35
   4   2  -2  138.74    2.85
   4   2  -2  141.61    2.81
   4   1  -2    2.84    0.41
   4   1  -2    2.64    0.45
   4   0  -2  193.14    3.70
  -4   1   2    5.85    0.52
   4  -1  -2    4.81    0.50
  -4   2   2   89.12    1.93
   4  -2  -2   86.94    1.90
  -4   3   2   15.16    0.58
  -4   3   2   14.22    0.69
   4  -3  -2   14.56    0.69
  -4   4   2   73.47    1.74
  -4   4   2   74.86    1.84
   4  -4  -2   76.19    1.78
  -4   5   2   48.76    1.35
  -4   5   2   48.36    1.47
   4  -5  -2   48.75    1.35
  -4   6   2   30.08    1.11
   4  -6  -2   31.71    1.13
  -4   7   2   17.44    0.95
   4  -7  -2   17.59    0.97
  -4   8   2    0.57    0.50
   4  -8  -2    0.01    0.53
  -4   9   2    4.19    0.73
  -4  10   2   -1.41    0.58
   3  10  -2    1.56    0.83
   3   9  -2   22.67    1.37
   3   8  -2    0.46    0.61
   3   7  -2    0.82    0.54
   3   6  -2   17.34    1.00
  -3  -5   2    2.24    0.27
   3   5  -2    1.27    0.46
   3   4  -2   47.57    1.33
   3   4  -2   46.83    1.09
   3   3  -2  219.99    4.11
   3   3  -2  216.44    4.03
   3   2  -2  406.87    7.24
   3   2  -2  400.72    7.10
   3   1  -2    4.13    0.42
   3   1  -2    2.70    0.41
  -3   0   2    0.80    0.24
   3   0  -2    0.15    0.26
   3   0  -2    0.16    0.34
  -3   1   2  155.71    2.99
  -3   1   2  162.57    3.20
   3  -1  -2  155.04    3.02
  -3   2   2   44.51    1.11
  -3   2   2   45.08    1.10
   3  -2  -2   44.25    1.11
  -3   3   2   48.33    1.19
  -3   3   2   49.55    1.33
   3  -3  -2   50.06    1.26
  -3   4   2  410.20    7.24
  -3   4   2  402.14    8.44
   3  -4  -2  421.40    7.51
  -3   5   2   21.02    1.01
  -3   5   2   21.14    0.82
   3  -5  -2   21.00    0.85
  -3   6   2   17.09    1.09
  -3   6   2   16.07    0.82
   3  -6  -2   16.09    0.84
  -3   7   2    3.97    0.57
   3  -7  -2    3.63    0.62
  -3   8   2    5.65    0.67
   3  -8  -2    5.05    0.68
  -3   9   2    4.86    0.74
  -3  10   2    4.13    0.78
   2  10  -2   -0.44    0.72
   2   9  -2    1.73    0.67
   2   8  -2    0.74    0.55
   2   7  -2   69.00    1.88
   2   6  -2    1.84    0.47
   2   5  -2   68.22    1.67
   2   4  -2   61.54    1.51
   2   3  -2   22.10    0.81
   2   3  -2   22.76    0.60
   2   2  -2    9.60    0.55
   2   2  -2   11.19    0.43
   2   1  -2  445.54    7.68
   2   1  -2  448.98    7.95
  -2   0   2  248.99    5.06
   2   0  -2  258.73    4.46
   2   0  -2  250.50    4.56
  -2   1   2  138.14    2.55
  -2   1   2  137.99    2.91
   2  -1  -2  139.18    2.63
  -2   2   2    0.36    0.32
  -2   2   2    1.16    0.23
   2  -2  -2    1.62    0.33
  -2   3   2   66.39    1.42
  -2   3   2   66.40    1.75
   2  -3  -2   66.51    1.51
  -2   4   2   10.15    0.81
  -2   4   2   10.48    0.54
   2  -4  -2   10.54    0.60
  -2   5   2   16.45    0.71
  -2   5   2   15.12    1.01
   2  -5  -2   15.96    0.75
  -2   6   2  155.81    3.92
  -2   6   2  153.97    3.11
   2  -6  -2  152.71    3.17
  -2   7   2   15.00    1.30
  -2   7   2   13.46    0.85
   2  -7  -2   12.67    0.85
  -2   8   2   13.83    0.89
   2  -8  -2   13.34    1.34
  -2   9   2    2.44    0.64
  -2  10   2    1.44    0.68
   1  11  -2    0.00    0.74
   1  10  -2    3.23    0.79
   1   9  -2    7.02    0.81
   1   8  -2   31.23    1.25
   1   7  -2   20.88    0.99
   1   6  -2    1.82    0.45
   1   5  -2    0.61    0.34
   1   4  -2   53.41    1.32
   1   3  -2  116.64    2.27
   1   2  -2    4.26    0.34
   1   2  -2    4.46    0.23
  -1  -1   2  567.07   11.54
   1   1  -2  545.46    9.76
   1   1  -2  557.03    9.94
  -1   0   2   20.40    0.54
  -1   0   2   21.31    0.69
   1   0  -2   19.56    0.58
  -1   1   2  159.23    3.38
  -1   1   2  153.13    2.74
   1  -1  -2  157.28    2.94
  -1   2   2    4.88    0.31
  -1   2   2    5.03    0.57
   1  -2  -2    5.25    0.43
  -1   3   2   80.64    2.18
  -1   3   2   78.73    1.61
   1  -3  -2   81.65    1.74
  -1   4   2    2.50    0.35
  -1   4   2    2.37    0.57
   1  -4  -2    1.48    0.36
  -1   5   2   31.17    0.99
  -1   5   2   33.97    1.48
   1  -5  -2   30.26    1.01
  -1   6   2    6.19    0.65
  -1   6   2    6.37    0.92
   1  -6  -2    6.54    0.67
  -1   7   2    3.60    0.56
  -1   7   2    3.37    0.88
   1  -7  -2    4.40    0.59
  -1   8   2    8.91    0.82
  -1   9   2    2.76    0.68
  -1  10   2    5.98    0.91
   0  11  -2    1.97    0.79
   0  10  -2    6.00    0.86
   0   9  -2   10.47    0.94
   0   8  -2    3.72    0.61
   0   7  -2    0.50    0.41
   0   6  -2  185.23    3.60
   0   5  -2   95.07    2.01
   0   4  -2   93.50    1.91
   0   3  -2  143.77    2.66
   0  -2   2  317.51    6.45
   0   2  -2  317.97    5.64
   0   2  -2  314.63    5.56
   0  -1   2   10.18    0.49
   0   1  -2    7.54    0.32
   0   1  -2    8.68    0.34
   0   0   2  199.78    4.13
   0   0  -2  193.84    3.59
   0   1   2  850.65   14.30
   0   1   2  815.25   17.10
   0  -1  -2  861.36   15.32
   0   2   2   13.54    0.46
   0   2   2   12.38    0.84
   0  -2  -2   13.64    0.56
   0   3   2   62.54    2.00
   0   3   2   64.85    1.37
   0  -3  -2   67.84    1.52
   0   4   2   99.93    2.79
   0   4   2   97.75    2.02
   0  -4  -2  101.43    2.14
   0   5   2    2.90    0.76
   0   5   2    2.82    0.44
   0  -5  -2    2.62    0.45
   0   6   2   -0.09    0.41
   0   6   2    0.61    0.77
   0  -6  -2    0.34    0.42
   0   7   2   50.23    2.27
   0   7   2   47.32    1.48
   0  -7  -2   50.17    1.43
   0   8   2    8.15    0.87
   0   9   2    5.21    0.80
  -1  11  -2    1.25    0.72
  -1  10  -2    1.20    0.60
  -1   9  -2    0.95    0.52
  -1   8  -2   20.48    0.99
  -1   7  -2    0.30    0.37
  -1   6  -2   35.46    1.10
  -1   5  -2   17.11    0.69
   1  -4   2  167.83    3.02
  -1   4  -2  168.57    3.12
   1  -3   2    5.89    0.28
  -1   3  -2    5.29    0.37
   1  -2   2  483.24    8.70
   1  -2   2  475.76    9.79
  -1   2  -2  486.31    8.38
   1  -1   2  137.39    3.01
   1  -1   2  145.26    2.63
  -1   1  -2  140.13    2.42
   1   0   2    3.95    0.49
  -1   0  -2    4.42    0.33
   1   1   2   21.73    0.97
   1   1   2   22.33    0.53
  -1  -1  -2   21.17    0.70
   1   2   2   47.19    1.58
   1   2   2   45.80    1.02
  -1  -2  -2   45.76    1.15
   1   3   2   52.81    1.87
   1   3   2   53.80    1.22
  -1  -3  -2   53.94    1.33
   1   4   2   48.76    1.90
   1   4   2   47.47    1.21
  -1  -4  -2   48.04    1.29
   1   5   2   32.40    1.68
   1   5   2   32.30    1.07
  -1  -5  -2   31.75    1.06
   1   6   2    2.44    0.51
   1   6   2    2.57    0.93
  -1  -6  -2    3.03    0.50
   1   7   2    2.60    0.99
   1   7   2    2.30    0.55
   1   8   2    0.09    0.55
   1   9   2    6.15    0.88
  -2  12  -2   -0.12    0.75
  -2  11  -2   19.07    1.25
  -2  10  -2    6.62    0.81
  -2   9  -2   10.25    0.87
  -2   8  -2   11.45    0.88
   2  -7   2    5.88    0.41
  -2   7  -2    7.67    0.66
   2  -6   2    1.99    0.28
  -2   6  -2    2.39    0.41
   2  -5   2  100.58    1.99
  -2   5  -2  101.99    2.12
   2  -4   2  417.28    7.43
  -2   4  -2  417.46    7.28
   2  -3   2   31.80    0.80
   2  -3   2   30.66    1.00
  -2   3  -2   30.85    0.80
   2  -2   2   22.71    0.67
   2  -2   2   21.30    0.77
  -2   2  -2   22.37    0.60
   2  -1   2  223.20    4.09
   2  -1   2  227.27    4.68
  -2   1  -2  213.72    3.84
   2   0   2    9.22    0.41
   2   0   2    9.01    0.50
   2   0   2    6.73    0.71
   2   1   2    9.15    0.45
   2   1   2    8.55    0.84
  -2  -1  -2    9.32    0.54
   2   2   2  271.14    4.80
   2   2   2  275.35    6.07
  -2  -2  -2  269.65    5.13
   2   3   2   12.86    1.07
   2   3   2   11.49    0.58
  -2  -3  -2   11.94    0.64
   2   4   2   28.51    0.98
   2   4   2   28.93    1.64
  -2  -4  -2   29.32    0.99
   2   5   2    1.53    0.49
   2   5   2    0.66    0.81
  -2  -5  -2    1.39    0.44
   2   6   2    4.45    0.60
   2   6   2    3.32    0.98
  -2  -6  -2    3.50    0.54
   2   7   2    1.34    1.02
   2   7   2    1.78    0.59
   2   8   2    1.80    0.66
  -3  12  -2   -0.50    0.71
  -3  11  -2    1.17    0.70
  -3  10  -2   -0.45    0.52
  -3   9  -2   39.56    1.41
   3  -8   2    9.85    0.59
  -3   8  -2   10.93    0.82
   3  -7   2   83.86    1.81
  -3   7  -2   81.23    2.00
   3  -6   2   11.90    0.57
  -3   6  -2   10.24    0.69
   3  -5   2    0.56    0.29
   3  -5   2   -0.60    0.32
  -3   5  -2    0.12    0.30
   3  -4   2   52.02    1.48
   3  -4   2   52.05    1.26
  -3   4  -2   50.83    1.26
   3  -3   2  132.87    2.58
   3  -3   2  121.02    2.79
  -3   3  -2  128.51    2.46
   3  -2   2  168.83    3.28
   3  -2   2  166.11    3.61
  -3   2  -2  168.02    3.10
   3  -1   2  230.41    4.89
   3  -1   2  225.85    4.34
  -3   1  -2  230.59    4.10
   3   0   2   27.61    0.93
   3   0   2   26.42    1.15
   3   1   2   41.20    1.17
   3   1   2   40.97    1.07
   3   1   2   38.97    1.53
   3   2   2    3.15    0.68
   3   2   2    3.81    0.42
  -3  -2  -2    4.34    0.48
   3   3   2    1.34    0.74
   3   3   2    1.99    0.47
  -3  -3  -2    2.36    0.43
   3   4   2   82.76    1.92
   3   4   2   79.26    2.74
  -3  -4  -2   81.11    1.98
   3   5   2    9.23    0.80
   3   5   2    9.45    1.21
  -3  -5  -2   10.66    0.70
   3   6   2   23.48    1.14
   3   6   2   25.08    1.94
   3   7   2   -1.04    0.95
   3   7   2    0.13    0.58
  -4  12  -2    0.67    0.78
  -4  11  -2    3.09    0.82
  -4  10  -2   10.14    1.01
  -4   9  -2   17.76    1.10
   4  -8   2    8.38    0.67
  -4   8  -2    8.77    0.86
   4  -7   2   16.04    0.77
  -4   7  -2   15.85    0.91
   4  -6   2    8.98    0.61
   4  -6   2    8.59    0.76
  -4   6  -2    9.50    0.69
   4  -5   2   32.85    1.15
   4  -5   2   32.49    1.01
  -4   5  -2   33.08    1.06
   4  -4   2    0.49    0.37
   4  -4   2    0.42    0.35
  -4   4  -2    0.14    0.32
   4  -3   2  142.31    3.00
   4  -3   2  147.49    3.22
  -4   3  -2  151.65    2.91
   4  -2   2    1.01    0.35
   4  -2   2    1.31    0.41
  -4   2  -2    0.39    0.28
   4  -1   2   76.87    2.03
   4  -1   2   75.15    1.83
  -4   1  -2   74.63    1.66
   4   0   2    1.76    0.46
   4   0   2    0.67    0.45
  -4   0  -2    0.70    0.26
   4   1   2   48.41    1.29
   4   1   2   47.76    1.40
   4   1   2   51.03    1.74
   4   2   2    5.80    0.63
   4   2   2    4.91    0.90
  -4  -2  -2    5.30    0.60
   4   3   2   15.97    1.48
   4   3   2   14.91    0.89
  -4  -3  -2   14.15    0.84
   4   4   2    0.53    0.79
   4   4   2    1.50    0.53
  -4  -4  -2    1.39    0.43
   4   5   2   -0.23    0.83
   4   5   2    0.33    0.54
  -4  -5  -2    0.84    0.42
   4   6   2    1.49    1.04
   4   6   2    3.14    0.72
  -5  12  -2    7.10    1.14
  -5  11  -2    2.07    0.78
  -5  10  -2    0.24    0.60
   5  -9   2    1.49    0.53
  -5   9  -2    2.19    0.65
   5  -8   2   36.10    1.22
   5  -8   2   36.57    1.52
  -5   8  -2   37.31    1.43
   5  -7   2   55.17    1.75
   5  -7   2   53.55    1.52
  -5   7  -2   54.65    1.63
   5  -6   2  102.68    2.36
   5  -6   2  104.01    2.60
  -5   6  -2  103.74    2.40
   5  -5   2    5.71    0.59
   5  -5   2    5.46    0.65
  -5   5  -2    4.61    0.56
   5  -4   2   22.89    0.88
   5  -4   2   23.10    0.94
  -5   4  -2   22.62    0.91
   5  -3   2    3.54    0.46
   5  -3   2    3.99    0.55
  -5   3  -2    3.21    0.44
   5  -2   2    2.68    0.51
   5  -2   2    1.80    0.43
  -5   2  -2    2.39    0.39
   5  -1   2  178.57    4.04
   5  -1   2  178.31    3.72
  -5   1  -2  175.34    3.45
   5   0   2   52.43    1.75
   5   0   2   51.92    1.55
  -5   0  -2   50.29    1.33
   5   1   2   72.48    1.86
   5   1   2   75.41    2.36
   5   1   2   73.13    1.97
   5   2   2   10.79    0.91
   5   2   2    9.04    1.07
  -5  -2  -2   11.47    0.82
   5   3   2    0.27    0.71
   5   3   2    1.19    0.57
  -5  -3  -2    0.13    0.42
   5   4   2    0.35    0.62
   5   4   2    0.51    0.84
  -5  -4  -2    1.56    0.48
   5   5   2   16.32    1.77
   5   5   2   15.79    1.10
  -5  -5  -2   15.55    0.89
   5   6   2    2.28    1.17
   6 -12   2    6.81    1.14
  -6  12  -2    1.08    0.90
   6 -11   2    4.77    0.93
  -6  11  -2    0.75    0.78
   6 -10   2   11.55    1.24
  -6  10  -2    6.80    0.94
   6  -9   2    1.36    0.59
   6  -9   2    0.97    0.55
  -6   9  -2    0.84    0.61
   6  -8   2   10.44    0.88
   6  -8   2   12.88    1.01
  -6   8  -2   10.69    1.01
   6  -7   2    1.53    0.56
   6  -7   2    1.83    0.57
  -6   7  -2    1.82    0.58
   6  -6   2   37.68    1.32
   6  -6   2   37.72    1.31
  -6   6  -2   37.32    1.33
   6  -5   2   10.18    0.81
   6  -5   2    9.47    0.67
  -6   5  -2   10.51    0.79
   6  -4   2   99.36    2.45
   6  -4   2  102.37    2.40
  -6   4  -2  104.25    2.37
   6  -3   2    6.69    0.66
   6  -3   2    6.50    0.73
  -6   3  -2    5.82    0.58
   6  -2   2    9.15    0.80
   6  -2   2    9.02    0.78
  -6   2  -2    8.60    0.62
   6  -1   2    1.00    0.55
   6  -1   2    0.92    0.54
  -6   1  -2    0.91    0.34
   6   0   2    1.37    0.60
   6   0   2    2.27    0.66
  -6   0  -2    2.17    0.42
   6   1   2   13.77    1.09
   6   1   2   12.50    1.25
  -6  -1  -2   11.62    0.79
   6   2   2   22.50    1.56
   6   2   2   23.72    1.16
   6   3   2   22.98    1.26
   6   3   2   23.48    1.65
  -6  -3  -2   21.91    1.13
   6   4   2    0.94    0.94
   6   4   2    1.21    0.73
  -6  -4  -2    1.98    0.57
   6   5   2   -0.92    0.93
  -7  12  -2    3.03    1.03
  -7  11  -2    7.52    1.14
   7 -10   2    0.23    0.59
   7 -10   2    0.76    0.77
  -7  10  -2    0.28    0.71
   7  -9   2    0.15    0.62
   7  -9   2    0.49    0.58
  -7   9  -2    0.19    0.63
   7  -8   2   -0.05    0.57
   7  -8   2    0.15    0.57
  -7   8  -2   -0.35    0.54
   7  -7   2    4.67    0.63
   7  -7   2    6.26    0.79
  -7   7  -2    5.06    0.75
   7  -6   2   53.11    1.54
   7  -6   2   51.49    1.71
  -7   6  -2   55.00    1.74
   7  -5   2   22.33    1.12
   7  -5   2   22.65    0.92
  -7   5  -2   21.08    1.08
   7  -4   2   38.06    1.44
   7  -4   2   38.78    1.24
  -7   4  -2   39.85    1.36
   7  -3   2    2.16    0.50
   7  -3   2    2.85    0.64
  -7   3  -2    1.88    0.45
   7  -2   2    5.98    0.79
   7  -2   2    6.84    0.85
  -7   2  -2    6.28    0.67
   7  -1   2   -1.28    0.57
   7  -1   2   -0.62    0.65
  -7   1  -2    0.27    0.37
   7   0   2   35.74    1.59
   7   0   2   34.34    1.51
  -7   0  -2   36.10    1.26
   7   1   2    7.90    1.01
   7   1   2    6.87    0.95
  -7  -1  -2    7.49    0.70
   7   2   2   11.42    1.40
  -7  -2  -2   12.56    0.88
   7   3   2    0.02    0.81
  -7  -3  -2    0.91    0.53
   7   4   2    0.26    0.96
  -7  -4  -2    2.51    0.62
  -8  12  -2   -0.15    1.00
  -8  11  -2    3.95    1.05
   8 -10   2    3.66    0.79
  -8  10  -2    4.28    0.97
   8  -9   2   19.39    1.22
  -8   9  -2   19.67    1.40
   8  -8   2    0.60    0.65
  -8   8  -2    0.77    0.68
   8  -7   2    0.92    0.64
  -8   7  -2    1.38    0.65
   8  -6   2    4.47    0.81
  -8   6  -2    5.98    0.80
   8  -5   2    5.43    0.83
  -8   5  -2    4.36    0.69
   8  -4   2   17.29    1.13
  -8   4  -2   20.30    1.10
   8  -3   2   38.93    1.37
   8  -3   2   36.63    1.51
  -8   3  -2   36.71    1.35
   8  -2   2   22.73    1.31
   8  -2   2   26.16    1.27
  -8   2  -2   23.65    1.07
   8  -1   2    0.90    0.63
   8  -1   2    0.44    0.69
  -8   1  -2    1.37    0.47
   8   0   2    0.14    0.72
   8   0   2   -0.27    0.67
  -8   0  -2    0.69    0.42
   8   1   2    0.69    0.78
   8   1   2    1.07    0.82
  -8  -1  -2    0.12    0.43
   8   2   2    7.54    1.14
  -8  -2  -2    8.11    0.92
  -8  -2  -2    8.41    0.84
   8   3   2    2.21    1.08
  -8  -3  -2    2.22    0.62
  -9  11  -2    2.34    1.08
   9 -10   2    2.06    0.75
  -9  10  -2    1.43    0.95
   9  -9   2    2.84    0.76
  -9   9  -2    1.91    0.88
   9  -8   2    0.14    0.61
  -9   8  -2   -0.39    0.68
   9  -7   2    5.59    0.86
  -9   7  -2    6.18    0.92
   9  -6   2    0.36    0.65
  -9   6  -2   -0.30    0.56
   9  -5   2   10.09    1.03
  -9   5  -2   11.25    1.05
   9  -4   2    0.56    0.62
  -9   4  -2    0.45    0.52
   9  -3   2    7.94    0.95
  -9   3  -2    8.40    0.85
   9  -2   2   -0.36    0.65
  -9   2  -2    1.55    0.47
   9  -1   2    7.27    1.03
  -9   1  -2    9.30    0.85
   9   0   2    2.82    0.94
  -9   0  -2    4.43    0.64
   9   1   2    2.82    1.01
   9   1   2    2.24    0.92
  -9  -1  -2    4.35    0.67
   9   2   2    0.61    0.95
  -9  -2  -2    2.22    0.69
  10 -11   2   -0.66    0.76
 -10  11  -2   -0.39    0.98
  10 -10   2    1.56    0.81
 -10  10  -2    0.52    0.95
  10  -9   2    4.46    0.96
 -10   9  -2    2.80    1.01
  10  -8   2    9.21    1.12
 -10   8  -2   10.06    1.15
  10  -7   2    4.59    0.88
 -10   7  -2    4.82    0.89
  10  -6   2    0.31    0.66
 -10   6  -2    1.92    0.67
  10  -5   2    0.02    0.64
 -10   5  -2    1.25    0.61
  10  -4   2    0.51    0.68
 -10   4  -2   -0.14    0.52
  10  -3   2    5.95    0.99
 -10   3  -2    6.30    0.75
  10  -2   2    3.54    0.98
 -10   2  -2    5.06    0.69
  10  -1   2    9.28    1.23
 -10   1  -2   11.35    0.94
  10   0   2    0.56    0.90
 -10   0  -2    1.35    0.55
  10   1   2    0.32    1.00
  11 -10   2    1.08    0.84
 -11  10  -2    0.39    1.04
  11  -9   2    0.13    0.78
 -11   9  -2    1.38    0.97
  11  -8   2   -0.14    0.70
 -11   8  -2    1.21    0.89
  11  -7   2    0.83    0.75
 -11   7  -2    1.19    0.80
  11  -6   2    3.23    0.86
 -11   6  -2    6.10    0.94
  11  -5   2    2.06    0.79
 -11   5  -2    1.78    0.74
  11  -4   2    0.94    0.80
 -11   4  -2    2.92    0.70
  11  -3   2    0.58    0.82
 -11   3  -2    1.07    0.55
  11  -2   2    0.16    0.87
 -11   2  -2    1.72    0.58
  11  -1   2   -0.57    0.90
 -11   1  -2    2.34    0.60
  12  -8   2    1.68    0.86
 -12   8  -2    1.36    0.92
  12  -7   2    1.26    0.83
 -12   7  -2    1.53    0.84
  12  -6   2    1.31    0.83
 -12   6  -2    2.99    0.84
  12  -5   2   -0.89    0.74
 -12   5  -2    1.96    0.74
  12  -4   2    0.02    0.80
 -12   4  -2    1.71    0.66
 -12   0   3    4.14    0.85
  12   0  -3    2.51    0.89
 -12   1   3    3.69    0.83
  12  -1  -3    3.97    1.04
 -12   2   3    1.80    0.72
  12  -2  -3    0.82    0.86
 -12   3   3    2.31    0.74
  12  -3  -3    1.03    0.79
 -12   4   3    1.50    0.72
  12  -4  -3    0.48    0.74
 -12   5   3    4.74    0.93
  12  -5  -3    3.52    0.91
 -12   6   3    3.63    0.91
  12  -6  -3    2.40    0.89
 -12   7   3    5.89    1.09
  12  -7  -3    3.40    0.92
 -11  -2   3   10.16    1.18
  11   2  -3    8.10    1.09
 -11  -1   3    8.70    1.05
  11   1  -3    5.25    0.97
 -11   0   3    8.18    0.99
  11   0  -3    8.29    1.16
 -11   1   3   -0.18    0.57
  11  -1  -3    1.61    0.85
 -11   2   3    1.28    0.61
  11  -2  -3    0.34    0.73
 -11   3   3    0.79    0.58
  11  -3  -3    0.09    0.71
 -11   4   3    8.52    0.97
  11  -4  -3    7.23    0.97
 -11   5   3   11.30    1.18
  11  -5  -3   10.25    1.15
 -11   6   3    5.16    0.94
  11  -6  -3    5.09    0.90
 -11   7   3    2.66    0.90
  11  -7  -3    0.91    0.75
 -11   8   3    1.48    0.96
  11  -8  -3   -0.44    0.73
 -10  -4   3    2.88    0.89
 -10  -3   3    2.00    0.80
  10   3  -3    1.22    0.80
 -10  -2   3   -0.35    0.56
  10   2  -3   -0.72    0.70
 -10  -1   3    0.33    0.58
  10   1  -3    1.63    0.84
 -10   0   3   15.67    1.19
  10   0  -3   17.38    1.26
 -10   1   3   24.67    1.28
  10  -1  -3   23.61    1.33
 -10   2   3   30.27    1.43
  10  -2  -3   30.33    1.43
 -10   3   3    0.91    0.55
  10  -3  -3   -0.45    0.60
 -10   4   3    0.76    0.56
  10  -4  -3   -0.19    0.59
 -10   5   3    2.66    0.71
  10  -5  -3    0.89    0.65
 -10   6   3   10.77    1.14
  10  -6  -3    8.71    1.01
 -10   7   3    9.48    1.08
  10  -7  -3    8.43    1.03
 -10   8   3   12.77    1.36
  10  -8  -3   12.24    1.21
 -10   9   3    3.77    1.02
  10  -9  -3    1.91    0.82
   9   5  -3    4.45    1.14
   9   4  -3   -0.59    0.91
   9   3  -3    3.50    0.79
   9   3  -3    3.82    1.01
  -9  -2   3    3.10    0.73
   9   2  -3    1.99    0.71
  -9  -1   3   15.58    1.07
   9   1  -3   17.44    1.16
  -9   0   3    6.61    0.78
   9   0  -3    8.66    0.96
  -9   1   3   14.44    1.02
   9  -1  -3   14.06    1.04
  -9   2   3   12.55    0.93
   9  -2  -3   10.88    0.95
  -9   3   3    5.71    0.73
   9  -3  -3    6.49    0.77
  -9   4   3   11.74    0.96
   9  -4  -3   10.28    0.95
  -9   5   3    2.16    0.57
   9  -5  -3    2.77    0.66
  -9   6   3    9.74    1.06
   9  -6  -3    7.31    0.92
  -9   7   3   -0.16    0.66
   9  -7  -3   -0.06    0.63
  -9   8   3    7.45    1.04
   9  -8  -3    5.99    0.92
  -9   9   3   -0.28    0.81
   9  -9  -3    0.70    0.76
   8   6  -3    1.43    0.96
   8   5  -3    9.23    1.20
   8   4  -3   20.76    1.52
   8   4  -3   19.75    1.20
   8   3  -3   25.65    1.25
   8   3  -3   26.79    1.50
   8   2  -3    1.12    0.78
   8   2  -3    0.92    0.63
  -8  -1   3    0.51    0.46
   8   1  -3    0.36    0.60
  -8   0   3    3.05    0.57
   8   0  -3    2.68    0.72
  -8   1   3   34.06    1.31
   8  -1  -3   32.97    1.35
  -8   2   3   33.55    1.33
   8  -2  -3   34.76    1.31
  -8   3   3   99.07    2.48
   8  -3  -3   97.80    2.44
  -8   4   3    6.79    0.76
   8  -4  -3    7.91    0.85
  -8   5   3    0.79    0.53
   8  -5  -3    0.27    0.56
  -8   6   3    2.23    0.62
   8  -6  -3    1.54    0.67
  -8   7   3    1.32    0.66
   8  -7  -3    2.02    0.68
  -8   8   3   11.95    1.20
   8  -8  -3   11.40    1.12
  -8   9   3    9.86    1.12
   8  -9  -3    7.53    0.99
  -8  10   3    6.30    1.08
   8 -10  -3    4.48    0.88
   7   7  -3    1.10    0.93
   7   6  -3    6.28    1.09
   7   5  -3   -0.48    0.77
   7   4  -3    2.96    0.83
   7   4  -3    4.86    0.73
   7   3  -3   10.38    1.09
   7   3  -3    9.00    0.85
   7   2  -3   38.76    1.56
   7   2  -3   38.24    1.40
   7   1  -3   31.18    1.24
  -7   0   3    4.14    0.47
  -7   0   3    3.37    0.53
   7   0  -3    5.31    0.68
  -7   1   3    3.49    0.56
   7  -1  -3    5.15    0.66
  -7   2   3    3.59    0.54
   7  -2  -3    5.15    0.64
  -7   3   3   25.27    1.10
   7  -3  -3   25.78    1.09
  -7   4   3   23.11    1.08
   7  -4  -3   25.67    1.10
  -7   5   3  103.47    2.55
   7  -5  -3  104.70    2.56
  -7   6   3    9.99    0.95
   7  -6  -3    9.45    0.91
  -7   7   3    6.67    0.83
   7  -7  -3    5.40    0.80
  -7   8   3    2.75    0.74
   7  -8  -3    1.48    0.74
  -7   9   3    0.38    0.69
   7  -9  -3   -0.01    0.76
  -7  10   3    2.90    0.87
   6   8  -3    2.75    0.96
   6   7  -3   -1.41    0.76
   6   6  -3    0.72    0.75
   6   5  -3    0.92    0.70
   6   4  -3   39.72    1.53
   6   4  -3   41.31    1.32
   6   3  -3   12.51    0.85
   6   3  -3   12.88    1.01
   6   2  -3  110.75    2.62
   6   2  -3  110.12    2.50
   6   1  -3    0.98    0.45
   6   1  -3    0.53    0.52
  -6   0   3    7.27    0.51
  -6   0   3    7.02    0.63
   6   0  -3    8.89    0.66
  -6   1   3    9.04    0.70
   6  -1  -3    9.03    0.71
  -6   2   3   21.27    0.95
   6  -2  -3   21.10    0.91
  -6   3   3   42.33    1.32
   6  -3  -3   42.34    1.30
  -6   4   3   42.73    1.37
   6  -4  -3   43.68    1.36
  -6   5   3   25.52    1.11
   6  -5  -3   25.45    1.11
  -6   6   3    1.45    0.54
   6  -6  -3    1.45    0.58
  -6   7   3    8.45    0.82
   6  -7  -3    8.59    0.91
  -6   8   3    0.53    0.56
   6  -8  -3   -0.26    0.60
  -6   9   3    9.45    1.00
   6  -9  -3    9.60    0.98
  -6  10   3    0.59    0.72
   5   9  -3    0.93    0.87
   5   8  -3    1.50    0.82
   5   7  -3   26.27    1.42
   5   6  -3   15.99    1.10
   5   5  -3    4.18    0.73
   5   5  -3    5.16    0.58
   5   4  -3    5.38    0.69
   5   4  -3    6.90    0.65
   5   3  -3   24.93    1.10
   5   3  -3   25.91    0.93
   5   2  -3   25.80    1.06
   5   2  -3   27.17    0.93
   5   1  -3   86.00    1.96
   5   1  -3   88.59    2.11
  -5   0   3  397.42    7.30
  -5   0   3  397.76    8.03
   5   0  -3  409.91    7.38
  -5   1   3   13.67    0.74
   5  -1  -3   14.71    0.74
  -5   2   3    5.90    0.57
   5  -2  -3    5.29    0.57
  -5   3   3  111.99    2.39
  -5   3   3  109.36    2.41
   5  -3  -3  107.49    2.42
  -5   4   3    4.61    0.52
  -5   4   3    4.02    0.49
   5  -4  -3    5.04    0.58
  -5   5   3   14.45    0.85
  -5   5   3   14.96    0.82
   5  -5  -3   15.64    0.92
  -5   6   3   87.74    2.16
   5  -6  -3   87.32    2.21
  -5   7   3   25.06    1.12
   5  -7  -3   24.82    1.14
  -5   8   3    5.48    0.76
   5  -8  -3    5.10    0.81
  -5   9   3   -0.32    0.57
   5  -9  -3   -1.32    0.57
  -5  10   3    0.04    0.63
   4   9  -3    9.34    1.10
   4   8  -3    1.07    0.70
   4   7  -3   16.93    1.11
   4   6  -3    2.57    0.63
   4   5  -3   14.77    0.94
   4   5  -3   15.51    0.66
   4   4  -3    0.51    0.34
   4   4  -3    0.31    0.41
   4   3  -3   74.97    1.65
   4   3  -3   73.10    1.82
   4   2  -3    0.45    0.38
   4   2  -3    0.31    0.33
  -4  -1   3   17.13    0.77
   4   1  -3   18.01    0.68
   4   1  -3   18.00    0.85
  -4   0   3   17.46    0.78
  -4   0   3   17.40    0.65
   4   0  -3   17.62    0.70
  -4   1   3   13.40    0.66
  -4   1   3   13.70    0.49
   4  -1  -3   12.75    0.65
  -4   2   3  107.40    2.24
  -4   2   3  106.84    2.33
   4  -2  -3  107.63    2.28
  -4   3   3    6.58    0.49
  -4   3   3    5.16    0.51
   4  -3  -3    6.30    0.58
  -4   4   3   31.75    1.09
  -4   4   3   31.73    1.01
   4  -4  -3   31.77    1.06
  -4   5   3   10.58    0.69
  -4   5   3   11.40    0.82
   4  -5  -3   11.06    0.77
  -4   6   3   16.40    0.86
  -4   6   3   15.98    1.08
   4  -6  -3   16.39    0.96
  -4   7   3    0.56    0.58
  -4   7   3    0.31    0.45
   4  -7  -3    0.11    0.54
  -4   8   3   23.75    1.15
   4  -8  -3   24.98    1.22
  -4   9   3    4.28    0.73
  -4  10   3    4.44    0.79
   3  10  -3    1.48    0.80
   3   9  -3    1.46    0.72
   3   8  -3    1.06    0.63
   3   7  -3    6.12    0.74
   3   6  -3   49.67    1.51
   3   5  -3  164.27    3.38
   3   5  -3  167.09    3.07
   3   4  -3    1.30    0.28
   3   4  -3    2.20    0.45
   3   3  -3   -0.01    0.32
   3   3  -3    0.22    0.28
   3   2  -3  155.48    3.03
   3   2  -3  157.76    2.97
  -3  -1   3   13.80    0.68
   3   1  -3   14.44    0.68
   3   1  -3   14.14    0.59
  -3   0   3   10.20    0.54
  -3   0   3   10.18    0.57
   3   0  -3   11.04    0.54
  -3   1   3  559.88    9.59
  -3   1   3  564.22   11.49
   3  -1  -3  540.77    9.89
  -3   2   3   30.34    0.98
  -3   2   3   30.46    0.87
   3  -2  -3   31.75    0.96
  -3   3   3   14.88    0.62
  -3   3   3   13.58    0.74
   3  -3  -3   15.47    0.71
  -3   4   3   10.95    0.77
  -3   4   3   10.96    0.57
   3  -4  -3    9.07    0.65
  -3   5   3    0.43    0.45
  -3   5   3   -0.09    0.30
   3  -5  -3    1.04    0.47
  -3   6   3   11.04    1.10
  -3   6   3   11.49    0.75
   3  -6  -3   12.54    0.91
  -3   7   3   10.11    0.77
  -3   7   3    9.55    1.20
   3  -7  -3    9.03    0.87
  -3   8   3   18.98    1.05
   3  -8  -3   17.70    1.06
  -3   9   3   -0.22    0.52
  -3  10   3    0.98    0.69
   2  11  -3   -0.31    0.77
   2  10  -3    6.94    0.92
   2   9  -3    0.89    0.62
   2   8  -3   22.84    1.12
   2   7  -3    1.53    0.51
   2   6  -3    0.35    0.41
   2   5  -3    0.73    0.36
   2   4  -3  103.05    2.19
   2   3  -3  180.48    3.29
   2   3  -3  180.18    3.40
  -2  -2   3   41.91    1.25
   2   2  -3   41.58    0.94
   2   2  -3   42.89    1.04
  -2  -1   3   17.75    0.71
   2   1  -3   16.53    0.55
   2   1  -3   17.37    0.60
  -2   0   3  317.58    5.56
  -2   0   3  314.64    6.44
   2   0  -3  319.89    5.75
  -2   1   3    0.66    0.21
  -2   1   3    1.23    0.34
   2  -1  -3    0.74    0.31
  -2   2   3    0.75    0.37
  -2   2   3    1.40    0.24
   2  -2  -3    0.70    0.33
  -2   3   3  400.56    6.95
  -2   3   3  396.06    8.33
   2  -3  -3  404.34    7.32
  -2   4   3   32.30    1.31
  -2   4   3   30.90    0.90
   2  -4  -3   30.59    1.02
  -2   5   3   49.76    1.81
  -2   5   3   49.43    1.30
   2  -5  -3   48.75    1.41
  -2   6   3   11.24    1.20
  -2   6   3   11.21    0.75
   2  -6  -3   11.70    0.85
  -2   7   3   -0.47    0.40
  -2   7   3   -0.15    0.69
   2  -7  -3    0.20    0.53
  -2   8   3    0.17    0.49
  -2   8   3   -0.27    0.79
  -2   9   3    5.48    0.77
   1  11  -3    7.03    1.00
   1  10  -3   11.64    1.06
   1   9  -3    0.47    0.54
   1   8  -3    2.18    0.54
   1   7  -3    9.00    0.79
   1   6  -3   39.41    1.21
   1   5  -3    5.33    0.56
   1   4  -3  251.25    4.58
   1   3  -3   13.58    0.39
   1   3  -3   14.19    0.58
  -1  -2   3   38.33    1.15
   1   2  -3   39.05    0.90
   1   2  -3   37.65    0.84
  -1  -1   3   57.00    1.47
   1   1  -3   58.94    1.23
   1   1  -3   59.64    1.17
  -1   0   3   44.49    1.25
  -1   0   3   44.89    0.92
   1   0  -3   43.81    1.04
  -1   1   3   15.77    0.43
  -1   1   3   16.19    0.79
   1  -1  -3   16.27    0.63
  -1   2   3   49.28    1.58
  -1   2   3   48.60    1.03
   1  -2  -3   48.59    1.23
  -1   3   3   31.68    1.31
  -1   3   3   32.51    0.82
   1  -3  -3   31.87    1.00
  -1   4   3    1.16    0.30
  -1   4   3    1.00    0.54
   1  -4  -3    1.11    0.40
  -1   5   3   19.67    1.36
  -1   5   3   19.63    0.81
   1  -5  -3   18.77    0.89
  -1   6   3   -0.46    0.39
  -1   6   3    0.33    0.71
   1  -6  -3    0.34    0.47
  -1   7   3   21.31    1.00
  -1   7   3   19.92    1.66
   1  -7  -3   20.99    1.04
  -1   8   3    0.79    0.52
  -1   8   3   -0.44    0.89
  -1   9   3    5.04    0.82
   0  11  -3    1.29    0.74
   0  10  -3   -0.09    0.58
   0   9  -3   30.55    1.29
   0   8  -3   46.30    1.46
   0   7  -3   33.40    1.16
   0   6  -3    1.49    0.39
   0   5  -3   80.22    1.76
   0   4  -3    0.28    0.27
   0  -3   3    7.09    0.64
   0   3  -3    6.85    0.27
   0   3  -3    7.67    0.42
   0  -2   3  895.59   19.05
   0   2  -3  939.62   16.44
   0   2  -3  919.42   15.85
   0  -1   3  212.10    4.48
   0   1  -3  209.66    3.61
   0   1  -3  216.38    3.91
   0   0   3  200.17    4.32
   0   0  -3  198.23    3.73
   0   1   3  184.46    4.21
   0   1   3  188.80    3.21
   0  -1  -3  188.12    3.59
   0   2   3   11.39    0.42
   0   2   3   11.35    0.94
   0  -2  -3   10.20    0.59
   0   3   3    6.21    0.43
   0   3   3    5.14    0.75
   0  -3  -3    6.15    0.55
   0   4   3  103.43    2.06
   0   4   3   95.00    2.88
   0  -4  -3  102.50    2.26
   0   5   3   49.91    2.11
   0   5   3   50.34    1.32
   0  -5  -3   50.11    1.46
   0   6   3   21.65    1.68
   0   6   3   21.01    0.95
   0  -6  -3   22.59    1.01
   0   7   3    1.03    0.51
   0   7   3   -0.87    0.83
   0  -7  -3    0.56    0.52
   0   8   3   -0.36    0.52
   0   8   3    0.18    1.02
  -1  12  -3   -1.31    0.74
  -1  11  -3    8.13    0.96
  -1  10  -3    0.66    0.58
  -1   9  -3   22.77    1.10
  -1   8  -3    0.73    0.44
  -1   7  -3   39.73    1.22
  -1   6  -3    1.93    0.41
  -1   5  -3  102.17    2.14
   1  -4   3    7.70    0.70
   1  -4   3    9.14    0.38
  -1   4  -3    8.37    0.51
   1  -3   3   28.85    1.07
  -1   3  -3   29.01    0.74
   1  -2   3   18.54    0.80
  -1   2  -3   19.00    0.50
  -1   2  -3   19.53    0.59
   1  -1   3    8.38    0.63
  -1   1  -3    8.14    0.44
   1   0   3  118.12    2.87
  -1   0  -3  121.89    2.44
   1   1   3   57.70    1.80
   1   1   3   57.85    1.10
  -1  -1  -3   57.20    1.41
   1   2   3  118.50    3.13
   1   2   3  119.43    2.19
  -1  -2  -3  118.97    2.51
   1   3   3    6.94    0.46
   1   3   3    8.01    1.01
  -1  -3  -3    6.61    0.57
   1   4   3    7.60    0.96
   1   4   3    7.26    0.57
  -1  -4  -3    7.10    0.62
   1   5   3    6.20    0.58
   1   5   3    6.25    1.05
  -1  -5  -3    5.69    0.65
   1   6   3   24.41    0.98
   1   6   3   24.93    1.84
  -1  -6  -3   22.76    1.03
   1   7   3    4.44    1.19
   1   7   3    4.32    0.65
   1   8   3    9.44    1.56
  -2  12  -3    3.88    0.89
  -2  11  -3    0.12    0.60
  -2  10  -3    1.48    0.58
  -2   9  -3    1.67    0.52
  -2   8  -3   15.72    0.92
   2  -7   3  157.54    2.91
  -2   7  -3  158.52    3.22
   2  -6   3   39.04    0.91
  -2   6  -3   38.95    1.15
   2  -5   3  102.75    2.62
   2  -5   3  103.54    2.05
  -2   5  -3  106.59    2.18
   2  -4   3   63.47    1.35
   2  -4   3   60.75    1.73
  -2   4  -3   61.93    1.39
   2  -3   3    1.46    0.31
   2  -3   3    1.81    0.43
  -2   3  -3    1.20    0.27
   2  -2   3    4.56    0.43
   2  -2   3    3.39    0.45
  -2   2  -3    3.36    0.29
   2  -1   3  377.30    7.77
   2  -1   3  377.88    6.80
  -2   1  -3  367.02    6.33
   2   0   3  123.66    3.06
  -2   0  -3  126.08    2.25
  -2   0  -3  123.73    2.60
   2   1   3   60.73    1.23
   2   1   3   59.74    1.92
  -2  -1  -3   58.66    1.50
   2   2   3    0.52    0.26
   2   2   3   -0.04    0.53
  -2  -2  -3    0.99    0.33
   2   3   3   -0.06    0.31
   2   3   3    0.00    0.64
  -2  -3  -3    0.38    0.33
   2   4   3    7.17    1.05
   2   4   3    6.99    0.60
  -2  -4  -3    6.97    0.68
   2   5   3    7.63    0.68
   2   5   3    6.38    1.04
  -2  -5  -3    8.03    0.74
   2   6   3   18.38    0.96
   2   6   3   17.85    1.85
  -2  -6  -3   18.82    0.96
   2   7   3    0.46    1.06
  -3  12  -3    4.33    0.89
  -3  11  -3    1.72    0.72
  -3  10  -3   21.40    1.21
  -3   9  -3    0.23    0.47
   3  -8   3    1.28    0.33
  -3   8  -3    0.66    0.46
   3  -7   3    1.37    0.34
  -3   7  -3    1.30    0.46
   3  -6   3   34.70    1.32
   3  -6   3   35.05    0.96
  -3   6  -3   36.44    1.13
   3  -5   3  148.31    2.93
   3  -5   3  149.84    3.47
  -3   5  -3  147.92    2.92
   3  -4   3  134.45    2.73
   3  -4   3  138.82    3.16
  -3   4  -3  135.94    2.66
   3  -3   3  171.30    3.31
   3  -3   3  167.99    3.71
  -3   3  -3  166.85    3.11
   3  -2   3   43.69    1.38
   3  -2   3   45.18    1.21
  -3   2  -3   43.71    1.04
   3  -1   3    0.16    0.42
   3  -1   3    0.45    0.36
  -3   1  -3    0.04    0.19
   3   0   3   10.40    0.93
  -3   0  -3   11.66    0.47
   3   1   3  188.71    3.40
   3   1   3  188.44    4.47
  -3  -1  -3  179.71    3.77
   3   2   3   43.86    1.13
   3   2   3   42.22    1.84
  -3  -2  -3   43.34    1.33
   3   3   3   98.68    2.10
   3   3   3   98.12    3.10
  -3  -3  -3   93.04    2.31
   3   4   3    0.26    0.78
   3   4   3    0.56    0.45
  -3  -4  -3    0.22    0.42
   3   5   3    0.62    0.48
   3   5   3    1.28    0.89
  -3  -5  -3    0.43    0.41
   3   6   3    0.59    1.00
   3   7   3    1.52    1.21
  -4  12  -3    6.50    0.98
  -4  11  -3    1.88    0.75
  -4  10  -3    4.63    0.73
  -4   9  -3    0.96    0.56
   4  -8   3   15.82    0.78
   4  -8   3   16.88    1.19
  -4   8  -3   15.32    0.97
   4  -7   3    0.70    0.40
   4  -7   3    0.83    0.51
  -4   7  -3    0.71    0.43
   4  -6   3   95.51    2.48
   4  -6   3   94.07    2.10
  -4   6  -3   92.08    2.14
   4  -5   3   11.42    0.68
   4  -5   3   10.01    0.82
  -4   5  -3   10.56    0.65
   4  -4   3   63.25    1.60
   4  -4   3   64.61    1.74
  -4   4  -3   61.53    1.49
   4  -3   3    1.85    0.47
   4  -3   3    1.95    0.44
  -4   3  -3    1.81    0.34
   4  -2   3   44.66    1.42
   4  -2   3   42.72    1.28
  -4   2  -3   41.96    1.08
   4  -1   3   30.66    1.27
   4  -1   3   28.87    1.06
  -4   1  -3   29.57    0.87
   4   0   3   16.58    1.07
   4   0   3   15.64    0.83
  -4   0  -3   15.72    0.60
   4   1   3   28.40    0.96
   4   1   3   28.19    1.56
  -4  -1  -3   29.39    1.13
   4   2   3    2.72    0.51
   4   2   3    2.76    0.83
  -4  -2  -3    1.83    0.51
   4   3   3   15.24    0.86
   4   3   3   14.67    1.46
  -4  -3  -3   14.61    0.89
   4   4   3    0.67    0.79
   4   4   3    0.26    0.51
  -4  -4  -3    0.66    0.46
   4   5   3   13.82    1.70
  -4  -5  -3   14.36    0.89
   4   6   3    0.77    1.10
  -5  12  -3   -0.70    0.79
   5 -11   3    7.63    1.15
  -5  11  -3    4.44    0.90
   5 -10   3   20.82    1.50
  -5  10  -3   18.12    1.23
   5  -9   3   31.98    1.56
   5  -9   3   29.81    1.14
  -5   9  -3   30.57    1.37
   5  -8   3   10.45    1.02
   5  -8   3   10.42    0.79
  -5   8  -3    9.95    0.90
   5  -7   3    8.27    0.94
   5  -7   3    8.46    0.74
  -5   7  -3    7.40    0.78
   5  -6   3    1.89    0.51
   5  -6   3    1.21    0.51
  -5   6  -3    0.51    0.43
   5  -5   3    1.41    0.48
   5  -5   3    0.66    0.43
  -5   5  -3    1.57    0.42
   5  -4   3  162.88    3.46
   5  -4   3  162.88    3.68
  -5   4  -3  166.65    3.27
   5  -3   3   68.89    1.90
   5  -3   3   66.33    1.82
  -5   3  -3   68.05    1.64
   5  -2   3  152.40    3.32
   5  -2   3  153.51    3.61
  -5   2  -3  150.82    3.00
   5  -1   3    2.29    0.60
   5  -1   3    1.54    0.55
  -5   1  -3    1.23    0.32
   5   0   3    3.61    0.77
   5   0   3    4.35    0.71
  -5   0  -3    2.44    0.38
   5   1   3    2.99    0.87
  -5  -1  -3    2.60    0.56
   5   2   3   16.20    0.95
   5   2   3   17.17    1.46
  -5  -2  -3   14.45    0.94
   5   3   3   17.69    1.64
   5   3   3   20.82    1.07
  -5  -3  -3   20.15    1.07
   5   4   3   14.25    1.71
  -5  -4  -3   13.64    0.95
   5   5   3    2.88    1.16
  -5  -5  -3    4.66    0.69
   5   6   3   -1.06    1.12
   6 -12   3    2.22    1.02
  -6  12  -3    1.19    0.90
   6 -11   3    4.54    0.98
  -6  11  -3    4.36    0.95
   6 -10   3    0.26    0.67
  -6  10  -3   -0.40    0.62
   6  -9   3    6.70    0.79
   6  -9   3    6.46    0.87
  -6   9  -3    5.46    0.81
   6  -8   3    2.28    0.62
   6  -8   3    3.47    0.74
  -6   8  -3    1.22    0.57
   6  -7   3   33.92    1.33
   6  -7   3   34.60    1.43
  -6   7  -3   34.32    1.35
   6  -6   3    8.30    0.81
   6  -6   3    9.04    0.83
  -6   6  -3    9.09    0.83
   6  -5   3    6.81    0.74
   6  -5   3    6.63    0.71
  -6   5  -3    6.02    0.64
   6  -4   3    0.13    0.49
   6  -4   3    0.09    0.42
  -6   4  -3    0.07    0.39
   6  -3   3    0.94    0.48
   6  -3   3    0.10    0.51
  -6   3  -3    1.03    0.40
   6  -2   3   27.82    1.31
   6  -2   3   26.14    1.24
  -6   2  -3   27.75    1.00
   6  -1   3   20.70    1.26
   6  -1   3   21.06    1.16
  -6   1  -3   18.76    0.86
   6   0   3   53.40    1.83
   6   0   3   56.51    2.10
  -6   0  -3   53.56    1.47
   6   1   3    1.57    0.83
  -6  -1  -3    0.99    0.39
   6   2   3    6.34    1.03
  -6  -2  -3    5.57    0.74
   6   3   3    0.03    0.82
  -6  -3  -3    1.75    0.59
   6   4   3    3.01    1.11
  -6  -4  -3    4.18    0.69
   6   5   3    1.39    1.17
  -7  12  -3   -0.17    0.90
  -7  11  -3    0.47    0.82
   7 -10   3    0.21    0.73
   7 -10   3   -0.74    0.54
  -7  10  -3    0.81    0.73
   7  -9   3   15.82    1.27
   7  -9   3   14.29    1.09
  -7   9  -3   17.18    1.21
   7  -8   3   10.54    1.00
   7  -8   3    9.56    1.04
  -7   8  -3    8.60    0.92
   7  -7   3   22.70    1.19
   7  -7   3   22.57    1.19
  -7   7  -3   23.61    1.22
   7  -6   3    0.72    0.49
   7  -6   3    1.03    0.59
  -7   6  -3    0.22    0.53
   7  -5   3    0.87    0.48
   7  -5   3    0.86    0.58
  -7   5  -3    1.78    0.57
   7  -4   3   -0.20    0.56
   7  -4   3    1.12    0.48
  -7   4  -3    1.30    0.50
   7  -3   3   24.95    1.28
   7  -3   3   26.18    1.24
  -7   3  -3   26.45    1.09
   7  -2   3   13.21    1.13
   7  -2   3   12.74    1.06
  -7   2  -3   12.96    0.80
   7  -1   3   18.70    1.36
   7  -1   3   16.66    1.19
  -7   1  -3   17.20    0.88
   7   0   3    2.63    0.81
   7   0   3    3.65    0.85
  -7   0  -3    2.39    0.46
   7   1   3    1.35    0.83
  -7  -1  -3    1.28    0.41
   7   2   3    2.91    0.95
  -7  -2  -3    3.48    0.71
   7   3   3    1.36    0.95
  -7  -3  -3    1.71    0.63
   7   4   3    4.43    1.28
  -7  -4  -3    5.83    0.79
  -8  12  -3    4.05    1.16
  -8  11  -3    0.48    0.89
   8 -10   3    0.98    0.69
  -8  10  -3   -0.11    0.75
   8  -9   3    0.72    0.66
  -8   9  -3   -0.34    0.69
   8  -8   3   -0.30    0.59
  -8   8  -3    0.69    0.65
   8  -7   3    6.05    0.86
  -8   7  -3    6.81    0.87
   8  -6   3   16.55    1.12
  -8   6  -3   18.02    1.14
   8  -5   3   28.52    1.35
   8  -5   3   26.85    1.35
  -8   5  -3   27.94    1.29
   8  -4   3    0.40    0.48
   8  -4   3   -0.28    0.61
  -8   4  -3    0.71    0.52
   8  -3   3    0.56    0.61
   8  -3   3   -0.03    0.55
  -8   3  -3    0.86    0.45
   8  -2   3    3.03    0.81
   8  -2   3    4.26    0.78
  -8   2  -3    4.55    0.58
   8  -1   3    8.12    1.03
   8  -1   3    8.25    1.02
  -8   1  -3    9.28    0.78
   8   0   3    3.38    0.90
   8   0   3    4.71    0.97
  -8   0  -3    5.29    0.60
   8   1   3   19.64    1.67
  -8  -1  -3   16.14    1.18
   8   2   3   -0.39    0.88
  -8  -2  -3    2.11    0.66
   8   3   3   -0.22    1.03
  -8  -3  -3    1.13    0.62
  -9  11  -3    0.87    1.02
   9 -10   3    0.32    0.72
  -9  10  -3    2.05    0.95
   9  -9   3    0.48    0.69
  -9   9  -3    0.49    0.80
   9  -8   3    4.13    0.86
  -9   8  -3    5.14    0.94
   9  -7   3    0.78    0.66
  -9   7  -3    0.00    0.61
   9  -6   3    1.57    0.71
  -9   6  -3    4.39    0.77
   9  -5   3    0.47    0.64
  -9   5  -3    0.35    0.57
   9  -4   3    1.39    0.75
  -9   4  -3    2.23    0.59
   9  -3   3    4.03    0.90
  -9   3  -3    4.34    0.63
   9  -2   3    2.61    0.86
  -9   2  -3    3.38    0.55
   9  -1   3    1.82    0.86
  -9   1  -3    2.98    0.53
   9   0   3    0.15    0.89
   9   0   3    0.22    0.80
   9   1   3   -0.28    0.87
  -9  -1  -3    1.27    0.65
   9   2   3   -1.48    0.98
  -9  -2  -3    1.12    0.68
  10 -11   3    1.74    0.86
 -10  11  -3    1.79    1.12
  10 -10   3    1.53    0.84
 -10  10  -3    2.55    1.06
  10  -9   3   -0.32    0.73
 -10   9  -3   -0.06    0.82
  10  -8   3   -0.01    0.71
 -10   8  -3    1.03    0.81
  10  -7   3    1.04    0.75
 -10   7  -3    2.55    0.82
  10  -6   3    2.10    0.77
 -10   6  -3    3.39    0.76
  10  -5   3    2.21    0.81
 -10   5  -3    2.92    0.72
  10  -4   3    6.30    0.97
  10  -3   3    0.42    0.77
 -10   3  -3    1.09    0.53
  10  -2   3    0.26    0.84
 -10   2  -3    1.63    0.50
  10  -1   3    0.95    0.94
  10   0   3    0.03    0.96
  11  -9   3    0.22    0.84
 -11   9  -3    1.94    0.98
  11  -8   3    0.54    0.79
 -11   8  -3    2.61    0.91
  11  -7   3    0.89    0.79
 -11   7  -3    2.18    0.81
  11  -6   3    0.53    0.81
 -11   6  -3    0.92    0.74
  11  -5   3    0.14    0.73
 -11   5  -3    1.55    0.67
  11  -4   3   -0.52    0.79
 -11   4  -3    0.81    0.56
  11  -3   3    0.36    0.90
 -11   3  -3    2.32    0.62
  11  -2   3    2.47    1.01
  12  -7   3   -0.32    0.84
  12  -6   3   -0.14    0.78
 -12   6  -3    1.31    0.71
 -12   0   4    1.08    0.71
  12   0  -4    2.01    0.95
 -12   1   4    0.71    0.70
  12  -1  -4    0.32    0.86
 -12   2   4    3.94    0.83
  12  -2  -4    4.13    0.97
 -12   3   4    3.99    0.83
  12  -3  -4    1.00    0.82
 -12   4   4    6.92    0.98
  12  -4  -4    4.26    0.96
 -12   5   4    1.79    0.80
  12  -5  -4    0.66    0.77
 -12   6   4    2.81    0.93
  12  -6  -4    1.00    0.85
 -11  -2   4   -0.12    0.67
  11   2  -4    0.15    0.77
 -11  -1   4    0.28    0.64
  11   1  -4   -0.29    0.84
 -11   0   4    0.08    0.60
  11   0  -4   -0.64    0.74
 -11   1   4    3.71    0.76
  11  -1  -4    4.25    0.92
 -11   2   4   14.16    1.14
  11  -2  -4   10.57    1.13
 -11   3   4   11.32    1.08
  11  -3  -4   10.08    1.15
 -11   4   4    5.69    0.86
  11  -4  -4    5.53    0.91
 -11   5   4    0.26    0.63
  11  -5  -4    0.63    0.69
 -11   6   4    1.88    0.79
  11  -6  -4   -0.12    0.71
 -11   7   4    0.82    0.84
  11  -7  -4    0.15    0.75
 -11   8   4    3.93    1.02
  11  -8  -4    2.60    0.90
 -10  -3   4    6.46    1.02
  10   3  -4    4.35    0.86
 -10  -2   4    6.26    0.93
  10   2  -4    6.22    0.96
 -10  -1   4   21.08    1.32
  10   1  -4   20.65    1.31
 -10   0   4    1.60    0.64
  10   0  -4    1.52    0.73
 -10   1   4    0.39    0.50
  10  -1  -4   -0.61    0.66
 -10   2   4    2.82    0.67
  10  -2  -4    2.05    0.71
 -10   3   4    5.99    0.81
  10  -3  -4    5.35    0.83
 -10   4   4   15.34    1.15
  10  -4  -4   11.63    1.08
 -10   5   4   21.82    1.30
  10  -5  -4   20.11    1.22
 -10   6   4    6.85    0.93
  10  -6  -4    6.25    0.91
 -10   7   4    0.27    0.71
  10  -7  -4   -0.07    0.68
 -10   8   4    0.51    0.83
  10  -8  -4   -0.69    0.71
   9   5  -4    0.62    1.05
   9   4  -4    5.00    1.13
   9   3  -4    3.48    0.98
   9   3  -4    4.29    0.80
  -9  -2   4    7.30    0.94
   9   2  -4    6.87    0.89
  -9  -1   4    3.53    0.67
   9   1  -4    3.63    0.77
  -9   0   4    1.82    0.59
   9   0  -4    1.51    0.67
  -9   1   4   10.43    0.93
   9  -1  -4   10.19    0.94
  -9   2   4    1.10    0.50
   9  -2  -4    0.80    0.60
  -9   3   4    7.27    0.81
   9  -3  -4    6.98    0.81
  -9   4   4    0.47    0.51
   9  -4  -4    0.47    0.58
  -9   5   4   10.30    1.00
   9  -5  -4   10.37    1.01
  -9   6   4    1.97    0.68
   9  -6  -4    1.26    0.69
  -9   7   4    9.53    1.07
   9  -7  -4    7.59    0.99
  -9   8   4    3.30    0.88
   9  -8  -4    2.39    0.84
  -9   9   4    2.15    0.93
   9  -9  -4    0.67    0.75
   8   6  -4   11.86    1.34
   8   5  -4    0.08    0.85
   8   4  -4    0.13    0.61
   8   4  -4    0.17    0.78
   8   3  -4    8.93    0.94
   8   3  -4    7.75    1.03
   8   2  -4   12.02    0.97
   8   2  -4   12.50    1.20
  -8  -1   4   23.14    1.17
   8   1  -4   22.74    1.17
  -8   0   4   86.36    2.33
   8   0  -4   87.32    2.26
  -8   1   4    5.92    0.72
   8  -1  -4    5.89    0.73
  -8   2   4   -0.04    0.40
   8  -2  -4   -0.29    0.50
  -8   3   4    7.33    0.77
   8  -3  -4    6.36    0.77
  -8   4   4    0.40    0.48
   8  -4  -4    0.81    0.58
  -8   5   4   20.44    1.15
   8  -5  -4   20.04    1.15
  -8   6   4   19.36    1.16
   8  -6  -4   19.59    1.22
  -8   7   4   20.97    1.27
   8  -7  -4   18.25    1.26
  -8   8   4    0.25    0.69
   8  -8  -4   -0.57    0.74
  -8   9   4    1.48    0.83
   8  -9  -4    0.64    0.79
   7   7  -4    0.63    0.91
   7   6  -4    1.89    0.83
   7   5  -4    8.86    1.07
   7   4  -4   16.45    1.23
   7   4  -4   15.15    0.93
   7   3  -4    7.20    0.78
   7   3  -4    7.63    0.92
   7   2  -4    2.89    0.72
   7   2  -4    4.25    0.72
  -7  -1   4   13.38    0.81
   7   1  -4   13.39    0.90
  -7   0   4    5.62    0.48
  -7   0   4    5.67    0.63
   7   0  -4    6.88    0.71
  -7   1   4    7.95    0.73
   7  -1  -4    8.72    0.78
  -7   2   4  106.96    2.55
   7  -2  -4  103.10    2.46
  -7   3   4   12.75    0.86
   7  -3  -4   14.29    0.87
  -7   4   4    7.23    0.76
   7  -4  -4    8.27    0.87
  -7   5   4    6.38    0.75
   7  -5  -4    7.23    0.82
  -7   6   4   -0.22    0.49
   7  -6  -4    0.18    0.58
  -7   7   4    4.11    0.75
   7  -7  -4    4.33    0.80
  -7   8   4   10.53    1.10
   7  -8  -4    9.75    1.06
  -7   9   4    9.40    1.05
   7  -9  -4    8.98    1.02
   6   8  -4    0.17    0.85
   6   7  -4   12.12    1.26
   6   6  -4    6.84    1.00
   6   5  -4   52.34    1.84
   6   5  -4   51.36    1.97
   6   4  -4    1.76    0.65
   6   4  -4    1.04    0.55
   6   3  -4    0.50    0.48
   6   3  -4    0.60    0.56
   6   2  -4   15.50    0.85
   6   2  -4   15.00    0.99
  -6  -1   4    3.54    0.48
   6   1  -4    4.31    0.56
   6   1  -4    3.67    0.68
  -6   0   4   26.53    1.07
  -6   0   4   27.63    0.86
   6   0  -4   28.29    1.02
  -6   1   4   40.25    1.30
   6  -1  -4   39.41    1.22
  -6   2   4   51.57    1.50
   6  -2  -4   54.35    1.49
  -6   3   4    0.68    0.37
  -6   3   4    0.99    0.25
   6  -3  -4    1.21    0.49
  -6   4   4   12.18    0.66
  -6   4   4   11.04    0.81
   6  -4  -4   11.62    0.88
  -6   5   4    1.90    0.46
  -6   5   4    2.57    0.56
   6  -5  -4    2.43    0.62
  -6   6   4   13.12    0.93
   6  -6  -4   13.38    1.02
  -6   7   4    0.86    0.55
   6  -7  -4    0.81    0.66
  -6   8   4    9.71    0.93
   6  -8  -4    9.15    1.01
  -6   9   4    0.36    0.65
   6  -9  -4   -0.09    0.68
   5   9  -4    6.41    1.09
   5   8  -4    3.14    0.86
   5   7  -4    0.96    0.67
   5   6  -4    4.83    0.76
   5   5  -4    4.20    0.69
   5   5  -4    5.26    0.56
   5   4  -4   11.47    0.73
   5   4  -4   12.92    0.91
   5   3  -4  207.91    3.96
   5   3  -4  195.58    4.05
  -5  -2   4   26.04    1.07
   5   2  -4   25.24    1.07
   5   2  -4   25.15    0.90
  -5  -1   4   11.22    0.72
   5   1  -4   11.13    0.67
   5   1  -4   10.34    0.81
  -5   0   4   99.82    2.25
  -5   0   4  102.25    2.29
   5   0  -4   98.43    2.19
  -5   1   4    0.27    0.20
  -5   1   4    0.23    0.31
   5  -1  -4    0.08    0.38
  -5   2   4    4.80    0.52
  -5   2   4    5.22    0.42
   5  -2  -4    6.25    0.60
  -5   3   4  134.80    2.84
  -5   3   4  136.20    3.02
   5  -3  -4  137.03    2.91
  -5   4   4   77.73    1.89
  -5   4   4   78.54    2.03
   5  -4  -4   78.71    1.97
  -5   5   4   13.64    0.82
  -5   5   4   13.04    0.91
   5  -5  -4   13.76    0.95
  -5   6   4    0.57    0.53
  -5   6   4    1.09    0.46
   5  -6  -4    0.86    0.57
  -5   7   4    6.67    0.85
  -5   7   4    6.24    0.72
   5  -7  -4    7.17    0.86
  -5   8   4    4.14    0.70
   5  -8  -4    2.44    0.75
  -5   9   4    2.22    0.68
   5  -9  -4    1.79    0.85
   4  10  -4    6.32    1.06
   4   9  -4    1.40    0.74
   4   8  -4    6.37    0.86
   4   7  -4    0.22    0.54
   4   6  -4   15.16    1.03
   4   5  -4   10.67    0.58
   4   5  -4   11.39    0.86
   4   4  -4   13.79    0.85
   4   4  -4   14.76    0.63
   4   3  -4   27.63    0.85
   4   3  -4   26.73    1.03
  -4  -2   4    6.17    0.68
   4   2  -4    5.53    0.51
   4   2  -4    6.47    0.60
  -4  -1   4   85.80    2.11
   4   1  -4   88.66    2.01
   4   1  -4   87.97    1.92
  -4   0   4    3.56    0.45
  -4   0   4    3.38    0.43
   4   0  -4    3.62    0.45
  -4   1   4   47.28    1.26
  -4   1   4   48.28    1.28
   4  -1  -4   48.74    1.28
  -4   2   4    5.58    0.50
  -4   2   4    4.48    0.45
   4  -2  -4    5.49    0.58
  -4   3   4   21.03    0.79
  -4   3   4   19.44    0.85
   4  -3  -4   21.27    0.87
  -4   4   4    4.49    0.49
  -4   4   4    3.60    0.52
   4  -4  -4    5.19    0.60
  -4   5   4   41.06    1.24
  -4   5   4   42.10    1.55
   4  -5  -4   42.41    1.41
  -4   6   4   15.14    0.87
  -4   6   4   15.78    1.16
   4  -6  -4   14.40    1.03
  -4   7   4   18.08    1.35
  -4   7   4   18.31    0.97
   4  -7  -4   17.38    1.12
  -4   8   4    0.17    0.51
   4  -8  -4    0.48    0.65
  -4   9   4    0.42    0.61
   3  10  -4    4.18    0.92
   3   9  -4    6.54    0.88
   3   8  -4   49.94    1.68
   3   7  -4    4.90    0.70
   3   6  -4   13.93    0.88
   3   5  -4   50.98    1.48
   3   4  -4    7.06    0.44
   3   4  -4    7.81    0.65
   3   3  -4    7.40    0.61
   3   3  -4    8.12    0.46
  -3  -2   4  423.64    8.74
   3   2  -4  427.00    7.51
   3   2  -4  426.12    7.63
  -3  -1   4  166.91    3.65
   3   1  -4  166.29    3.21
   3   1  -4  167.13    3.19
  -3   0   4   67.24    1.52
  -3   0   4   65.78    1.67
   3   0  -4   66.04    1.53
  -3   1   4   24.74    0.79
  -3   1   4   26.56    0.97
   3  -1  -4   27.23    0.91
  -3   2   4   47.45    1.42
  -3   2   4   45.88    1.12
   3  -2  -4   46.10    1.26
  -3   3   4   10.87    0.54
  -3   3   4   10.23    0.78
   3  -3  -4   11.62    0.72
  -3   4   4   42.92    1.15
  -3   4   4   43.71    1.60
   3  -4  -4   46.04    1.36
  -3   5   4   85.08    1.92
  -3   5   4   85.70    2.54
   3  -5  -4   83.31    2.11
  -3   6   4    3.00    0.50
  -3   6   4    2.65    0.74
   3  -6  -4    2.71    0.64
  -3   7   4    7.23    1.05
  -3   7   4    7.13    0.71
   3  -7  -4    6.55    0.84
  -3   8   4    1.19    0.57
  -3   8   4    0.04    0.85
   3  -8  -4   -0.01    0.63
  -3   9   4    2.35    0.68
   2  11  -4    6.67    1.00
   2  10  -4    0.46    0.67
   2   9  -4    1.55    0.62
   2   8  -4    2.69    0.58
   2   7  -4   14.25    0.88
   2   6  -4   76.97    1.91
   2   5  -4   35.78    1.13
   2   4  -4  104.81    2.23
   2   4  -4  105.09    1.99
  -2  -3   4   64.67    1.85
   2   3  -4   65.74    1.37
   2   3  -4   66.19    1.51
  -2  -2   4    6.08    0.69
   2   2  -4    6.59    0.42
   2   2  -4    6.80    0.49
  -2  -1   4    6.06    0.57
   2   1  -4    5.90    0.47
   2   1  -4    5.00    0.47
  -2   0   4  374.78    6.53
  -2   0   4  373.58    7.72
   2   0  -4  380.04    6.85
  -2   1   4  140.74    2.62
  -2   1   4  142.19    3.28
   2  -1  -4  146.98    2.90
  -2   2   4  187.41    4.29
  -2   2   4  187.99    3.40
   2  -2  -4  191.36    3.73
  -2   3   4    6.01    0.71
  -2   3   4    5.86    0.42
   2  -3  -4    5.93    0.61
  -2   4   4    4.68    0.48
  -2   4   4    4.68    0.74
   2  -4  -4    5.03    0.61
  -2   5   4    0.38    0.61
  -2   5   4    0.50    0.36
   2  -5  -4   -0.10    0.51
  -2   6   4   13.43    1.32
  -2   6   4   11.58    0.77
   2  -6  -4   11.07    0.91
  -2   7   4   26.16    1.79
  -2   7   4   25.01    1.08
   2  -7  -4   23.65    1.19
  -2   8   4    7.69    1.25
  -2   8   4    7.35    0.78
   1  11  -4    0.55    0.76
   1  10  -4    1.44    0.65
   1   9  -4   13.40    0.96
   1   8  -4    3.22    0.59
   1   7  -4  112.19    2.52
   1   6  -4   24.61    0.95
   1   5  -4   49.49    1.30
  -1  -4   4    6.27    0.76
   1   4  -4    8.57    0.35
   1   4  -4   10.17    0.58
  -1  -3   4   10.64    0.79
   1   3  -4   11.61    0.55
   1   3  -4   10.90    0.43
  -1  -2   4   37.60    1.24
   1   2  -4   35.99    0.90
   1   2  -4   38.57    0.90
  -1  -1   4   65.91    1.76
   1   1  -4   66.64    1.33
   1   1  -4   67.45    1.46
  -1   0   4  244.71    4.11
  -1   0   4  231.67    5.11
   1   0  -4  236.11    4.45
  -1   1   4   13.67    0.88
  -1   1   4   13.70    0.41
   1  -1  -4   14.44    0.67
  -1   2   4   79.95    1.54
  -1   2   4   78.23    2.26
   1  -2  -4   79.36    1.87
  -1   3   4    0.79    0.24
  -1   3   4    1.71    0.60
   1  -3  -4    1.01    0.40
  -1   4   4   46.22    1.89
  -1   4   4   46.34    1.17
   1  -4  -4   45.13    1.41
  -1   5   4    1.40    0.74
  -1   5   4    0.65    0.39
   1  -5  -4    0.78    0.52
  -1   6   4   17.76    0.87
  -1   6   4   19.10    1.59
   1  -6  -4   19.91    1.08
  -1   7   4    0.04    0.45
  -1   7   4    1.17    0.92
   1  -7  -4   -0.11    0.57
  -1   8   4    3.23    1.18
   0  12  -4    4.86    0.93
   0  11  -4   10.52    1.07
   0  10  -4    9.44    0.97
   0   9  -4    7.11    0.77
   0   8  -4    9.54    0.81
   0   7  -4    1.28    0.45
   0   6  -4    0.51    0.35
   0  -5   4  392.22    8.37
   0   5  -4  400.89    7.02
   0  -4   4  131.68    3.19
   0   4  -4  133.83    2.58
   0   4  -4  135.31    2.47
   0  -3   4  251.57    5.34
   0   3  -4  245.75    4.49
   0   3  -4  245.71    4.36
   0  -2   4   49.49    1.49
   0   2  -4   50.21    1.14
   0   2  -4   50.12    1.02
   0  -1   4    0.28    0.38
   0   1  -4   -0.29    0.24
   0   0   4    3.73    0.56
   0   0  -4    4.25    0.43
   0   1   4  134.85    3.36
   0  -1  -4  134.59    2.77
   0   2   4  194.29    4.68
   0   2   4  195.85    3.44
   0  -2  -4  197.14    3.91
   0   3   4   79.24    1.61
   0   3   4   77.93    2.49
   0  -3  -4   78.47    1.93
   0   4   4   16.71    1.44
   0   4   4   12.89    0.64
   0  -4  -4   11.75    0.81
   0   5   4    3.89    0.96
   0   5   4    5.78    0.54
   0  -5  -4    4.53    0.65
   0   6   4    2.09    0.94
   0   6   4    1.58    0.45
   0  -6  -4    3.19    0.62
   0   7   4    0.10    0.95
   0  -7  -4    1.65    0.64
   0   8   4   11.19    1.64
  -1  12  -4    5.90    1.01
  -1  11  -4    0.43    0.64
  -1  10  -4    7.28    0.85
  -1   9  -4    0.37    0.45
  -1   8  -4   21.86    1.00
  -1   7  -4   14.59    0.79
   1  -6   4   10.73    0.90
  -1   6  -4    9.77    0.62
   1  -5   4   12.09    0.89
  -1   5  -4   12.43    0.63
  -1   5  -4   12.47    0.41
   1  -4   4   15.30    0.97
  -1   4  -4   15.81    0.63
  -1   4  -4   15.04    0.52
   1  -3   4  251.21    5.48
  -1   3  -4  257.18    4.71
  -1   3  -4  257.67    4.48
   1  -2   4   49.21    1.49
  -1   2  -4   48.86    0.97
  -1   2  -4   49.26    1.20
   1  -1   4  220.18    4.93
  -1   1  -4  232.41    4.32
   1   0   4    3.64    0.58
  -1   0  -4    3.54    0.45
   1   1   4   49.14    1.72
  -1  -1  -4   45.57    1.28
   1   2   4   11.20    0.44
   1   2   4   11.98    1.05
  -1  -2  -4   10.82    0.67
   1   3   4   47.99    1.99
   1   3   4   46.96    1.12
  -1  -3  -4   47.21    1.40
   1   4   4   18.18    1.57
   1   4   4   16.96    0.74
  -1  -4  -4   17.86    0.96
   1   5   4   38.04    1.16
   1   5   4   38.98    2.14
  -1  -5  -4   37.42    1.36
   1   6   4    5.57    1.16
  -1  -6  -4    8.22    0.83
   1   7   4    1.83    1.20
   1   8   4   -0.15    1.28
  -2  12  -4    0.59    0.76
  -2  11  -4    0.19    0.62
  -2  10  -4   38.24    1.48
  -2   9  -4   13.29    0.92
  -2   8  -4   29.55    1.16
   2  -7   4   20.05    1.22
  -2   7  -4   21.39    0.94
   2  -6   4    1.08    0.51
   2  -6   4    2.52    0.33
  -2   6  -4    1.93    0.41
   2  -5   4    0.49    0.45
   2  -5   4    0.45    0.28
  -2   5  -4    0.65    0.32
   2  -4   4  218.46    4.07
   2  -4   4  217.86    4.81
  -2   4  -4  216.08    3.95
   2  -3   4  145.83    3.43
  -2   3  -4  151.88    2.73
   2  -2   4  166.34    3.86
  -2   2  -4  170.78    3.41
  -2   2  -4  172.92    2.99
   2  -1   4   11.60    0.83
  -2   1  -4   11.62    0.63
   2   0   4    3.63    0.63
  -2   0  -4    5.03    0.53
   2   1   4    7.54    0.96
  -2  -1  -4    7.08    0.61
   2   2   4   12.05    1.18
   2   2   4   12.65    0.55
  -2  -2  -4   11.65    0.77
   2   3   4   69.55    1.52
   2   3   4   69.16    2.53
  -2  -3  -4   69.26    1.86
   2   4   4    4.97    1.00
   2   4   4    5.53    0.60
  -2  -4  -4    6.08    0.69
   2   5   4   17.98    1.76
  -2  -5  -4   17.69    1.01
   2   6   4    0.18    0.95
  -2  -6  -4    2.07    0.56
   2   7   4    0.50    1.20
  -3  12  -4    0.71    0.74
  -3  11  -4    0.26    0.63
  -3  10  -4    0.51    0.54
   3  -9   4    1.34    0.68
  -3   9  -4    1.21    0.53
   3  -8   4   39.17    1.02
   3  -8   4   38.83    1.68
  -3   8  -4   38.39    1.35
   3  -7   4   40.09    1.07
   3  -7   4   38.00    1.55
  -3   7  -4   41.39    1.30
   3  -6   4  104.88    2.17
   3  -6   4  101.95    2.72
  -3   6  -4  102.33    2.25
   3  -5   4    8.61    0.56
   3  -5   4    7.18    0.87
  -3   5  -4    7.72    0.58
   3  -4   4    0.63    0.36
   3  -4   4    0.97    0.45
  -3   4  -4    0.41    0.29
   3  -3   4   33.69    1.23
   3  -3   4   32.28    1.02
  -3   3  -4   32.65    0.86
   3  -2   4  120.01    2.62
   3  -2   4  130.77    3.10
  -3   2  -4  124.84    2.31
   3  -1   4   69.68    2.05
  -3   1  -4   67.29    1.35
  -3   1  -4   70.17    1.78
   3   0   4  214.62    5.04
  -3   0  -4  219.24    3.83
  -3   0  -4  214.64    4.38
   3   1   4    4.81    0.86
   3   1   4    4.59    0.48
  -3  -1  -4    5.14    0.60
   3   2   4   -0.12    0.73
   3   2   4    0.83    0.38
  -3  -2  -4    0.33    0.44
   3   3   4    0.97    0.44
   3   3   4    0.65    0.85
  -3  -3  -4    1.30    0.47
   3   4   4    1.60    0.90
  -3  -4  -4    2.33    0.56
   3   5   4   14.14    1.73
  -3  -5  -4   14.47    0.95
   3   6   4    3.71    1.31
   4 -12   4    2.28    1.12
  -4  12  -4   -0.02    0.70
   4 -11   4    2.57    0.99
  -4  11  -4    2.45    0.76
   4 -10   4    0.04    0.73
  -4  10  -4    0.43    0.55
   4  -9   4   26.11    1.54
  -4   9  -4   23.88    1.18
   4  -8   4   10.65    0.71
   4  -8   4   11.68    1.14
  -4   8  -4   12.05    0.94
   4  -7   4   21.35    0.88
   4  -7   4   21.76    1.26
  -4   7  -4   20.27    0.98
   4  -6   4    0.14    0.49
   4  -6   4    0.00    0.39
  -4   6  -4    0.25    0.36
   4  -5   4    2.88    0.58
   4  -5   4    3.69    0.52
  -4   5  -4    3.45    0.45
   4  -4   4    9.79    0.70
   4  -4   4   10.09    0.81
  -4   4  -4   10.34    0.60
   4  -3   4   10.82    0.75
   4  -3   4   12.14    0.86
  -4   3  -4   10.43    0.55
   4  -2   4   45.72    1.40
   4  -2   4   48.70    1.61
  -4   2  -4   48.14    1.13
   4  -1   4    3.18    0.58
   4  -1   4    3.41    0.64
  -4   1  -4    3.47    0.36
   4   0   4   26.75    1.49
  -4   0  -4   27.64    1.13
  -4   0  -4   28.23    0.80
   4   1   4    1.12    0.75
  -4  -1  -4    0.41    0.45
  -4  -1  -4    1.30    0.30
   4   2   4   32.89    1.12
   4   2   4   35.93    1.89
  -4  -2  -4   33.22    1.34
   4   3   4    1.27    0.82
  -4  -3  -4    2.37    0.56
   4   4   4    9.57    1.37
  -4  -4  -4   10.18    0.90
   4   5   4   -0.50    0.96
  -4  -5  -4    1.63    0.51
   4   6   4    2.55    1.28
   5 -13   4    7.11    1.47
   5 -12   4    7.33    1.32
  -5  12  -4    3.96    1.01
   5 -11   4    8.40    1.19
  -5  11  -4    6.38    0.94
   5 -10   4    1.70    0.79
  -5  10  -4    0.77    0.63
   5  -9   4    0.06    0.70
   5  -9   4    0.22    0.46
  -5   9  -4    0.57    0.55
   5  -8   4    9.78    0.80
   5  -8   4   10.05    1.12
  -5   8  -4    8.41    0.89
   5  -7   4   40.03    1.60
   5  -7   4   39.84    1.32
  -5   7  -4   38.88    1.34
   5  -6   4   29.79    1.16
   5  -6   4   32.10    1.34
  -5   6  -4   32.14    1.14
   5  -5   4   97.74    2.53
   5  -5   4  100.39    2.36
  -5   5  -4   97.30    2.20
   5  -4   4    0.37    0.52
   5  -4   4    0.15    0.42
  -5   4  -4    0.25    0.34
   5  -3   4    0.52    0.51
   5  -3   4    0.53    0.45
  -5   3  -4    0.63    0.33
   5  -2   4   13.32    1.04
   5  -2   4   11.84    0.88
  -5   2  -4   11.94    0.62
   5  -1   4    7.73    0.84
   5  -1   4    8.01    0.96
  -5   1  -4    8.47    0.55
   5   0   4   38.13    1.87
  -5   0  -4   36.63    1.39
  -5   0  -4   38.31    1.08
   5   1   4   26.66    1.68
  -5  -1  -4   24.74    0.87
  -5  -1  -4   26.81    1.24
   5   2   4    9.10    1.22
  -5  -2  -4   11.56    0.94
   5   3   4   -0.76    0.81
  -5  -3  -4   -0.01    0.50
   5   4   4    1.54    1.01
  -5  -4  -4    2.30    0.61
   5   5   4    1.04    1.15
   6 -12   4    4.26    1.17
  -6  12  -4   -0.61    0.82
   6 -11   4    0.06    0.85
  -6  11  -4   -0.87    0.70
   6 -10   4    5.47    0.98
  -6  10  -4    2.74    0.79
   6  -9   4    3.35    0.63
   6  -9   4    3.56    0.84
  -6   9  -4    3.24    0.71
   6  -8   4    1.88    0.72
   6  -8   4    0.85    0.56
  -6   8  -4    2.21    0.59
   6  -7   4    0.05    0.54
   6  -7   4    0.52    0.62
  -6   7  -4    0.77    0.52
   6  -6   4    0.55    0.57
   6  -6   4    0.62    0.53
  -6   6  -4    1.71    0.53
   6  -5   4    9.64    0.92
   6  -5   4   11.30    0.97
  -6   5  -4   10.37    0.80
   6  -4   4    4.14    0.76
   6  -4   4    3.87    0.65
  -6   4  -4    3.77    0.55
   6  -3   4   49.39    1.76
   6  -3   4   46.58    1.65
  -6   3  -4   49.80    1.38
   6  -2   4    1.77    0.66
   6  -2   4    1.87    0.66
  -6   2  -4    1.92    0.41
   6  -1   4    5.69    0.93
   6  -1   4    5.76    0.85
  -6   1  -4    5.42    0.57
   6   0   4    6.28    1.03
  -6   0  -4    5.17    0.75
  -6   0  -4    6.13    0.56
   6   1   4    1.45    0.85
  -6  -1  -4    1.99    0.58
   6   2   4    1.01    0.93
  -6  -2  -4    2.86    0.67
   6   3   4    8.40    1.30
  -6  -3  -4   11.59    1.00
   6   4   4    1.40    1.09
  -6  -4  -4    4.32    0.71
  -7  12  -4    1.00    0.93
   7 -11   4    2.11    0.96
  -7  11  -4    2.12    0.90
   7 -10   4    8.93    0.94
   7 -10   4    7.92    1.08
  -7  10  -4    9.39    1.08
   7  -9   4   -0.21    0.72
   7  -9   4    0.59    0.63
  -7   9  -4    0.54    0.64
   7  -8   4   -0.44    0.59
   7  -8   4    0.08    0.59
  -7   8  -4    0.48    0.61
   7  -7   4    2.81    0.67
   7  -7   4    3.82    0.76
  -7   7  -4    3.78    0.70
   7  -6   4    4.44    0.69
   7  -6   4    5.19    0.80
  -7   6  -4    5.33    0.71
   7  -5   4    8.44    0.93
   7  -5   4    7.46    0.89
  -7   5  -4   10.03    0.87
   7  -4   4   13.21    1.04
   7  -4   4   13.83    1.13
  -7   4  -4   15.53    0.93
   7  -3   4    2.52    0.75
   7  -3   4    3.95    0.75
  -7   3  -4    3.16    0.54
   7  -2   4    0.56    0.64
   7  -2   4    0.68    0.68
  -7   2  -4    1.78    0.42
   7  -1   4    0.42    0.70
   7  -1   4    0.75    0.69
  -7   1  -4    1.19    0.39
   7   0   4    0.74    0.79
  -7   0  -4    0.28    0.55
   7   1   4    6.35    1.10
  -7  -1  -4    5.98    0.84
   7   2   4    0.86    0.97
  -7  -2  -4    0.86    0.61
   7   3   4    3.17    1.17
  -7  -3  -4    4.04    0.78
  -8  12  -4    0.08    1.01
  -8  11  -4    0.00    0.90
   8 -10   4    1.24    0.72
  -8  10  -4    0.15    0.81
   8  -9   4    4.09    0.83
  -8   9  -4    3.38    0.87
   8  -8   4   13.13    1.14
  -8   8  -4   14.58    1.22
   8  -7   4    0.53    0.66
  -8   7  -4    0.36    0.62
   8  -6   4    0.61    0.69
   8  -6   4   -0.41    0.51
  -8   6  -4    0.33    0.57
   8  -5   4    9.01    0.94
   8  -5   4    8.39    0.98
  -8   5  -4    9.82    0.91
   8  -4   4    1.65    0.73
   8  -4   4    1.21    0.58
  -8   4  -4    1.17    0.53
   8  -3   4    1.94    0.77
   8  -3   4    2.19    0.73
  -8   3  -4    1.58    0.49
   8  -2   4   17.03    1.32
   8  -2   4   19.62    1.49
  -8   2  -4   17.94    0.93
   8  -1   4    2.39    0.85
   8  -1   4    2.09    0.84
   8   0   4    0.40    0.84
  -8   0  -4    1.68    0.69
   8   1   4    1.48    0.99
  -8  -1  -4    1.21    0.62
   8   2   4    0.11    1.00
  -8  -2  -4    1.20    0.64
  -9  11  -4    0.24    0.98
   9 -10   4    0.25    0.74
  -9  10  -4    0.11    0.83
   9  -9   4    1.75    0.79
  -9   9  -4    1.16    0.83
   9  -8   4   -0.65    0.66
  -9   8  -4   -0.06    0.72
   9  -7   4    0.13    0.70
  -9   7  -4   -0.12    0.60
   9  -6   4   -0.36    0.66
  -9   6  -4    1.36    0.64
   9  -5   4   -1.24    0.64
  -9   5  -4    0.75    0.58
   9  -4   4    2.20    0.81
  -9   4  -4    3.98    0.69
   9  -3   4   -0.26    0.73
  -9   3  -4    1.25    0.50
   9  -2   4   -0.02    0.78
   9  -1   4   -0.06    0.87
   9  -1   4    0.99    0.82
   9   0   4    2.62    1.03
  -9   0  -4    1.32    0.72
   9   1   4    1.42    1.02
  -9  -1  -4    1.42    0.73
  10 -11   4    1.34    0.89
  10 -10   4    0.27    0.83
 -10  10  -4    0.47    0.98
  10  -9   4    0.14    0.82
 -10   9  -4    1.26    0.92
  10  -8   4    0.71    0.83
 -10   8  -4    0.90    0.81
  10  -7   4    5.14    0.99
 -10   7  -4    4.88    0.91
  10  -6   4    0.71    0.79
 -10   6  -4    0.44    0.61
  10  -5   4    0.14    0.76
 -10   5  -4    2.03    0.65
  10  -4   4    0.16    0.80
 -10   4  -4    2.25    0.64
  10  -3   4   -1.14    0.78
  10  -2   4    0.99    0.95
  11  -9   4    0.23    0.91
 -11   9  -4    0.80    0.96
  11  -8   4    0.63    0.84
 -11   8  -4    0.63    0.87
  11  -7   4   -1.04    0.77
 -11   7  -4    1.04    0.79
  11  -6   4    0.67    0.86
 -11   6  -4    2.05    0.75
  11  -5   4    1.48    0.89
  11  -4   4   -0.22    0.86
  11  -3   4    0.08    0.92
 -12   0   5    2.22    0.78
  12   0  -5    0.79    0.88
 -12   1   5    5.82    0.94
  12  -1  -5    3.68    0.94
 -12   2   5    2.41    0.77
  12  -2  -5    0.49    0.85
 -12   3   5    1.40    0.73
  12  -3  -5    0.45    0.81
 -12   4   5    0.58    0.67
  12  -4  -5   -0.77    0.71
 -12   5   5    1.48    0.76
  12  -5  -5   -0.29    0.76
  12  -6  -5    1.10    0.82
 -11  -2   5    1.02    0.73
  11   2  -5    0.34    0.88
 -11  -1   5    8.87    1.10
  11   1  -5    6.40    1.00
 -11   0   5    5.98    0.91
  11   0  -5    6.77    1.03
 -11   1   5    4.73    0.85
  11  -1  -5    5.48    0.97
 -11   2   5    0.80    0.61
  11  -2  -5   -0.62    0.66
 -11   3   5    1.25    0.65
  11  -3  -5    0.24    0.69
 -11   4   5    0.82    0.68
  11  -4  -5   -0.67    0.64
 -11   5   5    4.61    0.88
  11  -5  -5    3.09    0.84
 -11   6   5    2.71    0.80
  11  -6  -5    1.08    0.75
 -11   7   5    3.43    0.96
  11  -7  -5    1.80    0.83
 -10  -3   5    1.04    0.72
  10   3  -5    0.70    0.78
 -10  -2   5    0.31    0.61
  10   2  -5   -0.65    0.70
 -10  -1   5    3.36    0.75
  10   1  -5    2.81    0.80
 -10   0   5   -0.58    0.52
  10   0  -5    0.66    0.69
 -10   1   5    9.21    1.00
  10  -1  -5   10.18    1.05
 -10   2   5   23.40    1.26
  10  -2  -5   22.61    1.28
 -10   3   5   13.53    1.11
  10  -3  -5   12.80    1.05
 -10   4   5    0.81    0.61
  10  -4  -5    0.08    0.60
 -10   5   5    0.86    0.64
  10  -5  -5   -1.03    0.59
 -10   6   5    1.99    0.77
  10  -6  -5    0.89    0.72
 -10   7   5    3.24    0.89
  10  -7  -5    1.59    0.78
 -10   8   5    4.00    1.00
  10  -8  -5    2.44    0.83
   9   5  -5    0.02    1.06
   9   4  -5    1.65    0.98
   9   3  -5   -0.01    0.89
   9   3  -5   -0.38    0.63
  -9  -2   5    5.59    0.84
   9   2  -5    4.93    0.83
  -9  -1   5    0.29    0.47
   9   1  -5   -0.07    0.62
  -9   0   5   10.27    0.95
   9   0  -5    8.88    0.95
  -9   1   5    1.31    0.48
   9  -1  -5    0.40    0.58
  -9   2   5    9.13    0.90
   9  -2  -5    8.01    0.88
  -9   3   5   -0.07    0.47
   9  -3  -5    0.53    0.59
  -9   4   5    7.26    0.86
   9  -4  -5    5.90    0.80
  -9   5   5    4.37    0.77
   9  -5  -5    3.22    0.78
  -9   6   5    3.26    0.78
   9  -6  -5    3.07    0.83
  -9   7   5    0.76    0.70
   9  -7  -5    1.31    0.81
  -9   8   5    0.39    0.76
   9  -8  -5   -0.96    0.79
   8   7  -5    0.03    1.02
   8   6  -5    2.37    1.02
   8   5  -5    2.34    0.93
   8   4  -5   12.06    1.24
   8   4  -5   11.24    1.01
  -8  -3   5   37.12    1.55
   8   3  -5   36.62    1.42
   8   3  -5   37.26    1.67
   8   2  -5   20.82    1.38
   8   2  -5   22.43    1.12
  -8  -1   5    0.49    0.45
   8   1  -5    0.77    0.60
  -8   0   5    1.95    0.53
   8   0  -5    1.65    0.63
  -8   1   5   15.88    0.98
   8  -1  -5   15.14    0.99
  -8   2   5   13.30    0.95
   8  -2  -5   13.71    0.94
  -8   3   5   25.82    1.21
   8  -3  -5   26.65    1.21
  -8   4   5   52.28    1.71
   8  -4  -5   50.76    1.67
  -8   5   5    2.07    0.57
   8  -5  -5    1.40    0.66
  -8   6   5    0.28    0.60
   8  -6  -5    0.60    0.65
  -8   7   5    2.63    0.71
   8  -7  -5    2.34    0.82
  -8   8   5    2.06    0.79
   8  -8  -5    1.91    0.80
  -8   9   5    1.48    0.82
   8  -9  -5    1.91    0.91
   7   8  -5    0.90    0.96
   7   7  -5   10.46    1.28
   7   6  -5    3.50    0.92
   7   5  -5    7.99    1.02
   7   4  -5    1.15    0.55
   7   4  -5    0.25    0.71
  -7  -3   5   12.54    1.05
   7   3  -5   12.07    1.09
   7   3  -5   10.69    0.88
  -7  -2   5    2.12    0.56
   7   2  -5    1.84    0.58
   7   2  -5    3.01    0.76
  -7  -1   5   42.50    1.37
  -7  -1   5   42.65    1.54
   7   1  -5   45.15    1.43
  -7   0   5   23.95    1.10
  -7   0   5   23.47    0.83
   7   0  -5   23.35    1.08
  -7   1   5   21.62    1.05
   7  -1  -5   22.13    1.02
  -7   2   5    2.87    0.52
   7  -2  -5    2.47    0.60
  -7   3   5    2.70    0.52
   7  -3  -5    2.49    0.59
  -7   4   5    3.61    0.59
   7  -4  -5    4.82    0.73
  -7   5   5   16.98    1.00
   7  -5  -5   15.62    1.13
  -7   6   5   29.10    1.31
   7  -6  -5   32.55    1.47
  -7   7   5    4.49    0.77
   7  -7  -5    5.37    0.89
  -7   8   5    1.47    0.68
   7  -8  -5    1.17    0.74
  -7   9   5    1.41    0.75
   7  -9  -5   -0.15    0.78
   6   8  -5   13.63    1.34
   6   7  -5    6.21    0.96
   6   6  -5    2.10    0.77
   6   5  -5    0.55    0.58
   6   5  -5    0.34    0.65
   6   4  -5    0.49    0.49
   6   4  -5    0.53    0.59
  -6  -3   5   22.60    1.26
   6   3  -5   24.47    1.23
   6   3  -5   25.95    1.01
  -6  -2   5   33.18    1.32
   6   2  -5   34.04    1.17
   6   2  -5   32.48    1.35
  -6  -1   5  126.49    2.97
   6   1  -5  129.25    2.78
  -6   0   5    0.89    0.37
  -6   0   5    0.41    0.30
   6   0  -5    0.81    0.43
  -6   1   5   14.13    0.61
  -6   1   5   14.81    0.82
   6  -1  -5   14.56    0.86
  -6   2   5    3.55    0.43
  -6   2   5    4.85    0.58
   6  -2  -5    4.75    0.62
  -6   3   5   20.28    0.80
  -6   3   5   20.01    0.95
   6  -3  -5   20.72    1.03
  -6   4   5    4.69    0.60
  -6   4   5    5.02    0.61
   6  -4  -5    5.13    0.71
  -6   5   5   25.24    1.11
  -6   5   5   24.68    1.12
   6  -5  -5   24.26    1.23
  -6   6   5    3.17    0.65
  -6   6   5    4.27    0.64
   6  -6  -5    3.86    0.76
  -6   7   5    2.87    0.66
  -6   7   5    1.75    0.66
   6  -7  -5    2.43    0.75
  -6   8   5    0.74    0.61
   6  -8  -5   -0.59    0.69
  -6   9   5    1.68    0.72
   6  -9  -5   -0.13    0.85
   5   9  -5    1.08    0.87
   5   8  -5    4.15    0.86
   5   7  -5    3.00    0.77
   5   6  -5   69.09    2.07
   5   5  -5   20.94    1.14
   5   5  -5   19.80    0.82
   5   4  -5   33.64    1.35
   5   4  -5   31.32    1.05
  -5  -3   5   17.66    1.07
   5   3  -5   16.82    0.81
   5   3  -5   17.86    0.99
  -5  -2   5    3.46    0.57
   5   2  -5    3.74    0.61
   5   2  -5    4.06    0.50
  -5  -1   5    9.35    0.70
   5   1  -5    8.73    0.67
   5   1  -5    8.60    0.78
  -5   0   5  150.41    3.12
  -5   0   5  152.18    3.32
   5   0  -5  147.57    3.10
  -5   1   5  215.39    4.60
  -5   1   5  218.67    4.23
   5  -1  -5  217.53    4.29
  -5   2   5   36.06    1.14
  -5   2   5   35.92    1.14
   5  -2  -5   34.78    1.19
  -5   3   5    3.19    0.46
  -5   3   5    2.62    0.46
   5  -3  -5    3.02    0.57
  -5   4   5   25.17    1.00
  -5   4   5   26.77    1.14
   5  -4  -5   28.06    1.17
  -5   5   5    1.39    0.47
  -5   5   5    1.62    0.55
   5  -5  -5    2.27    0.65
  -5   6   5    2.28    0.64
  -5   6   5    3.52    0.59
   5  -6  -5    3.13    0.74
  -5   7   5   36.78    1.70
  -5   7   5   34.96    1.34
   5  -7  -5   35.93    1.50
  -5   8   5    7.54    0.82
   5  -8  -5    6.97    0.95
  -5   9   5    3.21    0.75
   4  10  -5    0.07    0.78
   4   9  -5    4.40    0.85
   4   8  -5   11.04    1.03
   4   7  -5    7.51    0.85
   4   6  -5   18.04    1.03
   4   5  -5    1.80    0.40
   4   5  -5    1.25    0.51
   4   4  -5   57.65    1.63
   4   4  -5   59.08    1.38
  -4  -3   5    5.72    0.68
   4   3  -5    6.04    0.51
   4   3  -5    4.96    0.59
  -4  -2   5  114.43    2.77
   4   2  -5  107.95    2.31
   4   2  -5  114.06    2.45
  -4  -1   5    0.39    0.36
   4   1  -5    0.33    0.35
   4   1  -5    0.78    0.43
  -4   0   5   58.18    1.46
  -4   0   5   56.71    1.57
   4   0  -5   57.16    1.46
  -4   1   5    1.26    0.36
  -4   1   5    1.05    0.30
   4  -1  -5    0.71    0.38
  -4   2   5   62.99    1.77
  -4   2   5   63.14    1.51
   4  -2  -5   63.33    1.65
  -4   3   5   33.99    1.03
  -4   3   5   33.96    1.31
   4  -3  -5   33.84    1.22
  -4   4   5   24.78    1.24
  -4   4   5   26.37    0.94
   4  -4  -5   26.88    1.15
  -4   5   5   10.56    0.73
  -4   5   5    9.82    1.02
   4  -5  -5    9.96    0.95
  -4   6   5    0.95    0.43
  -4   6   5    0.23    0.63
   4  -6  -5    0.92    0.62
  -4   7   5    2.41    0.83
  -4   7   5    2.44    0.56
   4  -7  -5    2.29    0.75
  -4   8   5   -0.45    0.82
  -4   8   5   -0.05    0.53
   4  -8  -5   -0.41    0.70
   3  10  -5    4.67    0.91
   3   9  -5    4.78    0.80
   3   8  -5    8.04    0.85
   3   7  -5    0.74    0.51
   3   6  -5    8.50    0.80
   3   5  -5  147.73    2.80
   3   5  -5  148.19    3.11
  -3  -4   5  158.36    3.86
   3   4  -5  160.75    3.24
   3   4  -5  159.25    3.02
  -3  -3   5   71.80    2.09
   3   3  -5   74.20    1.60
   3   3  -5   74.80    1.74
  -3  -2   5    3.90    0.56
   3   2  -5    5.09    0.50
   3   2  -5    4.73    0.43
  -3  -1   5   51.44    1.51
   3   1  -5   52.26    1.32
   3   1  -5   53.11    1.31
  -3   0   5   23.10    0.77
  -3   0   5   22.37    0.94
   3   0  -5   22.88    0.85
  -3   1   5   22.30    0.72
  -3   1   5   23.60    1.00
   3  -1  -5   22.84    0.88
  -3   2   5  241.92    4.43
  -3   2   5  246.04    5.42
   3  -2  -5  247.95    4.80
  -3   3   5   24.15    0.77
  -3   3   5   23.76    1.19
   3  -3  -5   23.65    1.02
  -3   4   5   49.03    1.26
  -3   4   5   48.32    1.80
   3  -4  -5   47.91    1.55
  -3   5   5    2.89    0.46
  -3   5   5    1.55    0.69
   3  -5  -5    2.65    0.64
  -3   6   5    3.62    0.52
  -3   6   5    3.16    0.81
   3  -6  -5    2.83    0.70
  -3   7   5    0.98    0.52
  -3   7   5    1.08    0.87
   3  -7  -5    1.14    0.72
  -3   8   5    7.03    1.23
   3  -8  -5    8.33    0.98
   2  11  -5    0.63    0.79
   2  10  -5   -0.63    0.58
   2   9  -5   18.45    1.15
   2   8  -5   10.03    0.86
   2   7  -5   37.84    1.31
   2   6  -5    3.65    0.55
  -2  -5   5   10.70    0.97
   2   5  -5    9.96    0.70
  -2  -4   5   -0.18    0.42
   2   4  -5    0.21    0.32
   2   4  -5   -0.14    0.23
  -2  -3   5  192.87    4.34
   2   3  -5  190.67    3.58
   2   3  -5  186.82    3.56
  -2  -2   5  154.87    3.58
   2   2  -5  157.14    3.02
   2   2  -5  154.80    2.94
  -2  -1   5  233.82    5.09
   2   1  -5  236.16    4.45
   2   1  -5  234.17    4.23
  -2   0   5    0.30    0.18
  -2   0   5    0.58    0.39
   2   0  -5    0.53    0.35
  -2   1   5    4.89    0.32
  -2   1   5    5.45    0.69
   2  -1  -5    5.32    0.56
  -2   2   5    2.64    0.62
  -2   2   5    2.47    0.27
   2  -2  -5    2.48    0.47
  -2   3   5   14.99    1.12
  -2   3   5   14.15    0.58
   2  -3  -5   14.09    0.84
  -2   4   5   89.35    2.74
  -2   4   5   88.44    1.88
   2  -4  -5   86.71    2.23
  -2   5   5   25.54    0.93
  -2   5   5   27.35    1.60
   2  -5  -5   26.75    1.21
  -2   6   5   22.85    0.94
  -2   6   5   21.83    1.66
   2  -6  -5   21.23    1.17
  -2   7   5   -0.77    0.83
   2  -7  -5    0.39    0.64
  -2   8   5   -0.07    1.04
   1  11  -5    1.31    0.76
   1  10  -5   16.90    1.14
   1   9  -5   12.06    0.95
   1   8  -5    7.17    0.72
   1   7  -5    0.96    0.44
   1   6  -5    1.28    0.41
  -1  -5   5   21.70    1.17
   1   5  -5   21.49    0.83
   1   5  -5   22.58    0.59
  -1  -4   5   26.25    1.21
   1   4  -5   26.98    0.86
   1   4  -5   26.60    0.72
  -1  -3   5  248.00    5.43
   1   3  -5  241.62    4.53
   1   3  -5  250.27    4.43
  -1  -2   5    8.58    0.77
   1   2  -5    8.29    0.45
   1   2  -5    7.50    0.49
  -1  -1   5  127.03    3.02
   1   1  -5  126.52    2.56
   1   1  -5  121.93    2.29
  -1   0   5    0.35    0.42
  -1   0   5    0.53    0.14
   1   0  -5    0.11    0.31
  -1   1   5   87.51    1.57
  -1   1   5   83.52    2.38
   1  -1  -5   82.63    1.96
  -1   2   5    1.66    0.59
  -1   2   5    1.63    0.23
   1  -2  -5    1.84    0.45
  -1   3   5   62.05    1.33
  -1   3   5   61.39    2.22
   1  -3  -5   60.27    1.68
  -1   4   5    4.85    0.92
  -1   4   5    4.77    0.44
   1  -4  -5    4.79    0.72
  -1   5   5    7.80    0.63
  -1   5   5    8.29    1.12
   1  -5  -5    9.51    0.90
  -1   6   5    3.84    1.02
   1  -6  -5    3.39    0.73
  -1   7   5    3.16    1.16
   1  -7  -5    4.17    0.79
  -1   8   5    4.92    1.38
   0  12  -5    4.18    0.96
   0  11  -5    0.88    0.67
   0  10  -5    0.49    0.57
   0   9  -5    0.36    0.49
   0   8  -5   58.87    1.67
   0   7  -5   46.13    1.37
   0  -6   5   94.70    2.67
   0   6  -5   94.31    2.09
   0  -5   5    2.72    0.58
   0   5  -5    3.65    0.29
   0   5  -5    4.03    0.44
   0  -4   5   30.51    1.25
   0   4  -5   29.75    0.78
   0   4  -5   31.08    0.89
   0  -3   5   12.29    0.91
   0   3  -5   10.22    0.50
   0   3  -5   10.55    0.50
   0  -2   5   84.20    2.24
   0   2  -5   83.08    1.57
   0   2  -5   83.79    1.81
   0   1  -5  339.01    6.29
   0   0   5  148.42    3.61
   0   0  -5  149.33    3.05
   0   1   5   63.98    2.11
   0  -1  -5   64.26    1.64
   0   2   5   17.31    0.50
   0   2   5   16.24    1.24
   0  -2  -5   15.77    0.84
   0   3   5    0.09    0.27
   0   3   5    0.52    0.74
   0  -3  -5    0.48    0.45
   0   4   5    0.27    0.79
   0   4   5    0.12    0.32
   0  -4  -5   -0.24    0.50
   0   5   5   42.34    2.24
   0  -5  -5   43.19    1.51
   0   6   5    7.30    1.22
   0  -6  -5   10.94    0.97
   0   7   5    8.64    1.58
   0  -7  -5    9.83    1.26
  -1  12  -5   -0.48    0.78
  -1  11  -5    0.39    0.64
  -1  10  -5    5.27    0.78
  -1   9  -5    1.57    0.55
   1  -8   5   11.01    1.19
  -1   8  -5   12.72    0.83
   1  -7   5    0.75    0.56
  -1   7  -5    0.67    0.41
   1  -6   5   40.30    1.56
  -1   6  -5   39.09    1.14
  -1   6  -5   38.71    0.87
   1  -5   5    1.35    0.52
  -1   5  -5    2.19    0.37
  -1   5  -5    2.11    0.27
   1  -4   5  155.71    3.70
  -1   4  -5  156.18    2.91
  -1   4  -5  154.34    3.01
   1  -3   5    0.88    0.48
  -1   3  -5    1.31    0.25
  -1   3  -5    1.07    0.31
   1  -2   5   34.02    1.29
  -1   2  -5   34.66    1.00
   1  -1   5   10.31    0.91
  -1   1  -5    9.88    0.60
   1   0   5   25.44    1.21
  -1   0  -5   24.54    0.92
   1   1   5   28.64    1.41
  -1  -1  -5   25.90    1.00
   1   2   5   62.26    2.29
  -1  -2  -5   58.50    1.67
   1   3   5   23.81    0.74
   1   3   5   24.55    1.64
  -1  -3  -5   23.09    1.08
   1   4   5    1.19    0.91
  -1  -4  -5    1.99    0.58
   1   5   5    0.41    0.87
  -1  -5  -5    1.49    0.60
   1   6   5   -0.96    0.98
  -1  -6  -5    1.48    0.60
   1   7   5    4.72    1.46
  -2  12  -5    1.17    0.77
  -2  11  -5    7.21    0.91
   2 -10   5    4.30    0.97
  -2  10  -5    2.71    0.65
   2  -9   5    0.62    0.69
  -2   9  -5    0.35    0.49
   2  -8   5    3.45    0.75
  -2   8  -5    3.56    0.55
   2  -7   5   22.07    1.26
  -2   7  -5   22.48    0.99
  -2   7  -5   23.57    0.67
   2  -6   5   91.38    2.58
  -2   6  -5   90.17    2.03
  -2   6  -5   93.29    1.92
   2  -5   5   75.83    2.22
  -2   5  -5   76.57    1.69
  -2   5  -5   75.76    1.70
   2  -4   5   26.50    1.21
  -2   4  -5   25.82    0.85
  -2   4  -5   25.27    0.77
   2  -3   5   41.82    1.47
  -2   3  -5   42.42    1.20
  -2   3  -5   41.86    0.94
   2  -2   5    0.40    0.43
  -2   2  -5    0.40    0.32
   2  -1   5    0.31    0.47
  -2   1  -5   -0.02    0.32
   2   0   5  103.02    2.86
  -2   0  -5   99.62    2.35
   2   1   5   13.66    1.17
  -2  -1  -5   13.29    0.82
   2   2   5   39.27    1.95
  -2  -2  -5   36.96    1.35
   2   3   5    0.47    0.81
  -2  -3  -5   -0.10    0.46
   2   4   5    3.51    1.02
  -2  -4  -5    4.25    0.70
   2   5   5    0.89    0.98
  -2  -5  -5    1.12    0.54
   2   6   5    4.49    1.33
  -2  -6  -5    9.91    0.94
   3 -13   5    2.96    1.43
  -3  13  -5   -0.43    0.88
   3 -12   5    1.28    1.14
  -3  12  -5   -1.24    0.65
   3 -11   5    8.76    1.33
  -3  11  -5    4.98    0.86
   3 -10   5    3.27    0.91
  -3  10  -5    3.08    0.66
   3  -9   5   26.28    1.57
  -3   9  -5   26.02    1.24
   3  -8   5    1.09    0.67
  -3   8  -5    1.08    0.48
   3  -7   5    1.44    0.62
   3  -7   5    1.45    0.40
  -3   7  -5    0.88    0.43
   3  -6   5   30.93    0.97
   3  -6   5   30.72    1.39
  -3   6  -5   29.08    1.03
   3  -5   5   15.43    0.73
   3  -5   5   15.37    1.00
  -3   5  -5   15.28    0.70
   3  -4   5   31.23    1.02
   3  -4   5   32.20    1.30
  -3   4  -5   33.21    0.91
   3  -3   5  135.77    3.33
  -3   3  -5  135.74    2.94
  -3   3  -5  133.10    2.50
   3  -2   5   16.33    1.05
  -3   2  -5   16.02    0.81
  -3   2  -5   16.19    0.49
   3  -1   5    2.13    0.59
  -3   1  -5    2.97    0.52
   3   0   5    0.91    0.63
  -3   0  -5    2.59    0.51
   3   1   5    0.82    0.78
  -3  -1  -5    1.39    0.51
   3   2   5   25.17    1.79
  -3  -2  -5   23.58    1.16
   3   3   5   13.11    1.58
  -3  -3  -5   12.39    0.92
   3   4   5   19.15    1.88
  -3  -4  -5   19.62    1.10
   3   5   5    0.41    0.98
  -3  -5  -5    1.92    0.61
   3   6   5    2.04    1.25
   4 -13   5    5.14    1.50
  -4  13  -5    0.74    0.87
   4 -12   5    4.28    1.27
  -4  12  -5    2.28    0.87
   4 -11   5    4.53    1.11
  -4  11  -5    2.63    0.79
   4 -10   5    5.70    1.01
  -4  10  -5    3.94    0.72
   4  -9   5    0.33    0.73
  -4   9  -5    0.74    0.54
   4  -8   5    0.20    0.64
   4  -8   5    0.48    0.44
  -4   8  -5    1.19    0.51
   4  -7   5    1.59    0.68
   4  -7   5    2.27    0.51
  -4   7  -5    1.85    0.51
   4  -6   5   -0.08    0.44
   4  -6   5    0.31    0.54
  -4   6  -5    0.11    0.38
   4  -5   5   32.86    1.14
   4  -5   5   34.98    1.40
  -4   5  -5   34.31    1.04
   4  -4   5    0.10    0.45
   4  -4   5    0.42    0.48
  -4   4  -5    0.62    0.30
   4  -3   5   21.93    1.00
   4  -3   5   23.50    1.19
  -4   3  -5   22.62    0.71
   4  -2   5    1.12    0.57
  -4   2  -5    0.73    0.23
  -4   2  -5    0.96    0.44
   4  -1   5   17.58    1.31
  -4   1  -5   19.21    0.59
  -4   1  -5   18.28    0.97
   4   0   5   -0.24    0.65
  -4   0  -5   -0.73    0.42
   4   1   5   16.91    1.54
  -4  -1  -5   14.62    0.99
   4   2   5    1.48    0.84
  -4  -2  -5    0.90    0.55
   4   3   5    1.06    0.94
  -4  -3  -5    1.38    0.56
   4   4   5    0.88    0.98
  -4  -4  -5    0.95    0.55
   4   5   5    1.72    1.19
  -4  -5  -5    4.61    0.72
   5 -13   5    3.22    1.38
  -5  13  -5   -0.55    0.81
   5 -12   5    2.97    1.18
  -5  12  -5    0.19    0.78
   5 -11   5    3.95    1.12
  -5  11  -5    1.26    0.75
   5 -10   5    5.86    1.07
  -5  10  -5    6.23    0.87
   5  -9   5    6.41    0.72
   5  -9   5    7.57    1.03
  -5   9  -5    6.34    0.81
   5  -8   5   32.08    1.22
   5  -8   5   33.11    1.65
  -5   8  -5   33.37    1.33
   5  -7   5    0.54    0.64
   5  -7   5    0.85    0.54
  -5   7  -5    0.85    0.50
   5  -6   5    2.01    0.66
   5  -6   5    2.53    0.63
  -5   6  -5    2.24    0.50
   5  -5   5   13.49    0.94
   5  -5   5   13.50    1.05
  -5   5  -5   13.22    0.77
   5  -4   5    0.36    0.53
   5  -4   5    0.93    0.50
  -5   4  -5    0.62    0.34
   5  -3   5   22.72    1.11
   5  -3   5   24.73    1.30
  -5   3  -5   22.62    0.81
   5  -2   5   20.34    1.13
   5  -2   5   22.06    1.33
  -5   2  -5   20.78    0.79
   5  -1   5   31.83    1.83
  -5   1  -5   33.21    0.92
  -5   1  -5   33.07    1.37
   5   0   5    0.33    0.74
  -5   0  -5    0.55    0.54
   5   1   5   -0.08    0.79
  -5  -1  -5    0.59    0.53
   5   2   5    1.59    0.95
  -5  -2  -5    2.25    0.63
   5   3   5    4.66    1.17
  -5  -3  -5    5.78    0.80
   5   4   5    1.17    1.05
  -5  -4  -5    3.21    0.68
   6 -12   5    2.24    1.18
  -6  12  -5    0.32    0.82
   6 -11   5    0.82    0.94
  -6  11  -5   -0.62    0.70
   6 -10   5    0.72    0.86
  -6  10  -5    0.31    0.67
   6  -9   5   -0.97    0.73
   6  -9   5    0.47    0.59
  -6   9  -5    0.17    0.59
   6  -8   5    2.10    0.73
   6  -8   5    4.11    0.75
  -6   8  -5    3.49    0.69
   6  -7   5   -0.61    0.57
   6  -7   5    0.12    0.63
  -6   7  -5    0.30    0.52
   6  -6   5   19.99    1.16
   6  -6   5   21.67    1.24
  -6   6  -5   20.66    1.04
   6  -5   5    0.05    0.62
   6  -5   5    0.39    0.58
  -6   5  -5    0.55    0.43
   6  -4   5    6.16    0.85
   6  -4   5    6.54    0.78
  -6   4  -5    5.05    0.57
   6  -3   5    3.77    0.77
   6  -3   5    3.31    0.77
  -6   3  -5    4.29    0.51
   6  -2   5   -0.45    0.62
   6  -2   5    0.45    0.63
  -6   2  -5    0.95    0.36
   6  -1   5   -0.66    0.72
  -6   1  -5    0.11    0.49
   6   0   5    6.44    1.09
  -6   0  -5    5.86    0.80
   6   1   5    6.30    1.13
  -6  -1  -5    6.08    0.83
   6   2   5    1.01    0.95
  -6  -2  -5    1.12    0.65
   6   3   5    1.17    1.05
  -6  -3  -5    2.70    0.75
   7 -12   5   -0.06    1.24
  -7  12  -5   -0.75    0.82
   7 -11   5    0.45    0.94
  -7  11  -5   -0.14    0.79
   7 -10   5   -0.03    0.86
   7 -10   5    0.62    0.68
  -7  10  -5    0.95    0.76
   7  -9   5   -0.43    0.75
   7  -9   5    0.22    0.66
  -7   9  -5    0.30    0.67
   7  -8   5    4.59    0.84
   7  -8   5    4.98    0.86
  -7   8  -5    3.98    0.73
   7  -7   5    7.55    0.89
   7  -7   5    8.25    0.97
  -7   7  -5    8.84    0.87
   7  -6   5    6.10    0.82
   7  -6   5    7.31    0.91
  -7   6  -5    7.11    0.77
   7  -5   5   -0.24    0.53
   7  -5   5    0.67    0.69
  -7   5  -5    1.19    0.48
   7  -4   5    0.67    0.60
   7  -4   5   -0.40    0.62
  -7   4  -5    0.55    0.44
   7  -3   5    1.00    0.71
   7  -3   5    0.73    0.67
  -7   3  -5    1.66    0.46
   7  -2   5    5.26    0.92
   7  -2   5    5.54    0.89
   7  -1   5    1.36    0.85
  -7   1  -5    0.24    0.55
   7   0   5    4.33    1.03
  -7   0  -5    3.73    0.74
   7   1   5    0.10    0.94
  -7  -1  -5    1.15    0.68
   7   2   5    0.47    1.04
  -7  -2  -5    0.94    0.68
  -8  12  -5    0.80    1.00
  -8  11  -5    3.81    1.03
   8 -10   5    0.72    0.73
  -8  10  -5   -0.25    0.77
   8  -9   5    0.21    0.69
  -8   9  -5    0.52    0.70
   8  -8   5    2.59    0.80
  -8   8  -5    2.83    0.75
   8  -7   5   -0.03    0.72
   8  -7   5   -1.00    0.55
  -8   7  -5   -0.02    0.59
   8  -6   5   -0.05    0.55
   8  -6   5    0.97    0.76
  -8   6  -5    0.78    0.57
   8  -5   5   10.07    1.15
   8  -5   5   10.25    1.14
  -8   5  -5   12.58    0.96
   8  -4   5    4.74    0.84
   8  -4   5    4.35    0.91
  -8   4  -5    4.81    0.67
   8  -3   5    0.52    0.72
   8  -3   5    0.54    0.78
   8  -2   5    0.20    0.77
   8  -2   5    0.19    0.79
   8  -1   5    0.26    0.84
  -8   1  -5    0.54    0.60
   8   0   5    0.31    0.94
  -8   0  -5    1.63    0.70
   8   1   5    1.14    1.02
  -8  -1  -5    1.01    0.67
  -9  11  -5    0.63    0.95
   9 -10   5    0.62    0.80
  -9  10  -5    1.61    0.93
   9  -9   5   -0.51    0.79
  -9   9  -5    0.81    0.83
   9  -8   5   -0.02    0.80
  -9   8  -5    0.78    0.74
   9  -7   5    1.54    0.81
  -9   7  -5    2.31    0.76
   9  -6   5    0.19    0.74
  -9   6  -5    0.20    0.60
   9  -5   5    1.47    0.83
  -9   5  -5    1.85    0.62
   9  -4   5   -0.60    0.72
   9  -3   5    0.68    0.81
   9  -2   5    1.35    0.98
   9  -2   5    0.57    0.85
   9  -1   5    2.08    1.00
  -9   1  -5    1.98    0.75
   9   0   5    0.18    0.96
  -9   0  -5    0.95    0.69
  10 -10   5    2.96    1.02
 -10  10  -5    3.18    1.09
  10  -9   5    1.60    0.91
 -10   9  -5   -0.36    0.81
  10  -8   5    1.94    0.91
 -10   8  -5    0.30    0.78
  10  -7   5    0.28    0.80
 -10   7  -5   -0.29    0.66
  10  -6   5   -0.01    0.84
 -10   6  -5    1.69    0.68
  10  -5   5    0.66    0.86
  10  -4   5    1.34    0.90
  10  -3   5    2.80    1.03
  11  -8   5    2.39    0.99
 -11   8  -5    1.40    0.89
  11  -7   5   -0.07    0.91
 -11   7  -5    3.21    0.87
  11  -6   5    2.36    0.96
  11  -5   5   -0.24    0.87
 -12   0   6    1.29    0.74
  12   0  -6   -0.50    0.83
 -12   1   6    0.71    0.72
  12  -1  -6   -0.35    0.87
 -12   2   6    0.96    0.67
  12  -2  -6   -0.93    0.77
 -12   3   6    3.37    0.78
  12  -3  -6    1.77    0.87
 -12   4   6    2.25    0.82
  12  -4  -6    1.48    0.86
  12  -5  -6    3.66    0.95
 -11  -2   6    8.40    1.08
  11   2  -6    5.57    1.01
 -11  -1   6    0.59    0.69
  11   1  -6    0.43    0.79
 -11   0   6    0.27    0.62
  11   0  -6   -1.31    0.69
 -11   1   6    0.56    0.65
  11  -1  -6    0.67    0.76
 -11   2   6    2.98    0.77
  11  -2  -6    2.37    0.83
 -11   3   6    6.25    0.90
  11  -3  -6    5.27    0.91
 -11   4   6    7.01    0.99
  11  -4  -6    6.53    0.97
 -11   5   6    3.38    0.92
  11  -5  -6    2.18    0.79
 -11   6   6    0.84    0.81
  11  -6  -6    0.33    0.76
 -10  -3   6    0.51    0.69
  10   3  -6   -0.70    0.72
 -10  -2   6    3.41    0.76
  10   2  -6    4.55    0.85
 -10  -1   6   15.29    1.19
  10   1  -6   11.92    1.12
 -10   0   6   18.72    1.25
  10   0  -6   17.63    1.22
 -10   1   6    2.70    0.68
  10  -1  -6    2.33    0.78
 -10   2   6    0.09    0.52
  10  -2  -6    0.37    0.66
 -10   3   6    2.84    0.70
  10  -3  -6    1.74    0.73
 -10   4   6    2.48    0.72
  10  -4  -6    1.92    0.74
 -10   5   6    5.22    0.87
  10  -5  -6    4.00    0.83
 -10   6   6   17.31    1.35
  10  -6  -6   13.35    1.20
 -10   7   6    3.97    0.92
  10  -7  -6    2.28    0.86
   9   6  -6   -0.82    1.06
   9   5  -6    0.95    1.07
   9   4  -6    0.17    0.94
   9   3  -6   10.89    1.01
  -9  -2   6    3.49    0.72
   9   2  -6    2.95    0.74
  -9  -1   6   12.41    1.01
   9   1  -6   10.12    1.01
  -9   0   6    4.79    0.75
   9   0  -6    5.60    0.80
  -9   1   6    7.05    0.82
   9  -1  -6    7.11    0.85
  -9   2   6    3.76    0.68
   9  -2  -6    3.66    0.73
  -9   3   6    3.01    0.65
   9  -3  -6    2.12    0.71
  -9   4   6    4.55    0.74
   9  -4  -6    3.90    0.79
  -9   5   6    0.64    0.57
   9  -5  -6    0.78    0.70
  -9   6   6    2.98    0.76
   9  -6  -6    2.38    0.83
  -9   7   6    1.56    0.74
   9  -7  -6    0.56    0.82
   9  -8  -6    4.50    1.05
   8   7  -6    2.44    1.10
  -8  -6   6   24.48    1.60
   8   6  -6   15.09    1.56
  -8  -5   6   19.43    1.40
   8   5  -6   17.65    1.49
  -8  -4   6    3.56    0.72
   8   4  -6    3.63    0.94
   8   4  -6    2.39    0.67
   8   3  -6    0.16    0.73
   8   3  -6   -0.43    0.58
   8   2  -6    3.52    0.71
  -8  -1   6   14.13    1.01
   8   1  -6   13.72    0.95
  -8   0   6   21.41    1.15
   8   0  -6   21.15    1.13
  -8   1   6   71.04    2.07
   8  -1  -6   75.50    2.06
  -8   2   6   12.33    0.95
   8  -2  -6   12.44    0.99
  -8   3   6    3.69    0.62
   8  -3  -6    2.94    0.67
  -8   4   6    2.47    0.58
   8  -4  -6    3.68    0.76
  -8   5   6    0.95    0.61
   8  -5  -6   -0.38    0.63
  -8   6   6    6.68    0.87
   8  -6  -6    4.92    0.91
  -8   7   6    8.66    0.97
   8  -7  -6    8.27    1.06
  -8   8   6    4.80    0.89
   8  -8  -6    5.52    1.04
   7   8  -6    4.48    1.12
   7   7  -6    1.62    0.90
   7   6  -6    3.42    0.95
  -7  -5   6    2.09    0.74
   7   5  -6    2.20    0.84
  -7  -4   6   31.00    1.57
   7   4  -6   31.68    1.22
   7   4  -6   31.24    1.53
  -7  -3   6   25.93    1.36
   7   3  -6   28.12    1.45
   7   3  -6   26.07    1.14
  -7  -2   6   25.49    1.20
   7   2  -6   23.44    1.36
   7   2  -6   24.48    1.12
  -7  -1   6    0.15    0.38
  -7  -1   6    0.27    0.39
   7   1  -6   -0.07    0.51
  -7   0   6    0.28    0.41
  -7   0   6   -0.20    0.38
   7   0  -6   -0.17    0.50
  -7   1   6    8.53    0.78
   7  -1  -6    7.56    0.76
  -7   2   6   20.42    1.03
   7  -2  -6   19.88    1.09
  -7   3   6   68.10    1.92
   7  -3  -6   68.76    1.97
  -7   4   6   14.84    0.96
   7  -4  -6   14.34    1.02
  -7   5   6    8.17    0.87
   7  -5  -6    9.04    0.92
  -7   6   6    1.57    0.61
   7  -6  -6    0.25    0.66
  -7   7   6    0.61    0.61
   7  -7  -6    0.25    0.78
  -7   8   6    0.53    0.69
   7  -8  -6   -0.53    0.85
   6   9  -6   -0.58    0.87
   6   8  -6    0.61    0.84
   6   7  -6    0.04    0.68
   6   6  -6   13.55    1.25
  -6  -5   6   19.87    1.42
   6   5  -6   21.62    0.97
   6   5  -6   20.64    1.31
  -6  -4   6   65.31    2.26
   6   4  -6   65.66    2.03
   6   4  -6   69.74    1.76
  -6  -3   6    3.91    0.73
   6   3  -6    5.31    0.65
   6   3  -6    5.13    0.76
  -6  -2   6   14.02    1.02
   6   2  -6   15.17    1.07
   6   2  -6   13.34    0.84
  -6  -1   6    0.27    0.41
  -6  -1   6    1.13    0.43
   6   1  -6    1.14    0.48
  -6   0   6   14.61    0.84
  -6   0   6   14.78    0.77
   6   0  -6   14.99    0.88
  -6   1   6   13.70    0.71
  -6   1   6   12.91    0.81
   6  -1  -6   13.19    0.87
  -6   2   6   53.23    1.50
  -6   2   6   52.12    1.52
   6  -2  -6   52.46    1.60
  -6   3   6   26.94    1.05
  -6   3   6   26.20    1.08
   6  -3  -6   26.56    1.19
  -6   4   6    9.66    0.80
  -6   4   6    9.69    0.81
   6  -4  -6    8.21    0.90
  -6   5   6    5.48    0.70
  -6   5   6    4.51    0.63
   6  -5  -6    5.19    0.81
  -6   6   6    1.57    0.55
  -6   6   6    0.71    0.58
   6  -6  -6    0.78    0.70
  -6   7   6    7.18    0.81
   6  -7  -6    5.10    0.93
  -6   8   6    1.56    0.65
   6  -8  -6   -0.05    0.80
   5   9  -6   14.44    1.37
   5   8  -6    8.05    1.00
   5   7  -6   16.01    1.20
   5   6  -6    0.98    0.61
  -5  -5   6    2.98    0.77
   5   5  -6    2.80    0.50
   5   5  -6    3.47    0.68
  -5  -4   6    2.17    0.67
   5   4  -6    1.91    0.61
   5   4  -6    1.88    0.46
  -5  -3   6   68.40    2.14
   5   3  -6   66.33    1.65
   5   3  -6   68.28    1.88
  -5  -2   6  174.79    4.05
   5   2  -6  177.48    3.55
   5   2  -6  172.24    3.61
  -5  -1   6   66.47    1.84
   5   1  -6   68.30    1.71
  -5   0   6   29.75    1.09
  -5   0   6   28.19    1.05
   5   0  -6   28.82    1.07
  -5   1   6   23.68    1.01
  -5   1   6   23.90    0.94
   5  -1  -6   24.55    1.03
  -5   2   6    0.73    0.41
  -5   2   6    0.76    0.34
   5  -2  -6    0.78    0.50
  -5   3   6    2.93    0.57
  -5   3   6    2.89    0.47
   5  -3  -6    3.18    0.63
  -5   4   6   81.30    1.94
  -5   4   6   81.40    2.35
   5  -4  -6   79.80    2.18
  -5   5   6   26.33    1.07
  -5   5   6   27.61    1.40
   5  -5  -6   27.03    1.32
  -5   6   6   13.70    0.93
  -5   6   6   14.80    1.27
   5  -6  -6   11.37    1.15
  -5   7   6   -0.07    0.51
  -5   7   6    0.44    0.72
   5  -7  -6    0.06    0.71
  -5   8   6   -0.86    0.82
   5  -8  -6    0.14    0.81
   4  10  -6    1.49    0.86
   4   9  -6    8.89    1.02
   4   8  -6    0.07    0.59
   4   7  -6    6.82    0.82
  -4  -6   6    0.04    0.65
   4   6  -6    0.40    0.50
  -4  -5   6   40.56    1.73
   4   5  -6   37.76    1.06
   4   5  -6   39.18    1.40
  -4  -4   6    4.08    0.72
   4   4  -6    4.50    0.48
   4   4  -6    3.77    0.55
  -4  -3   6   37.28    1.50
   4   3  -6   38.24    1.10
   4   3  -6   38.16    1.26
  -4  -2   6   12.55    0.90
   4   2  -6   13.13    0.77
   4   2  -6   13.89    0.71
  -4  -1   6   38.88    1.32
   4   1  -6   39.31    1.16
  -4   0   6   37.93    1.30
  -4   0   6   38.68    1.14
   4   0  -6   37.46    1.19
  -4   1   6   37.07    1.34
  -4   1   6   39.05    1.10
   4  -1  -6   39.18    1.26
  -4   2   6   29.22    0.93
  -4   2   6   27.41    1.20
   4  -2  -6   28.78    1.12
  -4   3   6    0.41    0.51
  -4   3   6    0.52    0.32
   4  -3  -6    0.79    0.52
  -4   4   6    4.63    0.74
  -4   4   6    4.24    0.49
   4  -4  -6    3.52    0.69
  -4   5   6    1.23    0.65
  -4   5   6    1.52    0.44
   4  -5  -6    0.91    0.64
  -4   6   6   20.11    0.96
  -4   6   6   20.09    1.51
   4  -6  -6   19.24    1.28
  -4   7   6    3.42    0.99
   4  -7  -6    5.49    0.91
  -4   8   6    6.29    1.24
   4  -8  -6    5.94    1.04
   3  11  -6    1.31    0.84
   3  10  -6    0.33    0.70
   3   9  -6   -0.11    0.58
   3   8  -6   17.71    1.10
   3   7  -6   54.06    1.70
  -3  -6   6   22.96    1.44
   3   6  -6   22.35    1.06
  -3  -5   6    7.14    0.88
   3   5  -6    8.19    0.73
   3   5  -6    6.56    0.48
  -3  -4   6   36.10    1.51
   3   4  -6   36.49    1.00
   3   4  -6   38.70    1.20
  -3  -3   6    1.32    0.53
   3   3  -6    1.57    0.39
   3   3  -6    1.03    0.36
  -3  -2   6    5.34    0.64
   3   2  -6    6.18    0.58
   3   2  -6    5.71    0.55
  -3  -1   6  275.16    6.04
   3   1  -6  286.02    5.33
  -3   0   6   78.25    2.15
  -3   0   6   75.07    1.67
   3   0  -6   75.09    1.84
  -3   1   6   53.68    1.71
  -3   1   6   53.73    1.24
   3  -1  -6   52.92    1.49
  -3   2   6    8.82    0.92
  -3   2   6    7.02    0.46
   3  -2  -6    8.21    0.75
  -3   3   6    1.79    0.63
  -3   3   6    1.57    0.34
   3  -3  -6    2.17    0.59
  -3   4   6    5.07    0.49
  -3   4   6    3.66    0.80
   3  -4  -6    5.29    0.76
  -3   5   6   17.18    1.45
  -3   5   6   17.30    0.82
   3  -5  -6   16.96    1.16
  -3   6   6   13.88    1.50
   3  -6  -6   12.39    1.12
  -3   7   6    1.82    0.99
   3  -7  -6    2.68    0.84
  -3   8   6    1.90    1.11
   3  -8  -6    0.91    0.90
   2  11  -6    1.18    0.78
   2  10  -6    5.77    0.85
   2   9  -6    0.09    0.50
   2   8  -6    2.86    0.58
  -2  -7   6    1.46    0.73
   2   7  -6    1.76    0.49
  -2  -6   6   25.22    1.44
   2   6  -6   25.32    1.03
  -2  -5   6   41.61    1.67
   2   5  -6   41.12    1.00
   2   5  -6   41.90    1.26
  -2  -4   6   99.66    2.71
   2   4  -6  100.54    2.04
   2   4  -6   97.93    2.14
  -2  -3   6   16.69    1.01
   2   3  -6   16.45    0.67
   2   3  -6   15.82    0.69
  -2  -2   6   15.40    0.93
   2   2  -6   14.82    0.63
   2   2  -6   15.45    0.68
  -2  -1   6    4.23    0.37
  -2  -1   6    4.30    0.61
   2   1  -6    4.59    0.50
  -2   0   6    0.33    0.43
  -2   0   6    0.21    0.18
   2   0  -6    0.00    0.35
  -2   1   6  139.46    3.56
  -2   1   6  142.09    2.58
   2  -1  -6  140.39    3.04
  -2   2   6   73.11    1.49
  -2   2   6   73.60    2.36
   2  -2  -6   72.85    1.92
  -2   3   6   52.40    2.10
  -2   3   6   54.30    1.23
   2  -3  -6   51.91    1.65
  -2   4   6    1.41    0.78
  -2   4   6    1.11    0.36
   2  -4  -6    0.49    0.62
  -2   5   6    0.54    0.78
   2  -5  -6    1.26    0.66
  -2   6   6    0.28    0.88
   2  -6  -6    0.58    0.70
  -2   7   6    4.67    1.24
   2  -7  -6    6.22    0.93
   1  12  -6    2.32    0.89
   1  11  -6    1.03    0.74
   1  10  -6   -0.35    0.53
   1   9  -6    2.96    0.63
  -1  -8   6    1.95    0.82
   1   8  -6    1.90    0.56
  -1  -7   6    1.51    0.68
   1   7  -6    2.85    0.53
  -1  -6   6   89.68    2.69
   1   6  -6   90.99    2.08
  -1  -5   6    3.43    0.64
   1   5  -6    3.19    0.45
   1   5  -6    3.97    0.34
  -1  -4   6   38.87    1.51
   1   4  -6   38.85    1.07
   1   4  -6   38.55    1.00
  -1  -3   6   13.99    0.93
   1   3  -6   14.14    0.58
   1   3  -6   14.49    0.62
  -1  -2   6   12.78    0.92
   1   2  -6   12.31    0.61
   1   2  -6   13.53    0.51
  -1  -1   6    1.92    0.51
  -1  -1   6    1.37    0.19
   1   1  -6    1.75    0.38
  -1   0   6   52.74    1.78
   1   0  -6   54.35    1.46
  -1   1   6   17.59    1.17
   1  -1  -6   18.66    0.88
  -1   2   6    9.04    1.11
  -1   2   6    8.21    0.40
   1  -2  -6    7.40    0.75
  -1   3   6    9.01    1.12
  -1   3   6    8.48    0.50
   1  -3  -6    8.49    0.83
  -1   4   6    1.75    0.81
   1  -4  -6    3.04    0.69
  -1   5   6    8.59    1.23
   1  -5  -6   10.01    1.01
  -1   6   6    1.01    0.98
   1  -6  -6    1.62    0.73
  -1   7   6    3.07    1.28
   1  -7  -6    4.03    0.87
   0 -12   6    2.07    1.13
   0  12  -6    0.45    0.76
   0  11  -6    6.34    0.92
   0 -10   6    8.38    1.22
   0  10  -6    7.72    0.86
   0  -9   6   22.75    1.62
   0   9  -6   24.00    1.18
   0  -8   6   -0.28    0.59
   0   8  -6    0.25    0.46
   0  -7   6    9.97    1.09
   0   7  -6   11.25    0.79
   0  -6   6   14.60    1.14
   0   6  -6   17.05    0.51
   0   6  -6   15.41    0.79
   0  -5   6    1.31    0.58
   0   5  -6    2.14    0.38
   0   5  -6    1.68    0.27
   0  -4   6  121.42    3.11
   0   4  -6  120.15    2.44
   0   4  -6  121.96    2.38
   0  -3   6   84.70    2.37
   0   3  -6   87.51    1.70
   0   3  -6   83.86    1.87
   0  -2   6  106.34    2.79
   0   2  -6  106.28    1.95
   0   2  -6  107.70    2.30
   0  -1   6   20.88    1.14
   0   1  -6   20.92    0.83
   0   0   6    5.10    0.74
   0   0  -6    5.04    0.55
   0   1   6   15.49    1.24
   0  -1  -6   13.74    0.83
   0   2   6   42.34    1.92
   0  -2  -6   40.25    1.38
   0   3   6   25.35    1.73
   0  -3  -6   21.89    1.10
   0   4   6   24.78    1.86
   0  -4  -6   26.82    1.25
   0   5   6    0.43    0.90
   0  -5  -6    1.73    0.69
   0   6   6    1.16    1.10
   0  -6  -6    1.01    0.66
   0   7   6    0.51    1.24
   1 -12   6    3.29    1.32
  -1  12  -6    0.38    0.79
   1 -11   6    4.31    1.15
  -1  11  -6    3.92    0.82
   1 -10   6    0.88    0.79
  -1  10  -6    0.44    0.55
   1  -9   6    4.47    0.92
  -1   9  -6    4.86    0.69
   1  -8   6    0.55    0.66
  -1   8  -6    0.21    0.44
   1  -7   6   25.58    1.44
  -1   7  -6   25.48    1.03
  -1   7  -6   26.72    0.68
   1  -6   6    0.22    0.51
  -1   6  -6    1.19    0.24
  -1   6  -6    0.86    0.35
   1  -5   6   11.11    1.00
  -1   5  -6   11.17    0.54
  -1   5  -6   11.00    0.59
   1  -4   6    1.36    0.56
  -1   4  -6    0.96    0.27
  -1   4  -6    1.27    0.30
   1  -3   6    7.83    0.87
  -1   3  -6    6.85    0.38
  -1   3  -6    6.94    0.52
   1  -2   6    7.45    0.83
  -1   2  -6    7.56    0.58
   1  -1   6   22.04    1.18
  -1   1  -6   21.69    0.89
   1   0   6   32.78    1.52
  -1   0  -6   32.56    1.14
   1   1   6    0.15    0.63
  -1  -1  -6   -0.06    0.42
   1   2   6    1.83    0.82
  -1  -2  -6    0.85    0.52
   1   3   6    2.10    0.90
  -1  -3  -6    2.46    0.62
   1   4   6    7.49    1.24
  -1  -4  -6    6.73    0.81
   1   5   6    1.42    1.05
  -1  -5  -6    4.16    0.73
   1   6   6    6.44    1.47
   2 -12   6    3.24    1.28
  -2  12  -6    0.07    0.72
   2 -11   6    0.46    0.91
  -2  11  -6    1.83    0.71
   2 -10   6    1.96    0.86
  -2  10  -6    1.55    0.58
   2  -9   6   18.59    1.47
  -2   9  -6   19.82    1.05
   2  -8   6   13.57    1.29
  -2   8  -6   16.56    0.64
  -2   8  -6   14.01    0.90
   2  -7   6   14.08    1.12
  -2   7  -6   14.80    0.82
  -2   7  -6   15.57    0.61
   2  -6   6   11.24    1.11
  -2   6  -6   11.37    0.56
  -2   6  -6   10.29    0.67
   2  -5   6    1.67    0.57
  -2   5  -6    1.57    0.34
  -2   5  -6    1.66    0.36
   2  -4   6   16.02    1.03
  -2   4  -6   16.62    0.60
  -2   4  -6   15.68    0.73
   2  -3   6   59.11    1.94
  -2   3  -6   61.18    1.61
  -2   3  -6   60.94    1.22
   2  -2   6   15.53    1.10
  -2   2  -6   16.49    0.84
   2  -1   6   48.21    1.83
  -2   1  -6   48.68    1.47
   2   0   6    1.30    0.68
  -2   0  -6    1.69    0.50
   2   1   6   -0.31    0.68
  -2  -1  -6    0.55    0.46
   2   2   6    0.65    0.78
  -2  -2  -6    0.67    0.52
   2   3   6    3.26    1.02
  -2  -3  -6    3.33    0.68
   2   4   6    6.83    1.26
  -2  -4  -6    5.90    0.80
   2   5   6    1.29    1.10
  -2  -5  -6    4.66    0.77
   2   6   6   -0.60    1.15
  -2  -6  -6    3.53    0.84
   3 -13   6    2.44    1.45
  -3  13  -6    0.09    0.82
   3 -12   6    6.62    1.45
  -3  12  -6    3.85    0.92
   3 -11   6    0.22    0.92
  -3  11  -6    0.50    0.65
   3 -10   6    1.04    0.83
  -3  10  -6    0.91    0.58
   3  -9   6    3.47    0.90
  -3   9  -6    5.27    0.73
   3  -8   6    0.65    0.68
  -3   8  -6    1.99    0.34
  -3   8  -6    1.58    0.53
   3  -7   6    8.98    1.03
  -3   7  -6    8.02    0.57
  -3   7  -6    9.00    0.72
   3  -6   6   46.26    1.80
  -3   6  -6   47.21    1.30
  -3   6  -6   45.10    1.31
   3  -5   6   21.01    1.23
  -3   5  -6   20.78    0.79
  -3   5  -6   20.59    0.88
   3  -4   6    1.10    0.55
  -3   4  -6    1.56    0.42
  -3   4  -6    1.90    0.33
   3  -3   6    6.28    0.77
  -3   3  -6    6.19    0.63
  -3   3  -6    6.57    0.41
   3  -2   6   12.76    1.05
  -3   2  -6   13.90    0.82
   3  -1   6   15.57    1.24
  -3   1  -6   15.59    0.93
   3   0   6    9.07    1.05
  -3   0  -6   10.90    0.82
   3   1   6   40.43    2.06
  -3  -1  -6   36.49    1.48
   3   2   6    0.34    0.84
  -3  -2  -6    0.14    0.51
   3   3   6    0.53    0.91
  -3  -3  -6    1.15    0.56
   3   4   6    0.74    1.00
  -3  -4  -6    3.00    0.72
   3   5   6    1.11    1.18
  -3  -5  -6    1.25    0.64
   4 -13   6    3.75    1.51
  -4  13  -6    0.93    0.89
   4 -12   6    1.65    1.22
  -4  12  -6    0.43    0.79
   4 -11   6    1.47    1.07
  -4  11  -6    1.76    0.71
   4 -10   6    0.23    0.85
  -4  10  -6    0.20    0.59
   4  -9   6   -0.36    0.72
  -4   9  -6   -0.32    0.48
   4  -8   6   17.81    0.89
   4  -8   6   18.93    1.49
  -4   8  -6   16.47    0.98
   4  -7   6    0.85    0.52
   4  -7   6    1.01    0.69
  -4   7  -6    0.64    0.48
   4  -6   6   11.39    1.14
   4  -6   6   10.85    0.79
  -4   6  -6   10.52    0.74
   4  -5   6    0.58    0.58
  -4   5  -6    1.22    0.39
   4  -4   6    5.09    0.74
  -4   4  -6    5.87    0.65
  -4   4  -6    5.76    0.52
   4  -3   6    0.79    0.59
  -4   3  -6    0.07    0.26
  -4   3  -6    0.00    0.40
   4  -2   6    9.87    1.08
  -4   2  -6    9.32    0.81
   4  -1   6    0.21    0.71
  -4   1  -6    1.27    0.53
   4   0   6    2.23    0.83
  -4   0  -6    0.85    0.53
   4   1   6    1.48    0.82
  -4  -1  -6    0.15    0.54
   4   2   6   -0.41    0.82
  -4  -2  -6    1.32    0.59
   4   3   6    1.02    1.02
  -4  -3  -6    3.32    0.71
   4   4   6    0.63    1.09
  -4  -4  -6    2.26    0.65
   5 -13   6    0.67    1.37
  -5  13  -6    0.43    0.96
   5 -12   6    3.88    1.39
  -5  12  -6    0.91    0.85
   5 -11   6   11.03    1.43
  -5  11  -6    8.39    1.05
   5 -10   6    2.34    0.99
  -5  10  -6    3.93    0.78
   5  -9   6   -0.37    0.51
   5  -9   6   -0.60    0.78
  -5   9  -6   -0.16    0.54
   5  -8   6    3.73    0.83
   5  -8   6    4.38    0.68
  -5   8  -6    3.13    0.63
   5  -7   6    2.31    0.81
   5  -7   6    2.75    0.65
  -5   7  -6    2.09    0.55
   5  -6   6   12.90    0.96
   5  -6   6   12.84    1.23
  -5   6  -6   12.59    0.82
   5  -5   6   15.13    0.99
   5  -5   6   15.86    1.26
  -5   5  -6   15.93    0.80
   5  -4   6   39.55    1.46
   5  -4   6   40.64    1.70
  -5   4  -6   38.29    1.11
   5  -3   6    0.02    0.62
  -5   3  -6   -0.29    0.42
  -5   3  -6    0.24    0.30
   5  -2   6    0.29    0.69
  -5   2  -6    0.17    0.46
   5  -1   6    4.12    0.94
  -5   1  -6    5.04    0.74
   5   0   6    2.62    0.89
  -5   0  -6    3.70    0.73
   5   1   6    1.93    0.97
  -5  -1  -6    1.83    0.63
   5   2   6    4.32    1.16
  -5  -2  -6    6.65    0.89
   5   3   6    1.55    1.09
  -5  -3  -6    1.68    0.66
   6 -12   6   -0.68    1.14
  -6  12  -6   -0.59    0.81
   6 -11   6   -0.65    1.00
  -6  11  -6    0.66    0.78
   6 -10   6    0.16    0.87
  -6  10  -6    0.05    0.64
   6  -9   6    6.32    0.83
   6  -9   6    7.39    1.04
  -6   9  -6    5.84    0.80
   6  -8   6    0.38    0.76
   6  -8   6    0.95    0.65
  -6   8  -6    1.52    0.59
   6  -7   6    4.22    0.78
   6  -7   6    4.55    0.85
  -6   7  -6    3.58    0.64
   6  -6   6   -0.92    0.59
   6  -6   6    0.19    0.63
  -6   6  -6    0.22    0.47
   6  -5   6    0.33    0.66
   6  -5   6   -0.04    0.62
  -6   5  -6   -0.91    0.38
   6  -4   6    0.25    0.63
   6  -4   6    0.39    0.66
  -6   4  -6    0.88    0.40
   6  -3   6    6.52    0.92
  -6   3  -6    4.61    0.71
   6  -2   6   12.01    1.41
  -6   2  -6    9.85    0.93
   6  -1   6    2.45    0.90
  -6   1  -6    0.91    0.59
   6   0   6    2.08    0.96
  -6   0  -6    0.47    0.58
   6   1   6    0.20    0.89
  -6  -1  -6    0.74    0.65
   6   2   6    2.13    1.06
  -6  -2  -6    2.34    0.73
   7 -12   6   -0.78    1.12
  -7  12  -6   -0.37    0.86
   7 -11   6    0.67    1.01
  -7  11  -6    2.36    0.87
   7 -10   6    1.58    0.97
   7 -10   6    3.09    0.79
  -7  10  -6    3.46    0.82
   7  -9   6    4.62    0.85
   7  -9   6    6.41    1.02
  -7   9  -6    5.80    0.86
   7  -8   6   -0.55    0.66
   7  -8   6   -0.39    0.68
  -7   8  -6   -0.33    0.58
   7  -7   6   -0.23    0.68
   7  -7   6    0.10    0.66
  -7   7  -6    0.07    0.54
   7  -6   6    0.21    0.68
   7  -6   6    1.45    0.72
  -7   6  -6    0.63    0.50
   7  -5   6    3.92    0.84
   7  -5   6    4.97    0.83
  -7   5  -6    5.21    0.62
   7  -4   6    1.62    0.75
   7  -4   6    1.51    0.76
   7  -3   6    6.41    0.99
   7  -2   6   -0.50    0.72
  -7   2  -6   -0.10    0.50
   7  -1   6    0.73    0.89
  -7   1  -6    0.20    0.61
   7   0   6    0.55    0.92
  -7   0  -6    1.24    0.67
   7   1   6    1.16    1.10
  -7  -1  -6    1.21    0.73
  -8  12  -6   -0.25    0.91
  -8  11  -6   -0.55    0.81
   8 -10   6    0.96    0.78
  -8  10  -6   -0.18    0.75
   8  -9   6    1.00    0.81
  -8   9  -6    0.33    0.73
   8  -8   6    3.07    0.86
   8  -8   6    4.05    0.93
  -8   8  -6    4.20    0.81
   8  -7   6    4.31    0.94
   8  -7   6    6.71    0.94
  -8   7  -6    7.18    0.83
   8  -6   6    1.43    0.71
   8  -6   6    0.94    0.77
  -8   6  -6    1.60    0.58
   8  -5   6   -0.87    0.65
   8  -5   6   -0.59    0.71
  -8   5  -6    0.18    0.72
   8  -4   6    0.32    0.76
   8  -4   6    0.48    0.75
   8  -3   6    0.08    0.75
   8  -2   6    0.72    0.89
  -8   2  -6    0.61    0.65
   8  -1   6    5.11    1.10
  -8   1  -6    5.22    0.90
   8   0   6    1.15    1.09
  -8   0  -6    1.42    0.73
  -9  11  -6   -0.48    0.91
   9 -10   6    1.13    0.91
  -9  10  -6    0.42    0.85
   9  -9   6    1.31    0.92
  -9   9  -6    0.75    0.79
   9  -8   6    1.22    0.87
  -9   8  -6    0.63    0.75
   9  -7   6   -0.91    0.76
  -9   7  -6    0.40    0.64
   9  -6   6    0.80    0.85
   9  -5   6    0.16    0.82
   9  -4   6    1.04    0.86
   9  -3   6    1.64    1.00
  -9   3  -6    0.45    0.65
   9  -2   6    1.57    0.96
  -9   2  -6    1.82    0.76
  -9   1  -6    1.11    0.68
  10 -10   6   -0.46    0.91
 -10  10  -6   -0.68    0.87
  10  -9   6    0.67    0.94
 -10   9  -6    1.59    0.87
  10  -8   6   -0.54    0.82
 -10   8  -6    0.41    0.77
  10  -7   6   -0.21    0.86
  10  -6   6    3.12    1.01
  10  -5   6    0.82    0.90
  10  -4   6    0.26    0.95
  12   0  -7    2.13    0.95
 -12   1   7    3.56    0.84
  12  -1  -7   -0.08    0.82
 -12   2   7    9.41    1.12
  12  -2  -7    6.97    1.09
 -12   3   7    2.03    0.76
  12  -3  -7    0.77    0.85
 -11  -2   7    0.49    0.70
  11   2  -7   -0.68    0.75
 -11  -1   7    2.86    0.79
  11   1  -7    1.97    0.85
 -11   0   7    5.99    0.93
  11   0  -7    7.62    1.07
 -11   1   7   10.07    1.11
  11  -1  -7    9.03    1.11
 -11   2   7    3.81    0.81
  11  -2  -7    3.27    0.86
 -11   3   7    2.65    0.74
  11  -3  -7    1.17    0.78
 -11   4   7    1.76    0.75
  11  -4  -7    0.39    0.74
 -11   5   7    0.98    0.78
  11  -5  -7   -0.09    0.78
 -10  -3   7   16.73    1.35
  10   3  -7   13.20    1.20
 -10  -2   7    3.01    0.74
  10   2  -7    2.17    0.80
 -10  -1   7    1.62    0.67
  10   1  -7    0.82    0.74
 -10   0   7    0.80    0.59
  10   0  -7    0.81    0.72
 -10   1   7    2.81    0.69
  10  -1  -7    3.45    0.81
 -10   2   7    7.79    0.94
  10  -2  -7    6.36    0.94
 -10   3   7   21.17    1.27
  10  -3  -7   19.39    1.26
 -10   4   7   10.73    1.12
  10  -4  -7    8.62    1.05
 -10   5   7    3.69    0.81
  10  -5  -7    2.27    0.87
 -10   6   7    1.62    0.78
  10  -6  -7   -0.21    0.86
   9   6  -7    5.79    1.31
   9   5  -7    2.52    1.13
   9   4  -7    5.16    1.13
   9   3  -7    4.46    0.82
  -9  -2   7    6.06    0.88
   9   2  -7    4.99    0.82
  -9  -1   7    7.61    0.91
   9   1  -7    8.29    0.92
  -9   0   7    3.72    0.69
   9   0  -7    5.00    0.84
  -9   1   7    8.11    0.88
   9  -1  -7    7.75    0.90
  -9   2   7    1.84    0.57
   9  -2  -7    2.32    0.74
  -9   3   7    8.50    0.91
   9  -3  -7    8.26    0.95
  -9   4   7    2.56    0.66
   9  -4  -7    2.07    0.78
  -9   5   7    9.82    1.01
   9  -5  -7    9.89    1.12
  -9   6   7    3.64    0.81
   9  -6  -7    2.04    0.89
  -9   7   7    2.84    0.84
   9  -7  -7    2.60    1.01
   8   7  -7    1.43    1.03
  -8  -6   7    2.32    0.87
   8   6  -7    1.20    0.93
  -8  -5   7    1.92    0.79
   8   5  -7    2.20    0.95
   8   4  -7    3.44    0.74
   8   4  -7    5.32    1.05
   8   3  -7    9.87    0.95
   8   3  -7   11.08    1.16
  -8  -2   7   64.38    2.06
   8   2  -7   62.70    1.86
  -8  -1   7   24.63    1.22
   8   1  -7   24.27    1.19
  -8   0   7    4.45    0.65
   8   0  -7    6.36    0.79
  -8   1   7    3.53    0.63
   8  -1  -7    3.58    0.70
  -8   2   7    0.51    0.46
   8  -2  -7    0.27    0.56
  -8   3   7    8.50    0.91
   8  -3  -7    7.35    0.89
  -8   4   7   20.27    1.17
   8  -4  -7   16.61    1.23
  -8   5   7   22.48    1.25
   8  -5  -7   19.86    1.34
  -8   6   7    3.92    0.76
   8  -6  -7    3.27    0.94
  -8   7   7    1.05    0.68
   8  -7  -7    0.62    0.87
  -7  -8   7    3.19    1.07
   7   8  -7    1.29    0.95
  -7  -7   7    5.08    1.07
   7   7  -7    3.40    0.98
  -7  -6   7    6.33    1.05
   7   6  -7    7.33    1.09
  -7  -5   7    7.87    1.02
   7   5  -7    8.75    1.07
  -7  -4   7    7.28    0.96
   7   4  -7    7.24    0.82
   7   4  -7    7.65    0.98
  -7  -3   7    0.40    0.60
   7   3  -7   -0.01    0.52
   7   3  -7    0.10    0.70
  -7  -2   7    1.80    0.55
   7   2  -7    3.43    0.64
  -7  -1   7    2.05    0.52
  -7  -1   7    2.40    0.55
   7   1  -7    2.15    0.61
  -7   0   7   69.18    1.97
   7   0  -7   65.84    1.88
  -7   1   7   25.65    1.16
   7  -1  -7   25.50    1.19
  -7   2   7   18.20    1.01
   7  -2  -7   19.00    1.12
  -7   3   7    0.39    0.44
   7  -3  -7    0.95    0.62
  -7   4   7    0.65    0.50
   7  -4  -7    1.07    0.69
  -7   5   7    1.29    0.56
   7  -5  -7   -0.16    0.68
  -7   6   7   12.31    1.03
   7  -6  -7   11.24    1.21
  -7   7   7   10.72    1.06
   7  -7  -7    7.93    1.09
  -6  -9   7    6.18    1.33
   6   9  -7    1.86    0.94
  -6  -8   7    5.64    1.13
   6   8  -7    1.15    0.81
  -6  -7   7   26.67    1.91
   6   7  -7   21.66    1.45
  -6  -6   7    5.20    1.00
   6   6  -7    5.39    0.89
  -6  -5   7    4.41    0.89
   6   5  -7    5.14    0.63
   6   5  -7    4.47    0.80
  -6  -4   7    5.85    0.90
   6   4  -7    5.34    0.66
   6   4  -7    6.12    0.87
  -6  -3   7    0.53    0.63
   6   3  -7    0.26    0.49
   6   3  -7    0.30    0.60
  -6  -2   7   14.01    1.04
   6   2  -7   12.73    0.85
   6   2  -7   13.68    1.09
  -6  -1   7   40.33    1.40
  -6  -1   7   42.26    1.45
   6   1  -7   42.42    1.35
  -6   0   7   34.92    1.26
  -6   0   7   36.74    1.30
   6   0  -7   37.03    1.32
  -6   1   7    9.24    0.73
  -6   1   7    8.96    0.75
   6  -1  -7    9.35    0.85
  -6   2   7    8.36    0.78
  -6   2   7    7.97    0.71
   6  -2  -7   10.58    0.91
  -6   3   7   -0.10    0.43
  -6   3   7    0.55    0.42
   6  -3  -7   -0.48    0.55
  -6   4   7    8.24    0.77
  -6   4   7    8.92    0.96
   6  -4  -7    9.79    1.00
  -6   5   7    3.31    0.60
  -6   5   7    3.53    0.72
   6  -5  -7    3.66    0.83
  -6   6   7    6.88    0.76
   6  -6  -7    7.71    1.03
   6  -7  -7   -0.17    0.81
  -5  -9   7    1.70    1.07
   5   9  -7    0.86    0.81
  -5  -8   7    1.30    0.93
   5   8  -7    1.75    0.73
  -5  -7   7    0.68    0.80
   5   7  -7   -0.49    0.57
  -5  -6   7    2.73    0.85
   5   6  -7    2.65    0.65
  -5  -5   7   58.07    2.24
   5   5  -7   59.61    1.89
   5   5  -7   59.08    1.53
  -5  -4   7   24.29    1.48
   5   4  -7   25.73    0.98
   5   4  -7   25.95    1.22
  -5  -3   7   27.65    1.42
   5   3  -7   29.29    1.23
   5   3  -7   28.99    1.09
  -5  -2   7   30.42    1.32
   5   2  -7   31.48    1.12
   5   2  -7   30.77    1.24
  -5  -1   7    0.39    0.44
  -5  -1   7    0.48    0.35
   5   1  -7    0.81    0.48
  -5   0   7    0.46    0.34
  -5   0   7    0.41    0.42
   5   0  -7   -0.27    0.45
  -5   1   7   76.18    2.13
  -5   1   7   75.05    1.84
   5  -1  -7   74.62    1.98
  -5   2   7   56.67    1.51
  -5   2   7   57.07    1.86
   5  -2  -7   55.76    1.73
  -5   3   7   30.69    1.42
  -5   3   7   30.48    1.06
   5  -3  -7   31.52    1.39
  -5   4   7    0.14    0.54
  -5   4   7    0.58    0.40
   5  -4  -7    0.03    0.62
  -5   5   7    2.82    0.74
  -5   5   7    2.06    0.51
   5  -5  -7    1.88    0.74
  -5   6   7    0.89    0.71
   5  -6  -7    0.56    0.78
  -5   7   7    3.07    0.96
   5  -7  -7    2.43    0.94
  -4 -10   7    1.74    1.14
   4  10  -7    1.17    0.77
  -4  -9   7    1.71    0.98
   4   9  -7   -0.06    0.66
  -4  -8   7    4.22    1.02
   4   8  -7    4.79    0.78
  -4  -7   7    1.23    0.78
   4   7  -7    1.71    0.58
  -4  -6   7    7.38    1.03
   4   6  -7    8.04    0.86
  -4  -5   7    3.70    0.81
   4   5  -7    3.24    0.47
   4   5  -7    3.38    0.61
  -4  -4   7    3.36    0.74
   4   4  -7    4.45    0.64
   4   4  -7    4.23    0.51
  -4  -3   7   15.97    1.15
   4   3  -7   15.45    0.80
   4   3  -7   15.96    0.90
  -4  -2   7   10.71    0.94
   4   2  -7    8.71    0.77
   4   2  -7    9.26    0.70
  -4  -1   7   22.87    0.89
  -4  -1   7   24.42    1.13
   4   1  -7   23.33    0.98
  -4   0   7   -0.12    0.25
  -4   0   7    0.30    0.44
   4   0  -7    1.06    0.47
  -4   1   7    8.71    0.55
  -4   1   7    8.05    0.82
   4  -1  -7    7.72    0.78
  -4   2   7    0.75    0.31
  -4   2   7    0.57    0.55
   4  -2  -7    1.22    0.54
  -4   3   7   21.43    0.82
  -4   3   7   20.01    1.29
   4  -3  -7   17.80    1.12
  -4   4   7    6.68    0.94
  -4   4   7    6.14    0.62
   4  -4  -7    6.87    0.86
  -4   5   7   17.44    1.49
   4  -5  -7   15.47    1.21
  -4   6   7    1.17    0.88
   4  -6  -7    1.76    0.80
  -4   7   7    2.32    1.02
   4  -7  -7    0.76    0.84
  -3 -11   7    3.51    1.32
   3  11  -7    2.93    0.89
  -3 -10   7   15.52    1.95
   3  10  -7   12.16    1.16
  -3  -9   7    3.10    0.99
   3   9  -7    2.92    0.73
  -3  -8   7    3.55    0.96
   3   8  -7    2.46    0.64
  -3  -7   7   12.65    1.39
   3   7  -7   12.37    0.96
  -3  -6   7   -0.14    0.65
   3   6  -7   -0.02    0.32
   3   6  -7   -0.19    0.47
  -3  -5   7    1.74    0.68
   3   5  -7    0.55    0.35
   3   5  -7    0.68    0.45
  -3  -4   7  104.03    2.87
   3   4  -7   99.62    2.29
   3   4  -7   99.74    2.15
  -3  -3   7   42.32    1.60
   3   3  -7   45.28    1.25
   3   3  -7   45.32    1.28
  -3  -2   7   52.98    1.74
   3   2  -7   53.55    1.43
   3   2  -7   52.76    1.38
  -3  -1   7    6.85    0.77
  -3  -1   7    6.18    0.46
   3   1  -7    6.32    0.64
  -3   0   7    8.48    0.91
  -3   0   7    8.35    0.49
   3   0  -7    8.50    0.72
  -3   1   7    0.80    0.25
  -3   1   7    0.60    0.53
   3  -1  -7    0.85    0.50
  -3   2   7    8.88    0.99
  -3   2   7    8.53    0.49
   3  -2  -7    8.09    0.85
  -3   3   7   42.12    1.85
  -3   3   7   44.24    1.13
   3  -3  -7   41.52    1.55
  -3   4   7   11.11    1.31
   3  -4  -7    8.55    0.95
  -3   5   7    6.77    1.14
   3  -5  -7    6.25    0.96
  -3   6   7    1.31    0.97
   3  -6  -7   -0.29    0.70
  -3   7   7    1.66    1.06
   3  -7  -7    1.21    0.90
  -2 -11   7    1.90    1.11
   2  11  -7    0.64    0.71
  -2 -10   7    0.91    0.93
   2  10  -7    0.75    0.64
  -2  -9   7    2.38    0.90
   2   9  -7    2.67    0.65
  -2  -8   7    6.40    1.01
   2   8  -7    9.09    0.88
  -2  -7   7   14.24    1.36
   2   7  -7   13.95    0.93
  -2  -6   7   12.88    1.23
   2   6  -7   13.59    0.86
   2   6  -7   12.55    0.57
  -2  -5   7    4.19    0.77
   2   5  -7    4.48    0.48
   2   5  -7    4.22    0.56
  -2  -4   7    2.45    0.64
   2   4  -7    1.86    0.39
   2   4  -7    2.44    0.39
  -2  -3   7   10.08    0.94
   2   3  -7    9.38    0.62
   2   3  -7    8.99    0.59
  -2  -2   7   62.31    1.96
   2   2  -7   61.08    1.55
   2   2  -7   61.24    1.41
  -2  -1   7   30.92    1.35
  -2  -1   7   30.34    0.84
   2   1  -7   30.44    1.09
  -2   0   7   69.18    1.39
  -2   0   7   67.08    2.15
   2   0  -7   69.48    1.83
  -2   1   7    0.62    0.58
  -2   1   7    0.69    0.20
   2  -1  -7    0.28    0.47
  -2   2   7    0.00    0.64
  -2   2   7   -0.08    0.23
   2  -2  -7    0.08    0.50
  -2   3   7    7.65    1.08
   2  -3  -7    6.90    0.86
  -2   4   7    2.13    0.89
   2  -4  -7    4.87    0.83
  -2   5   7    8.56    1.28
   2  -5  -7    8.41    0.98
  -2   6   7    8.80    1.48
   2  -6  -7    8.26    1.03
  -2   7   7    1.19    1.18
   2  -7  -7    2.80    0.90
  -1 -12   7    1.83    1.27
   1  12  -7    1.19    0.83
  -1 -11   7    0.41    1.02
   1  11  -7    0.70    0.70
  -1 -10   7   -0.04    0.81
   1  10  -7    0.75    0.59
  -1  -9   7   18.65    1.61
   1   9  -7   20.23    1.11
  -1  -8   7    5.21    0.94
   1   8  -7    4.24    0.63
  -1  -7   7   11.97    1.27
   1   7  -7   11.29    0.81
  -1  -6   7    5.20    0.86
   1   6  -7    6.00    0.61
   1   6  -7    4.99    0.44
  -1  -5   7    0.19    0.58
   1   5  -7    0.27    0.35
   1   5  -7    0.65    0.28
  -1  -4   7   -0.04    0.50
   1   4  -7    0.41    0.30
   1   4  -7    0.36    0.28
  -1  -3   7   10.69    0.96
   1   3  -7   11.30    0.62
   1   3  -7   10.49    0.53
  -1  -2   7   19.51    1.13
   1   2  -7   21.25    0.84
   1   2  -7   20.48    0.64
  -1  -1   7    9.65    0.95
   1   1  -7    8.07    0.63
  -1   0   7   14.02    1.12
   1   0  -7   13.79    0.81
  -1   1   7    0.78    0.63
   1  -1  -7    1.56    0.52
  -1   2   7    7.08    0.99
   1  -2  -7    7.87    0.83
  -1   3   7    0.70    0.78
   1  -3  -7    0.10    0.57
  -1   4   7    8.95    1.25
   1  -4  -7    9.41    0.97
  -1   5   7   -0.84    0.89
   1  -5  -7    1.05    0.69
  -1   6   7    2.33    1.27
   1  -6  -7    2.55    0.82
   0 -12   7    5.97    1.49
   0  12  -7    3.10    0.89
   0 -11   7    2.36    1.07
   0  11  -7    2.69    0.77
   0 -10   7    1.61    0.87
   0  10  -7    2.61    0.69
   0  -9   7    1.08    0.77
   0   9  -7    1.59    0.58
   0  -8   7    1.52    0.73
   0   8  -7    1.67    0.54
   0  -7   7   39.94    1.81
   0   7  -7   40.85    1.31
   0   7  -7   41.19    0.96
   0  -6   7   31.18    1.58
   0   6  -7   30.42    1.06
   0   6  -7   30.84    0.86
   0   5  -7   66.70    1.53
   0   5  -7   65.34    1.55
   0  -4   7   13.01    1.01
   0   4  -7   12.91    0.58
   0   4  -7   12.92    0.62
   0  -3   7    4.39    0.70
   0   3  -7    4.33    0.49
   0   3  -7    4.60    0.35
   0  -2   7   27.72    1.33
   0   2  -7   25.47    0.96
   0  -1   7   17.75    1.19
   0   1  -7   19.16    0.87
   0   0   7   23.60    1.36
   0   0  -7   24.41    1.04
   0   1   7   48.28    2.00
   0  -1  -7   48.38    1.56
   0   2   7    1.40    0.83
   0  -2  -7    1.97    0.60
   0   3   7    1.04    0.87
   0  -3  -7    1.10    0.59
   0   4   7    0.10    0.90
   0  -4  -7    1.12    0.65
   0   5   7    0.40    1.02
   0  -5  -7    1.53    0.70
   0   6   7    3.12    1.31
   0  -6  -7    5.28    0.92
   1 -12   7    2.46    1.28
  -1  12  -7    0.69    0.74
   1 -11   7   -0.12    0.88
  -1  11  -7   -0.55    0.67
   1 -10   7    4.71    1.03
  -1  10  -7    4.83    0.79
   1  -9   7    1.19    0.76
  -1   9  -7    0.40    0.50
   1  -8   7    3.28    0.83
  -1   8  -7    4.49    0.63
   1  -7   7    0.63    0.68
  -1   7  -7    0.85    0.41
  -1   7  -7    0.53    0.24
   1  -6   7    0.14    0.60
  -1   6  -7    0.11    0.26
  -1   6  -7    0.13    0.34
   1  -5   7    9.64    1.10
  -1   5  -7   10.18    0.59
  -1   5  -7    9.10    0.57
   1  -4   7    9.00    1.01
  -1   4  -7    9.01    0.58
  -1   4  -7    9.18    0.49
   1  -3   7   39.13    1.59
  -1   3  -7   39.13    1.19
   1  -2   7    0.16    0.47
  -1   2  -7    0.25    0.35
   1  -1   7    2.80    0.67
  -1   1  -7    1.64    0.46
   1   0   7    7.99    1.00
  -1   0  -7    8.46    0.77
   1   1   7    4.99    0.93
  -1  -1  -7    4.10    0.66
   1   2   7    1.75    0.87
  -1  -2  -7    1.93    0.61
   1   3   7   14.59    1.70
  -1  -3  -7   16.01    1.11
   1   4   7    1.38    1.02
  -1  -4  -7    2.41    0.70
   1   5   7    1.41    1.19
  -1  -5  -7    3.07    0.76
   2 -13   7    1.55    1.49
   2 -12   7    7.34    1.52
  -2  12  -7    5.91    0.93
   2 -11   7    5.49    1.23
  -2  11  -7    3.98    0.80
   2 -10   7    8.16    1.24
  -2  10  -7    9.09    0.91
   2  -9   7    2.45    0.84
  -2   9  -7    2.89    0.59
   2  -8   7   -0.35    0.63
  -2   8  -7    0.75    0.25
  -2   8  -7   -0.05    0.43
   2  -7   7    8.27    1.05
  -2   7  -7    8.05    0.53
  -2   7  -7    7.63    0.70
   2  -6   7   31.48    1.53
  -2   6  -7   32.16    1.04
  -2   6  -7   31.34    1.01
   2  -5   7   25.62    1.44
  -2   5  -7   24.53    0.95
  -2   5  -7   25.58    0.84
   2  -4   7   49.58    1.84
  -2   4  -7   49.20    1.42
  -2   4  -7   49.17    1.13
   2  -3   7   -0.01    0.54
  -2   3  -7    0.05    0.37
   2  -2   7    1.26    0.64
  -2   2  -7    0.69    0.42
   2  -1   7    1.39    0.64
  -2   1  -7    0.16    0.41
   2   0   7    0.66    0.74
  -2   0  -7    0.84    0.51
   2   1   7   12.72    1.44
  -2  -1  -7   10.93    0.90
   2   2   7    2.06    0.91
  -2  -2  -7    4.41    0.74
   2   3   7    4.93    1.15
  -2  -3  -7    5.25    0.81
   2   4   7    0.19    1.05
  -2  -4  -7    1.22    0.67
   2   5   7    1.08    1.20
  -2  -5  -7    3.25    0.78
   3 -13   7    1.50    1.51
  -3  13  -7    0.38    0.85
   3 -12   7    1.07    1.26
  -3  12  -7    0.78    0.77
   3 -11   7    1.12    1.02
  -3  11  -7    0.00    0.63
   3 -10   7    2.13    0.95
  -3  10  -7    2.48    0.67
   3  -9   7   10.02    1.22
  -3   9  -7   10.56    0.89
   3  -8   7   23.76    1.60
  -3   8  -7   21.29    0.84
  -3   8  -7   21.62    1.04
   3  -7   7   -0.04    0.70
  -3   7  -7    0.24    0.34
  -3   7  -7    0.22    0.44
   3  -6   7    0.84    0.66
  -3   6  -7   -0.19    0.40
  -3   6  -7   -0.59    0.34
   3  -5   7   15.74    1.23
  -3   5  -7   14.99    0.84
  -3   5  -7   14.13    0.70
   3  -4   7   10.17    1.05
  -3   4  -7   10.26    0.53
  -3   4  -7   10.65    0.76
   3  -3   7   10.47    1.12
  -3   3  -7    9.10    0.78
   3  -2   7   47.65    1.92
   3  -1   7    2.41    0.80
  -3   1  -7    2.99    0.65
   3   0   7    0.98    0.81
  -3   0  -7    1.03    0.54
   3   1   7    2.35    0.90
  -3  -1  -7    2.46    0.64
   3   2   7   -0.37    0.87
  -3  -2  -7    1.13    0.63
   3   3   7    1.66    1.07
  -3  -3  -7    2.51    0.69
   3   4   7    1.46    1.14
  -3  -4  -7    3.37    0.75
   4 -13   7   -0.64    1.46
  -4  13  -7   -0.15    0.83
   4 -12   7   -0.89    1.19
  -4  12  -7   -0.59    0.71
   4 -11   7    4.95    1.22
  -4  11  -7    4.75    0.84
   4 -10   7    3.03    1.06
  -4  10  -7    2.24    0.71
   4  -9   7    8.45    1.19
  -4   9  -7    8.00    0.87
  -4   9  -7    7.26    0.59
   4  -8   7    0.42    0.75
  -4   8  -7   -0.46    0.44
  -4   8  -7    0.40    0.36
   4  -7   7    1.31    0.76
  -4   7  -7    1.24    0.49
  -4   7  -7    1.08    0.42
   4  -6   7    0.41    0.69
  -4   6  -7    0.37    0.41
  -4   6  -7    0.43    0.40
   4  -5   7    4.21    0.80
  -4   5  -7    4.23    0.49
  -4   5  -7    3.66    0.59
   4  -4   7    7.68    0.89
  -4   4  -7    6.22    0.74
  -4   4  -7    6.23    0.52
   4  -3   7    2.25    0.72
  -4   3  -7    1.89    0.57
   4  -2   7    4.86    0.87
  -4   2  -7    4.57    0.69
   4  -1   7   -0.35    0.69
  -4   1  -7   -0.43    0.49
   4   0   7    6.09    1.03
  -4   0  -7    5.83    0.83
   4   1   7    0.23    0.85
  -4  -1  -7    1.17    0.62
   4   2   7    4.32    1.17
  -4  -2  -7    4.40    0.82
   4   3   7    0.90    1.13
  -4  -3  -7    1.54    0.69
   5 -13   7    1.79    1.54
  -5  13  -7    1.01    0.91
   5 -12   7    0.72    1.26
  -5  12  -7   -0.25    0.74
   5 -11   7   -0.94    1.04
  -5  11  -7    0.08    0.71
   5 -10   7    1.42    1.01
  -5  10  -7    0.59    0.62
   5  -9   7    2.73    0.95
  -5   9  -7    3.70    0.54
  -5   9  -7    3.03    0.68
   5  -8   7    5.69    1.03
  -5   8  -7    6.44    0.73
   5  -7   7   30.61    1.68
  -5   7  -7   27.13    1.13
   5  -6   7    1.33    0.73
  -5   6  -7    1.85    0.47
  -5   6  -7    0.98    0.50
   5  -5   7    1.06    0.70
  -5   5  -7    0.54    0.40
  -5   5  -7    1.23    0.51
   5  -4   7    4.40    0.86
  -5   4  -7    5.04    0.73
   5  -3   7    0.02    0.64
  -5   3  -7    0.70    0.52
   5  -2   7    3.59    0.92
  -5   2  -7    3.78    0.70
   5  -1   7   15.81    1.49
  -5   1  -7   13.52    1.10
   5   0   7    3.29    0.96
  -5   0  -7    2.02    0.65
   5   1   7    0.51    0.93
  -5  -1  -7    0.07    0.67
   5   2   7    0.70    1.03
  -5  -2  -7    1.10    0.67
   6 -12   7   -0.15    1.24
  -6  12  -7    0.86    0.88
   6 -11   7    0.44    1.12
  -6  11  -7   -0.02    0.70
   6 -10   7    0.60    0.95
  -6  10  -7    0.75    0.68
   6  -9   7   -0.51    0.64
   6  -9   7   -0.47    0.85
  -6   9  -7   -0.31    0.58
   6  -8   7   -0.51    0.77
   6  -8   7   -0.24    0.64
  -6   8  -7   -0.68    0.50
   6  -7   7   -0.79    0.69
   6  -7   7    0.49    0.66
  -6   7  -7   -0.27    0.47
   6  -6   7    0.61    0.75
  -6   6  -7    1.05    0.48
   6  -5   7   10.96    1.26
  -6   5  -7    9.00    0.87
   6  -4   7    2.34    0.82
  -6   4  -7    2.25    0.63
   6  -3   7    4.50    0.95
  -6   3  -7    3.59    0.72
   6  -2   7    0.89    0.92
  -6   2  -7    0.75    0.61
   6  -1   7    0.46    0.82
  -6   1  -7    0.89    0.63
   6   0   7    0.90    0.92
  -6   0  -7    0.79    0.68
   6   1   7    5.83    1.19
  -6  -1  -7    3.24    0.82
   7 -12   7    1.59    1.21
  -7  12  -7    0.00    0.83
   7 -11   7   -2.00    1.03
  -7  11  -7   -0.50    0.72
   7 -10   7   -1.29    0.65
   7 -10   7   -1.26    0.90
  -7  10  -7   -0.54    0.68
   7  -9   7    1.21    0.74
   7  -9   7   -0.11    0.85
  -7   9  -7    0.42    0.63
   7  -8   7   -0.14    0.76
   7  -8   7    1.58    0.77
  -7   8  -7    1.50    0.61
   7  -7   7    2.15    0.83
   7  -7   7    1.16    0.82
  -7   7  -7    0.88    0.55
   7  -6   7    6.69    0.98
   7  -6   7    6.02    0.99
  -7   6  -7    7.30    0.83
   7  -5   7    0.40    0.76
   7  -4   7    1.17    0.80
  -7   4  -7    0.37    0.54
   7  -3   7    0.73    0.83
  -7   3  -7   -0.13    0.54
   7  -2   7   -1.33    0.75
  -7   2  -7    1.25    0.64
   7  -1   7    1.27    0.92
  -7   1  -7    1.60    0.72
   7   0   7    0.48    0.97
  -7   0  -7    1.36    0.75
  -8  11  -7    0.38    0.83
   8 -10   7    2.44    0.90
  -8  10  -7    3.35    0.87
   8  -9   7    0.20    0.89
   8  -9   7    1.20    0.86
  -8   9  -7    0.66    0.71
   8  -8   7   -0.66    0.75
   8  -8   7    1.10    0.85
  -8   8  -7   -0.26    0.62
   8  -7   7    0.56    0.82
   8  -7   7    0.93    0.80
  -8   7  -7    0.39    0.61
   8  -6   7   -1.02    0.70
   8  -6   7   -0.30    0.78
   8  -5   7    0.08    0.78
   8  -4   7    4.01    1.00
  -8   4  -7    3.47    0.77
   8  -3   7    1.12    0.88
  -8   3  -7    1.05    0.65
   8  -2   7    1.14    0.98
  -8   2  -7    2.03    0.76
   8  -1   7    1.14    1.01
  -8   1  -7    1.01    0.71
   9 -10   7   -1.94    0.85
  -9  10  -7   -0.30    0.78
   9  -9   7    0.29    0.93
  -9   9  -7   -0.27    0.76
   9  -8   7   -0.88    0.84
   9  -7   7    0.02    0.87
   9  -6   7   -0.57    0.82
   9  -4   7    1.41    1.50
  -9   4  -7    0.35    0.64
   9  -3   7    1.55    0.97
  -9   3  -7    0.11    0.60
  10  -8   7   -1.08    0.90
  10  -7   7   -0.73    0.89
  10  -6   7   -0.56    0.98
 -11  -2   8    6.22    1.04
  11   2  -8    5.68    1.03
 -11  -1   8    8.20    1.07
  11   1  -8    4.55    0.97
 -11   0   8    0.91    0.66
  11   0  -8   -0.16    0.74
 -11   1   8    1.71    0.68
  11  -1  -8    0.80    0.82
 -11   2   8    0.39    0.59
  11  -2  -8   -1.23    0.73
 -11   3   8    3.69    0.80
  11  -3  -8    2.20    0.90
 -11   4   8    3.98    0.84
  11  -4  -8    4.41    1.00
 -10  -4   8    1.87    0.89
 -10  -3   8    1.01    0.70
  10   3  -8   -0.35    0.72
 -10  -2   8    0.51    0.65
  10   2  -8   -0.43    0.70
 -10  -1   8    3.82    0.82
  10   1  -8    3.27    0.82
 -10   0   8   14.79    1.18
  10   0  -8   13.69    1.17
 -10   1   8   18.78    1.25
  10  -1  -8   17.33    1.26
 -10   2   8    5.79    0.85
  10  -2  -8    4.62    0.90
 -10   3   8    0.89    0.64
  10  -3  -8   -0.53    0.75
 -10   4   8    1.98    0.70
  10  -4  -8    1.70    0.85
 -10   5   8    3.45    0.82
  10  -5  -8    1.51    0.88
   9   5  -8   -0.36    0.97
   9   4  -8   -0.50    0.94
  -9  -3   8    0.67    0.65
   9   3  -8    1.43    0.69
  -9  -2   8    5.53    0.82
   9   2  -8    6.29    0.89
  -9  -1   8    3.19    0.72
   9   1  -8    3.64    0.83
  -9   0   8    8.43    0.92
   9   0  -8    8.67    0.98
  -9   1   8    0.92    0.57
   9  -1  -8    0.70    0.68
  -9   2   8    6.79    0.82
   9  -2  -8    7.03    0.95
  -9   3   8    3.35    0.72
   9  -3  -8    3.39    0.85
  -9   4   8    4.87    0.82
   9  -4  -8    4.29    0.91
  -9   5   8    1.93    0.70
   9  -5  -8    0.76    0.84
  -9   6   8    1.25    0.71
   9  -6  -8   -0.70    0.86
  -8  -7   8    1.72    1.04
   8   7  -8   -0.08    0.94
  -8  -6   8    3.29    1.27
   8   6  -8    0.62    0.95
   8   5  -8   16.63    1.55
   8   4  -8   10.66    0.95
   8   4  -8   11.91    1.25
   8   3  -8    4.84    0.76
  -8  -2   8    0.95    0.53
   8   2  -8    0.88    0.63
  -8  -1   8    3.24    0.64
   8   1  -8    3.95    0.74
  -8   0   8    2.14    0.61
   8   0  -8    1.83    0.67
  -8   1   8   11.41    0.92
   8  -1  -8   10.40    1.04
  -8   2   8   30.75    1.33
   8  -2  -8   32.72    1.49
  -8   3   8    6.82    0.80
   8  -3  -8    6.82    0.95
  -8   4   8    3.44    0.68
   8  -4  -8    2.83    0.84
  -8   5   8    0.79    0.60
   8  -5  -8   -0.36    0.80
  -8   6   8    1.40    0.67
   8  -6  -8    0.63    0.91
   7   8  -8    0.58    0.92
  -7  -7   8    3.38    1.07
   7   7  -8    1.85    0.92
  -7  -6   8    0.67    0.83
   7   6  -8   -0.32    0.83
  -7  -5   8   -0.06    0.76
   7   5  -8    1.16    0.78
  -7  -4   8    0.34    0.70
   7   4  -8   -0.75    0.51
   7   4  -8    1.44    0.77
  -7  -3   8   16.73    1.19
   7   3  -8   16.04    1.01
   7   3  -8   19.59    1.31
  -7  -2   8    8.28    0.87
  -7  -2   8    7.50    0.89
   7   2  -8    7.52    0.84
  -7  -1   8   12.32    0.95
  -7  -1   8   11.78    0.91
   7   1  -8   11.83    0.94
  -7   0   8    0.78    0.44
   7   0  -8    0.84    0.59
  -7   1   8   -0.02    0.41
   7  -1  -8   -0.22    0.55
  -7   2   8    0.10    0.40
   7  -2  -8   -0.18    0.60
  -7   3   8    9.26    0.90
   7  -3  -8    9.63    1.01
  -7   4   8   16.27    1.01
   7  -4  -8   16.13    1.29
  -7   5   8    7.22    0.80
   7  -5  -8    6.27    1.04
   7  -6  -8    1.47    0.92
  -6  -9   8    2.88    1.19
   6   9  -8    0.99    0.91
  -6  -8   8    2.11    1.06
   6   8  -8    1.25    0.87
  -6  -7   8    1.71    0.98
   6   7  -8    1.61    0.82
  -6  -6   8   -0.75    0.74
   6   6  -8    0.59    0.69
  -6  -5   8    1.18    0.79
   6   5  -8    1.91    0.75
   6   5  -8    1.88    0.56
  -6  -4   8   10.21    1.11
   6   4  -8    8.94    0.80
   6   4  -8   11.60    1.07
  -6  -3   8   17.04    1.21
   6   3  -8   17.68    0.94
   6   3  -8   16.84    1.20
  -6  -2   8    6.00    0.73
   6   2  -8    6.39    0.71
  -6  -1   8    4.28    0.61
  -6  -1   8    4.56    0.65
   6   1  -8    4.08    0.67
  -6   0   8    2.09    0.53
  -6   0   8    2.68    0.48
   6   0  -8    2.90    0.65
  -6   1   8    2.73    0.57
  -6   1   8    2.48    0.50
   6  -1  -8    3.17    0.68
  -6   2   8    2.03    0.47
  -6   2   8    2.14    0.58
   6  -2  -8    1.06    0.63
  -6   3   8   13.84    0.86
  -6   3   8   13.84    1.11
   6  -3  -8   13.97    1.17
  -6   4   8    2.84    0.69
  -6   4   8    3.51    0.57
   6  -4  -8    3.00    0.83
   6  -5  -8    2.88    0.91
   6  -6  -8   -0.32    0.87
  -5  -9   8    2.17    1.15
   5   9  -8    0.83    0.81
  -5  -8   8   11.45    1.43
   5   8  -8   12.32    1.19
  -5  -7   8    8.67    1.27
   5   7  -8    8.87    0.99
  -5  -6   8    7.21    1.09
   5   6  -8    9.17    0.96
  -5  -5   8    6.94    1.04
   5   5  -8    6.99    0.71
   5   5  -8    9.69    0.97
  -5  -4   8    2.44    0.80
   5   4  -8    3.00    0.70
   5   4  -8    1.98    0.55
  -5  -3   8    1.49    0.70
   5   3  -8    2.90    0.56
   5   3  -8    2.32    0.64
  -5  -2   8   20.81    1.23
   5   2  -8   21.69    1.04
  -5  -1   8   47.60    1.47
  -5  -1   8   50.00    1.74
   5   1  -8   50.24    1.54
  -5   0   8   37.93    1.50
  -5   0   8   39.82    1.27
   5   0  -8   39.70    1.42
  -5   1   8    1.13    0.56
  -5   1   8    1.81    0.41
   5  -1  -8    1.08    0.59
  -5   2   8    9.85    0.72
  -5   2   8    9.11    1.07
   5  -2  -8    9.12    0.92
  -5   3   8   -0.04    0.58
  -5   3   8    1.40    0.41
   5  -3  -8    1.07    0.67
  -5   4   8    0.62    0.69
   5  -4  -8    1.14    0.74
  -5   5   8   14.42    1.39
   5  -5  -8   12.93    1.28
  -5   6   8    5.78    1.04
   5  -6  -8    4.32    1.02
  -4 -10   8    2.76    1.25
   4  10  -8    1.81    0.82
  -4  -9   8    3.00    1.12
   4   9  -8    4.82    0.85
  -4  -8   8    2.80    1.02
   4   8  -8    1.07    0.63
  -4  -7   8    0.76    0.81
   4   7  -8    0.13    0.56
  -4  -6   8    4.54    0.98
   4   6  -8    4.47    0.74
  -4  -5   8    1.12    0.79
   4   5  -8    1.29    0.55
   4   5  -8    0.54    0.43
  -4  -4   8    7.30    0.94
   4   4  -8    8.52    0.71
   4   4  -8    9.19    0.82
  -4  -3   8    0.71    0.57
   4   3  -8    0.16    0.43
   4   3  -8    0.66    0.47
  -4  -2   8    9.90    1.01
   4   2  -8    9.12    0.81
   4   2  -8    8.95    0.77
  -4  -1   8    0.86    0.52
  -4  -1   8    1.03    0.34
   4   1  -8    0.68    0.51
  -4   0   8    7.75    0.89
  -4   0   8    8.92    0.59
   4   0  -8    8.94    0.84
  -4   1   8    4.73    0.78
  -4   1   8    5.99    0.52
   4  -1  -8    5.98    0.77
  -4   2   8   14.42    1.27
  -4   2   8   15.59    0.70
   4  -2  -8   14.65    1.09
  -4   3   8    0.77    0.67
   4  -3  -8    1.15    0.66
  -4   4   8    0.67    0.75
   4  -4  -8    2.04    0.77
  -4   5   8    0.76    0.87
   4  -5  -8    1.11    0.82
  -4   6   8   -0.01    0.93
   4  -6  -8    1.42    0.94
  -3 -11   8    3.57    1.33
   3  11  -8    2.37    0.88
  -3 -10   8    1.79    1.16
   3  10  -8    2.18    0.77
  -3  -9   8   -0.33    0.84
   3   9  -8    0.50    0.61
  -3  -8   8    0.21    0.81
   3   8  -8    0.39    0.56
  -3  -7   8   24.00    1.67
   3   7  -8   22.84    1.17
  -3  -6   8   29.69    1.72
   3   6  -8   27.12    1.17
   3   6  -8   27.47    0.89
  -3  -5   8   30.35    1.69
   3   5  -8   31.40    1.22
   3   5  -8   31.81    1.03
  -3  -4   8   -0.44    0.59
   3   4  -8    0.26    0.40
   3   4  -8    0.29    0.42
  -3  -3   8   20.51    1.27
   3   3  -8   19.20    0.91
   3   3  -8   18.47    0.88
  -3  -2   8    2.10    0.62
   3   2  -8    1.91    0.51
  -3  -1   8    2.63    0.37
  -3  -1   8    2.30    0.61
   3   1  -8    2.19    0.54
  -3   0   8   45.34    1.10
  -3   0   8   42.09    1.68
   3   0  -8   43.12    1.47
  -3   1   8   11.99    0.53
  -3   1   8   11.83    1.15
   3  -1  -8   10.49    0.94
  -3   2   8   11.69    1.28
   3  -2  -8   10.77    0.99
  -3   3   8    0.43    0.75
   3  -3  -8    1.07    0.68
  -3   4   8    1.55    0.87
   3  -4  -8   -0.19    0.72
  -3   5   8    0.22    0.92
   3  -5  -8    0.96    0.80
  -3   6   8    3.91    1.21
   3  -6  -8    4.34    1.00
  -2 -11   8    1.99    1.18
   2  11  -8    2.08    0.83
  -2 -10   8    3.69    1.13
   2  10  -8    3.01    0.77
  -2  -9   8    8.78    1.25
   2   9  -8    7.79    0.87
  -2  -8   8   -1.03    0.67
   2   8  -8    0.14    0.53
  -2  -7   8    0.48    0.73
   2   7  -8    0.14    0.47
  -2  -6   8    4.92    0.94
   2   6  -8    4.88    0.48
   2   6  -8    4.36    0.62
  -2  -5   8   18.92    1.37
   2   5  -8   18.25    0.90
   2   5  -8   19.79    0.80
  -2  -4   8   24.79    1.46
   2   4  -8   22.21    0.91
   2   4  -8   21.87    0.91
  -2  -3   8   65.35    2.16
   2   3  -8   64.30    1.65
   2   3  -8   64.83    1.54
  -2  -2   8    0.29    0.57
   2   2  -8   -0.28    0.40
  -2  -1   8    1.56    0.25
  -2  -1   8    0.21    0.54
   2   1  -8    1.61    0.50
  -2   0   8    6.76    0.88
   2   0  -8    6.80    0.75
  -2   1   8    1.47    0.69
   2  -1  -8    1.93    0.63
  -2   2   8   14.78    1.42
   2  -2  -8   14.81    1.05
  -2   3   8   14.67    1.54
   2  -3  -8   14.13    1.16
  -2   4   8    7.23    1.21
   2  -4  -8    6.75    0.98
  -2   5   8   -0.22    1.01
   2  -5  -8    0.02    0.75
  -2   6   8    0.67    1.20
   2  -6  -8    0.51    0.85
  -1 -12   8    4.61    1.42
   1  12  -8    4.14    0.96
  -1 -11   8    5.68    1.32
   1  11  -8    2.27    0.80
  -1 -10   8    3.46    1.03
   1  10  -8    4.82    0.81
  -1  -9   8    0.32    0.78
   1   9  -8    0.74    0.55
  -1  -8   8    0.12    0.69
   1   8  -8    0.14    0.48
  -1  -7   8    0.15    0.68
   1   7  -8   -0.19    0.43
  -1  -6   8    7.78    1.02
   1   6  -8    7.35    0.72
   1   6  -8    8.92    0.58
  -1  -5   8   28.68    1.56
   1   5  -8   27.77    1.00
   1   5  -8   28.98    0.95
  -1  -4   8    5.87    0.87
   1   4  -8    5.52    0.56
   1   4  -8    5.75    0.53
  -1  -3   8   15.11    1.22
   1   3  -8   14.68    0.76
   1   3  -8   15.11    0.62
  -1  -2   8    1.27    0.21
  -1  -2   8    0.73    0.58
   1   2  -8    0.59    0.41
  -1  -1   8    7.66    0.93
   1   1  -8    8.44    0.73
  -1   0   8    0.68    0.61
   1   0  -8   -0.07    0.44
  -1   1   8   12.35    1.33
   1  -1  -8   10.03    0.91
  -1   2   8    1.06    0.79
   1  -2  -8    0.41    0.57
  -1   3   8    3.39    1.03
   1  -3  -8    4.31    0.80
  -1   4   8    1.04    0.99
   1  -4  -8    0.34    0.67
  -1   5   8    1.88    1.14
   1  -5  -8    1.41    0.79
   0 -12   8    1.15    1.22
   0  12  -8   -0.47    0.69
   0 -11   8    1.45    1.08
   0  11  -8    0.11    0.65
   0 -10   8    8.33    1.25
   0  10  -8    6.32    0.83
   0  -9   8   12.38    1.39
   0   9  -8    9.72    0.93
   0  -8   8   30.67    1.72
   0   8  -8   29.88    1.21
   0  -7   8    0.30    0.73
   0   7  -8    0.40    0.28
   0   7  -8    0.24    0.43
   0  -6   8    0.78    0.64
   0   6  -8    0.68    0.39
   0   6  -8    0.95    0.33
   0  -5   8   15.71    1.33
   0   5  -8   15.28    0.71
   0   5  -8   14.39    0.70
   0  -4   8    5.40    0.81
   0   4  -8    5.35    0.48
   0   4  -8    5.06    0.55
   0  -3   8   35.05    1.62
   0   3  -8   34.79    1.18
   0  -2   8   65.87    2.21
   0   2  -8   65.36    1.77
   0  -1   8   17.94    1.32
   0   1  -8   17.55    0.95
   0   0   8    1.63    0.73
   0   0  -8    1.34    0.51
   0   1   8   -0.05    0.68
   0  -1  -8    0.04    0.52
   0   2   8    0.60    0.85
   0  -2  -8    0.63    0.59
   0   3   8    7.25    1.28
   0  -3  -8    7.60    0.91
   0   4   8    4.21    1.21
   0  -4  -8    4.13    0.86
   0   5   8    4.87    1.38
   0  -5  -8    4.72    0.89
   1 -12   8    2.63    1.35
  -1  12  -8   -0.14    0.77
   1 -11   8    1.09    1.05
  -1  11  -8    1.48    0.75
   1 -10   8    0.14    0.83
  -1  10  -8    1.39    0.66
   1  -9   8    0.78    0.76
  -1   9  -8    0.46    0.53
   1  -8   8    4.45    0.97
  -1   8  -8    2.97    0.59
   1  -7   8    1.67    0.75
  -1   7  -8    1.80    0.50
  -1   7  -8    2.34    0.37
   1  -6   8   18.86    1.41
  -1   6  -8   17.46    0.83
  -1   6  -8   17.14    0.76
   1  -5   8    2.46    0.74
  -1   5  -8    2.65    0.45
  -1   5  -8    2.62    0.39
   1  -4   8   15.13    1.22
  -1   4  -8   15.34    0.58
  -1   4  -8   13.94    0.80
   1  -3   8    1.16    0.61
  -1   3  -8    1.52    0.45
   1  -2   8    3.19    0.76
  -1   2  -8    2.57    0.54
   1  -1   8    2.22    0.74
  -1   1  -8    1.16    0.50
   1   0   8   18.05    1.46
  -1   0  -8   17.61    1.04
   1   1   8    5.19    1.01
  -1  -1  -8    6.15    0.80
   1   2   8    1.71    0.92
  -1  -2  -8    2.72    0.69
   1   3   8    1.11    0.98
  -1  -3  -8    1.19    0.66
   1   4   8    0.18    1.09
  -1  -4  -8    2.34    0.73
   2 -12   8    0.01    1.26
  -2  12  -8    0.42    0.77
   2 -11   8    0.32    1.05
  -2  11  -8   -0.42    0.62
   2 -10   8    1.56    0.92
  -2  10  -8    0.69    0.60
   2  -9   8    3.39    1.00
  -2   9  -8    3.63    0.67
   2  -8   8    9.50    1.19
  -2   8  -8    9.15    0.83
  -2   8  -8   11.09    0.60
   2  -7   8   31.38    1.73
  -2   7  -8   29.60    1.02
  -2   7  -8   31.54    1.13
   2  -6   8    8.79    1.04
  -2   6  -8    8.23    0.66
  -2   6  -8    8.23    0.69
   2  -5   8    0.08    0.64
  -2   5  -8   -0.26    0.31
  -2   5  -8    0.43    0.42
   2  -4   8    1.62    0.68
  -2   4  -8    0.97    0.47
   2  -3   8   -0.13    0.55
  -2   3  -8   -0.39    0.39
   2  -2   8   17.17    1.35
  -2   2  -8   17.11    0.98
   2  -1   8    5.63    0.95
  -2   1  -8    7.40    0.81
   2   0   8   15.32    1.45
  -2   0  -8   14.95    1.02
   2   1   8    0.09    0.76
  -2  -1  -8   -0.42    0.52
   2   2   8    1.21    0.95
  -2  -2  -8    2.00    0.69
   2   3   8    0.32    1.00
  -2  -3  -8    1.83    0.70
   2   4   8    2.86    1.27
  -2  -4  -8    4.21    0.88
   3 -13   8    1.42    1.58
   3 -12   8    1.36    1.30
  -3  12  -8    1.99    0.83
   3 -11   8    4.49    1.25
  -3  11  -8    3.50    0.80
   3 -10   8    0.43    0.94
  -3  10  -8    0.72    0.61
   3  -9   8    0.70    0.86
  -3   9  -8    0.28    0.52
   3  -8   8    2.98    0.89
  -3   8  -8    3.14    0.48
  -3   8  -8    2.21    0.56
   3  -7   8    1.59    0.80
  -3   7  -8    1.54    0.49
  -3   7  -8    1.89    0.46
   3  -6   8    3.55    0.86
  -3   6  -8    2.94    0.48
  -3   6  -8    3.72    0.58
   3  -5   8   36.76    1.74
  -3   5  -8   34.83    1.30
  -3   5  -8   34.39    0.99
   3  -4   8    6.83    0.94
  -3   4  -8    7.66    0.77
   3  -3   8    2.22    0.79
  -3   3  -8    1.82    0.55
   3  -2   8    0.37    0.69
  -3   2  -8    1.40    0.56
   3  -1   8    0.47    0.72
  -3   1  -8   -0.02    0.50
   3   0   8    1.49    0.88
  -3   0  -8    1.68    0.62
   3   1   8    4.05    1.04
  -3  -1  -8    6.02    0.89
   3   2   8    7.16    1.32
  -3  -2  -8   10.02    1.05
   3   3   8    1.95    1.13
  -3  -3  -8    1.48    0.74
   4 -13   8   -1.30    1.41
   4 -12   8    1.83    1.37
  -4  12  -8    1.22    0.80
   4 -11   8    0.08    1.18
  -4  11  -8   -0.18    0.67
   4 -10   8   -0.65    0.95
  -4  10  -8   -0.75    0.54
   4  -9   8   -0.86    0.82
  -4   9  -8    0.49    0.53
  -4   9  -8    0.27    0.34
   4  -8   8   -0.11    0.79
  -4   8  -8    0.43    0.51
  -4   8  -8    0.84    0.42
   4  -7   8    5.95    1.01
  -4   7  -8    5.38    0.65
  -4   7  -8    5.20    0.64
   4  -6   8    1.46    0.78
  -4   6  -8    1.63    0.54
  -4   6  -8    1.61    0.47
   4  -5   8    4.18    0.86
  -4   5  -8    7.00    0.76
   4  -4   8    0.47    0.67
  -4   4  -8    0.35    0.50
   4  -3   8    3.41    0.83
  -4   3  -8    3.27    0.69
   4  -2   8   -0.08    0.69
  -4   2  -8    0.52    0.53
   4  -1   8    6.09    1.05
  -4   1  -8    5.04    0.80
   4   0   8    0.37    0.82
  -4   0  -8   -0.01    0.59
   4   1   8    1.89    0.99
  -4  -1  -8    1.91    0.72
   4   2   8    0.50    1.04
  -4  -2  -8    0.87    0.70
   5 -12   8   -0.03    1.31
  -5  12  -8   -0.18    0.78
   5 -11   8    0.12    1.18
  -5  11  -8    0.52    0.67
   5 -10   8    7.95    1.33
  -5  10  -8    7.01    0.90
   5  -9   8    0.80    0.91
  -5   9  -8    1.13    0.44
  -5   9  -8    1.01    0.59
   5  -8   8   -0.36    0.79
  -5   8  -8    0.35    0.42
  -5   8  -8    0.25    0.50
   5  -7   8    2.58    0.90
  -5   7  -8    2.80    0.60
  -5   7  -8    2.82    0.54
   5  -6   8   -0.82    0.71
  -5   6  -8    0.42    0.49
  -5   6  -8   -0.32    0.63
   5  -5   8    1.40    0.78
  -5   5  -8    2.16    0.61
   5  -4   8    9.47    1.11
  -5   4  -8    9.37    0.91
   5  -3   8    6.26    1.06
  -5   3  -8    9.24    0.99
   5  -2   8    0.38    0.85
  -5   2  -8    1.54    0.67
   5  -1   8   -0.15    0.76
  -5   1  -8    0.20    0.60
   5   0   8    0.82    0.94
  -5   0  -8    0.27    0.65
   5   1   8   -0.37    0.89
  -5  -1  -8    1.55    0.77
   6 -12   8   -0.36    1.23
  -6  12  -8   -0.51    0.78
   6 -11   8   -0.52    1.21
  -6  11  -8   -0.43    0.72
   6 -10   8   -0.58    1.03
  -6  10  -8   -0.39    0.59
  -6  10  -8    0.69    0.62
   6  -9   8   -1.10    0.90
  -6   9  -8    0.51    0.50
  -6   9  -8   -0.36    0.56
   6  -8   8    3.14    1.00
  -6   8  -8    2.75    0.62
  -6   8  -8    3.42    0.66
   6  -7   8    0.79    0.86
  -6   7  -8    0.47    0.52
  -6   7  -8    0.48    0.50
   6  -6   8    2.07    0.88
  -6   6  -8    2.33    0.61
   6  -5   8    0.06    0.73
  -6   5  -8    0.47    0.54
   6  -4   8    0.19    0.76
  -6   4  -8   -0.22    0.54
   6  -3   8    0.64    0.91
  -6   3  -8    0.29    0.56
   6  -2   8    3.43    1.15
  -6   2  -8    1.55    0.68
   6  -1   8   -0.02    0.89
  -6   1  -8    0.93    0.64
   6   0   8    1.53    1.02
  -6   0  -8    1.67    0.83
   7 -12   8   -0.93    1.20
  -7  12  -8    0.32    0.83
   7 -11   8    0.42    1.15
  -7  11  -8    0.00    0.74
   7 -10   8   -1.52    1.00
  -7  10  -8    0.41    0.50
  -7  10  -8   -0.56    0.65
   7  -9   8    1.22    0.99
  -7   9  -8    1.94    0.61
  -7   9  -8    2.13    0.68
   7  -8   8    0.67    0.92
  -7   8  -8    0.95    0.62
  -7   8  -8    0.23    0.52
   7  -7   8   -0.35    0.84
  -7   7  -8    0.01    0.50
   7  -6   8   -0.73    0.74
  -7   6  -8   -0.41    0.53
   7  -5   8   -0.60    0.76
  -7   5  -8   -0.26    0.52
   7  -4   8    0.82    0.86
  -7   4  -8    0.90    0.61
   7  -3   8   -0.51    0.94
  -7   3  -8    0.47    0.60
   7  -2   8    2.14    0.95
  -7   2  -8    0.58    0.68
   7  -1   8   -0.42    0.94
  -7   1  -8    0.02    0.64
  -8  11  -8   -0.38    0.78
   8 -10   8   -1.34    1.25
  -8  10  -8    0.53    0.74
   8  -9   8   -1.24    0.92
  -8   9  -8   -0.34    0.78
   8  -8   8   -1.58    0.87
   8  -7   8    0.37    0.87
  -8   7  -8    2.35    0.72
   8  -6   8    0.22    0.86
  -8   6  -8    0.91    0.64
   8  -5   8   -0.25    0.89
  -8   5  -8    0.82    0.63
   8  -4   8    0.41    1.03
  -8   4  -8    0.31    0.62
   8  -3   8    1.03    0.94
  -8   3  -8    0.14    0.63
  -9   7  -8    0.40    0.65
  -9   6  -8   -0.11    0.65
  -9   5  -8    0.70    0.68
 -11  -1   9    0.98    0.72
  11   1  -9    0.60    0.81
 -11   0   9    1.46    0.73
  11   0  -9    0.07    0.84
 -11   1   9    3.02    0.75
  11  -1  -9    0.95    0.86
 -11   2   9    5.63    0.86
  11  -2  -9    5.33    1.07
 -10  -4   9    0.39    0.75
 -10  -3   9    4.28    0.90
  10   3  -9    2.95    0.88
 -10  -2   9    9.14    1.08
  10   2  -9    8.33    1.03
 -10  -1   9    2.78    0.75
  10   1  -9    2.32    0.84
 -10   0   9    0.56    0.64
  10   0  -9   -1.41    0.70
 -10   1   9    1.68    0.66
  10  -1  -9   -0.07    0.78
 -10   2   9    0.60    0.54
  10  -2  -9   -0.07    0.79
 -10   3   9    1.67    0.69
  10  -3  -9    0.33    0.82
 -10   4   9   10.67    1.14
  10  -4  -9    8.87    1.21
   9   5  -9    0.64    1.07
  -9  -3   9    3.99    0.83
   9   3  -9    4.04    0.81
  -9  -2   9    1.42    0.64
   9   2  -9   -0.02    0.70
  -9  -1   9    3.19    0.74
   9   1  -9    4.17    0.86
  -9   0   9    1.75    0.60
   9   0  -9   -0.42    0.67
  -9   1   9    2.56    0.64
   9  -1  -9    0.64    0.76
  -9   2   9    1.99    0.60
   9  -2  -9    0.81    0.73
  -9   3   9    1.51    0.59
   9  -3  -9   -0.37    0.77
  -9   4   9    2.48    0.72
   9  -4  -9    0.01    0.85
  -9   5   9    1.10    0.64
   9  -5  -9   -0.17    0.93
   8   7  -9    3.03    1.12
   8   6  -9    1.31    1.02
   8   5  -9    0.22    0.94
   8   4  -9    1.90    0.67
   8   4  -9    2.68    0.98
  -8  -3   9    0.19    0.57
   8   3  -9   -0.26    0.61
  -8  -2   9    6.03    0.78
   8   2  -9    4.54    0.79
  -8  -1   9   23.41    1.25
   8   1  -9   21.58    1.20
  -8   0   9    8.30    0.86
   8   0  -9    8.59    0.98
  -8   1   9    2.37    0.57
   8  -1  -9    1.55    0.77
  -8   2   9    2.84    0.62
   8  -2  -9    2.39    0.78
  -8   3   9    0.80    0.55
   8  -3  -9    0.67    0.76
  -8   4   9    1.38    0.58
   8  -4  -9    0.80    0.88
   8  -5  -9    5.33    1.08
  -7  -8   9    1.88    1.15
   7   8  -9    0.47    0.95
  -7  -7   9    0.68    1.02
   7   7  -9    0.26    0.91
  -7  -6   9    3.40    1.08
   7   6  -9    3.29    0.98
  -7  -5   9    3.23    0.95
   7   5  -9    4.99    1.03
  -7  -4   9   10.60    1.21
   7   4  -9    9.08    0.88
   7   4  -9   12.11    1.29
  -7  -3   9   -0.15    0.61
   7   3  -9    0.10    0.56
  -7  -2   9    1.50    0.53
  -7  -2   9   -0.23    0.53
   7   2  -9   -0.52    0.57
  -7  -1   9    0.16    0.44
   7   1  -9    0.28    0.58
  -7   0   9    3.54    0.63
   7   0  -9    2.77    0.72
  -7   1   9   15.97    0.95
   7  -1  -9   17.79    1.23
  -7   2   9    8.89    0.84
   7  -2  -9    9.67    1.02
  -7   3   9    5.01    0.66
   7  -3  -9    4.49    0.91
   7  -4  -9   -0.08    0.81
   7  -5  -9   -1.02    0.86
  -6  -9   9    2.73    1.29
   6   9  -9    0.37    0.89
  -6  -8   9    0.62    1.05
   6   8  -9   -0.11    0.86
  -6  -7   9    3.26    1.14
   6   7  -9    5.55    1.01
  -6  -6   9   16.62    1.73
   6   6  -9   17.26    1.35
  -6  -5   9    2.08    0.91
   6   5  -9    1.75    0.57
   6   5  -9    3.31    0.84
  -6  -4   9    0.14    0.68
   6   4  -9    0.86    0.68
   6   4  -9    1.66    0.57
  -6  -3   9    1.81    0.69
   6   3  -9    2.43    0.59
   6   3  -9    2.59    0.76
  -6  -2   9    1.01    0.60
  -6  -2   9    0.93    0.45
   6   2  -9    1.28    0.59
  -6  -1   9    0.73    0.42
  -6  -1   9    0.65    0.53
   6   1  -9    0.45    0.58
  -6   0   9   12.38    0.96
  -6   0   9   13.90    0.86
   6   0  -9   11.72    1.01
  -6   1   9    7.84    0.70
  -6   1   9    6.45    0.79
   6  -1  -9    7.28    0.91
  -6   2   9    4.76    0.77
  -6   2   9    6.96    0.73
   6  -2  -9    4.71    0.84
  -6   3   9    0.50    0.62
  -6   3   9    1.16    0.66
   6  -3  -9    0.34    0.74
   6  -4  -9    0.19    0.85
   6  -5  -9    0.06    0.91
  -5  -9   9    6.63    1.42
   5   9  -9    4.99    1.03
  -5  -8   9    0.15    1.02
   5   8  -9   -0.06    0.68
  -5  -7   9    0.35    0.95
   5   7  -9    0.54    0.69
  -5  -6   9    0.72    0.91
   5   6  -9    1.89    0.72
  -5  -5   9    6.29    1.07
   5   5  -9    5.80    0.84
   5   5  -9    6.64    0.67
  -5  -4   9   34.84    1.75
   5   4  -9   32.31    1.22
   5   4  -9   34.52    1.43
  -5  -3   9   26.67    1.47
   5   3  -9   26.02    1.25
   5   3  -9   26.93    1.13
  -5  -2   9    8.17    0.72
  -5  -2   9    6.95    0.87
   5   2  -9    9.17    0.89
  -5  -1   9    5.14    0.73
  -5  -1   9    6.59    0.65
   5   1  -9    5.17    0.75
  -5   0   9    0.58    0.52
  -5   0   9    0.88    0.37
   5   0  -9    1.16    0.61
  -5   1   9    0.98    0.36
  -5   1   9    1.08    0.62
   5  -1  -9    1.38    0.66
  -5   2   9   18.75    1.36
   5  -2  -9   20.48    1.28
  -5   3   9   10.08    1.26
   5  -3  -9   10.78    1.22
  -5   4   9    6.63    1.03
   5  -4  -9    6.62    1.06
  -5   5   9    1.54    0.84
   5  -5  -9    0.70    0.96
  -4 -10   9    0.64    1.19
   4  10  -9   -0.50    0.75
  -4  -9   9    3.06    1.23
   4   9  -9    1.50    0.75
  -4  -8   9   -0.15    0.95
   4   8  -9    0.64    0.67
  -4  -7   9    5.63    1.15
   4   7  -9    5.98    0.88
  -4  -6   9    1.64    0.89
   4   6  -9    1.58    0.62
  -4  -5   9   11.93    1.45
   4   5  -9   11.00    0.99
   4   5  -9   11.61    0.80
  -4  -4   9    0.68    0.76
   4   4  -9    0.11    0.47
   4   4  -9   -0.59    0.48
  -4  -3   9    9.42    1.14
   4   3  -9    9.67    0.85
   4   3  -9    9.56    0.88
  -4  -2   9    3.76    0.50
  -4  -2   9    3.45    0.75
   4   2  -9    3.84    0.66
  -4  -1   9   13.33    0.71
  -4  -1   9   12.61    1.15
   4   1  -9   12.44    0.94
  -4   0   9    3.45    0.74
  -4   0   9    5.40    0.51
   4   0  -9    4.12    0.73
  -4   1   9    1.52    0.68
   4  -1  -9    1.82    0.69
  -4   2   9   -0.32    0.65
   4  -2  -9   -0.28    0.66
  -4   3   9    0.41    0.77
   4  -3  -9    0.09    0.72
  -4   4   9    3.43    1.02
   4  -4  -9    3.21    0.93
  -4   5   9    2.67    1.06
   4  -5  -9    1.62    0.97
  -3 -11   9    1.23    1.30
   3  11  -9    0.85    0.82
  -3 -10   9    2.66    1.24
   3  10  -9    4.69    0.92
  -3  -9   9   10.04    1.39
   3   9  -9    7.28    0.95
  -3  -8   9   11.06    1.37
   3   8  -9   14.08    1.14
  -3  -7   9    3.80    1.07
   3   7  -9    4.62    0.71
  -3  -6   9    4.20    0.98
   3   6  -9    4.63    0.74
   3   6  -9    3.24    0.51
  -3  -5   9    0.76    0.75
   3   5  -9    0.60    0.45
   3   5  -9    1.30    0.54
  -3  -4   9    0.25    0.68
   3   4  -9    0.64    0.48
   3   4  -9   -0.05    0.42
  -3  -3   9   45.68    1.90
   3   3  -9   44.53    1.43
   3   3  -9   45.12    1.36
  -3  -2   9   25.14    0.88
  -3  -2   9   23.32    1.44
   3   2  -9   21.99    1.05
  -3  -1   9   28.06    0.88
  -3  -1   9   27.35    1.54
   3   1  -9   28.13    1.21
  -3   0   9    1.59    0.69
   3   0  -9    1.85    0.61
  -3   1   9    0.15    0.68
   3  -1  -9    0.41    0.59
  -3   2   9    0.11    0.71
   3  -2  -9   -0.01    0.64
  -3   3   9    6.17    1.14
   3  -3  -9    6.59    0.95
  -3   4   9    4.32    1.11
   3  -4  -9    6.44    1.03
  -3   5   9    2.82    1.16
   3  -5  -9    1.73    0.93
  -2 -11   9    0.46    1.18
   2  11  -9   -0.71    0.73
  -2 -10   9    1.51    1.08
   2  10  -9    0.63    0.70
  -2  -9   9    0.53    0.91
   2   9  -9    0.16    0.62
  -2  -8   9    3.84    1.00
   2   8  -9    3.41    0.67
  -2  -7   9    4.94    1.02
   2   7  -9    5.89    0.74
  -2  -6   9   34.69    1.85
   2   6  -9   33.90    1.27
   2   6  -9   33.13    1.06
  -2  -5   9    7.26    1.05
   2   5  -9    6.62    0.66
   2   5  -9    6.29    0.66
  -2  -4   9    0.82    0.69
   2   4  -9    0.39    0.45
   2   4  -9    0.12    0.40
  -2  -3   9    1.87    0.74
   2   3  -9    2.98    0.56
   2   3  -9    3.31    0.48
  -2  -2   9    0.41    0.63
  -2  -2   9    0.14    0.23
   2   2  -9    0.48    0.49
  -2  -1   9   13.78    1.26
   2   1  -9   11.97    0.94
  -2   0   9   20.45    1.42
   2   0  -9   20.30    1.11
  -2   1   9   24.11    1.71
   2  -1  -9   26.15    1.28
  -2   2   9    0.92    0.82
   2  -2  -9    1.09    0.67
  -2   3   9    1.29    0.95
   2  -3  -9    0.36    0.71
  -2   4   9    1.16    1.05
   2  -4  -9    0.79    0.83
  -2   5   9    1.09    1.16
   2  -5  -9    3.07    0.99
  -1 -12   9    1.74    1.40
   1  12  -9    0.64    0.81
  -1 -11   9    1.68    1.15
   1  11  -9    0.17    0.71
  -1 -10   9   -0.27    0.91
   1  10  -9   -0.21    0.60
  -1  -9   9    1.24    0.84
   1   9  -9    1.14    0.60
  -1  -8   9   16.57    1.62
   1   8  -9   13.18    0.98
  -1  -7   9    5.71    1.03
   1   7  -9    6.66    0.57
   1   7  -9    5.16    0.69
  -1  -6   9   11.43    1.37
   1   6  -9   10.92    0.67
   1   6  -9   11.79    0.82
  -1  -5   9    0.70    0.71
   1   5  -9    0.18    0.35
   1   5  -9    0.02    0.38
  -1  -4   9    3.07    0.81
   1   4  -9    2.59    0.42
   1   4  -9    3.01    0.52
  -1  -3   9    0.29    0.65
   1   3  -9   -0.44    0.42
   1   3  -9   -0.14    0.31
  -1  -2   9   16.18    1.30
   1   2  -9   15.09    0.94
  -1  -1   9    7.65    1.00
   1   1  -9    7.04    0.78
  -1   0   9    7.78    1.05
   1   0  -9    8.01    0.84
  -1   1   9   -0.04    0.70
   1  -1  -9    0.80    0.59
  -1   2   9    0.90    0.89
   1  -2  -9    2.10    0.71
  -1   3   9    2.39    1.01
   1  -3  -9    2.38    0.79
  -1   4   9    0.17    1.07
   1  -4  -9    2.37    0.84
   0 -12   9    0.61    1.26
   0  12  -9    1.46    0.83
   0 -11   9    4.94    1.26
   0  11  -9    6.79    0.95
   0 -10   9    0.77    0.89
   0  10  -9    0.63    0.63
   0  -9   9    0.28    0.83
   0   9  -9    0.07    0.51
   0  -8   9    4.07    0.99
   0   8  -9    3.34    0.61
   0  -7   9    0.12    0.68
   0   7  -9    0.38    0.32
   0   7  -9    0.06    0.44
   0  -6   9   13.56    1.45
   0   6  -9   12.88    0.71
   0   6  -9   12.43    0.79
   0  -5   9   31.32    1.68
   0   5  -9   32.56    1.01
   0   5  -9   29.41    1.08
   0  -4   9   33.51    1.73
   0   4  -9   31.72    0.91
   0   4  -9   30.88    1.17
   0  -3   9    0.73    0.65
   0   3  -9    0.35    0.45
   0  -2   9    0.26    0.65
   0   2  -9   -0.03    0.46
   0  -1   9    2.57    0.79
   0   1  -9    3.10    0.62
   0   0   9    7.26    1.05
   0   0  -9    7.06    0.82
   0   1   9    6.19    1.12
   0  -1  -9    5.83    0.82
   0   2   9   13.65    1.71
   0  -2  -9   13.43    1.14
   0   3   9    1.22    1.05
   0  -3  -9    1.44    0.75
   0   4   9    0.27    1.14
   0  -4  -9    0.75    0.74
   1 -12   9   -0.51    1.25
  -1  12  -9   -1.20    0.69
   1 -11   9    0.31    0.99
  -1  11  -9    1.32    0.74
   1 -10   9    0.99    0.99
  -1  10  -9   -0.31    0.58
   1  -9   9    3.34    1.01
  -1   9  -9    3.73    0.67
   1  -8   9    0.46    0.76
  -1   8  -9    1.38    0.52
   1  -7   9    5.03    0.96
  -1   7  -9    6.18    0.59
  -1   7  -9    6.28    0.64
   1  -6   9   -0.44    0.72
  -1   6  -9    0.36    0.38
  -1   6  -9    0.17    0.38
   1  -5   9    2.11    0.81
  -1   5  -9    2.76    0.53
  -1   5  -9    2.21    0.37
   1  -4   9    1.22    0.72
  -1   4  -9    1.20    0.48
   1  -3   9   10.44    1.21
  -1   3  -9   11.43    0.84
   1  -2   9    5.97    0.92
  -1   2  -9    8.19    0.81
   1  -1   9    3.35    0.81
  -1   1  -9    3.45    0.66
   1   0   9   -0.10    0.72
  -1   0  -9    0.28    0.56
   1   1   9   -0.22    0.76
  -1  -1  -9    0.60    0.63
   1   2   9    1.86    1.03
  -1  -2  -9    1.49    0.67
   1   3   9   -0.08    1.01
  -1  -3  -9    1.13    0.78
   2 -12   9   -0.63    1.26
  -2  12  -9    0.98    0.80
   2 -11   9    1.44    1.21
  -2  11  -9    1.78    0.78
   2 -10   9    6.26    1.30
  -2  10  -9    6.30    0.90
   2  -9   9    3.86    1.06
  -2   9  -9    4.25    0.69
   2  -8   9    0.48    0.80
  -2   8  -9   -0.53    0.44
  -2   8  -9    1.05    0.36
   2  -7   9    0.19    0.75
  -2   7  -9   -0.11    0.42
  -2   7  -9    0.43    0.39
   2  -6   9    1.22    0.80
  -2   6  -9    0.83    0.47
  -2   6  -9    1.21    0.40
   2  -5   9    8.71    1.07
  -2   5  -9    8.82    0.79
   2  -4   9    5.20    0.94
  -2   4  -9    4.59    0.66
   2  -3   9   17.42    1.38
  -2   3  -9   16.56    1.01
   2  -2   9   -0.56    0.65
  -2   2  -9    0.01    0.48
   2  -1   9    0.54    0.73
  -2   1  -9    1.32    0.61
   2   0   9    1.06    0.83
  -2   0  -9   -0.16    0.56
   2   1   9    1.59    0.94
  -2  -1  -9    1.35    0.70
   2   2   9    3.26    1.13
  -2  -2  -9    2.63    0.78
   2   3   9    1.75    1.17
  -2  -3  -9    4.21    0.89
   3 -12   9    0.41    1.38
  -3  12  -9   -0.02    0.74
   3 -11   9    0.30    1.18
  -3  11  -9    0.57    0.68
   3 -10   9    0.33    1.00
  -3  10  -9   -0.73    0.57
   3  -9   9    0.29    0.88
  -3   9  -9    0.55    0.53
   3  -8   9   12.11    1.53
  -3   8  -9   10.56    0.84
  -3   8  -9   11.43    0.80
   3  -7   9    4.07    0.97
  -3   7  -9    3.63    0.54
  -3   7  -9    4.76    0.63
   3  -6   9    0.72    0.78
  -3   6  -9    0.91    0.50
   3  -5   9   -0.08    0.69
  -3   5  -9    0.76    0.51
   3  -4   9    1.04    0.72
  -3   4  -9    0.82    0.54
   3  -3   9    0.72    0.69
  -3   3  -9    0.39    0.50
   3  -2   9    1.93    0.82
  -3   2  -9    2.17    0.64
   3  -1   9    7.04    1.14
  -3   1  -9    8.76    0.96
   3   0   9    1.36    0.88
  -3   0  -9    0.92    0.68
   3   1   9    0.64    0.96
  -3  -1  -9    2.05    0.73
   3   2   9    0.11    0.97
  -3  -2  -9    2.47    0.83
   4 -12   9   -2.46    1.32
  -4  12  -9   -0.28    0.74
   4 -11   9   -1.25    1.18
  -4  11  -9   -0.22    0.65
   4 -10   9    2.32    1.14
  -4  10  -9    0.81    0.63
   4  -9   9   -0.05    0.93
  -4   9  -9    1.43    0.43
  -4   9  -9    0.72    0.53
   4  -8   9    0.42    0.91
  -4   8  -9    1.54    0.51
  -4   8  -9    1.98    0.55
   4  -7   9    0.26    0.84
  -4   7  -9   -0.18    0.43
  -4   7  -9   -0.09    0.46
   4  -6   9   -0.01    0.79
  -4   6  -9    1.17    0.55
   4  -5   9   -0.25    0.71
  -4   5  -9    0.42    0.52
   4  -4   9    2.25    0.82
  -4   4  -9    2.41    0.64
   4  -3   9    0.02    0.73
  -4   3  -9    0.90    0.60
   4  -2   9    1.00    0.85
  -4   2  -9    0.89    0.65
   4  -1   9    0.26    0.95
  -4   1  -9    0.86    0.66
   4   0   9    0.59    0.89
  -4   0  -9    0.63    0.68
   4   1   9    0.65    1.05
  -4  -1  -9    1.11    0.75
   5 -12   9    0.14    1.41
  -5  12  -9    0.05    0.76
   5 -11   9   -0.80    1.20
  -5  11  -9   -0.84    0.65
   5 -10   9    0.95    1.13
  -5  10  -9    1.04    0.64
   5  -9   9    1.48    1.05
  -5   9  -9    1.29    0.50
  -5   9  -9    0.37    0.51
   5  -8   9   -0.91    0.91
  -5   8  -9    1.13    0.49
  -5   8  -9   -0.40    0.48
   5  -7   9    2.08    1.00
  -5   7  -9    1.95    0.61
   5  -6   9    6.74    1.15
  -5   6  -9    6.07    0.82
   5  -5   9   -0.62    0.81
  -5   5  -9    0.75    0.59
   5  -4   9   -0.53    0.80
  -5   4  -9   -0.26    0.53
   5  -3   9    1.13    0.91
  -5   3  -9    2.18    0.67
   5  -2   9    1.55    0.96
  -5   2  -9    0.10    0.59
   5  -1   9    0.59    0.85
  -5   1  -9    0.70    0.64
   5   0   9    2.74    1.08
  -5   0  -9    3.05    0.82
   6 -12   9   -2.11    1.34
  -6  12  -9   -0.32    0.73
   6 -11   9   -0.70    1.20
  -6  11  -9   -0.08    0.68
   6 -10   9   -0.35    1.10
  -6  10  -9   -0.31    0.62
  -6  10  -9    0.53    0.70
   6  -9   9    0.17    1.07
  -6   9  -9    0.67    0.58
  -6   9  -9    1.80    0.58
   6  -8   9   -0.74    0.93
  -6   8  -9    0.51    0.55
   6  -7   9   -0.65    0.91
  -6   7  -9   -0.31    0.52
   6  -6   9    1.12    0.96
  -6   6  -9   -0.11    0.53
   6  -5   9   -0.41    0.82
  -6   5  -9    0.78    0.61
   6  -4   9    1.13    0.95
  -6   4  -9    0.89    0.64
   6  -3   9    0.65    1.02
  -6   3  -9    1.84    0.71
   6  -2   9    0.41    0.88
  -6   2  -9    0.39    0.68
   6  -1   9    0.18    0.91
  -6   1  -9    0.96    0.74
   7 -11   9   -1.97    1.16
  -7  11  -9    0.18    0.73
   7 -10   9    0.15    1.13
  -7  10  -9    0.39    0.52
  -7  10  -9   -0.07    0.77
   7  -9   9   -1.98    1.00
  -7   9  -9    0.24    0.51
   7  -8   9   -0.90    0.97
  -7   8  -9    1.03    0.60
   7  -7   9   -0.34    0.94
  -7   7  -9    0.93    0.61
   7  -6   9    0.07    0.94
  -7   6  -9    0.06    0.59
   7  -5   9    2.18    1.02
  -7   5  -9    1.22    0.66
   7  -4   9   -0.91    0.99
  -7   4  -9   -0.24    0.62
   7  -3   9   -0.22    0.84
  -7   3  -9   -0.09    0.61
   7  -2   9    0.60    0.95
  -7   2  -9    1.14    0.73
   8 -10   9   -0.06    1.20
  -8  10  -9    0.83    0.57
   8  -9   9   -0.57    1.00
  -8   9  -9    1.23    0.64
   8  -8   9    0.25    1.06
  -8   8  -9   -0.14    0.58
   8  -7   9   -0.73    0.95
  -8   7  -9    0.04    0.59
   8  -6   9   -0.58    1.00
  -8   6  -9    0.04    0.62
   8  -5   9   -0.73    1.03
  -8   5  -9    0.69    0.67
   8  -4   9   -0.91    0.85
  -8   4  -9    0.80    0.71
 -10  -3  10    0.43    0.67
  10   3 -10   -0.25    0.74
 -10  -2  10    0.97    0.66
  10   2 -10   -0.21    0.77
 -10  -1  10    0.98    0.62
  10   1 -10   -0.79    0.77
 -10   0  10    1.19    0.64
  10   0 -10    0.61    0.85
 -10   1  10   10.70    1.08
  10  -1 -10    8.51    1.11
 -10   2  10    6.15    0.86
  10  -2 -10    6.27    1.10
   9   5 -10   -0.45    1.05
  -9  -4  10    1.98    0.77
  -9  -3  10    1.00    0.64
   9   3 -10   -0.11    0.70
  -9  -2  10    1.33    0.66
   9   2 -10    1.77    0.77
  -9  -1  10    2.10    0.65
   9   1 -10    1.84    0.79
  -9   0  10    1.15    0.60
   9   0 -10   -0.72    0.74
  -9   1  10    2.96    0.62
   9  -1 -10   -0.53    0.75
  -9   2  10    1.32    0.60
   9  -2 -10    0.28    0.82
  -9   3  10    4.46    0.77
   9  -3 -10    4.32    1.07
   8   6 -10   -0.70    1.01
   8   5 -10    1.78    1.02
   8   4 -10   12.02    1.10
  -8  -3  10   10.09    1.03
   8   3 -10    9.73    1.03
  -8  -2  10    4.16    0.73
   8   2 -10    3.32    0.77
  -8  -1  10    2.61    0.64
   8   1 -10    2.09    0.78
  -8   0  10    1.18    0.52
   8   0 -10    0.53    0.73
  -8   1  10    1.49    0.53
   8  -1 -10   -0.49    0.73
  -8   2  10    4.86    0.70
   8  -2 -10    5.57    1.01
   8  -3 -10    8.42    1.19
   8  -4 -10    2.66    1.02
  -7  -7  10    2.12    1.17
   7   7 -10    2.88    1.09
  -7  -6  10    1.75    1.06
   7   6 -10    1.23    0.95
  -7  -5  10    0.24    0.82
   7   5 -10    1.51    0.91
  -7  -4  10   -0.77    0.70
   7   4 -10    1.10    0.84
   7   4 -10   -0.64    0.54
  -7  -3  10   -0.17    0.64
  -7  -3  10    0.21    0.50
   7   3 -10   -0.10    0.59
  -7  -2  10    9.96    0.94
   7   2 -10   11.78    1.02
  -7  -1  10    9.95    0.90
   7   1 -10    8.86    0.99
  -7   0  10    9.83    0.85
   7   0 -10    8.75    1.01
  -7   1  10    0.83    0.43
   7  -1 -10   -0.57    0.71
  -7   2  10    1.61    0.76
   7  -2 -10   -0.53    0.76
   7  -3 -10    0.18    0.83
   7  -4 -10    0.93    0.94
  -6  -8  10    2.17    1.28
   6   8 -10    2.68    1.04
  -6  -7  10    2.93    1.16
   6   7 -10    2.89    0.95
  -6  -6  10    0.56    0.98
   6   6 -10    0.76    0.82
  -6  -5  10   -1.02    0.75
   6   5 -10   -0.86    0.50
   6   5 -10   -0.50    0.71
  -6  -4  10    0.03    0.74
   6   4 -10   -0.45    0.56
   6   4 -10   -0.35    0.67
  -6  -3  10   10.03    1.10
  -6  -3  10   10.56    0.95
   6   3 -10   10.29    0.94
  -6  -2  10   10.70    1.19
  -6  -2  10   11.04    0.89
   6   2 -10   11.10    1.02
  -6  -1  10    9.52    0.77
  -6  -1  10    6.84    0.87
   6   1 -10    9.34    1.04
  -6   0  10    0.76    0.57
  -6   0  10    1.86    0.46
   6   0 -10    1.18    0.71
  -6   1  10    1.16    0.48
  -6   1  10   -0.08    0.57
   6  -1 -10    0.74    0.72
  -6   2  10    1.94    0.71
   6  -2 -10    3.22    0.87
   6  -3 -10    0.46    0.87
   6  -4 -10    3.08    1.03
  -5  -9  10    0.16    1.24
   5   9 -10    0.37    0.86
  -5  -8  10   -0.14    1.10
   5   8 -10    0.19    0.79
  -5  -7  10   12.07    1.54
   5   7 -10   10.61    1.19
  -5  -6  10   10.96    1.41
   5   6 -10   11.79    1.17
  -5  -5  10   10.63    1.26
   5   5 -10   10.77    1.15
   5   5 -10    9.89    0.83
  -5  -4  10    0.46    0.75
   5   4 -10   -0.27    0.51
   5   4 -10   -0.90    0.57
  -5  -3  10    0.58    0.70
   5   3 -10    0.65    0.58
  -5  -2  10    0.98    0.43
  -5  -2  10   -0.20    0.60
   5   2 -10    1.54    0.64
  -5  -1  10   13.30    1.26
  -5  -1  10   15.36    0.85
   5   1 -10   15.73    1.14
  -5   0  10   21.69    0.98
  -5   0  10   20.96    1.36
   5   0 -10   22.08    1.30
  -5   1  10   18.29    1.45
   5  -1 -10   17.83    1.31
  -5   2  10    0.53    0.73
   5  -2 -10    0.74    0.78
  -5   3  10    0.15    0.80
   5  -3 -10    0.07    0.82
  -5   4  10    0.54    0.85
   5  -4 -10   -1.43    0.87
  -4 -10  10    0.59    1.28
   4  10 -10    1.05    0.89
  -4  -9  10    0.78    1.15
   4   9 -10    0.72    0.77
  -4  -8  10    2.56    1.16
   4   8 -10    4.39    0.91
  -4  -7  10    1.55    1.03
   4   7 -10    2.19    0.72
  -4  -6  10    4.83    1.14
   4   6 -10    3.39    0.58
   4   6 -10    3.43    0.76
  -4  -5  10    2.97    0.95
   4   5 -10    0.91    0.59
   4   5 -10    2.14    0.57
  -4  -4  10    5.10    0.95
   4   4 -10    4.64    0.69
   4   4 -10    5.58    0.73
  -4  -3  10    7.29    1.03
   4   3 -10    8.36    0.87
  -4  -2  10    3.79    0.84
  -4  -2  10    4.49    0.54
   4   2 -10    4.41    0.70
  -4  -1  10    1.53    0.72
  -4  -1  10    1.68    0.43
   4   1 -10    1.58    0.65
  -4   0  10    0.41    0.61
   4   0 -10   -0.07    0.62
  -4   1  10    4.29    0.89
   4  -1 -10    5.00    0.90
  -4   2  10    3.15    0.92
   4  -2 -10    2.55    0.86
  -4   3  10    6.02    1.16
   4  -3 -10    5.89    1.04
  -4   4  10    1.08    0.97
   4  -4 -10    1.73    0.99
  -3 -10  10    0.04    1.18
   3  10 -10    1.81    0.85
  -3  -9  10    0.05    1.07
   3   9 -10    0.82    0.71
  -3  -8  10   -0.01    1.12
   3   8 -10    0.55    0.63
  -3  -7  10    0.61    0.91
   3   7 -10   -0.02    0.58
  -3  -6  10   15.83    1.56
   3   6 -10   15.37    1.08
   3   6 -10   14.53    0.85
  -3  -5  10   20.50    1.59
   3   5 -10   20.14    1.06
   3   5 -10   19.17    0.97
  -3  -4  10   24.08    1.66
   3   4 -10   22.76    1.08
   3   4 -10   22.50    1.03
  -3  -3  10   -0.22    0.65
   3   3 -10    0.61    0.55
  -3  -2  10    0.60    0.64
  -3  -2  10    0.42    0.45
   3   2 -10    0.10    0.53
  -3  -1  10   -0.22    0.61
   3   1 -10   -0.35    0.55
  -3   0  10    1.61    0.76
   3   0 -10    2.15    0.69
  -3   1  10    7.80    1.11
   3  -1 -10    7.99    0.96
  -3   2  10    7.56    1.19
   3  -2 -10    9.46    1.07
  -3   3  10    2.68    1.09
   3  -3 -10    3.12    0.93
  -3   4  10    0.38    1.02
   3  -4 -10    0.87    0.92
  -2 -11  10   -1.02    1.18
   2  11 -10   -0.39    0.75
  -2 -10  10    0.79    1.11
   2  10 -10    0.91    0.71
  -2  -9  10    5.19    1.25
   2   9 -10    4.58    0.82
  -2  -8  10    3.88    1.15
   2   8 -10    3.12    0.68
  -2  -7  10    0.31    0.83
   2   7 -10   -0.07    0.51
  -2  -6  10   -0.31    0.82
   2   6 -10    0.09    0.49
   2   6 -10    0.47    0.45
  -2  -5  10    0.39    0.79
   2   5 -10    1.49    0.51
   2   5 -10    0.79    0.47
  -2  -4  10    6.75    1.02
   2   4 -10    7.47    0.68
   2   4 -10    6.91    0.78
  -2  -3  10   11.00    1.22
   2   3 -10   12.26    0.90
  -2  -2  10   20.06    1.54
   2   2 -10   19.41    1.06
  -2  -1  10    0.32    0.68
   2   1 -10    1.26    0.58
  -2   0  10    1.43    0.78
   2   0 -10    1.35    0.61
  -2   1  10    0.09    0.77
   2  -1 -10    1.36    0.67
  -2   2  10    0.57    0.92
   2  -2 -10    0.77    0.72
  -2   3  10    2.11    1.10
   2  -3 -10    2.70    0.96
  -2   4  10    4.22    1.28
   2  -4 -10    3.83    1.00
  -1 -11  10    2.73    1.30
   1  11 -10    2.77    0.83
  -1 -10  10    1.95    1.18
   1  10 -10    0.89    0.67
  -1  -9  10    3.89    1.15
   1   9 -10    2.24    0.70
  -1  -8  10    1.14    0.90
   1   8 -10   -0.41    0.52
  -1  -7  10    0.67    0.81
   1   7 -10    0.00    0.46
   1   7 -10    0.64    0.42
  -1  -6  10    0.19    0.75
   1   6 -10   -0.04    0.42
   1   6 -10    0.36    0.40
  -1  -5  10    3.79    0.90
   1   5 -10    3.93    0.53
   1   5 -10    5.10    0.62
  -1  -4  10    4.62    0.92
   1   4 -10    3.70    0.60
  -1  -3  10    5.01    0.95
   1   3 -10    6.40    0.72
  -1  -2  10    2.79    0.82
   1   2 -10    3.11    0.63
  -1  -1  10    0.90    0.75
   1   1 -10    1.87    0.59
  -1   0  10    1.10    0.78
   1   0 -10    1.18    0.61
  -1   1  10    1.14    0.89
   1  -1 -10    1.76    0.72
  -1   2  10    3.18    1.07
   1  -2 -10    2.67    0.84
  -1   3  10    1.24    1.14
   1  -3 -10    0.52    0.77
   0 -12  10   -0.83    1.24
   0  12 -10   -0.71    0.75
   0 -11  10   -1.09    1.09
   0  11 -10    0.68    0.73
   0 -10  10    0.00    0.99
   0  10 -10    0.09    0.62
   0  -9  10    1.89    1.02
   0   9 -10    2.59    0.68
   0  -8  10    6.51    1.16
   0   8 -10    5.30    0.70
   0  -7  10   11.75    1.36
   0   7 -10   12.33    0.88
   0   7 -10   14.20    0.75
   0  -6  10    0.58    0.79
   0   6 -10   -0.07    0.40
   0   6 -10    0.92    0.41
   0  -5  10    0.26    0.73
   0   5 -10    0.69    0.46
   0  -4  10    6.28    1.02
   0   4 -10    7.20    0.78
   0  -3  10    1.87    0.76
   0   3 -10    1.67    0.57
   0  -2  10    4.58    0.89
   0   2 -10    4.44    0.70
   0  -1  10   15.21    1.43
   0   1 -10   13.97    1.02
   0   0  10    0.58    0.84
   0   0 -10    1.60    0.64
   0   1  10    0.31    0.89
   0  -1 -10    1.95    0.75
   0   2  10   -1.20    0.91
   0  -2 -10    2.19    0.82
   0   3  10   -0.73    1.03
   0  -3 -10    1.79    0.88
   1 -12  10   -2.14    1.33
  -1  12 -10   -0.61    0.70
   1 -11  10   -0.50    1.10
  -1  11 -10    0.52    0.68
   1 -10  10    1.21    1.04
  -1  10 -10    0.12    0.61
   1  -9  10   -0.69    0.94
  -1   9 -10    0.06    0.51
   1  -8  10    0.65    0.87
  -1   8 -10    0.02    0.47
  -1   8 -10    1.59    0.40
   1  -7  10    0.23    0.79
  -1   7 -10    0.16    0.43
  -1   7 -10    0.60    0.40
   1  -6  10    1.98    0.88
  -1   6 -10    1.40    0.47
  -1   6 -10    1.36    0.49
   1  -5  10    2.97    0.85
  -1   5 -10    3.42    0.60
   1  -4  10    1.87    0.79
  -1   4 -10    2.49    0.58
   1  -3  10    1.06    0.75
  -1   3 -10   -0.20    0.47
   1  -2  10   -0.57    0.68
  -1   2 -10    0.05    0.54
   1  -1  10   -0.16    0.70
  -1   1 -10    0.51    0.58
   1   0  10    0.48    0.81
  -1   0 -10    0.07    0.62
   1   1  10    2.65    1.06
  -1  -1 -10    2.94    0.79
   1   2  10    1.28    1.15
  -1  -2 -10    2.65    0.86
   2 -12  10   -0.23    1.44
  -2  12 -10    0.77    0.79
   2 -11  10   -1.72    1.14
  -2  11 -10    0.97    0.73
   2 -10  10    0.69    1.16
  -2  10 -10    0.03    0.59
   2  -9  10    2.32    1.04
  -2   9 -10    2.03    0.60
   2  -8  10    0.71    0.90
  -2   8 -10    0.50    0.50
  -2   8 -10    1.98    0.45
   2  -7  10    2.48    0.92
  -2   7 -10    2.65    0.54
  -2   7 -10    2.41    0.51
   2  -6  10    9.65    1.22
  -2   6 -10   10.24    0.85
   2  -5  10   -0.63    0.69
  -2   5 -10    0.27    0.47
   2  -4  10   -0.64    0.68
  -2   4 -10   -0.06    0.49
   2  -3  10    0.85    0.74
  -2   3 -10    1.06    0.61
   2  -2  10    0.19    0.70
  -2   2 -10    1.14    0.59
   2  -1  10    1.03    0.86
  -2   1 -10    0.98    0.65
   2   0  10    2.47    1.05
  -2   0 -10    2.20    0.74
   2   1  10    1.46    1.04
  -2  -1 -10    1.33    0.77
   2   2  10   -0.34    1.06
  -2  -2 -10    1.36    0.77
   3 -12  10    0.05    1.46
  -3  12 -10   -0.96    0.75
   3 -11  10    1.10    1.36
  -3  11 -10    0.79    0.72
   3 -10  10    1.74    1.18
  -3  10 -10    1.52    0.65
   3  -9  10    0.58    0.98
  -3   9 -10    0.88    0.57
   3  -8  10   -1.08    0.89
  -3   8 -10    0.33    0.48
  -3   8 -10    1.28    0.47
   3  -7  10    1.94    0.95
  -3   7 -10    1.80    0.54
   3  -6  10    0.50    0.85
  -3   6 -10    0.52    0.51
   3  -5  10    0.69    0.75
  -3   5 -10    1.42    0.57
   3  -4  10    4.53    1.08
  -3   4 -10    6.29    0.82
   3  -3  10    1.45    0.89
  -3   3 -10    1.37    0.62
   3  -2  10    0.47    0.86
  -3   2 -10    0.77    0.60
   3  -1  10   -0.11    0.88
  -3   1 -10    2.00    0.72
   3   0  10   -0.86    0.85
  -3   0 -10    1.08    0.74
   3   1  10    1.82    1.12
  -3  -1 -10    0.95    0.78
   4 -12  10   -1.07    1.34
  -4  12 -10   -0.46    0.71
   4 -11  10   -0.58    1.33
  -4  11 -10    0.30    0.69
   4 -10  10    0.46    1.20
  -4  10 -10   -0.33    0.55
   4  -9  10   -1.43    0.99
  -4   9 -10   -0.47    0.49
  -4   9 -10    1.50    0.50
   4  -8  10   -0.03    0.97
  -4   8 -10    0.52    0.48
   4  -7  10   -0.46    0.89
  -4   7 -10    0.37    0.51
   4  -6  10    0.37    0.89
  -4   6 -10    0.35    0.51
   4  -5  10   -0.49    0.86
  -4   5 -10    1.16    0.58
   4  -4  10   -0.64    0.82
  -4   4 -10   -0.38    0.54
   4  -3  10    0.19    0.89
  -4   3 -10    1.00    0.65
   4  -2  10   -0.64    0.95
  -4   2 -10    0.84    0.69
   4  -1  10    0.27    0.85
  -4   1 -10    0.29    0.66
   4   0  10    1.05    1.00
  -4   0 -10    2.30    0.84
   5 -12  10   -2.44    1.43
   5 -11  10   -1.49    1.30
  -5  11 -10   -0.60    0.61
   5 -10  10   -0.86    1.17
  -5  10 -10    0.92    0.65
   5  -9  10    1.33    1.23
  -5   9 -10    3.36    0.62
   5  -8  10    0.63    1.03
  -5   8 -10    1.23    0.56
   5  -7  10   -0.15    1.01
  -5   7 -10    0.17    0.56
   5  -6  10    1.48    1.02
  -5   6 -10    0.67    0.57
   5  -5  10   -1.59    0.84
  -5   5 -10    0.27    0.57
   5  -4  10   -0.39    0.88
  -5   4 -10    0.68    0.64
   5  -3  10    2.33    1.14
  -5   3 -10    2.66    0.79
   5  -2  10   -0.02    1.12
  -5   2 -10    1.32    0.73
   5  -1  10   -0.82    0.88
  -5   1 -10    1.41    0.78
   6 -11  10   -0.68    1.29
   6 -10  10   -0.80    1.22
   6  -9  10   -0.19    1.19
  -6   9 -10    0.82    0.56
   6  -8  10   -0.90    1.11
  -6   8 -10    0.75    0.60
   6  -7  10    0.44    1.04
  -6   7 -10    0.99    0.64
   6  -6  10    0.14    0.99
  -6   6 -10    1.53    0.68
   6  -5  10    0.09    0.96
  -6   5 -10    1.43    0.68
   6  -4  10   -0.29    1.03
  -6   4 -10    0.07    0.62
   6  -3  10   -0.06    1.14
  -6   3 -10    0.39    0.68
   7 -10  10   -1.41    1.23
  -7  10 -10    1.54    0.60
   7  -9  10   -2.36    1.12
  -7   9 -10   -0.08    0.56
   7  -8  10   -0.36    1.11
  -7   8 -10    0.92    0.62
   7  -7  10   -1.72    0.95
  -7   7 -10    0.62    0.66
   7  -6  10   -0.02    1.03
  -7   6 -10    0.00    0.64
   7  -5  10   -0.16    1.06
  -7   5 -10    0.08    0.65
   7  -4  10    1.24    1.14
  -7   4 -10    1.56    0.74
  -9  -4  11    1.72    0.71
  -9  -3  11    1.49    0.69
   9   3 -11    0.46    0.78
  -9  -2  11    3.29    0.76
   9   2 -11    2.43    0.85
  -9  -1  11    2.01    0.65
   9   1 -11    1.03    0.84
  -9   0  11    2.62    0.66
   9   0 -11    1.72    0.86
  -9   1  11    1.86    0.58
   9  -1 -11   -0.94    0.87
   9  -2 -11    2.64    1.03
   8   6 -11    4.39    1.21
   8   5 -11    2.35    1.09
  -8  -4  11    0.54    0.62
   8   4 -11   -0.96    0.66
  -8  -3  11    0.00    0.53
   8   3 -11   -0.69    0.67
  -8  -2  11    1.17    0.58
   8   2 -11   -0.27    0.71
  -8  -1  11    3.23    0.67
   8   1 -11    2.51    0.88
  -8   0  11   10.61    0.97
   8   0 -11    9.10    1.11
   8  -1 -11    6.51    1.07
   8  -2 -11    0.55    0.92
  -7  -7  11   -0.40    1.13
   7   7 -11    0.71    0.99
  -7  -6  11   -1.05    0.90
   7   6 -11    0.57    0.97
  -7  -5  11    4.54    1.07
   7   5 -11    4.45    1.05
  -7  -4  11    4.07    0.96
   7   4 -11    4.37    0.80
  -7  -3  11    5.64    0.77
   7   3 -11    6.01    0.89
  -7  -2  11    1.20    0.54
   7   2 -11    0.33    0.69
  -7  -1  11    0.80    0.49
   7   1 -11   -0.81    0.71
  -7   0  11    0.96    0.48
   7   0 -11   -0.59    0.76
   7  -1 -11    2.90    0.95
   7  -2 -11    4.68    1.06
   7  -3 -11    4.07    1.12
  -6  -8  11   -1.87    1.17
   6   8 -11   -0.31    0.89
  -6  -7  11   -0.44    1.10
   6   7 -11   -1.63    0.81
  -6  -6  11    3.71    1.13
   6   6 -11    4.37    0.99
  -6  -5  11    3.24    1.04
   6   5 -11    4.48    0.77
   6   5 -11    5.11    1.00
  -6  -4  11    4.66    0.98
   6   4 -11    5.03    0.78
  -6  -3  11    1.84    0.80
  -6  -3  11    2.77    0.59
   6   3 -11    2.05    0.72
  -6  -2  11   -0.44    0.59
  -6  -2  11    0.77    0.48
   6   2 -11    0.47    0.70
  -6  -1  11    0.46    0.61
  -6  -1  11    1.23    0.46
   6   1 -11    1.57    0.74
  -6   0  11    1.34    0.72
   6   0 -11    1.38    0.80
  -6   1  11    4.44    0.83
   6  -1 -11    4.43    0.93
   6  -2 -11    0.23    0.86
   6  -3 -11    1.87    1.04
  -5  -9  11    2.72    1.41
   5   9 -11    3.43    1.02
  -5  -8  11    2.63    1.28
   5   8 -11    3.02    0.96
  -5  -7  11   -0.56    1.10
   5   7 -11    0.26    0.76
  -5  -6  11    1.08    1.06
   5   6 -11    0.18    0.74
  -5  -5  11    1.14    0.89
   5   5 -11    0.16    0.68
   5   5 -11    0.61    0.58
  -5  -4  11    3.05    0.94
   5   4 -11    2.99    0.70
   5   4 -11    5.38    0.87
  -5  -3  11   12.59    0.89
  -5  -3  11    9.11    1.17
   5   3 -11   11.30    1.03
  -5  -2  11   16.58    1.43
  -5  -2  11   16.86    0.91
   5   2 -11   16.16    1.18
  -5  -1  11    2.85    0.81
   5   1 -11    3.89    0.83
  -5   0  11   -0.29    0.69
   5   0 -11    0.50    0.77
  -5   1  11   -0.31    0.67
   5  -1 -11    1.17    0.81
  -5   2  11   -0.40    0.79
   5  -2 -11   -0.03    0.83
  -5   3  11    1.71    0.91
   5  -3 -11    2.79    1.06
  -4  -9  11   -0.66    1.22
   4   9 -11   -0.70    0.77
  -4  -8  11   -0.30    1.15
   4   8 -11    1.43    0.79
  -4  -7  11    1.06    1.05
   4   7 -11    0.18    0.72
  -4  -6  11    1.30    1.00
   4   6 -11    1.68    0.58
   4   6 -11    1.86    0.74
  -4  -5  11    1.00    0.89
   4   5 -11    1.16    0.61
   4   5 -11    0.92    0.56
  -4  -4  11    1.57    0.87
   4   4 -11    1.71    0.65
   4   4 -11    2.06    0.65
  -4  -3  11    0.09    0.76
  -4  -3  11    0.58    0.36
   4   3 -11   -0.24    0.59
  -4  -2  11    2.47    0.87
   4   2 -11    2.86    0.74
  -4  -1  11    1.34    0.75
   4   1 -11    0.94    0.70
  -4   0  11    5.40    0.98
   4   0 -11    4.50    0.91
  -4   1  11    0.91    0.77
   4  -1 -11    1.65    0.84
  -4   2  11    1.71    0.95
   4  -2 -11    1.61    0.92
  -4   3  11   -1.08    0.90
   4  -3 -11    0.88    0.94
  -3 -10  11   -0.18    1.31
   3  10 -11   -0.04    0.78
  -3  -9  11   -0.05    1.19
   3   9 -11    2.51    0.88
  -3  -8  11    3.93    1.26
   3   8 -11    5.27    0.88
  -3  -7  11    8.53    1.30
   3   7 -11    9.85    1.01
  -3  -6  11    0.11    0.90
   3   6 -11   -0.16    0.49
   3   6 -11    0.67    0.60
  -3  -5  11    0.24    0.83
   3   5 -11    1.43    0.57
   3   5 -11    0.92    0.56
  -3  -4  11    1.39    0.86
   3   4 -11    1.50    0.61
   3   4 -11    1.91    0.59
  -3  -3  11    0.55    0.79
   3   3 -11    0.80    0.61
  -3  -2  11    4.55    0.99
   3   2 -11    6.18    0.84
  -3  -1  11    6.33    1.04
   3   1 -11    6.44    0.89
  -3   0  11    3.20    0.94
   3   0 -11    2.56    0.77
  -3   1  11    0.65    0.87
   3  -1 -11    0.69    0.75
  -3   2  11    0.56    0.95
   3  -2 -11    0.19    0.85
  -3   3  11    0.39    1.04
   3  -3 -11   -0.48    0.91
  -2 -11  11   -0.36    1.33
   2  11 -11    0.41    0.82
  -2 -10  11   -0.55    1.15
   2  10 -11    0.69    0.74
  -2  -9  11   -0.27    1.06
   2   9 -11   -0.18    0.70
  -2  -8  11    0.57    1.02
   2   8 -11    0.50    0.60
  -2  -7  11    0.23    0.94
   2   7 -11    0.33    0.56
  -2  -6  11    2.07    0.97
   2   6 -11    3.12    0.60
   2   6 -11    2.42    0.62
  -2  -5  11    9.91    1.30
   2   5 -11   11.89    0.91
   2   5 -11    9.36    0.86
  -2  -4  11    0.77    0.79
   2   4 -11    0.95    0.58
  -2  -3  11    0.00    0.74
   2   3 -11    0.51    0.56
  -2  -2  11    3.61    0.95
   2   2 -11    2.83    0.68
  -2  -1  11    0.00    0.75
   2   1 -11    0.11    0.60
  -2   0  11    1.75    0.87
   2   0 -11    1.33    0.72
  -2   1  11    4.51    1.18
   2  -1 -11    4.61    0.92
  -2   2  11    1.63    1.07
   2  -2 -11    2.07    0.91
  -2   3  11    0.35    1.14
   2  -3 -11    1.10    0.94
  -1 -11  11    1.35    1.31
   1  11 -11   -1.21    0.69
  -1 -10  11   -1.15    1.06
   1  10 -11   -0.94    0.64
  -1  -9  11   -0.05    1.00
   1   9 -11   -0.44    0.61
  -1  -8  11    1.12    0.98
   1   8 -11    0.40    0.56
  -1  -7  11    1.76    0.95
   1   7 -11    1.64    0.54
   1   7 -11    2.15    0.52
  -1  -6  11    1.59    0.88
   1   6 -11    2.83    0.55
   1   6 -11    2.96    0.56
  -1  -5  11    1.18    0.86
   1   5 -11    1.39    0.56
  -1  -4  11   -0.02    0.76
   1   4 -11    0.13    0.49
  -1  -3  11   -1.20    0.70
   1   3 -11    0.26    0.52
  -1  -2  11    0.66    0.79
   1   2 -11    0.76    0.57
  -1  -1  11    2.15    0.86
   1   1 -11    2.43    0.70
  -1   0  11    0.35    0.89
   1   0 -11    0.36    0.69
  -1   1  11    1.61    1.05
   1  -1 -11    1.62    0.82
  -1   2  11    0.38    1.06
   1  -2 -11    1.54    0.83
   0 -11  11    0.35    1.22
   0  11 -11    1.44    0.78
   0 -10  11    3.42    1.27
   0  10 -11    3.62    0.81
   0  -9  11   -1.34    0.86
   0   9 -11    0.08    0.57
   0  -8  11    0.05    0.89
   0   8 -11   -0.26    0.49
   0  -7  11    2.09    0.97
   0   7 -11    4.97    0.64
   0   7 -11    5.93    0.67
   0  -6  11   -0.58    0.78
   0   6 -11    0.75    0.47
   0  -5  11    0.84    0.84
   0   5 -11    2.15    0.57
   0  -4  11    9.69    1.26
   0   4 -11   12.92    0.95
   0  -3  11    2.45    0.93
   0   3 -11    3.42    0.68
   0  -2  11    0.29    0.80
   0   2 -11    0.07    0.56
   0  -1  11    0.56    0.84
   0   1 -11    0.61    0.63
   0   0  11    0.49    0.88
   0   0 -11    1.84    0.75
   0   1  11   -0.13    0.95
   0  -1 -11    1.10    0.75
   0   2  11    1.07    1.20
   0  -2 -11    1.88    0.91
   1 -11  11   -0.97    1.16
  -1  11 -11    0.42    0.70
   1 -10  11   -0.32    1.07
  -1  10 -11   -0.75    0.56
   1  -9  11   -0.27    1.01
  -1   9 -11   -0.37    0.53
   1  -8  11    0.29    0.95
  -1   8 -11    0.47    0.50
  -1   8 -11    2.33    0.48
   1  -7  11    0.34    0.87
  -1   7 -11    1.77    0.51
   1  -6  11    1.45    0.85
  -1   6 -11    1.15    0.52
   1  -5  11    1.11    0.82
  -1   5 -11    0.74    0.55
   1  -4  11   -0.63    0.77
  -1   4 -11    0.32    0.56
   1  -3  11   -0.39    0.72
  -1   3 -11    0.14    0.54
   1  -2  11    1.53    0.83
  -1   2 -11    2.07    0.68
   1  -1  11   -0.20    0.88
  -1   1 -11    0.45    0.62
   1   0  11    1.76    1.06
  -1   0 -11    1.16    0.74
   1   1  11    0.18    1.06
  -1  -1 -11    1.67    0.82
   2 -12  11   -1.22    1.48
   2 -11  11   -0.65    1.24
  -2  11 -11   -0.01    0.69
   2 -10  11    0.50    1.23
  -2  10 -11    0.15    0.59
   2  -9  11    3.75    1.20
  -2   9 -11    2.04    0.62
   2  -8  11    0.63    0.96
  -2   8 -11    1.68    0.49
   2  -7  11   -0.45    0.86
  -2   7 -11    0.78    0.49
   2  -6  11    1.14    0.90
  -2   6 -11    1.14    0.56
   2  -5  11   -0.64    0.75
  -2   5 -11    0.72    0.56
   2  -4  11    0.31    0.87
  -2   4 -11    0.15    0.56
   2  -3  11    1.37    0.91
  -2   3 -11    1.48    0.68
   2  -2  11    1.06    0.88
  -2   2 -11    1.85    0.71
   2  -1  11    0.71    0.98
  -2   1 -11   -0.30    0.68
   2   0  11   -0.14    0.98
  -2   0 -11    0.99    0.74
   3 -11  11   -1.31    1.40
  -3  11 -11   -0.16    0.62
   3 -10  11    0.77    1.29
  -3  10 -11    0.42    0.59
   3  -9  11   -0.40    1.10
   3  -8  11   -0.02    1.01
  -3   8 -11    0.67    0.48
   3  -7  11    2.86    1.11
  -3   7 -11    3.56    0.66
   3  -6  11   -0.14    0.90
  -3   6 -11    0.75    0.61
   3  -5  11    1.18    0.98
  -3   5 -11    1.43    0.64
   3  -4  11    1.49    0.94
  -3   4 -11    0.68    0.61
   3  -3  11    0.05    0.85
  -3   3 -11    1.45    0.71
   3  -2  11   -0.80    0.94
  -3   2 -11    1.54    0.75
   3  -1  11   -0.25    1.04
  -3   1 -11    2.16    0.80
   4 -11  11   -1.79    1.38
  -4  11 -11   -0.45    0.99
   4 -10  11   -1.07    1.24
   4  -9  11   -0.05    1.17
  -4   9 -11    1.61    0.55
   4  -8  11    0.92    1.14
  -4   8 -11    1.26    0.57
   4  -7  11    0.79    1.08
  -4   7 -11    1.11    0.58
   4  -6  11    0.08    1.05
  -4   6 -11    0.31    0.61
   4  -5  11   -0.15    0.95
  -4   5 -11    0.63    0.64
   4  -4  11   -0.11    0.99
  -4   4 -11    1.06    0.68
   4  -3  11    0.49    1.08
  -4   3 -11    1.06    0.74
   4  -2  11    0.24    1.13
  -4   2 -11    0.96    0.75
   5 -11  11   -2.12    1.31
   5 -10  11   -0.33    1.32
   5  -9  11   -0.36    1.21
  -5   9 -11    1.62    0.62
   5  -8  11   -0.25    1.18
  -5   8 -11    1.21    0.63
   5  -7  11   -0.41    1.13
  -5   7 -11    0.79    0.61
   5  -6  11   -0.43    1.07
  -5   6 -11    2.13    0.75
   5  -5  11   -0.04    1.10
  -5   5 -11    1.42    0.73
   5  -4  11    0.49    1.14
  -5   4 -11    0.28    0.68
   5  -3  11   -0.02    1.18
  -5   3 -11    1.41    0.79
   6 -10  11   -0.79    1.28
   6  -9  11   -0.33    1.31
  -6   9 -11    2.36    0.67
   6  -8  11    0.13    1.17
  -6   8 -11    1.20    0.62
   6  -7  11   -0.81    1.17
  -6   7 -11    0.41    0.66
   6  -6  11   -0.42    1.16
  -6   6 -11    0.63    0.71
   6  -5  11   -0.47    1.16
  -6   5 -11    0.65    0.71
  -8  -4  12    2.00    0.68
   8   4 -12    0.48    0.75
  -8  -3  12    5.84    0.86
   8   3 -12    4.51    0.91
  -8  -2  12    4.03    0.71
   8   2 -12    3.69    0.94
   8   1 -12    1.04    0.86
   8   0 -12   -0.36    0.87
  -7  -6  12    0.89    1.10
   7   6 -12    1.78    1.05
  -7  -5  12   -0.04    1.10
  -7  -4  12    0.15    0.53
   7   4 -12   -1.30    0.68
  -7  -3  12    0.54    0.53
   7   3 -12    0.07    0.74
  -7  -2  12    1.26    0.61
   7   2 -12    0.37    0.79
   7   1 -12    2.34    0.91
   7   0 -12    2.93    0.98
   7  -1 -12    2.41    1.01
  -6  -7  12   -1.30    1.15
   6   7 -12    0.81    0.92
  -6  -6  12    0.60    1.07
   6   6 -12    0.20    0.89
  -6  -5  12    0.53    0.94
   6   5 -12    0.58    0.86
   6   5 -12   -1.03    0.58
  -6  -4  12    0.26    0.51
  -6  -4  12   -1.70    0.77
   6   4 -12   -0.62    0.66
  -6  -3  12    0.62    0.48
  -6  -3  12    0.18    0.82
   6   3 -12   -0.28    0.72
  -6  -2  12    2.90    0.88
   6   2 -12    2.39    0.88
  -6  -1  12    1.35    0.75
   6   1 -12    0.54    0.83
  -6   0  12    1.71    0.82
   6   0 -12    1.96    0.91
   6  -1 -12   -0.72    0.87
   6  -2 -12    0.17    0.94
  -5  -8  12   -0.71    1.18
   5   8 -12    0.93    0.89
  -5  -7  12    0.69    1.18
   5   7 -12   -0.74    0.79
  -5  -6  12    1.56    1.10
   5   6 -12    1.56    0.85
  -5  -5  12    6.76    1.24
   5   5 -12    6.14    0.97
   5   5 -12    6.62    0.87
  -5  -4  12    2.05    0.95
  -5  -4  12    3.38    0.61
   5   4 -12    2.14    0.75
  -5  -3  12   -0.67    0.79
   5   3 -12    0.96    0.76
  -5  -2  12    0.52    0.82
   5   2 -12    1.11    0.80
  -5  -1  12   -0.53    0.72
   5   1 -12    0.94    0.83
  -5   0  12    1.52    0.85
   5   0 -12    2.25    0.94
  -5   1  12    2.26    0.97
   5  -1 -12    2.84    1.03
  -5   2  12    2.17    0.96
   5  -2 -12    0.57    1.02
  -4  -9  12    0.03    1.33
   4   9 -12    2.52    0.95
  -4  -8  12   -0.65    1.11
   4   8 -12    1.30    0.83
  -4  -7  12    0.62    1.07
   4   7 -12   -0.03    0.73
  -4  -6  12   -0.05    0.95
   4   6 -12   -0.50    0.64
   4   6 -12   -0.55    0.55
  -4  -5  12   -0.27    0.95
   4   5 -12    0.54    0.64
   4   5 -12   -0.49    0.62
  -4  -4  12   -0.71    0.85
   4   4 -12    0.09    0.65
  -4  -3  12    0.82    0.89
   4   3 -12    2.31    0.75
  -4  -2  12    0.48    0.85
   4   2 -12    0.35    0.73
  -4  -1  12    0.17    0.78
   4   1 -12    1.32    0.84
  -4   0  12    0.14    0.80
   4   0 -12   -0.48    0.80
  -4   1  12    0.81    0.98
   4  -1 -12   -0.60    0.86
  -4   2  12    0.41    0.95
   4  -2 -12   -0.62    0.91
  -3 -10  12    3.18    1.55
   3  10 -12    4.01    1.02
  -3  -9  12   -0.32    1.27
   3   9 -12    0.98    0.81
  -3  -8  12    1.78    1.25
   3   8 -12    0.63    0.73
  -3  -7  12    0.59    1.09
   3   7 -12    1.93    0.75
  -3  -6  12   -0.95    0.92
   3   6 -12    0.22    0.55
   3   6 -12   -0.55    0.56
  -3  -5  12    2.59    1.06
   3   5 -12    1.32    0.66
  -3  -4  12    2.16    1.02
   3   4 -12    4.22    0.80
  -3  -3  12    3.09    0.99
   3   3 -12    3.63    0.77
  -3  -2  12   -0.69    0.75
   3   2 -12    0.02    0.68
  -3  -1  12   -0.26    0.81
   3   1 -12    0.28    0.71
  -3   0  12    0.82    0.95
   3   0 -12    0.53    0.76
  -3   1  12    0.39    1.00
   3  -1 -12    0.29    0.85
  -2 -10  12   -0.68    1.28
   2  10 -12    0.00    0.75
  -2  -9  12   -0.45    1.12
   2   9 -12    0.30    0.75
  -2  -8  12    2.59    1.21
   2   8 -12    3.00    0.77
  -2  -7  12   -0.17    1.00
   2   7 -12    1.51    0.63
  -2  -6  12    0.34    0.96
   2   6 -12    0.92    0.58
  -2  -5  12    0.25    0.97
   2   5 -12    1.34    0.62
  -2  -4  12   -0.37    0.89
   2   4 -12    0.95    0.63
  -2  -3  12    0.56    0.91
   2   3 -12    1.06    0.67
  -2  -2  12    1.96    0.95
   2   2 -12    2.27    0.74
  -2  -1  12    3.25    1.07
   2   1 -12    3.47    0.86
  -2   0  12    0.66    0.99
   2   0 -12    1.71    0.83
  -2   1  12   -0.63    1.02
   2  -1 -12    1.44    0.90
  -1 -10  12   -0.80    1.18
   1  10 -12    0.51    0.71
  -1  -9  12    0.23    1.18
   1   9 -12   -0.21    0.63
  -1  -8  12    0.45    1.10
   1   8 -12    0.70    0.59
  -1  -7  12   -0.47    0.93
   1   7 -12    0.78    0.53
  -1  -6  12    0.46    0.95
   1   6 -12    0.74    0.53
  -1  -5  12    0.33    0.90
   1   5 -12    0.80    0.58
  -1  -4  12    0.39    0.83
   1   4 -12    1.44    0.64
  -1  -3  12    0.33    0.92
   1   3 -12    0.81    0.62
  -1  -2  12    1.36    0.95
   1   2 -12    1.53    0.71
  -1  -1  12   -1.16    0.82
   1   1 -12    1.66    0.79
  -1   0  12   -0.33    0.95
   1   0 -12    1.33    0.79
  -1   1  12    0.94    1.11
   1  -1 -12    1.77    0.87
   0 -11  12   -1.05    1.27
   0  11 -12    0.96    0.77
   0 -10  12    0.30    1.23
   0  10 -12    1.06    0.72
   0  -9  12   -0.52    0.99
   0   9 -12    0.39    0.61
   0  -8  12   -0.11    1.01
   0  -7  12    4.21    1.16
   0   7 -12    4.10    0.64
   0  -6  12    3.22    1.06
   0   6 -12    4.41    0.69
   0  -5  12    0.33    0.88
   0   5 -12    1.52    0.61
   0  -4  12    0.05    0.89
   0   4 -12    1.03    0.63
   0  -3  12    0.76    0.90
   0   3 -12    2.09    0.71
   0  -2  12   -0.45    0.83
   0   2 -12    0.19    0.69
   0  -1  12    1.25    1.03
   0   1 -12    1.99    0.77
   0   0  12    2.17    1.18
   0   0 -12    2.72    0.86
   1 -11  12   -0.52    1.30
  -1  11 -12   -0.91    0.64
   1 -10  12    0.17    1.18
  -1  10 -12    0.67    0.71
   1  -9  12    0.53    1.12
   1  -8  12   -0.65    0.94
   1  -7  12    0.62    0.98
  -1   7 -12    1.70    0.57
   1  -6  12    0.55    0.92
  -1   6 -12    1.19    0.58
   1  -5  12    0.19    0.86
  -1   5 -12    2.10    0.65
   1  -4  12   -0.44    0.89
  -1   4 -12    1.64    0.65
   1  -3  12    1.43    1.01
  -1   3 -12    1.35    0.71
   1  -2  12   -0.16    0.90
  -1   2 -12   -0.56    0.64
   1  -1  12   -0.59    0.97
  -1   1 -12    1.37    0.77
   1   0  12   -1.30    1.00
  -1   0 -12    1.66    0.83
   2 -11  12    0.06    1.41
   2 -10  12    0.11    1.28
   2  -9  12   -0.44    1.10
   2  -8  12    0.94    1.12
  -2   8 -12    1.31    0.54
   2  -7  12    0.78    1.05
  -2   7 -12    1.18    0.60
   2  -6  12    0.35    0.97
  -2   6 -12    1.73    0.64
   2  -5  12    2.97    1.09
  -2   5 -12    2.00    0.70
   2  -4  12    0.07    0.92
  -2   4 -12    1.13    0.69
   2  -3  12   -0.29    0.89
  -2   3 -12    0.10    0.68
   2  -2  12    0.48    1.03
  -2   2 -12    1.24    0.78
   2  -1  12    0.00    1.14
  -2   1 -12    1.47    0.83
   3 -11  12   -1.41    1.38
   3 -10  12   -0.06    1.32
   3  -9  12    0.40    1.32
   3  -8  12    0.62    1.15
  -3   8 -12    1.79    0.58
   3  -7  12   -0.10    1.08
  -3   7 -12    1.61    0.63
   3  -6  12    0.08    1.09
  -3   6 -12    1.12    0.64
   3  -5  12   -0.81    0.95
  -3   5 -12    0.80    0.68
   3  -4  12   -0.92    1.02
  -3   4 -12    1.00    0.71
   3  -3  12    0.52    1.06
  -3   3 -12    1.88    0.78
   3  -2  12    1.01    1.16
  -3   2 -12    3.47    0.91
   4 -10  12   -0.76    1.40
   4  -9  12    0.02    1.29
  -4   9 -12    2.01    0.61
   4  -8  12   -1.44    1.19
  -4   8 -12    0.95    0.62
   4  -7  12   -1.18    1.13
  -4   7 -12    1.04    0.62
   4  -6  12   -0.03    1.24
  -4   6 -12    1.43    0.73
   4  -5  12   -0.22    1.19
  -4   5 -12    0.85    0.69
   4  -4  12    0.59    1.23
  -4   4 -12    1.23    0.78
   5  -9  12   -0.20    1.40
  -5   9 -12    2.60    0.66
   5  -8  12    0.57    1.31
  -5   8 -12    2.31    0.69
   5  -7  12    1.23    1.35
  -5   7 -12    1.92    0.74
   5  -6  12    0.56    1.27
  -5   6 -12    0.68    0.70
   7   4 -13   -1.01    0.70
   7   3 -13    0.76    0.85
   7   2 -13    0.90    0.89
   7   1 -13   -0.80    0.86
  -6  -6  13   -1.72    1.04
   6   6 -13   -1.71    0.83
  -6  -5  13   -0.50    1.01
  -6  -5  13    1.16    0.65
   6   5 -13   -0.71    0.69
  -6  -4  13   -0.17    0.94
   6   4 -13    1.65    0.80
  -6  -3  13    1.75    0.98
   6   3 -13    1.06    0.85
  -6  -2  13   -1.00    0.73
   6   2 -13   -0.40    0.81
  -6  -1  13   -0.15    1.07
   6   1 -13   -1.72    0.87
   6   0 -13   -1.34    0.89
  -5  -7  13   -0.29    1.20
   5   7 -13    1.38    0.92
  -5  -6  13   -0.91    1.06
  -5  -5  13   -0.71    1.02
   5   5 -13    0.00    0.73
  -5  -4  13    0.35    1.00
   5   4 -13    0.63    0.75
  -5  -3  13   -1.08    0.89
   5   3 -13    0.85    0.84
  -5  -2  13    1.86    0.94
   5   2 -13    1.70    0.91
  -5  -1  13    0.98    0.90
   5   1 -13    2.20    0.97
  -5   0  13   -0.59    0.84
   5   0 -13    0.83    0.95
  -4  -8  13    0.42    1.28
   4   8 -13    1.60    0.90
  -4  -7  13   -0.21    1.14
   4   7 -13    0.58    0.94
  -4  -6  13   -1.20    1.07
   4   6 -13   -0.38    0.63
  -4  -5  13    0.73    1.05
   4   5 -13    0.06    0.70
  -4  -4  13   -0.33    0.98
   4   4 -13    1.56    0.76
  -4  -3  13   -1.04    0.90
   4   3 -13    0.25    0.74
  -4  -2  13    0.46    0.87
   4   2 -13    0.52    0.80
  -4  -1  13    0.80    1.03
   4   1 -13    0.30    0.86
  -4   0  13    1.10    0.97
   4   0 -13    0.01    0.93
  -3  -9  13   -1.35    1.30
   3   9 -13    1.96    0.90
  -3  -8  13   -0.39    1.21
   3   8 -13    0.24    0.91
  -3  -7  13    1.65    1.18
  -3  -6  13    2.75    1.21
   3   6 -13    2.21    0.71
  -3  -5  13   -1.69    0.97
   3   5 -13    0.86    0.72
  -3  -4  13   -0.50    0.95
   3   4 -13    0.04    0.71
  -3  -3  13    0.19    1.01
   3   3 -13    1.49    0.77
  -3  -2  13   -0.47    0.90
   3   2 -13    0.83    0.80
  -3  -1  13   -0.88    0.89
   3   1 -13    1.93    0.90
  -3   0  13    1.31    1.05
   3   0 -13    1.65    0.93
  -2  -9  13    0.31    1.29
   2   9 -13    0.01    1.07
  -2  -8  13   -1.01    1.11
  -2  -7  13   -0.18    1.08
  -2  -6  13   -0.08    1.10
   2   6 -13    0.23    0.64
  -2  -5  13    1.28    1.10
   2   5 -13    1.98    0.75
  -2  -4  13    2.10    1.09
   2   4 -13    3.67    0.81
  -2  -3  13    0.02    0.93
   2   3 -13    1.35    0.79
  -2  -2  13   -0.50    0.88
   2   2 -13    0.78    0.79
  -2  -1  13    0.65    1.03
   2   1 -13    1.04    0.86
  -1 -10  13   -0.38    1.31
  -1  -9  13    0.38    1.27
  -1  -8  13   -0.39    1.10
  -1  -7  13   -0.06    1.11
   1   7 -13    1.84    0.64
  -1  -6  13    1.68    1.17
   1   6 -13    2.06    0.65
  -1  -5  13   -0.34    1.02
   1   5 -13    1.40    0.68
  -1  -4  13   -0.91    0.97
   1   4 -13    0.71    0.73
  -1  -3  13   -0.25    0.94
   1   3 -13    1.01    0.76
  -1  -2  13   -0.19    0.96
   1   2 -13    0.72    0.78
  -1  -1  13    0.42    1.09
   1   1 -13    0.90    0.86
   0 -10  13    0.63    1.37
   0  -9  13    1.88    1.26
   0  -8  13    0.88    1.21
   0  -7  13   -0.45    1.03
   0   7 -13    1.60    0.64
   0  -6  13    0.53    1.04
   0   6 -13    2.43    0.68
   0  -5  13   -0.99    0.91
   0   5 -13    1.23    0.69
   0  -4  13    1.12    1.04
   0   4 -13    1.56    0.70
   0  -3  13    0.60    1.06
   0   3 -13    3.32    0.84
   0  -2  13    0.02    1.05
   0   2 -13    1.70    0.77
   1 -10  13   -2.12    1.23
   1  -9  13    0.08    1.24
   1  -8  13   -1.02    1.10
  -1   8 -13    2.59    0.64
   1  -7  13   -0.18    1.08
  -1   7 -13    2.84    0.67
   1  -6  13    0.31    1.06
  -1   6 -13    2.15    0.69
   1  -5  13   -0.71    1.03
  -1   5 -13    1.34    0.69
   1  -4  13   -1.22    0.99
  -1   4 -13    0.14    0.65
   1  -3  13    0.34    1.00
  -1   3 -13    1.35    0.76
   1  -2  13    0.53    1.08
  -1   2 -13    0.90    0.81
   2 -10  13   -1.49    1.32
   2  -9  13   -0.99    1.25
   2  -8  13    0.87    1.27
  -2   8 -13    3.22    0.67
   2  -7  13   -1.08    1.13
  -2   7 -13    1.74    0.67
   2  -6  13    1.08    1.20
  -2   6 -13    1.58    0.71
   2  -5  13    0.84    1.07
  -2   5 -13    1.01    0.73
   2  -4  13   -1.25    1.09
  -2   4 -13    1.66    0.80
   2  -3  13    0.14    1.12
  -2   3 -13    1.10    0.81
   3  -9  13   -0.38    1.34
   3  -8  13   -0.75    1.24
  -3   8 -13    2.36    0.68
   3  -7  13   -1.76    1.19
  -3   7 -13    1.86    0.70
   3  -6  13    0.97    1.33
  -3   6 -13    1.92    0.75
   3  -5  13   -1.30    1.15
  -3   5 -13    2.75    0.80
  -5  -5  14   -0.41    1.12
   5   5 -14    0.31    0.83
  -5  -4  14    2.07    1.12
   5   4 -14    1.62    0.89
  -5  -3  14    0.38    0.98
   5   3 -14    0.17    0.88
  -4  -6  14   -0.68    1.12
   4   6 -14    0.26    0.91
  -4  -5  14    0.71    1.19
   4   5 -14   -0.09    0.78
  -4  -4  14   -0.12    1.13
   4   4 -14    0.04    0.82
  -4  -3  14    0.05    1.00
   4   3 -14    0.96    0.91
  -3  -7  14   -0.34    1.23
  -3  -6  14   -0.18    1.21
   3   6 -14    0.17    0.73
  -3  -5  14    0.32    1.17
   3   5 -14    0.92    0.82
  -3  -4  14   -1.57    1.06
   3   4 -14    1.02    0.83
  -3  -3  14   -0.01    1.02
   3   3 -14    1.86    0.94
  -2  -7  14   -0.88    1.21
  -2  -6  14   -0.49    1.18
   2   6 -14    1.78    0.80
  -2  -5  14   -0.46    1.04
   2   5 -14    2.52    0.83
  -2  -4  14   -0.53    1.10
   2   4 -14    0.66    0.83
  -2  -3  14    0.61    1.11
   2   3 -14    0.97    0.88
  -1  -8  14   -0.07    1.29
  -1  -7  14   -0.85    1.21
   1   7 -14    1.67    0.73
  -1  -6  14   -0.94    1.13
   1   6 -14    1.25    0.74
  -1  -5  14   -0.29    1.10
   1   5 -14    0.99    0.74
  -1  -4  14   -0.81    1.03
   1   4 -14    1.62    0.80
  -1  -3  14    1.13    1.14
   1   3 -14    1.38    0.86
   0  -8  14   -0.41    1.24
   0  -7  14   -1.39    1.10
   0   7 -14    1.49    0.71
   0  -6  14   -0.06    1.14
   0   6 -14    2.54    0.78
   0  -5  14    0.85    1.17
   0   5 -14    3.02    0.83
   0  -4  14   -0.30    1.09
   0   4 -14    2.60    0.84
   1  -7  14   -0.86    1.20
  -1   7 -14    2.13    0.69
   1  -6  14   -0.94    1.11
  -1   6 -14    2.12    0.75
   0   0   0    0.00    0.00
;
_shelx_hkl_checksum              70466
loop_
_space_group_symop_operation_xyz
'x, y, z'
'-x, -y, -z'
loop_
_atom_site_label
_atom_site_type_symbol
_atom_site_fract_x
_atom_site_fract_y
_atom_site_fract_z
_atom_site_U_iso_or_equiv
_atom_site_adp_type
_atom_site_occupancy
_atom_site_site_symmetry_order
_atom_site_calc_flag
_atom_site_refinement_flags_posn
_atom_site_refinement_flags_adp
_atom_site_refinement_flags_occupancy
Pt1 Pt 0.0000 0.0000 0.0000 0.04892(12) Uani 1 2 d S . P
Cl1 Cl 0.0612(2) -0.0125(2) 0.2205(2) 0.0639(5) Uani 1 1 d . . .
C3 C 0.7099(11) 0.3380(12) -0.0416(10) 0.086(3) Uani 1 1 d . . .
H3A H 0.6353 0.3489 -0.1114 0.103 Uiso 1 1 calc R U .
H3B H 0.7790 0.2938 -0.0931 0.103 Uiso 1 1 calc R U .
C1 C 0.3673(8) 0.1966(8) 0.0614(7) 0.0501(16) Uani 1 1 d . . .
N1 N 0.2338(7) 0.1203(7) 0.0367(6) 0.0562(15) Uani 1 1 d . . .
C6 C 0.6203(10) 0.4566(11) 0.2270(9) 0.085(3) Uani 1 1 d . . .
H6A H 0.6943 0.4452 0.2969 0.103 Uiso 1 1 calc R U .
H6B H 0.5493 0.4985 0.2772 0.103 Uiso 1 1 calc R U .
N2 N 0.5219(7) 0.2866(7) 0.0901(6) 0.0637(17) Uani 1 1 d . . .
C2 C 0.6135(10) 0.2110(10) 0.0001(10) 0.076(2) Uani 1 1 d . . .
H2A H 0.5387 0.1020 -0.0913 0.091 Uiso 1 1 calc R U .
H2B H 0.6869 0.1872 0.0586 0.091 Uiso 1 1 calc R U .
C5 C 0.7157(10) 0.5837(10) 0.1876(10) 0.079(2) Uani 1 1 d . . .
H5A H 0.6416 0.6070 0.1293 0.094 Uiso 1 1 calc R U .
H5B H 0.7881 0.6926 0.2801 0.094 Uiso 1 1 calc R U .
C4 C 0.8146(10) 0.5147(11) 0.0966(11) 0.081(2) Uani 1 1 d . . .
H4A H 0.8986 0.5065 0.1600 0.097 Uiso 1 1 calc R U .
H4B H 0.8685 0.5955 0.0650 0.097 Uiso 1 1 calc R U .
I1S I 0.45066(6) 0.16116(6) 0.42082(5) 0.05660(14) Uani 1 1 d . . .
I3S I 0.81669(7) 0.53718(6) 0.66636(7) 0.07377(17) Uani 1 1 d . . .
I2S I 0.83183(6) 0.14395(7) 0.41321(6) 0.06621(16) Uani 1 1 d . . .
C1S C 0.7014(8) 0.2585(8) 0.5478(7) 0.0489(15) Uani 1 1 d . . .
H1SA H 0.7032 0.2240 0.6256 0.059 Uiso 1 1 calc R U .
loop_
_atom_site_aniso_label
_atom_site_aniso_U_11
_atom_site_aniso_U_22
_atom_site_aniso_U_33
_atom_site_aniso_U_23
_atom_site_aniso_U_13
_atom_site_aniso_U_12
Pt1 0.03812(19) 0.03063(18) 0.0614(2) 0.01026(15) 0.02497(17) 0.00918(14)
Cl1 0.0480(9) 0.0628(11) 0.0704(12) 0.0275(9) 0.0272(8) 0.0164(8)
C3 0.075(6) 0.096(7) 0.089(6) 0.042(5) 0.053(5) 0.032(5)
C1 0.054(4) 0.035(3) 0.049(4) 0.013(3) 0.026(3) 0.012(3)
N1 0.044(3) 0.038(3) 0.069(4) 0.015(3) 0.029(3) 0.009(3)
C6 0.055(5) 0.067(5) 0.070(5) 0.005(4) 0.026(4) -0.012(4)
N2 0.044(3) 0.049(3) 0.066(4) 0.009(3) 0.032(3) 0.002(3)
C2 0.064(5) 0.056(5) 0.097(6) 0.022(4) 0.053(5) 0.023(4)
C5 0.067(5) 0.048(4) 0.086(6) 0.015(4) 0.019(4) 0.013(4)
C4 0.053(5) 0.067(5) 0.120(7) 0.049(5) 0.044(5) 0.013(4)
I1S 0.0545(3) 0.0469(3) 0.0656(3) 0.0257(2) 0.0266(2) 0.0189(2)
I3S 0.0646(3) 0.0430(3) 0.0911(4) 0.0217(3) 0.0217(3) 0.0157(2)
I2S 0.0656(3) 0.0628(3) 0.0771(3) 0.0327(3) 0.0397(3) 0.0311(3)
C1S 0.049(4) 0.041(3) 0.054(4) 0.022(3) 0.022(3) 0.015(3)
loop_
_atom_type_symbol
_atom_type_description
_atom_type_scat_dispersion_real
_atom_type_scat_dispersion_imag
_atom_type_scat_source
C C 0.0033 0.0016 'International Tables Vol C Tables 4.2.6.8 and 6.1.1.4'
H H 0.0000 0.0000 'International Tables Vol C Tables 4.2.6.8 and 6.1.1.4'
N N 0.0061 0.0033 'International Tables Vol C Tables 4.2.6.8 and 6.1.1.4'
Cl Cl 0.1484 0.1585 'International Tables Vol C Tables 4.2.6.8 and 6.1.1.4'
I I -0.4742 1.8119 'International Tables Vol C Tables 4.2.6.8 and 6.1.1.4'
Pt Pt -1.7033 8.3905 'International Tables Vol C Tables 4.2.6.8 and 6.1.1.4'
loop_
_geom_angle_atom_site_label_1
_geom_angle_atom_site_label_2
_geom_angle_atom_site_label_3
_geom_angle
_geom_angle_site_symmetry_1
_geom_angle_site_symmetry_3
N1 Pt1 N1 180.0 2 .
N1 Pt1 Cl1 89.30(18) 2 .
N1 Pt1 Cl1 90.70(18) . .
N1 Pt1 Cl1 90.70(18) 2 2
N1 Pt1 Cl1 89.30(18) . 2
Cl1 Pt1 Cl1 180.0 . 2
C2 C3 C4 111.5(7) . .
C2 C3 H3A 109.3 . .
C4 C3 H3A 109.3 . .
C2 C3 H3B 109.3 . .
C4 C3 H3B 109.3 . .
H3A C3 H3B 108.0 . .
N1 C1 N2 179.4(8) . .
C1 N1 Pt1 176.7(6) . .
N2 C6 C5 110.3(7) . .
N2 C6 H6A 109.6 . .
C5 C6 H6A 109.6 . .
N2 C6 H6B 109.6 . .
C5 C6 H6B 109.6 . .
H6A C6 H6B 108.1 . .
C1 N2 C2 121.6(6) . .
C1 N2 C6 122.4(5) . .
C2 N2 C6 115.3(6) . .
N2 C2 C3 108.8(6) . .
N2 C2 H2A 109.9 . .
C3 C2 H2A 109.9 . .
N2 C2 H2B 109.9 . .
C3 C2 H2B 109.9 . .
H2A C2 H2B 108.3 . .
C4 C5 C6 110.9(7) . .
C4 C5 H5A 109.5 . .
C6 C5 H5A 109.5 . .
C4 C5 H5B 109.5 . .
C6 C5 H5B 109.5 . .
H5A C5 H5B 108.1 . .
C5 C4 C3 111.7(6) . .
C5 C4 H4A 109.3 . .
C3 C4 H4A 109.3 . .
C5 C4 H4B 109.3 . .
C3 C4 H4B 109.3 . .
H4A C4 H4B 107.9 . .
I1S C1S I2S 112.8(3) . .
I1S C1S I3S 111.1(3) . .
I2S C1S I3S 112.8(3) . .
I1S C1S H1SA 106.5 . .
I2S C1S H1SA 106.5 . .
I3S C1S H1SA 106.5 . .
loop_
_geom_bond_atom_site_label_1
_geom_bond_atom_site_label_2
_geom_bond_distance
_geom_bond_site_symmetry_2
Pt1 N1 1.964(5) 2
Pt1 N1 1.964(5) .
Pt1 Cl1 2.311(2) .
Pt1 Cl1 2.311(2) 2
C3 C2 1.503(11) .
C3 C4 1.503(12) .
C3 H3A 0.9700 .
C3 H3B 0.9700 .
C1 N1 1.125(8) .
C1 N2 1.306(8) .
C6 N2 1.460(9) .
C6 C5 1.483(11) .
C6 H6A 0.9700 .
C6 H6B 0.9700 .
N2 C2 1.460(8) .
C2 H2A 0.9700 .
C2 H2B 0.9700 .
C5 C4 1.499(11) .
C5 H5A 0.9700 .
C5 H5B 0.9700 .
C4 H4A 0.9700 .
C4 H4B 0.9700 .
I1S C1S 2.129(6) .
I3S C1S 2.136(6) .
I2S C1S 2.141(6) .
C1S H1SA 0.9800 .
loop_
_geom_torsion_atom_site_label_1
_geom_torsion_atom_site_label_2
_geom_torsion_atom_site_label_3
_geom_torsion_atom_site_label_4
_geom_torsion
C5 C6 N2 C1 -132.7(8)
C5 C6 N2 C2 57.1(11)
C1 N2 C2 C3 133.3(8)
C6 N2 C2 C3 -56.4(10)
C4 C3 C2 N2 53.7(10)
N2 C6 C5 C4 -53.8(10)
C6 C5 C4 C3 54.2(11)
C2 C3 C4 C5 -54.6(11)
