#------------------------------------------------------------------------------
#$Date: 2016-05-06 03:11:25 +0300 (Fri, 06 May 2016) $
#$Revision: 182597 $
#$URL: svn://www.crystallography.net/cod/cif/7/11/88/7118892.cif $
#------------------------------------------------------------------------------
#
# This file is available in the Crystallography Open Database (COD),
# http://www.crystallography.net/
#
# All data on this site have been placed in the public domain by the
# contributors.
#
data_7118892
loop_
_publ_author_name
'Nandi, Raj Kumar'
'Ratsch, Friederike'
'Beaud, Rodolphe'
'Guillot, R\'egis'
'Kouklovsky, Cyrille'
'Vincent, Guillaume'
_publ_section_title
;
 Intermolecular dearomative C2-arylation of N-Ac indoles activated by
 FeCl3.
;
_journal_issue                   30
_journal_name_full
'Chemical communications (Cambridge, England)'
_journal_page_first              5328
_journal_page_last               5331
_journal_paper_doi               10.1039/c6cc01654e
_journal_volume                  52
_journal_year                    2016
_chemical_formula_moiety         'C18 H16 Br N O'
_chemical_formula_sum            'C18 H16 Br N O'
_chemical_formula_weight         342.23
_space_group_crystal_system      triclinic
_space_group_IT_number           2
_space_group_name_Hall           '-P 1'
_space_group_name_H-M_alt        'P -1'
_symmetry_cell_setting           triclinic
_symmetry_Int_Tables_number      2
_symmetry_space_group_name_Hall  '-P 1'
_symmetry_space_group_name_H-M   'P -1'
_atom_sites_solution_hydrogens   geom
_audit_creation_method           SHELXL-2013
_audit_update_record
;
2016-01-27 deposited with the CCDC.
2016-03-11 downloaded from the CCDC.
;
_cell_angle_alpha                68.1470(10)
_cell_angle_beta                 75.128(2)
_cell_angle_gamma                69.3120(10)
_cell_formula_units_Z            2
_cell_length_a                   7.9573(3)
_cell_length_b                   9.6303(3)
_cell_length_c                   10.5963(3)
_cell_measurement_reflns_used    6669
_cell_measurement_temperature    100(1)
_cell_measurement_theta_max      30.63
_cell_measurement_theta_min      2.63
_cell_volume                     697.70(4)
_computing_cell_refinement       'Bruker SAINT'
_computing_data_collection       'Bruker APEX2'
_computing_data_reduction        'Bruker SAINT'
_computing_structure_refinement  'SHELXL-2013 (Sheldrick, 2013)'
_computing_structure_solution    'SHELXS-97 (Sheldrick, 2008)'
_diffrn_ambient_temperature      100(1)
_diffrn_measured_fraction_theta_full 0.998
_diffrn_measured_fraction_theta_max 0.973
_diffrn_measurement_device_type  'Bruker APEX-II CCD'
_diffrn_measurement_method       '\f and \w scans'
_diffrn_radiation_monochromator  graphite
_diffrn_radiation_probe          x-ray
_diffrn_radiation_source         'sealed tube'
_diffrn_radiation_type           MoK\a
_diffrn_radiation_wavelength     0.71073
_diffrn_reflns_av_R_equivalents  0.0362
_diffrn_reflns_av_unetI/netI     0.0383
_diffrn_reflns_Laue_measured_fraction_full 0.998
_diffrn_reflns_Laue_measured_fraction_max 0.973
_diffrn_reflns_limit_h_max       11
_diffrn_reflns_limit_h_min       -11
_diffrn_reflns_limit_k_max       13
_diffrn_reflns_limit_k_min       -9
_diffrn_reflns_limit_l_max       15
_diffrn_reflns_limit_l_min       -14
_diffrn_reflns_number            13259
_diffrn_reflns_point_group_measured_fraction_full 0.998
_diffrn_reflns_point_group_measured_fraction_max 0.973
_diffrn_reflns_theta_full        25.000
_diffrn_reflns_theta_max         30.685
_diffrn_reflns_theta_min         2.093
_exptl_absorpt_coefficient_mu    2.944
_exptl_absorpt_correction_T_max  0.6128
_exptl_absorpt_correction_T_min  0.3714
_exptl_absorpt_correction_type   multi-scan
_exptl_absorpt_process_details   SADABS
_exptl_crystal_colour            colorless
_exptl_crystal_density_diffrn    1.629
_exptl_crystal_description       block
_exptl_crystal_F_000             348
_exptl_crystal_size_max          0.290
_exptl_crystal_size_mid          0.250
_exptl_crystal_size_min          0.210
_refine_diff_density_max         0.677
_refine_diff_density_min         -0.616
_refine_diff_density_rms         0.091
_refine_ls_extinction_method     none
_refine_ls_goodness_of_fit_ref   1.068
_refine_ls_hydrogen_treatment    constr
_refine_ls_matrix_type           full
_refine_ls_number_parameters     191
_refine_ls_number_reflns         4228
_refine_ls_number_restraints     0
_refine_ls_restrained_S_all      1.068
_refine_ls_R_factor_all          0.0362
_refine_ls_R_factor_gt           0.0285
_refine_ls_shift/su_max          0.001
_refine_ls_shift/su_mean         0.000
_refine_ls_structure_factor_coef Fsqd
_refine_ls_weighting_details
'w=1/[\s^2^(Fo^2^)+(0.0311P)^2^+0.2935P] where P=(Fo^2^+2Fc^2^)/3'
_refine_ls_weighting_scheme      calc
_refine_ls_wR_factor_gt          0.0670
_refine_ls_wR_factor_ref         0.0694
_reflns_Friedel_coverage         0.000
_reflns_number_gt                3719
_reflns_number_total             4228
_reflns_threshold_expression     'I > 2\s(I)'
_cod_data_source_file            c6cc01654e2.cif
_cod_data_source_block           13b
_cod_depositor_comments
'Adding full bibliography for 7118890--7118892.cif.'
_cod_database_code               7118892
_shelx_space_group_comment
;
The symmetry employed for this shelxl refinement is uniquely defined
by the following loop, which should always be used as a source of
symmetry information in preference to the above space-group names.
They are only intended as comments.
;
_shelxl_version_number           2013-4
_shelx_res_file
;
TITL 2293_0m in P-1
CELL  0.71073   7.9573   9.6303  10.5963   68.147   75.128   69.312
ZERR     2.00   0.0003   0.0003   0.0003    0.001    0.002    0.001
LATT   1
SFAC  C    H    N    O    BR
UNIT  36   32   2    2    2
MERG   2
FMAP   2
PLAN   20
ACTA    50.00
BOND
WPDB  -2
L.S.   4
TEMP    23.00
WGHT    0.031100    0.293500
FVAR       0.20762
MOLE    1
C1    1    0.063350   -0.241525    0.443767    11.00000    0.01048    0.01828 =
         0.01100   -0.00691   -0.00137   -0.00323
AFIX  43
H1    2   -0.036825   -0.220027    0.402460    11.00000   -1.20000
AFIX   0
C2    1    0.163708   -0.135677    0.399839    11.00000    0.01105    0.01339 =
         0.00985   -0.00364   -0.00142   -0.00008
C3    1    0.316295   -0.163422    0.457463    11.00000    0.01074    0.01334 =
         0.00982   -0.00421    0.00020   -0.00387
AFIX  43
H3    2    0.383124   -0.091923    0.426038    11.00000   -1.20000
AFIX   0
C4    1    0.364360   -0.300773    0.562731    11.00000    0.00783    0.01202 =
         0.00963   -0.00601    0.00074   -0.00229
C5    1    0.263491   -0.407282    0.608596    11.00000    0.01008    0.00949 =
         0.00929   -0.00404   -0.00041   -0.00249
C6    1    0.113118   -0.380317    0.550087    11.00000    0.01017    0.01468 =
         0.01219   -0.00632   -0.00075   -0.00442
AFIX  43
H6    2    0.047440   -0.452617    0.580828    11.00000   -1.20000
AFIX   0
C7    1    0.327617   -0.247216    0.870257    11.00000    0.00865    0.01119 =
         0.00982   -0.00359   -0.00202   -0.00187
C8    1    0.216528   -0.180420    0.971056    11.00000    0.01174    0.01214 =
         0.01583   -0.00744   -0.00284   -0.00186
AFIX  43
H8    2    0.213995   -0.080827    0.964885    11.00000   -1.20000
AFIX   0
C9    1    0.110646   -0.258946    1.079408    11.00000    0.01137    0.01811 =
         0.01136   -0.00806   -0.00156   -0.00086
AFIX  43
H9    2    0.038149   -0.212766    1.145543    11.00000   -1.20000
AFIX   0
C10   1    0.113290   -0.406946    1.088788    11.00000    0.01123    0.01835 =
         0.00949   -0.00326    0.00052   -0.00440
AFIX  43
H10   2    0.041740   -0.460501    1.160910    11.00000   -1.20000
AFIX   0
C11   1    0.223291   -0.475011    0.989988    11.00000    0.01179    0.01128 =
         0.01150   -0.00346   -0.00101   -0.00451
AFIX  43
H11   2    0.224925   -0.574668    0.997077    11.00000   -1.20000
AFIX   0
C12   1    0.331392   -0.397295    0.880350    11.00000    0.00811    0.01153 =
         0.00919   -0.00358   -0.00283   -0.00208
C13   1    0.448902   -0.477971    0.775081    11.00000    0.00760    0.00885 =
         0.01130   -0.00432   -0.00181   -0.00191
AFIX  13
H13   2    0.548994   -0.565413    0.815613    11.00000   -1.20000
AFIX   0
C14   1    0.521841   -0.365298    0.643327    11.00000    0.00682    0.01077 =
         0.01007   -0.00401   -0.00020   -0.00228
AFIX  13
H14   2    0.625754   -0.426835    0.594916    11.00000   -1.20000
AFIX   0
C15   1    0.582789   -0.247257    0.670078    11.00000    0.01104    0.01315 =
         0.01283   -0.00452   -0.00050   -0.00567
AFIX  23
H15A  2    0.623712   -0.178194    0.583064    11.00000   -1.20000
H15B  2    0.684467   -0.301840    0.721543    11.00000   -1.20000
AFIX   0
C16   1    0.430687   -0.150829    0.749949    11.00000    0.01678    0.01049 =
         0.01426   -0.00516    0.00038   -0.00606
AFIX  23
H16A  2    0.481681   -0.095538    0.783406    11.00000   -1.20000
H16B  2    0.346511   -0.073463    0.688236    11.00000   -1.20000
AFIX   0
C17   1    0.329725   -0.682337    0.753223    11.00000    0.00909    0.01123 =
         0.01283   -0.00614    0.00270   -0.00328
C18   1    0.422008   -0.805546    0.871756    11.00000    0.01855    0.00951 =
         0.01842   -0.00454   -0.00387   -0.00362
AFIX 137
H18A  2    0.345335   -0.870780    0.926589    11.00000   -1.50000
H18B  2    0.444218   -0.756178    0.927117    11.00000   -1.50000
H18C  2    0.535232   -0.868132    0.837036    11.00000   -1.50000
AFIX   0
N1    3    0.336449   -0.533315    0.721436    11.00000    0.00965    0.00901 =
         0.01122   -0.00410   -0.00195   -0.00267
O1    4    0.249605   -0.715542    0.688850    11.00000    0.01371    0.01509 =
         0.01752   -0.00953   -0.00050   -0.00595
BR1   5    0.091010    0.053462    0.256981    11.00000    0.01607    0.01617 =
         0.01382   -0.00111   -0.00556   -0.00021
HKLF    4

REM  2293_0m in P-1
REM R1 =  0.0285 for    3719 Fo > 4sig(Fo)  and  0.0362 for all    4228 data
REM    191 parameters refined using      0 restraints

END

WGHT      0.0311      0.2935

REM Highest difference peak  0.677,  deepest hole -0.616,  1-sigma level  0.091
Q1    1   0.1991  0.0424  0.2189  11.00000  0.05    0.68
Q2    1  -0.0182  0.0583  0.2913  11.00000  0.05    0.46
Q3    1   0.3703 -0.1934  0.8094  11.00000  0.05    0.40
Q4    1   0.2556 -0.1543  0.4294  11.00000  0.05    0.38
Q5    1   0.1241 -0.1920  0.4237  11.00000  0.05    0.37
Q6    1   0.4964 -0.2309  0.7182  11.00000  0.05    0.36
Q7    1   0.1345 -0.2004  1.0215  11.00000  0.05    0.35
Q8    1   0.3211 -0.3523  0.5721  11.00000  0.05    0.35
Q9    1   0.2842 -0.4404  0.9392  11.00000  0.05    0.33
Q10   1   0.3799 -0.4168  0.8282  11.00000  0.05    0.32
Q11   1   0.3840 -0.5163  0.7530  11.00000  0.05    0.32
Q12   1   0.3521 -0.2128  0.5262  11.00000  0.05    0.31
Q13   1   0.1607 -0.3847  0.5934  11.00000  0.05    0.31
Q14   1   0.2586 -0.2169  0.9214  11.00000  0.05    0.31
Q15   1   0.2080 -0.3993  0.5642  11.00000  0.05    0.30
Q16   1   0.1058 -0.3209  1.0689  11.00000  0.05    0.30
Q17   1   0.4351 -0.8766  0.8578  11.00000  0.05    0.30
Q18   1   0.4480 -0.3227  0.5992  11.00000  0.05    0.30
Q19   1   0.3320 -0.7754  0.9866  11.00000  0.05    0.30
Q20   1   0.2914 -0.4751  0.6726  11.00000  0.05    0.30
;
_shelx_res_checksum              11550
_shelx_hkl_file
;
  -1   0   0    4.20    0.20
  -1   0   0    4.38    0.20
  -1   0   0    4.17    0.19
   1   0   0    4.27    0.22
   1   0   0    4.14    0.19
   1   0   0    4.09    0.23
  -2   0   0    0.24    0.09
  -2   0   0    0.32    0.10
  -2   0   0    0.41    0.09
  -2   0   0    0.33    0.08
   2   0   0    0.31    0.11
   2   0   0    0.08    0.09
  -3   0   0    1.35    0.17
  -3   0   0    1.06    0.14
  -3   0   0    1.29    0.19
   3   0   0    1.26    0.21
   3   0   0    1.27    0.18
  -4   0   0   73.48    3.04
  -4   0   0   82.97    3.62
  -4   0   0   71.56    3.02
   4   0   0   74.18    3.48
   4   0   0   70.87    3.62
  -5   0   0  103.35    4.27
  -5   0   0  118.94    5.10
  -5   0   0  104.99    4.25
   5   0   0   98.01    5.09
   5   0   0  101.60    4.89
  -6   0   0   54.04    2.23
   6   0   0   47.61    2.68
   6   0   0   55.00    2.55
  -7   0   0   21.54    1.07
   7   0   0   21.44    1.33
   7   0   0   20.31    1.25
  -8   0   0    2.60    0.44
 -10   0   0    2.96    0.59
  10   0   0    5.41    0.94
  10   0   0    2.92    0.81
  10  -1   0    7.12    1.01
  10  -1   0    6.05    0.92
 -10   1   0    4.66    0.66
   9  -1   0    2.95    0.79
   9  -1   0    2.83    0.72
  -9   1   0    2.24    0.51
  -8   1   0    5.01    0.56
   7  -1   0   17.02    1.18
  -7   1   0   17.54    0.94
  -7   1   0   18.87    0.97
   6  -1   0   44.56    2.16
   6  -1   0   41.68    2.33
  -6   1   0   52.03    2.34
  -6   1   0   43.57    1.92
  -6   1   0   42.86    1.95
   5  -1   0    1.44    0.32
   5  -1   0    1.55    0.24
  -5   1   0    1.79    0.30
  -5   1   0    1.41    0.26
  -5   1   0    1.26    0.24
   4  -1   0   42.71    2.24
   4  -1   0   42.75    2.10
  -4   1   0   46.56    1.90
  -4   1   0   45.66    1.88
  -4   1   0   47.23    2.24
   3  -1   0    4.00    0.36
   3  -1   0    4.37    0.31
  -3   1   0    4.67    0.30
  -3   1   0    5.52    0.37
  -3   1   0    5.17    0.33
   2  -1   0   18.39    0.96
   2  -1   0   18.65    0.89
  -2   1   0   20.29    0.90
  -2   1   0   19.56    0.96
  -2   1   0   18.20    0.81
  -2   1   0   18.59    0.81
   1  -1   0   39.53    1.88
  -1   1   0   38.93    1.59
  -1   1   0   39.32    1.59
   0  -1   0    1.75    0.12
   0  -1   0    1.82    0.08
   0  -1   0    1.86    0.10
   0  -1   0    1.47    0.09
   0  -1   0    1.70    0.09
   0  -1   0    1.78    0.09
   0   1   0    1.52    0.09
   0   1   0    1.38    0.11
  -1  -1   0  298.62   12.98
  -1  -1   0  266.63   10.89
   1   1   0  256.17   10.90
   1   1   0  259.18   12.66
   1   1   0  297.38   13.03
  -2  -1   0   95.61    4.17
  -2  -1   0   83.64    3.49
  -2  -1   0   84.37    3.53
   2   1   0   90.22    4.17
   2   1   0   85.43    4.06
  -3  -1   0   14.44    0.76
  -3  -1   0   13.23    0.62
   3   1   0   13.57    0.76
   3   1   0   13.60    0.76
  -4  -1   0   26.58    1.28
  -4  -1   0   22.20    1.04
   4   1   0   24.84    1.28
   4   1   0   22.82    1.25
  -5  -1   0   65.89    2.74
  -5  -1   0   74.95    3.29
   5   1   0   63.14    3.29
   5   1   0   62.65    3.18
  -6  -1   0   36.90    1.58
   6   1   0   35.79    1.94
   6   1   0   35.22    1.86
  -7  -1   0    0.53    0.30
   7   1   0   -0.41    0.39
   7   1   0    0.31    0.41
  -8  -1   0    2.94    0.43
   8   1   0    3.28    0.63
   8   1   0    3.75    0.60
  -9  -1   0    0.69    0.41
   9   1   0    0.97    0.68
 -10  -1   0   18.22    1.12
  10   1   0   22.31    1.58
   9  -2   0    0.60    0.66
   9  -2   0    0.64    0.70
  -9   2   0    0.05    0.46
   8  -2   0    9.13    0.85
  -8   2   0    7.13    0.65
  -7   2   0   64.33    2.77
  -7   2   0   66.18    2.80
   6  -2   0   28.34    1.61
  -6   2   0   28.20    1.31
  -6   2   0   28.78    1.35
   5  -2   0   18.37    1.18
  -5   2   0   21.53    1.03
  -5   2   0   24.88    1.21
  -5   2   0   19.70    0.99
   4  -2   0    7.15    0.54
  -4   2   0    7.41    0.49
  -4   2   0    8.35    0.56
  -4   2   0    6.92    0.46
   3  -2   0   29.22    1.50
  -3   2   0   30.99    1.50
  -3   2   0   29.90    1.28
  -3   2   0   28.54    1.28
   2  -2   0  133.93    6.46
  -2   2   0  138.64    5.47
  -2   2   0  138.93    5.48
   1  -2   0  127.33    5.91
  -1   2   0  128.04    5.91
  -1   2   0  129.09    5.78
  -1   2   0  122.10    5.02
  -1   2   0  122.48    5.00
   0  -2   0    1.14    0.08
   0  -2   0    0.74    0.08
   0  -2   0    0.96    0.07
   0   2   0    0.85    0.12
   0   2   0    0.87    0.07
   0   2   0    0.70    0.07
   0   2   0    0.80    0.08
   0   2   0    0.96    0.09
   0   2   0    0.70    0.09
  -1  -2   0   46.97    2.09
  -1  -2   0   43.25    1.81
   1   2   0   41.55    1.76
   1   2   0   43.33    1.81
   1   2   0   46.17    1.84
   1   2   0   42.10    2.08
   1   2   0   44.20    2.09
  -2  -2   0   30.69    1.42
  -2  -2   0   28.46    1.17
   2   2   0   28.64    1.43
   2   2   0   27.73    1.42
  -3  -2   0  162.89    6.86
  -3  -2   0  194.62    8.18
   3   2   0  164.23    7.98
   3   2   0  171.44    8.18
  -4  -2   0   83.11    3.49
  -4  -2   0   97.75    4.20
   4   2   0   85.85    4.20
   4   2   0   81.20    4.08
  -5  -2   0   45.34    1.88
   5   2   0   46.11    2.31
   5   2   0   43.98    2.25
  -6  -2   0    3.30    0.33
   6   2   0    3.31    0.48
   6   2   0    2.77    0.46
  -7  -2   0    8.91    0.60
   7   2   0    9.17    0.77
   7   2   0    9.17    0.83
  -8  -2   0    8.95    0.64
   8   2   0    9.54    0.91
   8   2   0    8.77    0.84
  -9  -2   0   12.64    0.83
   9   2   0   12.88    1.06
   9   2   0   14.04    1.20
   9   2   0   12.71    1.14
 -10  -2   0    8.14    0.72
  10   2   0    8.79    1.09
   9  -3   0    9.04    0.91
  -9   3   0    5.45    0.69
   8  -3   0    8.54    0.83
  -8   3   0    7.65    0.71
  -8   3   0    6.67    0.64
   7  -3   0   19.85    1.17
  -7   3   0   18.86    1.08
  -7   3   0   20.24    1.06
  -6   3   0    6.29    0.53
  -6   3   0    6.37    0.55
   5  -3   0   41.58    2.09
  -5   3   0   41.12    1.79
  -5   3   0   37.83    1.76
   4  -3   0   18.58    1.11
  -4   3   0   20.16    0.98
  -4   3   0   23.43    1.14
  -4   3   0   19.59    0.97
   3  -3   0   75.58    3.60
  -3   3   0   76.39    3.07
  -3   3   0   69.23    3.59
  -3   3   0   78.63    3.07
   2  -3   0  100.26    4.68
  -2   3   0   94.20    4.68
  -2   3   0   98.31    3.99
  -2   3   0  102.40    3.98
   1  -3   0   45.45    1.87
   1  -3   0   47.55    2.25
  -1   3   0   45.58    1.94
  -1   3   0   47.88    2.26
  -1   3   0   48.63    2.25
  -1   3   0   48.86    2.19
  -1   3   0   46.01    1.92
   0  -3   0    0.48    0.09
   0   3   0    0.63    0.07
   0   3   0    0.36    0.10
   0   3   0    0.96    0.16
   0   3   0    0.36    0.08
   0   3   0    1.11    0.10
   0   3   0    0.55    0.08
  -1  -3   0   61.03    2.81
  -1  -3   0   59.14    2.45
   1   3   0   56.98    2.81
   1   3   0   58.05    2.40
   1   3   0   62.23    2.82
   1   3   0   62.78    2.48
   1   3   0   56.32    2.45
  -2  -3   0   53.80    2.27
  -2  -3   0   42.71    1.89
   2   3   0   49.30    2.28
   2   3   0   45.86    2.27
   2   3   0   47.33    1.88
   2   3   0   44.35    1.97
   2   3   0   48.18    2.01
  -3  -3   0   80.22    3.48
   3   3   0   69.86    3.45
   3   3   0   67.31    3.49
  -4  -3   0  156.15    6.08
   4   3   0  153.39    7.11
   4   3   0  148.94    7.27
  -5  -3   0   41.79    1.73
   5   3   0   39.94    2.13
   5   3   0   42.93    2.13
  -6  -3   0    8.96    0.53
   6   3   0    7.53    0.70
   6   3   0    8.05    0.73
  -7  -3   0    2.45    0.33
   7   3   0    2.31    0.49
   7   3   0    2.44    0.56
  -8  -3   0   72.77    2.98
   8   3   0   72.07    3.57
   8   3   0   67.60    3.66
  -9  -3   0    9.39    0.69
   9   3   0    9.47    1.06
   9   3   0    9.36    0.98
   9   3   0    9.85    1.00
 -10  -3   0   20.38    1.14
  10   3   0   23.78    1.68
 -11  -3   0    3.25    0.58
  11   3   0    3.60    0.93
  -9   4   0    3.30    0.62
  -8   4   0   31.11    1.57
  -8   4   0   30.89    1.56
   7  -4   0   21.26    1.19
  -7   4   0   20.78    1.14
  -7   4   0   21.81    1.17
   6  -4   0   33.00    1.47
  -6   4   0   30.54    1.48
  -6   4   0   28.55    1.46
   5  -4   0   14.23    0.78
  -5   4   0   11.48    0.76
  -5   4   0   12.85    0.79
   4  -4   0   24.00    1.32
   4  -4   0   23.67    1.11
  -4   4   0   23.88    1.15
  -4   4   0   24.83    1.16
  -4   4   0   25.43    1.32
   3  -4   0   51.32    2.48
   3  -4   0   49.87    2.07
  -3   4   0   50.59    2.13
  -3   4   0   49.93    2.13
   2  -4   0  112.59    5.35
   2  -4   0  110.64    4.48
  -2   4   0  113.75    4.55
  -2   4   0  110.11    5.36
  -2   4   0  110.68    4.57
  -2   4   0  120.29    5.36
   1  -4   0  147.43    6.92
  -1   4   0  144.40    6.93
  -1   4   0  152.80    6.75
  -1   4   0  143.34    5.91
  -1   4   0  153.66    6.93
  -1   4   0  142.63    5.88
   0  -4   0   12.78    0.61
   0   4   0   12.39    0.58
   0   4   0   13.42    0.61
   0   4   0   13.11    0.74
   0   4   0   12.59    0.57
   0   4   0   12.94    0.66
   0   4   0   13.68    0.66
  -1  -4   0   89.50    3.94
  -1  -4   0   80.64    3.44
   1   4   0   83.46    3.95
   1   4   0   80.23    3.36
   1   4   0   86.82    3.46
   1   4   0   80.73    3.92
   1   4   0   83.74    3.44
  -2  -4   0  109.94    4.67
  -2  -4   0   98.45    4.05
   2   4   0   97.96    4.06
   2   4   0   93.26    4.63
   2   4   0   93.53    3.95
   2   4   0   99.46    4.11
   2   4   0   98.67    4.68
   3   4   0    5.28    0.34
   3   4   0    5.11    0.47
   3   4   0    4.43    0.38
   3   4   0    5.42    0.41
   4   4   0   49.18    2.36
   4   4   0   45.82    2.31
   4   4   0   41.35    2.06
   4   4   0   49.03    1.99
  -5  -4   0   20.35    0.90
   5   4   0   21.67    1.19
   5   4   0   19.28    1.24
  -6  -4   0   -0.10    0.19
   6   4   0   -0.01    0.44
   6   4   0   -0.17    0.32
  -7  -4   0    2.53    0.32
   7   4   0    2.63    0.61
   7   4   0    3.01    0.54
   7   4   0    2.61    0.60
  -8  -4   0   21.47    1.07
   8   4   0   20.72    1.42
   8   4   0   21.76    1.54
   8   4   0   24.59    1.51
  -9  -4   0   20.07    1.06
   9   4   0   20.41    1.52
   9   4   0   20.51    1.57
   9   4   0   19.44    1.44
 -10  -4   0    0.19    0.40
  10   4   0   -0.20    0.78
  10   4   0    0.38    0.69
  10   4   0    1.41    0.88
  11   4   0   -0.35    0.95
  11   4   0    1.87    0.83
  -8   5   0    5.73    0.71
  -8   5   0    4.98    0.65
  -7   5   0    6.03    0.65
  -7   5   0    5.18    0.67
  -7   5   0    5.97    0.64
  -6   5   0    2.27    0.47
  -6   5   0    1.36    0.43
   5  -5   0   -0.03    0.28
  -5   5   0    0.59    0.36
  -5   5   0    0.02    0.36
   4  -5   0   13.88    0.69
  -4   5   0   13.49    0.87
  -4   5   0   12.48    0.78
  -4   5   0   14.38    0.81
   3  -5   0   37.34    1.79
   3  -5   0   33.64    1.45
  -3   5   0   36.64    1.79
  -3   5   0   35.51    1.57
  -3   5   0   35.70    1.56
  -3   5   0   32.74    1.79
   2  -5   0   44.93    1.85
   2  -5   0   46.76    2.26
  -2   5   0   46.38    1.69
  -2   5   0   42.03    2.27
  -2   5   0   45.72    1.98
  -2   5   0   49.71    2.15
  -2   5   0   49.46    2.27
  -2   5   0   45.39    1.96
   1  -5   0   40.12    1.91
  -1   5   0   42.50    1.93
  -1   5   0   41.65    1.89
  -1   5   0   37.92    1.66
  -1   5   0   37.64    1.69
  -1   5   0   37.57    1.93
   0  -5   0    0.21    0.14
   0   5   0    0.04    0.11
   0   5   0    0.03    0.16
   0   5   0    0.13    0.10
   0   5   0   -0.02    0.21
   0   5   0    0.21    0.14
   0   5   0    0.03    0.12
  -1  -5   0   31.78    1.35
   1   5   0   31.64    1.33
   1   5   0   30.29    1.59
   1   5   0   30.63    1.52
   1   5   0   31.18    1.28
   1   5   0   31.58    1.51
   1   5   0   30.58    1.32
  -2  -5   0   26.46    1.11
   2   5   0   24.84    1.38
   2   5   0   23.78    1.07
   2   5   0   24.86    1.11
   2   5   0   23.96    1.26
   2   5   0   26.68    1.13
   3   5   0   64.25    2.66
   3   5   0   65.02    3.19
   3   5   0   64.50    2.82
   3   5   0   70.07    2.78
   4   5   0   13.41    0.84
   4   5   0   15.30    0.72
   4   5   0   13.92    0.99
   4   5   0   12.53    0.81
   5   5   0    2.09    0.39
   5   5   0    1.90    0.28
   5   5   0    2.08    0.47
   5   5   0    1.29    0.38
   6   5   0    1.48    0.51
   6   5   0    1.39    0.50
   6   5   0    1.21    0.39
   7   5   0   35.26    2.03
   7   5   0   33.88    1.89
   7   5   0   31.81    1.76
   8   5   0    6.67    0.91
   8   5   0    7.37    0.82
   8   5   0    6.56    0.84
   9   5   0   16.74    1.42
   9   5   0   20.32    1.41
   9   5   0   18.66    1.61
  10   5   0    4.71    1.01
  10   5   0    2.81    0.79
  10   5   0    4.08    1.02
  -7   6   0    1.54    0.55
  -7   6   0    1.37    0.53
  -6   6   0    2.70    0.51
  -6   6   0    4.06    0.57
  -6   6   0    3.07    0.53
  -5   6   0   37.19    1.61
  -5   6   0   30.16    1.79
  -4   6   0   10.80    0.76
  -4   6   0   11.04    0.72
  -4   6   0   11.05    0.79
  -3   6   0   60.85    2.52
  -3   6   0   58.88    2.53
  -3   6   0   58.06    2.91
   2  -6   0   14.63    0.78
  -2   6   0   12.82    0.80
  -2   6   0   13.02    0.76
  -2   6   0   14.88    0.72
  -2   6   0   13.26    0.76
  -2   6   0   14.40    0.79
   1  -6   0    8.84    0.54
  -1   6   0    9.66    0.56
  -1   6   0    9.68    0.56
  -1   6   0   10.30    0.63
  -1   6   0    9.19    0.58
  -1   6   0    9.36    0.55
   0  -6   0   16.51    0.82
   0   6   0   18.10    0.88
   0   6   0   16.48    0.78
   0   6   0   18.15    0.98
   0   6   0   17.12    0.83
   0   6   0   15.68    0.87
  -1  -6   0   59.28    2.55
   1   6   0   59.41    2.44
   1   6   0   61.96    2.53
   1   6   0   60.86    2.89
   1   6   0   58.43    2.50
   1   6   0   59.00    2.94
   1   6   0   63.41    2.88
  -2  -6   0   56.46    2.30
   2   6   0   55.32    2.31
   2   6   0   54.50    2.24
   2   6   0   52.27    2.69
   2   6   0   53.08    2.62
   2   6   0   54.07    2.18
   2   6   0   53.77    2.31
   3   6   0   96.80    4.01
   3   6   0   87.45    4.54
   3   6   0   96.80    4.55
   3   6   0   95.08    3.83
   3   6   0   98.05    3.97
   4   6   0    9.71    0.67
   4   6   0    9.42    0.49
   4   6   0   11.04    0.59
   4   6   0    9.06    0.81
   4   6   0    9.26    0.67
   5   6   0    2.05    0.40
   5   6   0    2.74    0.34
   5   6   0    1.68    0.41
   5   6   0    1.74    0.57
   5   6   0    2.56    0.21
   6   6   0   29.59    1.36
   6   6   0   29.06    1.54
   6   6   0   24.88    1.58
   6   6   0   30.38    1.74
   7   6   0   11.41    0.96
   7   6   0   10.57    0.93
   7   6   0    9.27    1.02
   7   6   0   12.16    0.74
   8   6   0    2.71    0.73
   8   6   0    1.49    0.56
   8   6   0    2.03    0.79
   9   6   0   10.97    1.05
   9   6   0    9.07    1.17
   9   6   0   10.14    1.11
  10   6   0    2.32    0.92
  10   6   0    2.14    1.00
  -7   7   0    0.25    0.55
  -7   7   0    1.02    0.55
  -6   7   0    0.99    0.54
  -6   7   0    1.16    0.50
  -5   7   0    2.89    0.53
  -5   7   0    4.55    0.60
  -5   7   0    3.10    0.49
  -4   7   0   65.63    2.83
  -4   7   0   60.93    3.23
  -4   7   0   68.92    2.83
  -3   7   0   44.84    1.94
  -3   7   0   43.42    1.95
  -3   7   0   41.21    2.17
  -2   7   0    0.14    0.31
  -2   7   0    0.36    0.23
  -2   7   0    0.28    0.30
  -1   7   0    1.62    0.28
  -1   7   0    1.09    0.28
  -1   7   0    1.23    0.22
  -1   7   0    1.42    0.23
  -1   7   0    0.88    0.30
   0  -7   0   10.24    0.59
   0   7   0   11.45    0.77
   0   7   0   10.08    0.56
   0   7   0   10.36    0.59
   0   7   0    8.98    0.58
   0   7   0    9.67    0.61
  -1  -7   0   70.57    3.02
   1   7   0   71.46    3.45
   1   7   0   73.50    2.99
   1   7   0   71.34    3.42
   1   7   0   69.14    2.96
   1   7   0   74.35    3.41
   1   7   0   70.02    2.90
  -2  -7   0   99.01    4.21
   2   7   0  101.63    4.04
   2   7   0  100.56    4.22
   2   7   0   96.98    4.83
   2   7   0   99.23    4.12
   2   7   0  105.81    4.04
   2   7   0  103.47    4.23
   2   7   0  103.67    4.81
   2   7   0  100.96    4.82
   3   7   0   18.04    0.89
   3   7   0   18.93    0.92
   3   7   0   18.27    0.84
   3   7   0   16.25    1.24
   3   7   0   17.00    1.00
   4   7   0   33.06    1.51
   4   7   0   32.56    1.54
   4   7   0   30.69    1.70
   4   7   0   31.59    1.85
   4   7   0   34.89    1.40
   5   7   0   32.14    1.64
   5   7   0   35.41    1.57
   5   7   0   31.12    1.79
   5   7   0   35.92    1.42
   5   7   0   31.47    1.98
   6   7   0   34.09    1.95
   6   7   0   29.74    1.62
   6   7   0   32.91    1.80
   7   7   0   22.29    1.37
   7   7   0   23.02    1.46
   7   7   0   22.82    1.21
   7   7   0   26.02    1.76
   8   7   0   20.15    1.70
   8   7   0   20.66    1.38
   8   7   0   19.31    1.33
   9   7   0    1.32    0.80
   9   7   0   -0.64    0.85
   9   7   0   -0.14    0.58
  10   7   0    4.37    1.14
  10   7   0    3.67    0.99
  -6   8   0    9.87    0.88
  -6   8   0   11.27    0.92
  -5   8   0   19.14    1.20
  -5   8   0   22.44    1.26
  -4   8   0    5.35    0.63
  -4   8   0    6.28    0.60
  -4   8   0    6.02    0.62
  -3   8   0   -0.35    0.36
  -3   8   0    0.67    0.32
  -3   8   0    0.19    0.40
  -2   8   0    9.91    0.70
  -2   8   0    8.47    0.60
  -2   8   0    7.52    0.64
  -1   8   0   17.02    0.98
  -1   8   0   19.05    0.98
  -1   8   0   19.16    0.96
   0   8   0   13.64    0.81
   0   8   0   14.84    0.80
   0   8   0   14.00    0.76
   0   8   0   17.13    1.01
   0   8   0   13.66    0.79
   1   8   0    9.75    0.85
   1   8   0    8.72    0.54
   1   8   0   10.29    0.65
   1   8   0   10.50    0.59
   1   8   0    9.49    0.59
   2   8   0   19.66    0.94
   2   8   0   18.70    1.28
   2   8   0   20.32    1.03
   2   8   0   20.25    0.96
   2   8   0   18.15    1.04
   3   8   0    3.60    0.38
   3   8   0    2.94    0.38
   3   8   0    2.83    0.59
   3   8   0    3.53    0.36
   3   8   0    3.41    0.30
   3   8   0    3.57    0.38
   4   8   0    5.22    0.51
   4   8   0    4.58    0.44
   4   8   0    5.72    0.40
   4   8   0    3.96    0.67
   4   8   0    4.83    0.50
   5   8   0   -0.13    0.35
   5   8   0    1.49    0.34
   5   8   0    0.02    0.62
   5   8   0    1.14    0.41
   6   8   0    7.76    0.73
   6   8   0    6.59    0.59
   6   8   0    7.49    0.73
   6   8   0    6.33    0.90
   7   8   0   27.52    1.62
   7   8   0   23.70    1.51
   7   8   0   27.80    1.92
   8   8   0    1.03    0.69
   8   8   0    1.12    0.84
   8   8   0    1.55    0.61
   9   8   0   -0.31    0.74
   9   8   0    0.87    0.91
  10   8   0    0.26    0.69
  10   8   0   -0.66    1.04
  10   8   0   -0.28    0.86
  -5   9   0   10.87    0.90
  -5   9   0   10.64    0.92
  -4   9   0    9.95    0.83
  -4   9   0   10.04    0.87
  -3   9   0    1.09    0.46
  -3   9   0    0.53    0.34
  -3   9   0    0.31    0.46
  -2   9   0    1.58    0.32
  -2   9   0    2.38    0.46
  -2   9   0    1.70    0.48
  -1   9   0   17.69    0.98
  -1   9   0   16.72    0.96
  -1   9   0   17.99    1.00
   0   9   0   59.62    2.67
   0   9   0   70.43    3.06
   0   9   0   57.62    3.00
   1   9   0   13.83    0.80
   1   9   0   12.48    0.76
   1   9   0   15.01    1.08
   2   9   0    0.35    0.49
   2   9   0    0.25    0.25
   2   9   0    0.17    0.30
   3   9   0    1.85    0.35
   3   9   0    2.28    0.36
   3   9   0    2.69    0.37
   3   9   0    1.80    0.62
   4   9   0    3.03    0.74
   4   9   0    3.57    0.44
   4   9   0    3.43    0.38
   4   9   0    2.60    0.44
   4   9   0    3.63    0.47
   5   9   0   34.62    1.57
   5   9   0   37.22    1.64
   5   9   0   32.54    1.84
   5   9   0   30.31    1.65
   5   9   0   34.02    2.13
   6   9   0   19.93    1.69
   6   9   0   19.22    1.21
   6   9   0   19.35    1.25
   7   9   0   10.37    1.21
   7   9   0    8.72    0.87
   7   9   0    8.48    0.84
   8   9   0   -1.00    0.91
   8   9   0    1.41    0.69
   9   9   0   14.54    1.56
   9   9   0   15.14    1.30
  -4  10   0    2.25    0.61
  -4  10   0    2.35    0.65
  -3  10   0   -0.43    0.49
  -2  10   0   11.28    0.74
  -1  10   0   12.94    0.87
  -1  10   0   11.63    0.74
   0  10   0   17.27    0.97
   0  10   0   18.57    1.03
   1  10   0   11.27    0.75
   1  10   0   14.37    0.87
   1  10   0   14.74    1.11
   2  10   0    5.61    0.74
   2  10   0    5.55    0.55
   2  10   0    5.56    0.50
   3  10   0    3.74    0.46
   3  10   0    3.00    0.43
   3  10   0    3.34    0.72
   4  10   0   13.74    1.26
   4  10   0   15.22    1.01
   4  10   0   16.85    0.95
   5  10   0   15.71    1.37
   5  10   0   14.74    1.00
   5  10   0   16.01    1.05
   6  10   0    6.51    1.08
   6  10   0    6.59    0.73
   6  10   0    6.12    0.71
   7  10   0    0.04    0.55
   7  10   0    0.23    0.88
   8  10   0   10.96    0.95
   8  10   0    9.30    1.27
   8  10   0    7.96    0.95
   9  10   0   -0.73    1.09
   9  10   0   -0.25    0.75
   9  10   0    0.83    0.67
  -2  11   0    7.19    0.80
  -1  11   0    9.91    0.68
  -1  11   0   12.00    0.90
   0  11   0   12.41    0.91
   0  11   0   13.20    0.77
   1  11   0    5.84    0.62
   1  11   0    5.02    0.44
   2  11   0    1.07    0.45
   2  11   0    1.10    0.33
   2  11   0    1.41    0.63
   3  11   0    2.62    0.42
   3  11   0    1.96    0.73
   4  11   0   10.15    0.80
   4  11   0    9.34    1.11
   5  11   0   12.51    1.30
   5  11   0   12.84    0.99
   6  11   0    5.21    1.10
   7  11   0    1.08    0.63
   7  11   0    0.64    1.02
   8  11   0    0.15    1.12
   8  11   0    0.05    0.66
   0  12   0    1.42    0.59
   1  12   0    3.22    0.62
   3  12   0    6.92    0.63
   3  12   0    5.99    0.97
   4  12   0   15.35    1.37
   5  12   0    0.84    0.92
   6  12   0    1.27    1.04
   5  12  -1    0.76    0.97
   4  12  -1    1.26    0.92
   3  12  -1    1.55    0.85
   1  12  -1    1.06    0.55
   7  11  -1   11.95    1.41
   6  11  -1    1.27    1.01
   5  11  -1    4.35    1.03
   4  11  -1    0.20    0.82
   3  11  -1   28.39    1.92
   3  11  -1   25.54    1.49
   2  11  -1   23.40    1.64
   2  11  -1   21.02    1.24
   2  11  -1   22.18    1.21
   1  11  -1    2.97    0.56
   1  11  -1    3.09    0.41
   0  11  -1    3.87    0.59
  -1  11  -1    0.98    0.53
  -2  11  -1    5.15    0.70
   8  10  -1    4.70    0.81
   8  10  -1    3.72    1.07
   7  10  -1    8.10    0.88
   7  10  -1    8.46    1.23
   6  10  -1   -0.31    0.51
   6  10  -1   -0.10    0.89
   5  10  -1    2.73    0.55
   5  10  -1    2.10    0.87
   4  10  -1    1.04    0.42
   4  10  -1    1.26    0.77
   3  10  -1    4.66    0.81
   3  10  -1    5.58    0.53
   3  10  -1    4.43    0.53
   2  10  -1   23.99    1.18
   2  10  -1   22.25    1.53
   2  10  -1   21.03    1.23
   1  10  -1   26.64    1.31
   1  10  -1   27.97    1.62
   1  10  -1   23.12    1.34
   0  10  -1    0.42    0.29
   0  10  -1   -0.03    0.42
  -1  10  -1   11.85    0.80
  -1  10  -1   13.61    0.93
  -2  10  -1    6.87    0.70
  -3  10  -1   11.00    0.91
   9   9  -1   15.07    1.34
   9   9  -1   19.03    1.72
   8   9  -1    4.70    0.82
   8   9  -1    4.34    1.13
   7   9  -1    9.40    0.91
   7   9  -1    9.18    1.14
   7   9  -1    6.85    0.84
   6   9  -1    0.24    0.75
   6   9  -1    0.50    0.49
   6   9  -1   -0.02    0.49
   5   9  -1   -0.06    0.43
   5   9  -1    0.31    0.74
   5   9  -1    0.26    0.41
   4   9  -1   23.06    1.24
   4   9  -1   22.45    1.70
   4   9  -1   22.19    1.37
   4   9  -1   26.35    1.16
   4   9  -1   23.92    1.23
   3   9  -1   27.68    1.52
   3   9  -1   29.76    1.34
   3   9  -1   27.02    1.81
   2   9  -1   26.74    1.26
   2   9  -1   24.95    1.38
   2   9  -1   25.95    1.64
   1   9  -1    9.29    0.69
   1   9  -1    8.75    0.62
   1   9  -1    8.80    0.80
   0   9  -1    6.57    0.63
   0   9  -1    4.91    0.52
   0   9  -1    4.80    0.44
  -1   9  -1    0.20    0.27
  -1   9  -1    0.56    0.34
  -1   9  -1    0.29    0.41
  -2   9  -1   57.28    2.51
  -2   9  -1   53.32    2.80
  -2   9  -1   59.16    2.47
  -3   9  -1   13.01    0.93
  -3   9  -1   14.92    0.96
  -3   9  -1   12.98    0.91
  -4   9  -1   15.79    1.06
  -4   9  -1   14.69    1.03
  -5   9  -1    1.57    0.60
  -5   9  -1    1.52    0.60
   9   8  -1   11.17    1.17
   9   8  -1   11.12    1.39
   8   8  -1    7.67    0.89
   8   8  -1    6.24    1.13
   8   8  -1    6.41    0.89
   7   8  -1   -0.14    0.56
   7   8  -1   -0.01    0.51
   7   8  -1    0.17    0.82
   6   8  -1    1.28    0.49
   6   8  -1    0.90    0.70
   6   8  -1    0.56    0.51
   5   8  -1   12.34    0.79
   5   8  -1   12.64    0.87
   5   8  -1   12.15    0.90
   5   8  -1   11.71    1.09
   4   8  -1   50.85    2.26
   4   8  -1   48.96    2.26
   4   8  -1   49.40    2.75
   4   8  -1   46.88    2.55
   4   8  -1   54.71    2.14
   3   8  -1    0.89    0.31
   3   8  -1    1.25    0.29
   3   8  -1    0.90    0.58
   3   8  -1    0.86    0.28
   3   8  -1    1.45    0.33
   2   8  -1   19.17    0.89
   2   8  -1   17.07    1.01
   2   8  -1   17.03    1.30
   2   8  -1   18.74    0.93
   1   8  -1    2.52    0.29
   1   8  -1    3.01    0.52
   1   8  -1    3.09    0.34
   1   8  -1    3.15    0.39
   0   8  -1    5.17    0.44
   0   8  -1    4.99    0.55
   0   8  -1    5.09    0.41
   0   8  -1    4.33    0.47
  -1   8  -1   13.46    0.75
  -1   8  -1   13.75    0.83
  -1   8  -1   12.35    0.79
  -2   8  -1   15.28    0.85
  -2   8  -1   13.77    0.87
  -2   8  -1   13.67    0.89
  -3   8  -1   29.11    1.63
  -3   8  -1   30.65    1.51
  -3   8  -1   31.53    1.49
  -4   8  -1    0.79    0.39
  -4   8  -1    0.37    0.44
  -4   8  -1    1.78    0.48
  -5   8  -1    1.13    0.51
  -5   8  -1    1.87    0.57
  -6   8  -1    1.11    0.57
  -6   8  -1    2.06    0.59
  10   7  -1   10.69    1.23
  10   7  -1    8.62    1.31
   9   7  -1    4.51    0.88
   9   7  -1    5.46    1.10
   8   7  -1   10.12    0.97
   8   7  -1    9.65    1.17
   8   7  -1    9.35    0.98
   7   7  -1   -0.28    0.47
   7   7  -1   -0.59    0.73
   7   7  -1   -0.45    0.56
   6   7  -1    6.13    0.70
   6   7  -1    8.99    0.79
   6   7  -1    9.67    0.99
   6   7  -1    7.81    0.62
   5   7  -1   27.25    1.26
   5   7  -1   25.98    1.12
   5   7  -1   23.00    1.32
   5   7  -1   23.96    1.44
   5   7  -1   24.49    1.63
   4   7  -1   51.48    2.01
   4   7  -1   46.23    2.15
   4   7  -1   45.50    2.42
   4   7  -1   46.95    2.58
   4   7  -1   46.91    2.12
   3   7  -1   81.87    3.44
   3   7  -1   76.11    3.91
   3   7  -1   83.92    3.44
   3   7  -1   82.66    3.32
   3   7  -1   79.55    4.00
   2   7  -1   20.11    1.40
   2   7  -1   22.22    1.04
   2   7  -1   20.95    1.06
   2   7  -1   21.88    1.18
   2   7  -1   23.64    1.04
   2   7  -1   22.51    1.16
   1   7  -1   15.44    0.72
   1   7  -1   13.69    1.09
   1   7  -1   15.90    0.83
   1   7  -1   14.17    0.83
   1   7  -1   14.74    0.77
   0   7  -1    3.19    0.36
   0   7  -1    2.86    0.30
   0   7  -1    2.35    0.43
   0   7  -1    2.96    0.31
   0   7  -1    3.47    0.32
  -1   7  -1   90.24    3.69
  -1   7  -1   84.76    4.33
  -1   7  -1   93.48    4.33
  -1   7  -1   86.07    3.73
  -1   7  -1   96.73    4.25
  -2   7  -1   32.29    1.67
  -2   7  -1   31.18    1.49
  -2   7  -1   33.46    1.48
  -3   7  -1    0.71    0.31
  -3   7  -1    1.28    0.37
  -3   7  -1    1.34    0.39
  -4   7  -1    1.86    0.40
  -4   7  -1    1.66    0.42
  -4   7  -1    0.89    0.41
  -5   7  -1   10.33    0.81
  -5   7  -1   11.06    0.88
  -5   7  -1   11.12    0.85
  -6   7  -1   33.43    1.76
  -6   7  -1   37.55    1.79
  -7   7  -1    9.71    0.84
  -7   7  -1    8.04    0.82
  10   6  -1    2.02    0.91
  10   6  -1    0.91    0.96
   9   6  -1    9.50    1.08
   9   6  -1   10.19    1.23
   9   6  -1   10.94    1.08
   8   6  -1    4.08    0.79
   8   6  -1    4.54    0.70
   8   6  -1    3.30    0.89
   7   6  -1    1.50    0.37
   7   6  -1    0.36    0.68
   7   6  -1    0.59    0.58
   7   6  -1    0.96    0.49
   6   6  -1   18.08    0.95
   6   6  -1   17.42    1.12
   6   6  -1   15.91    1.09
   6   6  -1   15.15    1.24
   5   6  -1   50.37    2.70
   5   6  -1   54.93    2.79
   5   6  -1   57.96    2.37
   5   6  -1   50.40    2.43
   4   6  -1    1.17    0.54
   4   6  -1    2.01    0.30
   4   6  -1    1.98    0.24
   4   6  -1    1.51    0.35
   4   6  -1    1.53    0.38
   3   6  -1   45.63    2.05
   3   6  -1   49.27    2.04
   3   6  -1   45.69    1.94
   3   6  -1   46.29    2.44
   3   6  -1   45.58    2.31
   2   6  -1    8.45    0.48
   2   6  -1    7.50    0.47
   2   6  -1    7.63    0.52
   2   6  -1    6.31    0.65
   2   6  -1    7.52    0.48
  -2  -6   1    8.03    0.47
   1   6  -1   16.72    1.12
   1   6  -1   17.47    0.95
   1   6  -1   17.72    0.85
   1   6  -1   18.17    0.94
   1   6  -1   18.09    0.81
  -1  -6   1   18.09    0.86
   0   6  -1   82.06    3.81
   0   6  -1   78.43    3.79
   0   6  -1   78.19    3.28
   0   6  -1   77.54    3.81
   0   6  -1   78.96    3.23
   0  -6   1   83.02    3.35
  -1   6  -1   64.74    3.28
  -1   6  -1   66.93    2.84
  -1   6  -1   74.10    3.29
  -1   6  -1   66.40    2.80
  -1   6  -1   71.82    3.24
   1  -6   1   65.06    2.89
  -2   6  -1   10.77    0.63
  -2   6  -1   10.61    0.69
  -2   6  -1   12.69    0.69
  -2   6  -1    9.58    0.68
  -2   6  -1   12.20    0.70
  -3   6  -1   16.51    0.92
  -3   6  -1   17.71    0.91
  -3   6  -1   16.17    0.98
  -4   6  -1    0.65    0.32
  -4   6  -1    0.36    0.33
  -4   6  -1    0.42    0.35
  -5   6  -1    2.22    0.48
  -5   6  -1    1.69    0.43
  -5   6  -1    0.95    0.41
  -6   6  -1   33.37    1.61
  -6   6  -1   32.96    1.59
  -6   6  -1   29.24    1.78
  -7   6  -1   34.98    1.71
  -7   6  -1   33.28    1.69
  10   5  -1   18.83    1.57
  10   5  -1   16.93    1.51
  10   5  -1   18.72    1.54
   9   5  -1    5.61    0.98
   9   5  -1    5.02    0.92
   9   5  -1    4.61    0.78
   8   5  -1    9.88    0.99
   8   5  -1    7.25    0.98
   8   5  -1    7.85    0.85
   7   5  -1    6.01    0.54
   7   5  -1    6.30    0.71
   7   5  -1    5.69    0.82
   6   5  -1   32.75    1.52
   6   5  -1   32.53    1.95
   6   5  -1   32.05    1.81
   5   5  -1   31.75    1.82
   5   5  -1   34.25    1.49
   5   5  -1   30.11    1.71
   4   5  -1   41.38    2.21
   4   5  -1   40.08    2.10
   4   5  -1   42.18    1.83
   3   5  -1   -0.28    0.24
   3   5  -1    0.04    0.20
   3   5  -1    0.20    0.18
   3   5  -1    0.69    0.40
   3   5  -1    0.04    0.14
   2   5  -1    0.88    0.20
   2   5  -1    0.25    0.19
   2   5  -1    0.31    0.17
   2   5  -1    0.36    0.16
   2   5  -1    0.65    0.35
  -2  -5   1    0.73    0.17
   1   5  -1   95.71    4.78
   1   5  -1  105.94    4.20
   1   5  -1   96.85    4.10
   1   5  -1  105.46    4.81
   1   5  -1  102.40    4.82
  -1  -5   1  102.04    4.20
   0   5  -1   81.06    3.94
   0   5  -1   82.01    3.41
   0   5  -1   82.43    3.98
   0   5  -1   86.29    3.97
   0   5  -1   82.70    3.36
   0   5  -1   84.87    3.43
   0  -5   1   84.74    3.48
  -1   5  -1    2.73    0.28
  -1   5  -1    2.72    0.29
  -1   5  -1    2.85    0.27
  -1   5  -1    3.01    0.27
  -1   5  -1    2.94    0.33
   1  -5   1    2.56    0.27
   1  -5   1    3.24    0.29
  -2   5  -1   14.79    0.79
  -2   5  -1   14.19    0.53
  -2   5  -1   14.33    0.81
  -2   5  -1   12.73    0.72
  -2   5  -1   13.70    0.73
  -2   5  -1   14.79    0.78
   2  -5   1   13.55    0.59
   2  -5   1   14.12    0.78
  -3   5  -1   -0.03    0.24
  -3   5  -1    0.22    0.25
  -3   5  -1    0.07    0.23
  -3   5  -1    0.30    0.21
   3  -5   1   -0.13    0.21
   3  -5   1    0.27    0.15
  -4   5  -1   36.47    1.70
  -4   5  -1   39.63    1.72
  -4   5  -1   36.02    1.98
   4  -5   1   40.06    1.61
  -5   5  -1    6.02    0.61
  -5   5  -1    5.12    0.53
  -5   5  -1    5.53    0.52
  -6   5  -1    6.52    0.62
  -6   5  -1    6.44    0.68
  -6   5  -1    5.50    0.58
  -7   5  -1    8.05    0.83
  -7   5  -1    7.89    0.70
  -7   5  -1    8.99    0.76
  -8   5  -1    1.41    0.54
  -8   5  -1   -0.01    0.53
  10   4  -1   14.46    1.32
  10   4  -1   11.90    1.30
   9   4  -1    1.67    0.77
   9   4  -1    0.36    0.75
   9   4  -1    1.30    0.63
   8   4  -1    3.31    0.76
   8   4  -1    3.92    0.66
   7   4  -1   26.55    1.58
   7   4  -1   26.75    1.69
   6   4  -1   31.47    1.83
   6   4  -1   30.62    1.72
   5   4  -1   24.67    1.46
   5   4  -1   27.57    1.24
   5   4  -1   27.52    1.58
   4   4  -1   21.46    1.26
   4   4  -1   21.37    1.00
   4   4  -1   20.48    1.17
  -4  -4   1   20.83    0.86
   3   4  -1    0.29    0.19
   3   4  -1   -0.11    0.14
   3   4  -1   -0.29    0.31
  -3  -4   1    0.18    0.07
   2   4  -1   52.87    2.19
   2   4  -1   52.56    2.27
   2   4  -1   51.52    2.62
   2   4  -1   56.74    2.61
  -2  -4   1   54.91    2.26
   1   4  -1   53.75    2.34
   1   4  -1   61.16    2.40
   1   4  -1   58.99    2.75
   1   4  -1   57.81    2.40
   1   4  -1   53.12    2.75
  -1  -4   1   60.16    2.74
  -1  -4   1   55.96    2.40
   0   4  -1  125.58    5.88
   0   4  -1  119.50    5.00
   0   4  -1  130.62    5.10
   0   4  -1  132.49    5.87
   0   4  -1  116.92    5.77
   0  -4   1  121.43    5.11
  -1   4  -1   76.08    3.65
  -1   4  -1   77.24    3.73
  -1   4  -1   76.54    3.18
  -1   4  -1   75.99    3.16
  -1   4  -1   82.34    3.72
   1  -4   1   80.65    3.72
  -2   4  -1    1.44    0.20
  -2   4  -1    1.06    0.22
  -2   4  -1    1.30    0.22
  -2   4  -1    1.12    0.20
  -2   4  -1    1.38    0.12
  -2   4  -1    1.61    0.21
   2  -4   1    1.46    0.14
   2  -4   1    1.37    0.21
  -3   4  -1   34.47    1.57
  -3   4  -1   36.22    1.55
  -3   4  -1   36.15    1.83
   3  -4   1   34.64    1.49
   3  -4   1   38.03    1.81
  -4   4  -1   58.84    3.12
  -4   4  -1   66.54    3.10
  -4   4  -1   62.93    2.65
  -4   4  -1   62.24    2.65
   4  -4   1   68.11    3.13
   4  -4   1   60.35    2.59
  -5   4  -1   72.07    3.09
  -5   4  -1   73.83    3.09
  -5   4  -1   70.37    3.66
   5  -4   1   78.23    3.06
  -6   4  -1    3.92    0.48
  -6   4  -1    4.29    0.57
  -6   4  -1    5.90    0.57
   6  -4   1    5.94    0.54
  -7   4  -1    0.45    0.44
  -7   4  -1    0.23    0.38
  -7   4  -1    0.55    0.45
   7  -4   1    0.83    0.45
  -8   4  -1    1.68    0.49
  -8   4  -1    1.17    0.52
  -9   4  -1   14.74    1.03
  10   3  -1    0.12    0.84
 -10  -3   1   -0.03    0.45
   9   3  -1    2.96    0.70
   9   3  -1    3.74    0.80
  -9  -3   1    3.25    0.47
   8   3  -1   30.53    1.76
   8   3  -1   24.97    1.67
  -8  -3   1   28.02    1.34
   7   3  -1    4.11    0.60
   7   3  -1    4.93    0.68
  -7  -3   1    5.09    0.44
   6   3  -1   28.22    1.64
   6   3  -1   30.59    1.70
  -6  -3   1   29.97    1.31
   5   3  -1   28.96    1.57
   5   3  -1   29.18    1.62
  -5  -3   1   28.58    1.25
   4   3  -1    4.42    0.44
   4   3  -1    5.59    0.54
  -4  -3   1    5.33    0.28
   3   3  -1  117.10    5.11
   3   3  -1  118.32    5.91
   3   3  -1  123.85    5.83
  -3  -3   1  137.43    5.91
  -3  -3   1  125.46    4.98
   2   3  -1   25.99    1.39
   2   3  -1   23.90    1.15
   2   3  -1   26.61    1.33
  -2  -3   1   29.64    1.33
   1   3  -1   89.32    3.84
   1   3  -1   94.79    3.93
   1   3  -1   98.28    4.53
   1   3  -1   91.09    4.47
  -1  -3   1  102.22    4.53
  -1  -3   1   99.42    3.93
   0   3  -1   73.21    2.95
   0   3  -1   66.78    3.35
   0   3  -1   68.86    2.90
   0   3  -1   71.43    3.41
   0   3  -1   74.12    3.40
   0  -3   1   77.93    3.40
   0  -3   1   70.77    2.59
   0  -3   1   71.44    2.96
  -1   3  -1   69.15    2.92
  -1   3  -1   75.48    2.60
  -1   3  -1   71.73    2.90
  -1   3  -1   71.38    3.43
  -1   3  -1   69.57    3.34
  -1   3  -1   73.48    3.42
   1  -3   1   72.29    2.85
   1  -3   1   72.22    3.42
  -2   3  -1    2.03    0.22
  -2   3  -1    2.57    0.23
  -2   3  -1    2.10    0.24
   2  -3   1    2.21    0.17
   2  -3   1    2.45    0.23
  -3   3  -1   98.88    4.34
  -3   3  -1   91.79    3.69
  -3   3  -1   87.58    3.67
  -3   3  -1   87.07    4.35
   3  -3   1   93.56    4.35
   3  -3   1   85.06    3.63
  -4   3  -1   25.84    1.29
  -4   3  -1   23.67    1.11
  -4   3  -1   25.45    1.14
   4  -3   1   23.26    1.31
   4  -3   1   23.49    1.09
  -5   3  -1  113.08    4.60
  -5   3  -1  113.48    4.60
   5  -3   1  114.16    5.45
   5  -3   1  109.52    4.58
  -6   3  -1   15.01    0.85
  -6   3  -1   13.57    0.80
   6  -3   1   14.40    0.87
  -7   3  -1    0.36    0.38
  -7   3  -1    1.57    0.40
   7  -3   1    0.91    0.47
   7  -3   1    1.41    0.52
  -8   3  -1    6.51    0.65
  -8   3  -1    6.85    0.64
   8  -3   1    6.63    0.75
  -9   3  -1    6.25    0.69
  -9   3  -1    7.14    0.69
  10   2  -1    0.99    0.86
 -10  -2   1    0.66    0.46
   9   2  -1    0.30    0.64
  -9  -2   1    0.11    0.40
   8   2  -1   18.36    1.33
   8   2  -1   19.75    1.42
  -8  -2   1   20.69    1.05
   7   2  -1   88.31    4.21
   7   2  -1   83.60    4.31
  -7  -2   1   87.23    3.57
   6   2  -1   23.97    1.40
   6   2  -1   24.04    1.40
  -6  -2   1   23.10    1.11
   5   2  -1    0.20    0.35
   5   2  -1    0.07    0.28
  -5  -2   1    0.02    0.16
  -5  -2   1    0.07    0.18
   4   2  -1    5.81    0.51
   4   2  -1    5.23    0.47
  -4  -2   1    5.62    0.36
  -4  -2   1    5.84    0.45
  -4  -2   1    4.67    0.31
   3   2  -1   17.11    0.95
   3   2  -1   16.79    1.00
  -3  -2   1   17.76    0.74
  -3  -2   1   17.46    0.76
  -3  -2   1   18.14    0.94
   2   2  -1  135.15    5.70
   2   2  -1  132.87    6.59
   2   2  -1  135.73    6.46
  -2  -2   1  156.54    6.59
  -2  -2   1  137.82    5.63
   1   2  -1  121.66    5.03
   1   2  -1  121.66    5.81
   1   2  -1  122.38    5.70
  -1  -2   1  130.87    5.81
  -1  -2   1  120.62    5.02
   0   2  -1   78.54    3.75
   0   2  -1   76.08    3.18
   0  -2   1   76.14    3.25
   0  -2   1   80.97    2.87
   0  -2   1   85.85    3.75
  -1   2  -1    6.76    0.36
  -1   2  -1    7.64    0.42
  -1   2  -1    7.58    0.29
   1  -2   1    7.39    0.32
   1  -2   1    7.35    0.41
  -2   2  -1   62.02    2.54
  -2   2  -1   64.13    3.02
  -2   2  -1   63.89    3.00
  -2   2  -1   60.38    2.55
   2  -2   1   63.83    3.00
   2  -2   1   62.15    2.51
  -3   2  -1   10.95    0.60
  -3   2  -1   10.27    0.51
  -3   2  -1   10.64    0.53
   3  -2   1    8.73    0.50
   3  -2   1    9.97    0.61
  -4   2  -1   71.15    2.97
  -4   2  -1   79.15    3.51
  -4   2  -1   70.89    2.96
   4  -2   1   68.56    2.96
   4  -2   1   71.33    3.52
  -5   2  -1   36.56    1.76
  -5   2  -1   32.99    1.49
  -5   2  -1   32.55    1.48
   5  -2   1   32.98    1.78
   5  -2   1   33.62    1.53
  -6   2  -1   27.60    1.26
  -6   2  -1   27.82    1.30
   6  -2   1   26.08    1.53
   6  -2   1   25.97    1.34
  -7   2  -1    5.99    0.53
  -7   2  -1    7.01    0.59
   7  -2   1    8.59    0.73
   7  -2   1    7.38    0.73
  -8   2  -1    6.51    0.59
  -8   2  -1    7.26    0.65
   8  -2   1   10.33    0.89
   8  -2   1    7.82    0.80
  -9   2  -1    9.77    0.83
  -9   2  -1   11.01    0.78
   9  -2   1   12.35    1.01
 -10  -1   1    0.91    0.52
  -9  -1   1   10.31    0.79
   8   1  -1   45.51    2.30
   8   1  -1   41.17    2.38
  -8  -1   1   41.30    1.93
   7   1  -1   17.93    1.22
   7   1  -1   18.26    1.23
  -7  -1   1   19.57    0.98
   6   1  -1   21.50    1.34
   6   1  -1   23.52    1.31
  -6  -1   1   23.67    1.09
   5   1  -1   -0.10    0.27
   5   1  -1   -0.36    0.30
  -5  -1   1    0.16    0.18
  -5  -1   1    0.33    0.21
   4   1  -1   36.41    1.91
   4   1  -1   36.12    1.88
  -4  -1   1   38.24    1.58
  -4  -1   1   41.38    1.93
  -4  -1   1   36.01    1.57
   3   1  -1   31.36    1.57
   3   1  -1   30.95    1.59
  -3  -1   1   31.37    1.31
  -3  -1   1   30.06    1.30
  -3  -1   1   33.43    1.59
   2   1  -1  203.77    9.59
   2   1  -1  200.90    9.35
  -2  -1   1  195.54    8.07
  -2  -1   1  201.30    8.23
  -2  -1   1  218.31    9.59
   1   1  -1   74.61    3.49
   1   1  -1   69.00    3.02
  -1  -1   1   78.28    3.49
   0   1  -1    4.51    0.22
   0   1  -1    4.36    0.24
   0  -1   1    4.59    0.18
   0  -1   1    4.13    0.21
   0  -1   1    4.18    0.24
  -1   1  -1  255.12    9.15
  -1   1  -1  248.28   10.07
  -1   1  -1  262.38   12.00
  -1   1  -1  241.56   11.98
   1  -1   1  248.01   10.05
   1  -1   1  250.34   11.99
   1  -1   1  265.17   10.38
  -2   1  -1    7.36    0.41
  -2   1  -1    7.23    0.36
  -2   1  -1    7.04    0.35
   2  -1   1    6.58    0.41
   2  -1   1    7.26    0.35
  -3   1  -1   49.83    2.28
  -3   1  -1   47.49    1.92
  -3   1  -1   45.39    1.91
   3  -1   1   44.00    2.28
  -4   1  -1   82.97    3.65
  -4   1  -1   74.94    3.07
  -4   1  -1   73.72    3.07
   4  -1   1   70.06    3.66
  -5   1  -1   11.01    0.61
  -5   1  -1   11.85    0.71
  -5   1  -1    9.76    0.58
   5  -1   1    9.82    0.73
  -6   1  -1    0.31    0.24
  -6   1  -1    0.05    0.27
  -6   1  -1    0.24    0.27
   6  -1   1   -0.53    0.31
  -7   1  -1    6.81    0.56
  -7   1  -1    7.45    0.57
   7  -1   1    6.37    0.72
   7  -1   1    8.37    0.72
  -8   1  -1   49.08    2.17
  -8   1  -1   48.02    2.20
   8  -1   1   52.24    2.44
   8  -1   1   50.49    2.33
  -9   1  -1    7.54    0.70
   9  -1   1   10.04    1.01
   9  -1   1   10.18    0.96
 -10   1  -1    1.42    0.51
  10  -1   1    1.85    0.87
  10  -1   1    1.71    0.78
 -10   0   1    6.35    0.71
  -9   0   1    2.06    0.52
  -8   0   1   13.21    0.86
   7   0  -1   34.08    1.74
   7   0  -1   30.87    1.83
  -7   0   1   32.02    1.50
   6   0  -1    3.76    0.51
   6   0  -1    3.80    0.44
  -6   0   1    3.57    0.39
   5   0  -1   10.37    0.78
   5   0  -1   12.26    0.79
  -5   0   1   12.45    0.67
  -5   0   1   13.86    0.83
   4   0  -1   32.17    1.62
   4   0  -1   32.45    1.69
  -4   0   1   36.31    1.71
  -4   0   1   32.80    1.41
  -4   0   1   30.51    1.41
   3   0  -1  110.51    5.13
   3   0  -1  107.91    4.98
  -3   0   1  103.96    4.31
  -3   0   1  100.59    4.35
  -3   0   1  115.53    5.14
   2   0  -1  329.30   15.12
   2   0  -1  324.81   14.63
  -2   0   1  292.93   12.80
  -2   0   1  344.38   15.02
  -2   0   1  305.64   12.69
   1   0  -1    7.65    0.40
  -1   0   1    7.19    0.33
  -1   0   1    7.50    0.40
  -1   0   1    7.36    0.33
   0   0  -1    9.75    0.36
   0   0  -1    9.59    0.47
   0   0  -1    9.55    0.40
   0   0   1    8.09    0.40
   0   0   1    9.60    0.36
  -1   0  -1   11.80    0.52
  -1   0  -1   12.39    0.62
  -1   0  -1   11.65    0.47
  -1   0  -1   11.96    0.62
   1   0   1   12.56    0.53
   1   0   1   12.56    0.62
   1   0   1   12.51    0.52
  -2   0  -1  505.57   22.50
  -2   0  -1  459.74   19.05
  -2   0  -1  471.67   18.99
   2   0   1  470.14   21.88
   2   0   1  482.17   22.59
  -3   0  -1  272.39   11.98
  -3   0  -1  249.49   10.12
  -3   0  -1  251.60   10.10
   3   0   1  247.05   11.67
  -4   0  -1   21.04    1.07
  -4   0  -1   20.18    0.88
  -4   0  -1   20.58    0.91
   4   0   1   19.26    1.09
   4   0   1   19.25    1.01
  -5   0  -1    0.26    0.21
  -5   0  -1    0.01    0.19
  -5   0  -1    0.31    0.17
   5   0   1    0.23    0.23
   5   0   1    0.03    0.25
  -6   0  -1    3.15    0.31
  -6   0  -1    3.37    0.36
   6   0   1    2.85    0.46
   6   0   1    3.51    0.38
  -7   0  -1   28.14    1.31
  -7   0  -1   28.95    1.28
   7   0   1   25.66    1.62
   7   0   1   28.79    1.50
  -8   0  -1    9.67    0.71
   8   0   1    9.40    0.93
   8   0   1   10.25    0.89
  -9   0  -1   48.29    2.27
   9   0   1   51.00    2.46
   9   0   1   56.27    2.61
 -10   0  -1   19.70    1.22
  10   0   1   21.95    1.52
  10   0   1   23.22    1.70
 -10   1   1   13.58    1.00
  -9   1   1   16.68    1.04
  -8   1   1    4.26    0.54
  -7   1   1    1.06    0.39
   6  -1  -1   -0.13    0.27
   6  -1  -1    0.02    0.35
  -6   1   1    0.16    0.31
  -6   1   1    0.27    0.29
   5  -1  -1    4.48    0.49
   5  -1  -1    4.58    0.39
  -5   1   1    3.90    0.38
  -5   1   1    4.03    0.36
  -5   1   1    5.83    0.50
   4  -1  -1  144.04    7.27
   4  -1  -1  153.77    7.03
  -4   1   1  154.91    6.14
  -4   1   1  139.24    6.20
  -4   1   1  149.25    6.14
  -4   1   1  178.24    7.31
   3  -1  -1  104.27    4.66
   3  -1  -1   95.52    4.82
  -3   1   1   96.01    4.12
  -3   1   1  109.77    4.84
  -3   1   1  102.89    4.08
  -3   1   1   98.44    4.07
   2  -1  -1    9.53    0.56
   2  -1  -1   10.85    0.52
  -2   1   1   10.91    0.57
  -2   1   1    8.98    0.47
  -2   1   1    9.54    0.47
  -2   1   1    9.78    0.47
   1  -1  -1  134.91    6.02
  -1   1   1  127.47    5.15
  -1   1   1  121.33    5.10
   0  -1  -1   26.69    1.20
   0  -1  -1   30.66    1.09
   0  -1  -1   28.47    1.19
   0  -1  -1   31.99    1.41
   0   1   1   29.88    1.24
   0   1   1   29.04    1.22
  -1  -1  -1  122.92    5.79
   1   1   1  125.19    4.84
   1   1   1  128.37    5.04
   1   1   1  117.40    5.59
   1   1   1  117.89    5.77
  -2  -1  -1   87.86    3.54
  -2  -1  -1   87.63    3.54
  -2  -1  -1   93.32    4.21
   2   1   1   85.76    4.21
   2   1   1   87.75    4.10
   2   1   1   88.33    3.54
   2   1   1   92.52    3.69
  -3  -1  -1   96.93    3.81
  -3  -1  -1  100.67    4.53
  -3  -1  -1   95.01    3.80
   3   1   1   92.86    4.41
   3   1   1   91.31    4.54
  -4  -1  -1   40.83    1.71
  -4  -1  -1   46.74    2.08
  -4  -1  -1   41.36    1.73
   4   1   1   39.99    2.09
   4   1   1   39.86    2.01
  -5  -1  -1    4.61    0.41
  -5  -1  -1    3.73    0.32
  -5  -1  -1    4.45    0.32
   5   1   1    3.13    0.42
   5   1   1    3.89    0.40
  -6  -1  -1    8.31    0.48
  -6  -1  -1    8.36    0.56
   6   1   1    7.84    0.62
   6   1   1    7.67    0.68
  -7  -1  -1   15.90    0.85
   7   1   1   17.35    1.13
   7   1   1   15.34    1.11
  -8  -1  -1   32.18    1.52
   8   1   1   33.54    1.81
   8   1   1   34.81    1.83
   8   1   1   31.78    1.94
  -9  -1  -1    3.71    0.51
   9   1   1    3.16    0.70
   9   1   1    3.53    0.81
 -10  -1  -1    2.12    0.49
  10   1   1    1.88    0.88
  10   1   1    2.60    0.79
  -9   2   1   27.01    1.43
  -8   2   1    6.60    0.64
  -7   2   1    0.29    0.37
   6  -2  -1    6.23    0.61
  -6   2   1    5.54    0.48
  -6   2   1    6.00    0.53
   5  -2  -1   28.03    1.37
   5  -2  -1   27.33    1.54
  -5   2   1   32.49    1.57
  -5   2   1   28.85    1.32
  -5   2   1   27.03    1.29
   4  -2  -1   99.32    4.74
   4  -2  -1   92.39    4.96
  -4   2   1  102.64    4.21
  -4   2   1  105.31    4.21
  -4   2   1  119.01    5.00
   3  -2  -1   35.80    1.87
   3  -2  -1   37.67    1.74
  -3   2   1   37.57    1.60
  -3   2   1   34.95    1.62
  -3   2   1   42.78    1.90
  -3   2   1   37.29    1.60
   2  -2  -1   11.97    0.65
  -2   2   1   11.89    0.59
  -2   2   1   12.53    0.58
  -2   2   1   11.92    0.58
   1  -2  -1    0.78    0.10
   1  -2  -1    0.59    0.06
  -1   2   1    0.46    0.11
  -1   2   1    0.47    0.10
  -1   2   1    0.37    0.10
  -1   2   1    0.58    0.11
   0  -2  -1   13.57    0.55
   0   2   1   14.16    0.50
   0   2   1   13.20    0.57
   0   2   1   13.44    0.58
   0   2   1   12.76    0.56
   0   2   1   13.50    0.65
   0   2   1   13.20    0.64
   0   2   1   13.46    0.58
  -1  -2  -1  209.74    7.96
  -1  -2  -1  211.36    8.73
  -1  -2  -1  222.56    8.82
  -1  -2  -1  234.35   10.34
   1   2   1  217.82    8.96
   1   2   1  232.41    9.07
   1   2   1  198.53    8.73
   1   2   1  209.78   10.33
   1   2   1  212.03   10.11
   1   2   1  230.71    8.83
   1   2   1  235.83    8.75
  -2  -2  -1   74.91    3.04
  -2  -2  -1   79.72    3.63
   2   2   1   77.10    3.64
   2   2   1   75.34    3.56
  -3  -2  -1   32.60    1.40
  -3  -2  -1   36.87    1.70
   3   2   1   35.76    1.39
   3   2   1   34.76    1.52
   3   2   1   33.34    1.67
   3   2   1   33.06    1.70
  -4  -2  -1    0.31    0.13
  -4  -2  -1    0.21    0.16
   4   2   1    0.19    0.23
   4   2   1    0.34    0.20
  -5  -2  -1   25.41    1.10
   5   2   1   24.27    1.35
   5   2   1   24.77    1.37
  -6  -2  -1   46.51    1.93
   6   2   1   45.59    2.31
   6   2   1   45.00    2.38
  -7  -2  -1   16.37    0.84
   7   2   1   13.83    1.07
   7   2   1   15.31    1.13
   7   2   1   16.85    1.15
  -8  -2  -1   20.38    1.04
   8   2   1   21.11    1.38
   8   2   1   20.44    1.37
   8   2   1   18.02    1.34
  -9  -2  -1    0.14    0.35
   9   2   1   -0.38    0.56
   9   2   1   -0.27    0.67
   9   2   1    0.01    0.58
 -10  -2  -1    3.34    0.53
  10   2   1    2.78    0.77
  10   2   1    3.66    0.95
 -11  -2  -1    0.83    0.52
  11   2   1    1.86    0.95
  11   2   1    2.01    0.83
   9  -3  -1   14.44    1.14
  -9   3   1   15.33    1.08
  -8   3   1    9.02    0.78
  -7   3   1    2.57    0.45
  -7   3   1    2.87    0.50
  -6   3   1   25.17    1.24
  -6   3   1   25.82    1.27
   5  -3  -1   53.46    2.83
  -5   3   1   57.66    2.41
  -5   3   1   58.57    2.43
   4  -3  -1    1.24    0.28
  -4   3   1    1.26    0.26
  -4   3   1    1.68    0.30
  -4   3   1    1.30    0.29
   3  -3  -1   89.09    4.28
  -3   3   1   94.43    3.66
  -3   3   1   88.82    3.66
  -3   3   1   85.91    3.71
   2  -3  -1    0.44    0.14
  -2   3   1    0.84    0.18
  -2   3   1    0.65    0.16
  -2   3   1    0.69    0.17
  -2   3   1    0.46    0.19
   1  -3  -1    9.79    0.50
  -1   3   1    8.96    0.49
  -1   3   1    9.71    0.51
  -1   3   1    9.24    0.47
  -1   3   1    8.85    0.47
   0  -3  -1  288.16   11.36
   0   3   1  282.33   11.86
   0   3   1  277.46   11.44
   0   3   1  298.21   13.26
   0   3   1  302.62   13.50
   0   3   1  300.56   10.40
   0   3   1  265.46   11.46
   0   3   1  287.17   11.53
  -1  -3  -1  122.41    5.52
  -1  -3  -1  117.79    4.78
  -1  -3  -1  112.17    4.25
   1   3   1  116.71    4.68
   1   3   1  118.19    5.42
   1   3   1  127.24    4.73
   1   3   1  105.83    4.66
   1   3   1  117.56    5.53
   1   3   1  118.83    4.84
   1   3   1  120.94    4.66
   1   3   1  116.52    4.78
  -2  -3  -1   55.18    2.54
   2   3   1   53.28    2.13
   2   3   1   48.79    2.55
   2   3   1   51.91    2.21
   2   3   1   50.79    2.53
   2   3   1   60.28    2.15
   2   3   1   53.32    2.25
  -3  -3  -1    2.77    0.20
  -3  -3  -1    3.99    0.30
   3   3   1    3.26    0.31
   3   3   1    3.52    0.16
   3   3   1    3.69    0.34
   3   3   1    2.89    0.29
  -4  -3  -1    0.17    0.11
   4   3   1   -0.14    0.25
   4   3   1   -0.05    0.22
   4   3   1    0.17    0.19
  -5  -3  -1    6.92    0.40
   5   3   1    5.88    0.57
   5   3   1    6.97    0.58
   5   3   1    5.90    0.56
  -6  -3  -1  176.68    6.63
   6   3   1  164.80    7.74
   6   3   1  159.14    7.94
   6   3   1  160.95    7.01
  -7  -3  -1   57.64    2.30
   7   3   1   55.10    2.60
   7   3   1   50.57    2.83
   7   3   1   54.32    2.78
  -8  -3  -1    0.72    0.31
   8   3   1    0.13    0.47
   8   3   1   -0.01    0.60
   8   3   1    0.36    0.55
  -9  -3  -1    0.50    0.36
   9   3   1   -0.50    0.55
   9   3   1   -0.64    0.64
   9   3   1    0.14    0.72
 -10  -3  -1    2.98    0.50
  10   3   1    4.16    0.82
  10   3   1    3.77    0.90
 -11  -3  -1   11.65    0.87
  11   3   1   14.84    1.41
  11   3   1   13.18    1.24
  -9   4   1    2.87    0.65
  -8   4   1    0.59    0.51
  -7   4   1    3.15    0.54
  -7   4   1    2.90    0.49
  -6   4   1   43.26    2.01
  -6   4   1   46.63    2.05
  -5   4   1   21.09    1.08
  -5   4   1   21.60    1.10
   4  -4  -1   46.38    2.37
  -4   4   1   47.54    2.39
  -4   4   1   48.16    2.06
  -4   4   1   48.19    2.06
   3  -4  -1    4.58    0.40
  -3   4   1    4.73    0.41
  -3   4   1    5.69    0.44
  -3   4   1    4.69    0.40
   2  -4  -1   24.86    1.25
  -2   4   1   23.87    1.12
  -2   4   1   25.64    1.27
  -2   4   1   25.29    1.13
   1  -4  -1   73.21    3.34
  -1   4   1   66.60    2.87
  -1   4   1   74.14    3.36
  -1   4   1   67.72    2.93
  -1   4   1   72.41    3.26
  -1   4   1   69.85    2.89
   0  -4  -1   33.48    1.42
   0   4   1   35.96    1.44
   0   4   1   34.25    1.61
   0   4   1   32.91    1.41
   0   4   1   34.50    1.60
   0   4   1   32.74    1.42
   0   4   1   31.72    1.39
   0   4   1   33.90    1.60
  -1  -4  -1   92.31    3.74
  -1  -4  -1   87.80    3.30
   1   4   1   96.79    3.70
   1   4   1   85.30    3.62
   1   4   1   95.86    3.62
   1   4   1   90.86    3.74
   1   4   1   91.28    3.78
   1   4   1   91.59    4.25
   1   4   1   92.55    4.28
   1   4   1   89.60    3.66
  -2  -4  -1  128.43    5.33
   2   4   1  107.14    5.35
   2   4   1  109.96    5.28
   2   4   1  107.42    4.63
   2   4   1  112.55    4.52
   2   4   1  112.94    4.52
   2   4   1  115.50    4.70
  -3  -4  -1   36.43    1.70
   3   4   1   34.30    1.76
   3   4   1   32.89    1.48
   3   4   1   35.00    1.39
   3   4   1   35.74    1.54
   3   4   1   32.80    1.72
  -4  -4  -1   47.26    1.90
   4   4   1   44.33    2.34
   4   4   1   47.60    2.10
   4   4   1   45.66    2.36
   4   4   1   49.85    1.88
  -5  -4  -1   39.05    1.62
   5   4   1   39.45    2.04
   5   4   1   39.36    2.03
   5   4   1   39.12    1.83
  -6  -4  -1   13.22    0.65
   6   4   1   12.16    0.89
   6   4   1   13.15    1.05
   6   4   1   12.28    0.87
  -7  -4  -1   54.53    2.23
   7   4   1   51.01    2.56
   7   4   1   54.99    2.78
   7   4   1   52.57    2.79
  -8  -4  -1    7.44    0.57
   8   4   1    6.88    0.79
   8   4   1    7.00    0.88
   8   4   1    7.69    0.88
  -9  -4  -1    2.00    0.39
   9   4   1    2.36    0.75
   9   4   1    2.26    0.65
   9   4   1    2.03    0.77
 -10  -4  -1   13.41    0.91
  10   4   1   18.14    1.52
  10   4   1   14.91    1.32
  10   4   1   15.14    1.26
  10   4   1   14.18    1.31
 -11  -4  -1    9.81    0.77
  11   4   1   11.42    1.20
  11   4   1   11.06    1.30
  -8   5   1    0.41    0.53
  -7   5   1    6.14    0.68
  -7   5   1    7.23    0.68
  -6   5   1   33.95    1.63
  -6   5   1   33.89    1.64
  -5   5   1   54.20    2.38
  -5   5   1   54.77    2.39
  -4   5   1    8.70    0.63
  -4   5   1    7.82    0.61
   3  -5  -1    0.12    0.21
  -3   5   1    0.03    0.24
  -3   5   1   -0.13    0.26
  -3   5   1    0.30    0.22
   2  -5  -1   26.34    1.33
  -2   5   1   25.11    1.20
  -2   5   1   28.15    1.35
  -2   5   1   26.01    1.20
   1  -5  -1  113.10    5.14
  -1   5   1  105.20    4.40
  -1   5   1  111.78    5.02
  -1   5   1  104.07    5.16
  -1   5   1  108.58    4.43
  -1   5   1  112.43    5.16
  -1   5   1  109.88    3.94
   0  -5  -1   41.91    1.78
   0   5   1   42.65    2.01
   0   5   1   42.34    1.99
   0   5   1   41.68    1.77
   0   5   1   41.86    1.77
   0   5   1   41.75    2.00
   0   5   1   41.43    1.73
  -1  -5  -1   29.85    1.28
  -1  -5  -1   28.73    1.09
   1   5   1   29.46    1.28
   1   5   1   30.13    1.27
   1   5   1   28.69    1.22
   1   5   1   29.88    1.43
   1   5   1   30.63    1.42
   1   5   1   30.71    1.20
   1   5   1   30.31    1.50
  -2  -5  -1    1.51    0.13
  -2  -5  -1    1.42    0.17
   2   5   1    1.30    0.16
   2   5   1    1.33    0.18
   2   5   1    1.81    0.31
   2   5   1    1.26    0.16
   2   5   1    1.46    0.20
   2   5   1    1.47    0.17
   3   5   1    9.19    0.43
   3   5   1    9.30    0.71
   3   5   1    9.03    0.49
   3   5   1    9.61    0.55
   3   5   1    8.55    0.56
   4   5   1   21.97    1.11
   4   5   1   20.68    1.29
   4   5   1   21.87    1.02
   4   5   1   22.98    0.91
   4   5   1   22.34    1.21
   5   5   1   24.43    1.40
   5   5   1   23.76    1.47
   5   5   1   23.54    1.28
   5   5   1   27.38    1.03
  -6  -5  -1   17.81    0.81
   6   5   1   18.71    1.30
   6   5   1   18.44    1.14
   6   5   1   16.77    1.10
  -7  -5  -1    0.39    0.21
   7   5   1   -0.44    0.46
   7   5   1    0.07    0.41
   7   5   1    0.25    0.57
  -8  -5  -1    5.00    0.42
   8   5   1    4.45    0.81
   8   5   1    4.98    0.72
   8   5   1    5.78    0.82
  -9  -5  -1    9.60    0.66
   9   5   1    9.18    1.09
   9   5   1    9.94    0.99
   9   5   1    8.71    1.04
  10   5   1    3.47    0.80
  10   5   1    3.66    0.97
  10   5   1    3.02    0.78
  10   5   1    3.19    0.93
  11   5   1    5.02    1.16
  11   5   1    7.78    1.22
  11   5   1   10.02    1.09
  -7   6   1   11.82    0.89
  -7   6   1   10.17    0.86
  -6   6   1    0.27    0.45
  -6   6   1    1.06    0.48
  -5   6   1   60.04    2.53
  -5   6   1   54.62    2.52
  -4   6   1   18.41    1.02
  -4   6   1   19.09    1.06
  -3   6   1   44.55    1.94
  -3   6   1   45.42    1.92
  -3   6   1   40.71    2.16
   2  -6  -1    3.45    0.29
  -2   6   1    2.67    0.36
  -2   6   1    3.05    0.32
  -2   6   1    3.08    0.18
  -2   6   1    3.49    0.36
  -2   6   1    3.03    0.31
   1  -6  -1   56.93    2.51
  -1   6   1   59.68    2.47
  -1   6   1   64.20    2.78
  -1   6   1   61.30    2.85
  -1   6   1   56.87    2.84
  -1   6   1   56.88    2.49
   0  -6  -1  108.87    4.50
   0   6   1  106.65    5.13
   0   6   1  114.72    5.07
   0   6   1  104.02    4.38
   0   6   1  108.28    4.44
   0   6   1  112.63    5.14
  -1  -6  -1   12.58    0.46
  -1  -6  -1   11.81    0.61
   1   6   1   12.29    0.82
   1   6   1   12.73    0.64
   1   6   1   13.17    0.63
   1   6   1   11.64    0.58
   1   6   1   12.56    0.64
   1   6   1   12.74    0.61
  -2  -6  -1    4.08    0.30
   2   6   1    4.31    0.28
   2   6   1    3.88    0.29
   2   6   1    3.97    0.32
   2   6   1    4.00    0.30
   2   6   1    4.34    0.46
   2   6   1    4.59    0.36
   3   6   1   42.20    1.84
   3   6   1   40.82    2.20
   3   6   1   43.32    1.88
   3   6   1   43.17    1.79
   3   6   1   41.49    2.11
   3   6   1   44.92    1.77
   4   6   1   45.14    1.94
   4   6   1   48.30    1.82
   4   6   1   41.95    2.33
   4   6   1   42.49    2.24
   4   6   1   43.77    2.00
   5   6   1   98.60    3.98
   5   6   1   92.71    4.09
   5   6   1   92.29    4.61
   5   6   1   95.82    4.62
   6   6   1    0.27    0.35
   6   6   1   -0.17    0.48
   6   6   1    1.13    0.43
   6   6   1    0.73    0.26
   7   6   1    9.31    1.00
   7   6   1   12.14    0.90
   7   6   1   10.41    0.92
   8   6   1    6.93    0.79
   8   6   1    6.98    0.88
   8   6   1    8.24    0.99
   9   6   1   23.08    1.84
   9   6   1   24.84    1.66
  10   6   1   11.51    1.10
  10   6   1   10.19    1.27
  10   6   1   11.49    1.17
  10   6   1   10.27    1.22
  11   6   1    4.18    0.94
  11   6   1    2.83    1.01
  11   6   1    3.61    1.10
  -7   7   1   16.18    1.10
  -7   7   1   14.43    1.07
  -6   7   1    9.99    0.83
  -6   7   1    9.22    0.81
  -5   7   1    6.12    0.62
  -5   7   1    8.07    0.71
  -5   7   1    5.52    0.63
  -4   7   1    0.25    0.40
  -4   7   1    0.15    0.30
  -4   7   1   -0.16    0.38
  -3   7   1    0.53    0.37
  -3   7   1    1.00    0.29
  -3   7   1    1.04    0.38
  -2   7   1   46.06    2.40
  -2   7   1   52.54    2.42
  -2   7   1   49.29    2.13
  -2   7   1   48.12    2.16
   1  -7  -1   67.18    2.92
  -1   7   1   64.68    3.30
  -1   7   1   72.06    3.31
  -1   7   1   73.29    3.23
  -1   7   1   70.27    2.87
  -1   7   1   66.53    2.90
   0  -7  -1   15.03    0.75
   0   7   1   16.18    0.78
   0   7   1   16.15    0.80
   0   7   1   16.92    0.91
   0   7   1   13.65    0.77
   0   7   1   14.02    0.75
  -1  -7  -1    2.82    0.27
   1   7   1    2.48    0.24
   1   7   1    2.95    0.24
   1   7   1    2.56    0.25
   1   7   1    2.81    0.40
   1   7   1    2.61    0.22
   1   7   1    2.07    0.30
  -2  -7  -1   24.54    1.11
   2   7   1   25.16    1.01
   2   7   1   23.54    1.10
   2   7   1   24.65    0.99
   2   7   1   24.26    1.39
   2   7   1   25.08    1.12
   2   7   1   24.03    1.20
   2   7   1   23.09    1.22
   2   7   1   23.71    1.09
   3   7   1   21.43    1.20
   3   7   1   23.94    1.03
   3   7   1   23.31    1.01
   3   7   1   22.89    1.07
   3   7   1   22.36    1.36
   3   7   1   23.75    1.11
   4   7   1   12.86    0.86
   4   7   1   13.49    1.14
   4   7   1   14.90    0.76
   4   7   1   15.77    0.68
   4   7   1   14.96    0.86
   4   7   1   14.27    0.78
   5   7   1   37.43    2.02
   5   7   1   42.30    1.76
   5   7   1   39.18    2.19
   5   7   1   36.07    1.82
   6   7   1   36.58    2.10
   6   7   1   34.10    1.80
   6   7   1   37.69    1.68
   6   7   1   36.47    1.97
   7   7   1    5.30    0.74
   7   7   1    4.11    0.79
   7   7   1    7.23    0.56
   7   7   1    5.94    0.69
   8   7   1   11.13    1.04
   8   7   1    9.83    1.12
   8   7   1   10.57    0.98
   9   7   1    0.99    0.63
   9   7   1    1.19    0.79
   9   7   1    0.57    0.81
   9   7   1    1.48    0.65
  10   7   1   10.84    1.27
  10   7   1   12.07    1.11
  10   7   1   10.80    1.37
  -6   8   1    8.26    0.82
  -6   8   1    6.51    0.77
  -5   8   1   -0.30    0.47
  -5   8   1   -0.25    0.50
  -4   8   1    5.03    0.60
  -4   8   1    5.41    0.55
  -4   8   1    5.96    0.66
  -3   8   1   21.07    1.12
  -3   8   1   19.54    1.11
  -3   8   1   18.35    1.10
  -2   8   1   46.60    2.40
  -2   8   1   51.51    2.15
  -2   8   1   48.64    2.17
  -1   8   1    7.85    0.53
  -1   8   1    9.00    0.68
  -1   8   1    8.91    0.56
  -1   8   1    9.18    0.64
   0   8   1   15.45    0.76
   0   8   1   14.63    0.83
   0   8   1   12.71    0.75
   0   8   1   16.30    0.94
   0   8   1   13.17    0.75
  -1  -8  -1    1.08    0.25
   1   8   1    1.07    0.30
   1   8   1    1.52    0.18
   1   8   1    1.22    0.19
   1   8   1    1.25    0.39
   1   8   1    0.79    0.22
   1   8   1    1.11    0.22
  -2  -8  -1   19.75    0.97
   2   8   1   20.63    1.28
   2   8   1   18.83    1.05
   2   8   1   21.83    1.03
   2   8   1   20.21    0.97
   2   8   1   20.59    0.99
   3   8   1   42.47    1.71
   3   8   1   40.81    1.81
   3   8   1   41.71    1.83
   3   8   1   43.51    1.76
   3   8   1   38.61    2.04
   3   8   1   38.53    2.17
   4   8   1   55.64    2.11
   4   8   1   48.56    2.26
   4   8   1   50.27    2.21
   4   8   1   48.75    2.53
   4   8   1   50.13    2.13
   4   8   1   48.95    2.69
   5   8   1    3.73    0.48
   5   8   1    2.98    0.48
   5   8   1    3.62    0.44
   5   8   1    3.52    0.40
   5   8   1    2.60    0.69
   6   8   1   -0.08    0.39
   6   8   1   -0.20    0.28
   6   8   1   -0.18    0.44
   6   8   1   -0.15    0.65
   6   8   1    0.35    0.38
   7   8   1    5.89    0.96
   7   8   1    5.16    0.73
   7   8   1    6.25    0.70
   7   8   1    6.31    0.57
   7   8   1    6.02    0.71
   8   8   1    5.03    0.72
   8   8   1    4.29    0.69
   8   8   1    4.40    0.96
   8   8   1    3.15    0.75
   9   8   1    9.48    1.10
   9   8   1   10.22    1.29
  10   8   1    1.98    0.87
  10   8   1    2.88    1.14
  10   8   1    4.85    0.89
  -5   9   1   -0.25    0.53
  -5   9   1    0.33    0.58
  -4   9   1    9.46    0.83
  -4   9   1    9.72    0.82
  -3   9   1   12.72    0.91
  -3   9   1   11.66    0.79
  -3   9   1   12.12    0.94
  -2   9   1   18.16    1.06
  -2   9   1   19.32    1.07
  -2   9   1   17.74    1.01
  -1   9   1    2.65    0.47
  -1   9   1    2.07    0.39
  -1   9   1    2.42    0.28
   0   9   1    2.93    0.28
   0   9   1    3.03    0.38
   0   9   1    2.42    0.44
   0   9   1    3.79    0.30
   0   9   1    4.22    0.46
   1   9   1   15.87    0.86
   1   9   1   16.80    0.85
   1   9   1   16.20    0.92
   1   9   1   17.37    1.14
   2   9   1    0.72    0.32
   2   9   1    0.43    0.22
   2   9   1    0.86    0.19
   2   9   1    0.38    0.46
   2   9   1    0.57    0.26
   3   9   1   52.73    2.16
   3   9   1   52.51    2.23
   3   9   1   46.85    2.47
   3   9   1   50.70    2.44
   3   9   1   48.85    2.65
   4   9   1   17.10    0.97
   4   9   1   16.99    1.39
   4   9   1   17.14    0.93
   4   9   1   16.79    1.02
   5   9   1    0.52    0.38
   5   9   1    0.53    0.31
   5   9   1    0.69    0.33
   5   9   1    1.10    0.41
   5   9   1    0.26    0.61
   6   9   1    0.16    0.40
   6   9   1   -0.05    0.41
   6   9   1    0.55    0.74
   6   9   1   -0.02    0.30
   6   9   1   -0.11    0.45
   7   9   1    9.14    0.79
   7   9   1    8.27    1.12
   7   9   1    9.07    0.86
   7   9   1    7.97    0.84
   8   9   1    7.00    0.81
   8   9   1    6.58    1.14
   8   9   1    5.80    0.86
   8   9   1    7.65    0.84
   9   9   1   17.46    1.27
   9   9   1   15.66    1.58
   9   9   1   16.00    1.34
  10   9   1    2.52    0.83
  10   9   1    0.54    0.81
  10   9   1    1.55    1.20
  -4  10   1   11.89    0.92
  -4  10   1   10.70    0.94
  -3  10   1   39.73    1.83
  -3  10   1   35.09    1.85
  -2  10   1    0.82    0.28
  -2  10   1    0.08    0.47
  -1  10   1    2.68    0.30
  -1  10   1    2.34    0.53
   0  10   1    5.24    0.58
   0  10   1    5.73    0.41
   1  10   1    8.95    0.56
   1  10   1   10.65    0.73
   1  10   1   12.18    1.03
   2  10   1   30.22    1.59
   2  10   1   33.89    1.85
   2  10   1   33.55    1.53
   3  10   1   12.13    1.11
   3  10   1   15.75    0.85
   3  10   1   14.74    0.86
   4  10   1    8.11    0.96
   4  10   1    9.21    0.64
   4  10   1    9.34    0.72
   4  10   1    8.66    0.71
   5  10   1    0.56    0.35
   5  10   1    0.79    0.76
   5  10   1    0.62    0.43
   5  10   1    0.44    0.40
   6  10   1    5.41    0.64
   6  10   1    4.51    0.63
   6  10   1    4.95    0.99
   7  10   1   11.02    0.98
   7  10   1   10.57    0.95
   7  10   1   13.11    1.35
   7  10   1   10.81    0.86
   8  10   1   18.00    1.31
   8  10   1   19.39    1.26
   8  10   1   17.77    1.65
   9  10   1    1.54    0.81
   9  10   1    3.82    1.22
   9  10   1    5.24    0.81
  -3  11   1    1.49    0.61
  -2  11   1   14.46    1.08
  -1  11   1    0.05    0.20
  -1  11   1    0.85    0.51
   0  11   1   12.30    0.92
   1  11   1   11.87    0.89
   2  11   1   18.26    1.06
   2  11   1   17.09    1.39
   3  11   1    2.21    0.74
   3  11   1    2.12    0.33
   4  11   1    1.94    0.79
   4  11   1    0.89    0.36
   5  11   1    4.53    0.96
   5  11   1    4.68    0.57
   6  11   1    6.84    0.75
   6  11   1    8.09    0.77
   6  11   1    8.08    1.19
   7  11   1    4.44    0.72
   7  11   1    2.41    1.06
   8  11   1    6.84    0.90
   8  11   1    7.51    1.33
  -1  12   1    0.62    0.61
   0  12   1   19.35    1.24
   1  12   1    7.83    0.77
   3  12   1    0.89    0.73
   4  12   1    0.72    0.33
   4  12   1    1.64    0.85
   5  12   1    2.55    0.97
   6  12   1   13.86    1.48
   7  12   1    0.42    1.08
   4  13   1    1.41    0.91
   6  11  -2    1.73    0.97
   5  11  -2   12.25    1.34
   4  11  -2    5.59    1.03
   3  11  -2    8.78    1.06
   2  11  -2    0.27    0.72
   2  11  -2   -0.17    0.44
   1  11  -2    5.37    0.63
   0  11  -2    9.19    0.81
  -1  11  -2    6.28    0.74
   7  10  -2    0.93    0.65
   7  10  -2    0.71    1.01
   6  10  -2   12.52    1.36
   5  10  -2    6.71    1.08
   4  10  -2   13.96    1.02
   4  10  -2   13.20    1.27
   3  10  -2    1.05    0.75
   3  10  -2    1.19    0.42
   3  10  -2    1.39    0.43
   2  10  -2    4.48    0.82
   2  10  -2    5.47    0.55
   2  10  -2    5.96    0.59
   1  10  -2    6.83    0.80
   1  10  -2    7.33    0.65
   1  10  -2    5.81    0.56
   0  10  -2   20.73    1.16
   0  10  -2   19.54    1.16
  -1  10  -2    7.77    0.72
  -2  10  -2   12.94    0.96
  -3  10  -2    3.67    0.63
   8   9  -2    3.40    0.80
   8   9  -2    3.46    1.11
   7   9  -2    0.18    0.84
   7   9  -2   -0.37    0.60
   6   9  -2   12.36    1.31
   6   9  -2   11.68    0.96
   6   9  -2   13.16    1.06
   5   9  -2   12.77    0.91
   5   9  -2   12.96    0.99
   5   9  -2   10.82    1.16
   4   9  -2    1.76    0.78
   4   9  -2    2.40    0.38
   4   9  -2    0.60    0.42
   3   9  -2   -0.16    0.32
   3   9  -2    0.48    0.35
   3   9  -2   -0.36    0.64
   2   9  -2    7.53    0.65
   2   9  -2    7.02    0.85
   2   9  -2    8.89    0.64
   1   9  -2   14.69    0.85
   1   9  -2   13.57    1.18
   1   9  -2   13.83    0.88
   0   9  -2   28.41    1.58
   0   9  -2   24.18    1.38
   0   9  -2   25.35    1.30
  -1   9  -2   12.00    0.77
  -1   9  -2   11.53    0.80
  -1   9  -2   12.80    0.86
  -2   9  -2    1.65    0.43
  -2   9  -2    0.40    0.42
  -2   9  -2    1.29    0.37
  -3   9  -2    0.14    0.45
  -3   9  -2    0.54    0.47
  -4   9  -2   12.84    1.00
  -4   9  -2   13.58    0.98
   9   8  -2   -0.09    0.77
   9   8  -2    0.22    1.03
   8   8  -2    5.60    0.89
   8   8  -2    5.20    1.12
   7   8  -2   34.73    2.25
   7   8  -2   34.68    1.99
   7   8  -2   30.19    1.79
   6   8  -2   15.02    1.14
   6   8  -2   14.32    1.06
   6   8  -2   18.43    1.58
   5   8  -2   11.57    0.86
   5   8  -2   11.96    0.90
   5   8  -2   12.01    1.15
   4   8  -2   -0.40    0.65
   4   8  -2    1.00    0.31
   4   8  -2    0.25    0.33
   4   8  -2    0.83    0.39
   4   8  -2    1.14    0.40
   3   8  -2    2.64    0.66
   3   8  -2    4.03    0.44
   3   8  -2    3.69    0.40
   3   8  -2    3.62    0.45
   3   8  -2    4.15    0.43
   2   8  -2   32.56    1.90
   2   8  -2   32.11    1.45
   2   8  -2   31.08    1.67
   1   8  -2   32.28    1.49
   1   8  -2   33.55    1.41
   1   8  -2   31.80    1.84
   1   8  -2   30.47    1.66
   0   8  -2   22.27    1.27
   0   8  -2   22.71    1.18
   0   8  -2   25.44    1.47
   0   8  -2   24.26    1.11
  -1   8  -2   10.88    0.74
  -1   8  -2   11.42    0.75
  -1   8  -2   12.13    0.71
  -2   8  -2    7.19    0.56
  -2   8  -2    6.11    0.57
  -2   8  -2    6.59    0.59
  -3   8  -2    6.17    0.61
  -3   8  -2    7.37    0.68
  -3   8  -2    7.11    0.64
  -4   8  -2   18.34    1.11
  -5   8  -2   24.67    1.39
  -5   8  -2   24.11    1.35
   9   7  -2    0.11    0.77
   9   7  -2   -0.30    0.96
   8   7  -2   13.99    1.15
   8   7  -2   13.06    1.34
   8   7  -2   13.14    1.16
   7   7  -2    8.87    0.89
   7   7  -2    8.08    0.85
   7   7  -2    8.21    1.04
   6   7  -2    6.74    0.73
   6   7  -2    5.92    0.71
   6   7  -2    6.78    0.95
   5   7  -2    9.11    0.64
   5   7  -2    7.50    0.72
   5   7  -2    9.82    0.95
   5   7  -2    6.55    0.70
   5   7  -2   10.02    0.57
   4   7  -2    1.18    0.64
   4   7  -2    1.63    0.28
   4   7  -2    0.82    0.38
   4   7  -2    1.41    0.38
   4   7  -2    1.47    0.33
   3   7  -2    0.51    0.32
   3   7  -2   -0.04    0.55
   3   7  -2    0.32    0.26
   3   7  -2    0.21    0.25
   3   7  -2    0.36    0.29
   2   7  -2   16.43    0.80
   2   7  -2   15.21    1.21
   2   7  -2   15.71    0.80
   2   7  -2   14.56    0.90
  -2  -7   2   15.19    0.62
   1   7  -2   82.30    3.72
   1   7  -2   75.95    3.71
   1   7  -2   74.98    3.18
   1   7  -2   72.71    3.75
   0   7  -2   19.49    1.09
   0   7  -2   20.17    1.28
   0   7  -2   20.02    1.00
   0   7  -2   20.27    0.94
  -1   7  -2    1.98    0.32
  -1   7  -2    1.58    0.35
  -1   7  -2    2.23    0.43
  -1   7  -2    2.25    0.32
  -2   7  -2    0.16    0.33
  -2   7  -2    0.02    0.27
  -2   7  -2    0.10    0.30
  -3   7  -2   15.92    0.95
  -3   7  -2   16.60    1.04
  -3   7  -2   17.97    0.93
  -4   7  -2   37.49    1.70
  -4   7  -2   32.90    1.90
  -4   7  -2   36.09    1.68
  -5   7  -2   20.70    1.31
  -5   7  -2   19.47    1.16
  -5   7  -2   22.95    1.22
  -6   7  -2    8.04    0.80
  -6   7  -2    8.38    0.76
  10   6  -2    2.07    0.93
  10   6  -2   -0.33    0.99
   9   6  -2   14.57    1.43
   9   6  -2   16.41    1.30
   9   6  -2   14.80    1.33
   8   6  -2    8.34    1.10
   8   6  -2   10.26    0.99
   8   6  -2   10.59    1.01
   7   6  -2   18.24    1.63
   7   6  -2   21.10    1.38
   6   6  -2    4.44    0.48
   6   6  -2    3.92    0.75
   6   6  -2    3.81    0.59
   5   6  -2    3.16    0.49
   5   6  -2    2.07    0.67
   5   6  -2    2.24    0.37
   4   6  -2    6.80    0.60
   4   6  -2    7.05    0.53
   4   6  -2    5.88    0.77
   4   6  -2    7.07    0.60
   3   6  -2  102.16    4.46
   3   6  -2  106.68    5.13
   3   6  -2  106.48    5.12
   3   6  -2  108.72    4.32
   3   6  -2  107.96    4.49
   2   6  -2   17.19    0.99
   2   6  -2   17.95    0.88
   2   6  -2   16.99    1.17
   2   6  -2   17.48    0.89
   2   6  -2   18.48    0.85
   1   6  -2   12.86    0.73
   1   6  -2   13.07    1.03
   1   6  -2   14.78    0.67
   1   6  -2   14.87    0.80
   1   6  -2   13.15    0.79
  -1  -6   2   13.59    0.54
   0   6  -2    0.89    0.22
   0   6  -2    1.47    0.41
   0   6  -2    0.72    0.26
   0   6  -2    0.99    0.23
  -1   6  -2    2.45    0.34
  -1   6  -2    2.15    0.30
  -1   6  -2    2.20    0.41
  -1   6  -2    2.23    0.29
  -1   6  -2    2.76    0.31
  -2   6  -2   30.29    1.67
  -2   6  -2   32.87    1.45
  -2   6  -2   31.54    1.47
  -2   6  -2   34.90    1.66
  -3   6  -2   39.84    1.81
  -3   6  -2   41.94    1.81
  -3   6  -2   40.45    2.10
  -4   6  -2   22.71    1.15
  -4   6  -2   20.71    1.29
  -4   6  -2   23.28    1.16
  -5   6  -2    4.56    0.53
  -5   6  -2    5.11    0.55
  -5   6  -2    3.21    0.53
  -6   6  -2    0.16    0.46
  -6   6  -2   -0.05    0.40
  -6   6  -2    0.25    0.44
  -7   6  -2    0.98    0.49
  -7   6  -2   -0.08    0.50
  10   5  -2    5.56    1.12
  10   5  -2    6.96    1.10
   9   5  -2    1.51    0.90
   9   5  -2    3.01    0.81
   9   5  -2    2.67    0.73
   8   5  -2   11.50    1.15
   8   5  -2   11.28    1.05
   7   5  -2   46.37    2.54
   7   5  -2   42.50    2.40
   6   5  -2    1.38    0.61
   6   5  -2    2.36    0.38
   6   5  -2    1.83    0.46
   5   5  -2    0.13    0.33
   5   5  -2    0.31    0.26
   5   5  -2    0.26    0.50
   4   5  -2   39.06    1.70
   4   5  -2   33.72    1.94
   4   5  -2   38.66    2.06
  -4  -5   2   38.54    1.54
   3   5  -2   95.43    4.45
   3   5  -2   87.89    4.41
   3   5  -2   92.03    3.85
   2   5  -2   91.75    4.41
   2   5  -2   91.34    3.85
   2   5  -2   88.98    3.73
   2   5  -2   90.25    4.42
  -2  -5   2   97.68    3.83
   1   5  -2    7.81    0.42
   1   5  -2    7.24    0.47
   1   5  -2    6.28    0.61
   1   5  -2    7.40    0.49
   1   5  -2    7.12    0.49
  -1  -5   2    7.50    0.33
  -1  -5   2    8.02    0.45
   0   5  -2   15.32    1.03
   0   5  -2   17.06    0.71
   0   5  -2   18.20    0.91
   0   5  -2   16.61    0.81
   0   5  -2   16.60    0.91
   0  -5   2   16.94    0.82
   0  -5   2   16.65    0.63
  -1   5  -2   26.40    1.33
  -1   5  -2   25.15    1.38
  -1   5  -2   25.47    1.33
  -1   5  -2   26.17    1.15
  -1   5  -2   24.39    1.17
   1  -5   2   27.26    1.19
  -2   5  -2  102.38    4.89
  -2   5  -2  109.29    5.03
  -2   5  -2  103.57    4.26
  -2   5  -2  104.07    5.04
  -2   5  -2  102.32    4.29
   2  -5   2  108.94    5.02
  -3   5  -2   36.46    1.65
  -3   5  -2   34.26    1.91
  -3   5  -2   38.01    1.65
   3  -5   2   40.03    1.55
  -4   5  -2    9.99    0.79
  -4   5  -2   11.94    0.70
  -4   5  -2   12.18    0.71
  -5   5  -2   23.44    1.37
  -5   5  -2   23.16    1.19
  -5   5  -2   21.96    1.15
  -6   5  -2    3.14    0.50
  -6   5  -2    3.24    0.47
  -6   5  -2    2.85    0.52
  -7   5  -2   17.48    1.10
  -7   5  -2   16.64    1.05
  -8   5  -2    4.09    0.63
  -8   5  -2    5.24    0.69
  10   4  -2   11.90    1.28
  10   4  -2   11.39    1.26
   9   4  -2    8.25    1.05
   9   4  -2    7.91    0.94
   8   4  -2   11.86    1.11
   8   4  -2   11.99    1.03
   7   4  -2    0.81    0.47
   7   4  -2    1.54    0.66
   6   4  -2    8.22    0.79
   6   4  -2    9.94    0.92
   6   4  -2   11.53    0.67
   5   4  -2   15.59    1.04
   5   4  -2   17.12    0.90
   5   4  -2   17.54    1.27
  -5  -4   2   17.60    0.74
   4   4  -2   65.64    2.72
   4   4  -2   61.19    3.14
   4   4  -2   61.82    3.14
  -4  -4   2   64.15    2.56
   3   4  -2   40.63    1.78
   3   4  -2   41.54    2.14
   3   4  -2   39.48    2.04
  -3  -4   2   41.34    1.67
   2   4  -2   45.03    1.95
   2   4  -2   44.86    2.23
   2   4  -2   45.28    2.30
  -2  -4   2   46.02    1.93
   1   4  -2   14.85    0.82
   1   4  -2   15.80    0.72
   1   4  -2   15.56    0.73
   1   4  -2   14.64    0.95
  -1  -4   2   14.74    0.72
   0   4  -2   20.19    0.90
   0   4  -2   18.76    1.02
   0   4  -2   21.57    0.84
   0   4  -2   19.14    1.03
   0   4  -2   18.15    1.10
   0  -4   2   20.26    0.91
   0  -4   2   19.63    0.74
  -1   4  -2   32.14    1.57
  -1   4  -2   29.38    1.58
  -1   4  -2   31.11    1.36
   1  -4   2   29.63    1.37
   1  -4   2   33.72    1.56
  -2   4  -2   27.31    1.27
  -2   4  -2   27.19    1.47
  -2   4  -2   29.49    1.26
   2  -4   2   29.28    1.19
   2  -4   2   30.23    1.46
  -3   4  -2   76.88    3.91
  -3   4  -2   87.48    3.90
  -3   4  -2   77.75    3.30
  -3   4  -2   80.71    3.32
   3  -4   2   82.81    3.90
   3  -4   2   77.80    3.23
  -4   4  -2    2.41    0.34
  -4   4  -2    2.11    0.36
  -4   4  -2    1.92    0.31
   4  -4   2    2.33    0.35
   4  -4   2    2.26    0.27
  -5   4  -2    3.65    0.42
  -5   4  -2    3.23    0.40
  -5   4  -2    3.26    0.47
   5  -4   2    3.72    0.38
  -6   4  -2    0.70    0.37
  -6   4  -2    1.08    0.42
  -6   4  -2    1.70    0.42
   6  -4   2    1.65    0.39
  -7   4  -2   13.91    0.84
  -7   4  -2   12.44    0.88
  -7   4  -2   11.85    1.03
  -8   4  -2   21.85    1.19
   9   3  -2   10.80    1.07
   9   3  -2   10.02    1.04
   8   3  -2   15.31    1.16
   8   3  -2   14.52    1.19
   7   3  -2    0.17    0.56
   7   3  -2    0.01    0.44
   6   3  -2    3.33    0.51
   6   3  -2    3.00    0.60
  -6  -3   2    3.74    0.30
   5   3  -2   32.41    1.82
   5   3  -2   32.88    1.79
  -5  -3   2   34.70    1.41
   4   3  -2    2.88    0.49
   4   3  -2    3.16    0.39
   4   3  -2    4.15    0.34
  -4  -3   2    3.28    0.25
   3   3  -2   39.92    1.86
   3   3  -2   43.22    2.15
   3   3  -2   43.23    2.18
  -3  -3   2   45.77    1.77
   2   3  -2  157.41    6.86
   2   3  -2  165.39    7.79
   2   3  -2  168.86    7.93
  -2  -3   2  185.96    7.93
  -2  -3   2  162.22    6.84
   1   3  -2    4.49    0.30
   1   3  -2    4.70    0.34
   1   3  -2    5.01    0.43
  -1  -3   2    4.99    0.33
  -1  -3   2    4.81    0.30
   0   3  -2   81.08    3.83
   0   3  -2   78.93    3.25
   0  -3   2   82.68    3.82
   0  -3   2   79.21    2.92
  -1   3  -2  271.90   11.33
  -1   3  -2  297.04   10.26
  -1   3  -2  289.02   13.45
   1  -3   2  282.01   13.36
  -2   3  -2   25.02    1.09
  -2   3  -2   25.27    1.28
  -2   3  -2   24.57    1.10
  -2   3  -2   25.59    1.30
   2  -3   2   25.32    1.28
   2  -3   2   24.82    1.05
  -3   3  -2   29.77    1.57
  -3   3  -2   30.68    1.32
  -3   3  -2   30.65    1.33
  -3   3  -2   32.76    1.55
   3  -3   2   29.60    1.28
   3  -3   2   29.44    1.55
   3  -3   2   29.65    1.28
  -4   3  -2   32.04    1.44
  -4   3  -2   36.16    1.70
  -4   3  -2   31.79    1.72
  -4   3  -2   32.90    1.45
   4  -3   2   31.96    1.41
   4  -3   2   33.16    1.45
   4  -3   2   32.31    1.71
  -5   3  -2   33.62    1.50
  -5   3  -2   32.83    1.51
  -5   3  -2   33.26    1.81
   5  -3   2   34.33    1.80
   5  -3   2   33.55    1.51
   5  -3   2   34.90    1.55
  -6   3  -2   28.84    1.35
  -6   3  -2   28.60    1.38
  -6   3  -2   26.47    1.64
   6  -3   2   31.68    1.44
   6  -3   2   30.06    1.39
  -7   3  -2   54.28    2.39
  -7   3  -2   56.34    2.42
  -7   3  -2   48.58    2.87
   7  -3   2   61.42    2.46
  -8   3  -2    8.15    0.67
  -8   3  -2    6.51    0.82
  -8   3  -2    7.77    0.69
   8  -3   2    8.53    0.80
  -9   3  -2    4.77    0.58
  -9   3  -2    4.41    0.65
 -10  -2   2    4.76    0.65
   9   2  -2   36.92    2.20
  -9  -2   2   37.73    1.76
   8   2  -2    2.47    0.61
   8   2  -2    2.70    0.69
  -8  -2   2    2.43    0.45
   7   2  -2   14.15    1.13
   7   2  -2   13.84    1.01
  -7  -2   2   12.93    0.82
   6   2  -2   12.89    1.04
   6   2  -2   12.08    0.91
  -6  -2   2   13.31    0.68
  -6  -2   2   12.76    0.74
   5   2  -2   50.50    2.51
   5   2  -2   48.72    2.52
  -5  -2   2   50.02    2.08
  -5  -2   2   48.62    2.05
   4   2  -2   85.82    4.00
   4   2  -2   79.52    4.05
  -4  -2   2   84.96    3.39
   3   2  -2    2.93    0.31
   3   2  -2    2.71    0.38
   3   2  -2    2.32    0.23
  -3  -2   2    2.82    0.19
  -3  -2   2    2.33    0.27
   2   2  -2    5.91    0.40
   2   2  -2    5.65    0.34
   2   2  -2    6.57    0.52
  -2  -2   2    6.27    0.40
  -2  -2   2    5.78    0.29
   1   2  -2    9.01    0.46
   1   2  -2    9.97    0.53
  -1  -2   2    9.19    0.45
  -1  -2   2    9.14    0.51
   0   2  -2   35.74    1.74
   0   2  -2   35.66    1.74
   0  -2   2   35.10    1.32
   0  -2   2   36.15    1.51
   0  -2   2   37.09    1.74
  -1   2  -2   57.76    2.50
  -1   2  -2   64.74    2.95
  -1   2  -2   62.01    2.96
  -1   2  -2   63.36    2.25
   1  -2   2   59.28    2.25
   1  -2   2   60.99    2.95
   1  -2   2   60.39    2.46
   1  -2   2   64.61    2.95
  -2   2  -2  113.87    5.44
  -2   2  -2  111.53    4.60
  -2   2  -2  119.32    5.42
   2  -2   2  112.29    4.55
   2  -2   2  111.93    4.69
   2  -2   2  118.53    5.43
  -3   2  -2   61.28    2.97
  -3   2  -2   58.57    2.49
  -3   2  -2   59.85    2.50
  -3   2  -2   63.47    2.95
   3  -2   2   61.53    2.54
   3  -2   2   59.46    2.47
   3  -2   2   61.71    2.96
  -4   2  -2   13.29    0.74
  -4   2  -2   12.99    0.64
  -4   2  -2   11.75    0.64
  -4   2  -2   12.35    0.78
   4  -2   2   10.68    0.63
   4  -2   2   12.73    0.67
   4  -2   2   12.18    0.76
  -5   2  -2   16.92    0.83
  -5   2  -2   18.18    0.97
  -5   2  -2   15.58    0.79
   5  -2   2   16.60    1.00
   5  -2   2   14.63    0.85
   5  -2   2   14.18    0.87
  -6   2  -2   21.67    1.08
  -6   2  -2   22.16    1.06
   6  -2   2   22.80    1.32
   6  -2   2   21.29    1.14
   6  -2   2   22.51    1.21
  -7   2  -2   16.65    0.98
  -7   2  -2   16.16    0.93
   7  -2   2   23.24    1.18
   7  -2   2   19.70    1.11
  -8   2  -2   15.78    0.93
  -8   2  -2   15.93    0.96
   8  -2   2   15.51    1.12
   8  -2   2   16.69    1.18
  -9   2  -2    2.27    0.64
  -9   2  -2    2.77    0.48
  -9   2  -2    1.02    0.50
   9  -2   2    3.03    0.72
 -10  -1   2   18.21    1.19
  -9  -1   2    5.00    0.63
   8   1  -2   35.88    2.00
  -8  -1   2   34.98    1.66
   7   1  -2    4.38    0.62
   7   1  -2    5.28    0.64
  -7  -1   2    4.90    0.49
   6   1  -2  105.63    4.97
   6   1  -2  101.25    5.12
  -6  -1   2  106.01    4.29
  -6  -1   2  105.32    4.29
   5   1  -2   36.96    1.89
   5   1  -2   36.69    1.93
  -5  -1   2   36.40    1.59
  -5  -1   2   35.86    1.56
   4   1  -2  130.67    6.20
   4   1  -2  122.08    6.34
  -4  -1   2  130.30    5.37
  -4  -1   2  151.17    6.37
  -4  -1   2  130.94    5.33
   3   1  -2   62.85    3.03
   3   1  -2   61.55    3.09
  -3  -1   2   64.07    2.59
  -3  -1   2   67.73    3.10
  -3  -1   2   61.18    2.58
   2   1  -2  107.38    5.22
  -2  -1   2  116.78    5.22
  -2  -1   2  106.16    4.43
   1   1  -2   11.35    0.59
   1   1  -2   10.96    0.50
  -1  -1   2   10.28    0.49
  -1  -1   2   11.29    0.58
   0   1  -2  158.16    7.37
   0   1  -2  149.61    6.36
   0   1  -2  165.91    7.37
   0  -1   2  155.76    6.36
   0  -1   2  152.75    5.68
  -1   1  -2  280.85    9.88
  -1   1  -2  283.38   12.87
  -1   1  -2  267.34   12.85
  -1   1  -2  265.95   10.79
   1  -1   2  266.49   10.83
   1  -1   2  257.25    9.89
   1  -1   2  271.06   11.18
   1  -1   2  284.61   12.79
   1  -1   2  274.25   12.87
  -2   1  -2  138.70    6.54
  -2   1  -2  145.89    6.53
  -2   1  -2  134.91    5.52
   2  -1   2  138.13    5.67
   2  -1   2  135.90    6.53
   2  -1   2  136.67    5.49
  -3   1  -2   24.86    1.25
  -3   1  -2   25.48    1.29
  -3   1  -2   23.70    1.06
  -3   1  -2   24.94    1.06
   3  -1   2   25.01    1.09
   3  -1   2   24.61    1.06
   3  -1   2   24.04    1.27
  -4   1  -2   15.70    0.75
  -4   1  -2   15.62    0.73
  -4   1  -2   16.03    0.88
   4  -1   2   15.53    0.90
   4  -1   2   15.33    0.78
   4  -1   2   16.25    0.81
  -5   1  -2   42.03    2.00
  -5   1  -2   38.98    1.67
  -5   1  -2   40.08    1.70
   5  -1   2   38.63    1.74
   5  -1   2   37.62    2.04
   5  -1   2   38.36    1.79
  -6   1  -2   99.40    4.03
  -6   1  -2   98.78    4.05
   6  -1   2   99.39    4.11
   6  -1   2   99.43    4.85
   6  -1   2   97.01    4.24
  -7   1  -2    5.73    0.53
  -7   1  -2    7.47    0.55
   7  -1   2    6.17    0.71
   7  -1   2    5.74    0.63
   7  -1   2    7.49    0.72
  -8   1  -2    1.47    0.37
  -8   1  -2    1.59    0.42
   8  -1   2    0.15    0.54
   8  -1   2    1.12    0.62
  -9   1  -2    0.40    0.36
  -9   1  -2    0.41    0.44
   9  -1   2    0.95    0.68
   9  -1   2    0.32    0.62
 -10   1  -2   22.23    1.33
  10  -1   2   26.65    1.63
 -10   0   2    2.29    0.60
  -9   0   2    0.20    0.47
  -8   0   2    4.69    0.55
   7   0  -2    5.80    0.60
   7   0  -2    6.68    0.73
  -7   0   2    5.43    0.53
   6   0  -2   27.36    1.47
   6   0  -2   24.12    1.50
  -6   0   2   28.51    1.27
  -6   0   2   26.05    1.24
   5   0  -2   47.56    2.61
   5   0  -2   52.19    2.53
  -5   0   2   50.16    2.18
  -5   0   2   59.42    2.65
  -5   0   2   49.87    2.19
   4   0  -2   37.50    1.86
   4   0  -2   34.58    1.90
  -4   0   2   41.01    1.92
  -4   0   2   36.20    1.57
  -4   0   2   36.43    1.59
   3   0  -2   14.58    0.86
   3   0  -2   15.48    0.88
  -3   0   2   16.32    0.87
  -3   0   2   15.19    0.70
  -3   0   2   14.63    0.71
   2   0  -2    4.57    0.35
  -2   0   2    5.06    0.35
  -2   0   2    4.93    0.27
  -2   0   2    4.67    0.30
   1   0  -2    4.16    0.28
   1   0  -2    4.27    0.23
  -1   0   2    5.44    0.30
  -1   0   2    4.23    0.23
   0   0  -2  128.95    4.55
   0   0  -2  124.27    5.91
   0   0  -2  123.07    5.13
   0   0  -2  123.94    5.91
   0   0   2  126.93    5.91
   0   0   2  124.89    5.12
   0   0   2  128.79    4.55
  -1   0  -2    7.43    0.41
  -1   0  -2    7.85    0.41
  -1   0  -2    8.03    0.31
   1   0   2    7.54    0.31
   1   0   2    7.25    0.34
   1   0   2    7.07    0.40
   1   0   2    7.93    0.41
  -2   0  -2  220.01    8.91
  -2   0  -2  223.08   10.48
  -2   0  -2  225.93   10.47
   2   0   2  222.36    8.83
   2   0   2  226.57    9.14
   2   0   2  222.24   10.48
  -3   0  -2    7.54    0.40
  -3   0  -2    8.24    0.39
  -3   0  -2    8.10    0.47
   3   0   2    7.60    0.44
   3   0   2    7.91    0.44
   3   0   2    8.46    0.51
  -4   0  -2    7.76    0.49
  -4   0  -2    7.22    0.41
  -4   0  -2    7.41    0.39
   4   0   2    6.82    0.51
   4   0   2    7.10    0.49
   4   0   2    6.41    0.45
  -5   0  -2   54.95    2.25
  -5   0  -2   56.30    2.27
  -5   0  -2   59.60    2.71
   5   0   2   52.16    2.32
   5   0   2   51.96    2.74
   5   0   2   52.18    2.41
  -6   0  -2   43.25    1.76
  -6   0  -2   42.69    1.79
   6   0   2   38.79    2.18
   6   0   2   40.21    1.87
   6   0   2   41.26    1.96
  -7   0  -2   33.65    1.53
  -7   0  -2   34.14    1.49
   7   0   2   32.95    1.89
   7   0   2   34.51    1.74
   7   0   2   33.68    1.65
  -8   0  -2    2.59    0.44
  -8   0  -2    3.02    0.39
   8   0   2    3.99    0.65
   8   0   2    3.39    0.70
  -9   0  -2   18.01    1.07
  -9   0  -2   19.69    1.02
   9   0   2   19.28    1.36
   9   0   2   22.54    1.42
 -10   0  -2    0.91    0.48
  10   0   2    1.99    0.86
  10   0   2    0.23    0.74
 -10   1   2    5.68    0.74
  -9   1   2    0.39    0.50
  -8   1   2   11.45    0.85
  -7   1   2   64.27    2.77
   6  -1  -2   34.85    1.96
   6  -1  -2   36.47    1.85
  -6   1   2   38.09    1.67
   5  -1  -2   33.94    1.92
   5  -1  -2   38.08    1.84
  -5   1   2   35.90    1.63
  -5   1   2   35.75    1.62
  -5   1   2   40.79    1.97
   4  -1  -2    4.43    0.44
   4  -1  -2    5.88    0.42
  -4   1   2    4.76    0.37
  -4   1   2    5.61    0.49
  -4   1   2    3.51    0.36
   3  -1  -2    6.47    0.47
   3  -1  -2    6.43    0.50
  -3   1   2    7.64    0.50
  -3   1   2    6.48    0.42
  -3   1   2    6.25    0.41
   2  -1  -2   37.45    1.87
  -2   1   2   38.53    1.88
  -2   1   2   38.48    1.60
   1  -1  -2 1000.00   44.13
  -1   1   2  883.47   37.21
  -1   1   2  975.52   44.16
  -1   1   2  896.24   37.72
   0  -1  -2   58.25    2.16
   0  -1  -2   60.87    2.80
   0  -1  -2   57.88    2.41
   0   1   2   59.09    2.40
   0   1   2   60.54    2.16
  -1  -1  -2    4.25    0.25
  -1  -1  -2    4.52    0.26
  -1  -1  -2    4.67    0.20
   1   1   2    4.22    0.25
   1   1   2    4.67    0.20
   1   1   2    4.09    0.23
   1   1   2    4.19    0.22
   1   1   2    4.33    0.26
  -2  -1  -2  121.33    5.58
  -2  -1  -2  119.45    5.57
  -2  -1  -2  120.71    4.70
   2   1   2  118.57    4.87
   2   1   2  113.61    5.58
   2   1   2  116.36    4.71
  -3  -1  -2   24.53    1.02
  -3  -1  -2   25.07    1.04
  -3  -1  -2   25.96    1.24
   3   1   2   24.73    1.07
   3   1   2   24.74    1.10
   3   1   2   23.62    1.22
   3   1   2   24.29    1.26
  -4  -1  -2   99.30    3.90
  -4  -1  -2  106.55    4.67
  -4  -1  -2   97.84    3.92
   4   1   2   90.90    4.68
   4   1   2   95.21    4.53
   4   1   2   95.41    3.96
   4   1   2   97.73    4.11
  -5  -1  -2   51.79    2.29
  -5  -1  -2   46.31    1.90
  -5  -1  -2   45.79    1.88
   5   1   2   43.60    2.22
   5   1   2   43.57    2.06
   5   1   2   43.31    2.32
   5   1   2   44.12    1.98
  -6  -1  -2   27.20    1.17
  -6  -1  -2   26.74    1.20
   6   1   2   26.97    1.40
   6   1   2   27.02    1.44
   6   1   2   27.15    1.52
   6   1   2   24.22    1.33
  -7  -1  -2    0.76    0.29
  -7  -1  -2    0.97    0.24
   7   1   2    0.81    0.46
   7   1   2    0.36    0.38
   7   1   2    0.74    0.43
   7   1   2    0.04    0.43
  -8  -1  -2    3.00    0.42
  -8  -1  -2    3.23    0.36
   8   1   2    2.78    0.69
   8   1   2    2.79    0.60
   8   1   2    2.65    0.61
  -9  -1  -2    7.02    0.61
   9   1   2    9.18    0.99
   9   1   2    8.10    0.87
 -10  -1  -2    4.77    0.58
  10   1   2    6.24    1.00
  10   1   2    5.58    0.91
  -9   2   2    1.09    0.54
  -8   2   2    7.90    0.72
  -7   2   2   35.11    1.67
  -6   2   2   11.10    0.75
   5  -2  -2   32.10    1.82
   5  -2  -2   35.62    1.69
  -5   2   2   31.57    1.56
  -5   2   2   39.19    1.88
  -5   2   2   34.97    1.57
   4  -2  -2    9.77    0.60
   4  -2  -2    9.13    0.64
  -4   2   2    9.15    0.59
  -4   2   2    8.39    0.60
  -4   2   2   10.47    0.69
   3  -2  -2    0.96    0.22
   3  -2  -2    0.94    0.19
  -3   2   2    1.04    0.21
  -3   2   2    1.32    0.24
  -3   2   2    0.80    0.20
  -3   2   2    0.96    0.21
   2  -2  -2  253.15   11.71
  -2   2   2  253.85    9.91
  -2   2   2  245.20    9.93
  -2   2   2  245.92   10.02
   1  -2  -2   77.84    3.64
  -1   2   2   75.21    3.09
  -1   2   2   78.48    3.65
  -1   2   2   76.28    3.13
   0  -2  -2  322.91   14.22
   0   2   2  302.10   10.98
   0   2   2  299.50   14.20
   0   2   2  283.30   12.20
  -1  -2  -2  149.51    6.66
  -1  -2  -2  139.43    5.10
  -1  -2  -2  140.30    6.60
   1   2   2  139.84    5.58
   1   2   2  144.18    5.10
   1   2   2  133.60    6.66
   1   2   2  139.47    5.79
   1   2   2  145.24    6.69
   1   2   2  141.34    6.46
   1   2   2  138.31    5.65
  -2  -2  -2   29.17    1.40
   2   2   2   28.43    1.41
   2   2   2   29.50    1.20
   2   2   2   28.24    1.39
   2   2   2   29.49    1.25
  -3  -2  -2   31.66    1.27
  -3  -2  -2   30.79    1.24
  -3  -2  -2   32.62    1.52
   3   2   2   31.09    1.31
   3   2   2   29.41    1.54
   3   2   2   29.91    1.52
   3   2   2   30.64    1.37
  -4  -2  -2  108.97    4.32
  -4  -2  -2  120.93    5.16
  -4  -2  -2  105.18    4.30
   4   2   2  101.73    4.38
   4   2   2  106.21    5.18
   4   2   2  109.63    4.55
   4   2   2  104.47    5.04
  -5  -2  -2  122.74    4.79
  -5  -2  -2  121.98    4.77
   5   2   2  118.04    5.76
   5   2   2  117.20    5.59
   5   2   2  117.49    4.88
   5   2   2  119.17    5.05
  -6  -2  -2   10.04    0.48
  -6  -2  -2    8.53    0.54
   6   2   2    8.88    0.73
   6   2   2    8.15    0.68
   6   2   2    8.67    0.71
   6   2   2    8.16    0.66
  -7  -2  -2    0.53    0.28
   7   2   2   -0.33    0.40
   7   2   2    0.17    0.39
   7   2   2   -0.11    0.39
   7   2   2    0.07    0.49
  -8  -2  -2   11.05    0.72
   8   2   2    9.35    0.96
   8   2   2   12.79    0.97
   8   2   2   12.00    0.91
   8   2   2   11.02    0.99
  -9  -2  -2    7.01    0.59
   9   2   2    8.21    0.97
   9   2   2    8.07    0.82
   9   2   2    7.12    0.88
   9   2   2    7.52    0.92
 -10  -2  -2   22.19    1.20
  10   2   2   26.33    1.62
  10   2   2   22.86    1.65
 -11  -2  -2    6.82    0.68
  11   2   2    6.75    1.12
  11   2   2    6.28    1.00
  -9   3   2    2.13    0.59
  -8   3   2   30.80    1.60
  -7   3   2   18.38    1.07
  -6   3   2   10.96    0.77
   5  -3  -2    0.31    0.29
  -5   3   2    0.41    0.31
  -5   3   2    0.68    0.32
   4  -3  -2   16.20    0.99
  -4   3   2   17.73    0.89
  -4   3   2   16.88    0.88
  -4   3   2   19.57    1.05
  -4   3   2   16.12    0.89
   3  -3  -2   34.68    1.83
   3  -3  -2   40.95    1.70
  -3   3   2   37.30    1.59
  -3   3   2   30.98    1.83
  -3   3   2   37.92    1.59
  -3   3   2   36.39    1.61
   2  -3  -2   45.97    2.24
  -2   3   2   47.42    1.94
  -2   3   2   46.21    1.93
  -2   3   2   47.61    2.27
  -2   3   2   43.97    1.95
   1  -3  -2   10.55    0.54
  -1   3   2   10.23    0.50
  -1   3   2   10.29    0.52
  -1   3   2    9.88    0.51
  -1   3   2   10.88    0.57
   0  -3  -2   22.43    1.06
   0  -3  -2   22.27    1.06
   0   3   2   22.95    1.07
   0   3   2   23.45    0.84
   0   3   2   20.96    0.96
   0   3   2   22.53    0.97
   0   3   2   22.32    0.93
  -1  -3  -2   28.79    1.38
  -1  -3  -2   29.37    1.09
  -1  -3  -2   29.37    1.38
   1   3   2   28.05    1.20
   1   3   2   29.00    1.41
   1   3   2   29.40    1.19
   1   3   2   30.31    1.09
   1   3   2   28.91    1.39
   1   3   2   29.26    1.25
   1   3   2   28.56    1.21
   1   3   2   28.66    1.22
   1   3   2   31.09    1.39
  -2  -3  -2  179.38    7.37
  -2  -3  -2  186.29    8.69
   2   3   2  184.60    8.74
   2   3   2  193.21    7.35
   2   3   2  191.10    7.63
   2   3   2  183.43    7.45
   2   3   2  181.04    8.52
  -3  -3  -2   54.19    2.13
  -3  -3  -2   57.15    2.57
   3   3   2   54.59    2.59
   3   3   2   51.62    2.55
   3   3   2   52.09    2.19
   3   3   2   49.80    2.27
  -4  -3  -2  125.15    5.02
   4   3   2  126.84    5.29
   4   3   2  123.20    6.02
   4   3   2  123.94    5.88
   4   3   2  132.06    5.10
  -5  -3  -2    0.37    0.15
   5   3   2    0.49    0.27
   5   3   2    0.47    0.32
   5   3   2    0.17    0.28
  -6  -3  -2    1.01    0.22
   6   3   2    1.40    0.41
   6   3   2    0.29    0.39
   6   3   2    0.40    0.34
  -7  -3  -2    0.20    0.23
   7   3   2    0.00    0.45
   7   3   2    0.01    0.38
   7   3   2    0.29    0.45
   7   3   2   -0.38    0.40
  -8  -3  -2   17.55    0.87
   8   3   2   13.60    1.18
   8   3   2   18.04    1.21
   8   3   2   15.85    1.21
   8   3   2   18.30    1.30
  -9  -3  -2   18.72    0.99
   9   3   2   17.34    1.47
   9   3   2   17.28    1.35
   9   3   2   17.47    1.26
   9   3   2   18.89    1.39
 -10  -3  -2   20.22    1.11
  10   3   2   20.52    1.50
  10   3   2   19.40    1.48
 -11  -3  -2    3.36    0.54
  11   3   2    2.50    1.00
  11   3   2    3.53    0.90
  -8   4   2    3.93    0.63
  -7   4   2    7.08    0.71
  -6   4   2   19.13    1.08
  -6   4   2   18.77    1.05
  -5   4   2    3.22    0.44
  -5   4   2    4.42    0.48
   4  -4  -2   23.80    1.32
  -4   4   2   22.04    1.21
  -4   4   2   26.13    1.19
  -4   4   2   26.74    1.37
  -4   4   2   23.60    1.18
   3  -4  -2   88.50    4.35
  -3   4   2   98.64    4.40
  -3   4   2   88.90    3.74
  -3   4   2   85.43    3.79
  -3   4   2   93.66    3.74
   2  -4  -2   22.68    1.17
  -2   4   2   22.89    1.06
  -2   4   2   24.23    1.21
  -2   4   2   22.18    1.08
  -2   4   2   23.76    1.08
   1  -4  -2   25.91    1.20
  -1   4   2   23.95    1.10
  -1   4   2   24.58    1.23
  -1   4   2   25.23    0.93
  -1   4   2   23.53    1.07
  -1   4   2   24.49    1.10
   0  -4  -2   22.04    0.95
   0   4   2   22.70    0.98
   0   4   2   22.42    0.95
   0   4   2   23.10    1.10
   0   4   2   22.32    0.98
   0   4   2   22.28    1.07
   0   4   2   21.51    0.83
  -1  -4  -2   13.66    0.62
  -1  -4  -2   14.06    0.55
   1   4   2   14.06    0.60
   1   4   2   13.87    0.65
   1   4   2   15.03    0.55
   1   4   2   15.32    0.65
   1   4   2   13.61    0.64
   1   4   2   13.92    0.77
  -2  -4  -2   53.33    2.42
   2   4   2   49.31    2.45
   2   4   2   50.42    2.17
   2   4   2   49.06    2.06
   2   4   2   54.90    2.08
   2   4   2   51.40    2.07
   2   4   2   49.98    2.11
   2   4   2   50.50    2.44
  -3  -4  -2  173.21    7.45
  -3  -4  -2  205.04    8.88
   3   4   2  198.64    7.52
   3   4   2  179.12    7.79
   3   4   2  181.38    8.71
   3   4   2  181.93    8.89
   3   4   2  203.10    7.59
  -4  -4  -2   34.63    1.41
   4   4   2   34.01    1.76
   4   4   2   33.15    1.56
   4   4   2   34.75    1.51
   4   4   2   35.88    1.78
  -5  -4  -2   31.19    1.29
   5   4   2   30.19    1.65
   5   4   2   32.43    1.64
   5   4   2   30.23    1.48
   5   4   2   29.44    1.42
  -6  -4  -2    0.58    0.18
   6   4   2    0.40    0.32
   6   4   2    0.38    0.37
   6   4   2    0.52    0.43
  -7  -4  -2   71.99    2.80
   7   4   2   62.57    3.45
   7   4   2   67.48    2.99
   7   4   2   70.16    3.42
   7   4   2   66.52    3.12
  -8  -4  -2   23.52    1.09
   8   4   2   22.65    1.57
   8   4   2   22.33    1.41
   8   4   2   20.42    1.45
   8   4   2   25.25    1.38
  -9  -4  -2   23.70    1.17
   9   4   2   24.61    1.47
   9   4   2   24.73    1.78
   9   4   2   23.30    1.60
   9   4   2   23.04    1.60
 -10  -4  -2    4.26    0.50
  10   4   2    4.44    0.83
  10   4   2    3.75    0.94
  10   4   2    4.14    0.84
  10   4   2    4.48    0.95
 -11  -4  -2    3.12    0.53
  11   4   2    4.91    1.07
  11   4   2    3.34    0.88
  -7   5   2   17.57    1.11
  -6   5   2    4.45    0.57
  -6   5   2    3.94    0.54
  -5   5   2   14.83    0.90
  -5   5   2   14.63    0.92
  -4   5   2   42.88    2.00
  -4   5   2   47.68    2.01
   3  -5  -2   80.16    3.83
  -3   5   2   79.22    3.31
  -3   5   2   86.70    3.88
  -3   5   2   76.81    3.32
  -3   5   2   74.45    3.36
   2  -5  -2   24.49    1.23
  -2   5   2   25.68    1.28
  -2   5   2   24.32    1.18
  -2   5   2   23.66    1.15
  -2   5   2   24.34    1.14
   1  -5  -2   20.27    0.98
  -1   5   2   21.65    0.98
  -1   5   2   20.17    1.03
  -1   5   2   20.56    0.77
  -1   5   2   18.28    0.92
  -1   5   2   20.09    0.95
   0  -5  -2   38.22    1.63
   0   5   2   39.40    1.67
   0   5   2   40.12    1.85
   0   5   2   38.11    1.83
   0   5   2   38.16    1.60
   0   5   2   37.05    1.83
   0   5   2   39.62    1.64
   0   5   2   38.84    1.42
  -1  -5  -2  117.61    4.74
  -1  -5  -2  114.11    4.20
   1   5   2  117.31    4.80
   1   5   2  114.76    4.59
   1   5   2  112.88    4.66
   1   5   2  114.38    5.38
   1   5   2  115.21    4.61
   1   5   2  123.11    4.71
  -2  -5  -2    3.87    0.22
   2   5   2    4.29    0.25
   2   5   2    3.85    0.30
   2   5   2    4.12    0.27
   2   5   2    4.31    0.39
   2   5   2    3.65    0.27
   2   5   2    4.00    0.26
   2   5   2    4.54    0.28
   3   5   2   82.85    3.22
   3   5   2   80.60    3.41
   3   5   2   82.85    3.34
   3   5   2   80.37    3.27
   3   5   2   80.76    3.85
   3   5   2   76.70    3.85
  -4  -5  -2   14.43    0.60
   4   5   2   13.35    0.77
   4   5   2   14.76    0.95
   4   5   2   14.25    0.84
   4   5   2   14.74    0.76
   4   5   2   15.14    0.70
  -5  -5  -2    1.48    0.16
   5   5   2    1.77    0.39
   5   5   2    1.73    0.45
   5   5   2    1.50    0.33
   5   5   2    1.45    0.32
  -6  -5  -2    2.45    0.23
   6   5   2    2.30    0.54
   6   5   2    2.06    0.43
   6   5   2    1.73    0.41
   6   5   2    2.85    0.48
  -7  -5  -2   11.79    0.60
   7   5   2   10.14    0.83
   7   5   2   10.11    0.86
   7   5   2   10.34    0.96
   7   5   2   10.49    0.89
  -8  -5  -2   32.44    1.47
   8   5   2   37.47    1.76
   8   5   2   35.02    2.06
   8   5   2   31.34    1.93
   8   5   2   31.39    1.81
  -9  -5  -2    6.38    0.49
   9   5   2    4.82    0.90
   9   5   2    5.48    0.78
   9   5   2    4.88    0.79
   9   5   2    4.68    0.90
  10   5   2    0.48    0.79
  10   5   2   -0.85    0.63
  10   5   2    0.34    0.71
  10   5   2    0.23    0.84
  11   5   2    2.32    1.04
  11   5   2    1.53    1.03
  11   5   2    2.95    0.84
  -7   6   2    7.86    0.79
  -6   6   2    1.96    0.53
  -6   6   2    0.60    0.47
  -5   6   2   24.51    1.29
  -5   6   2   22.33    1.27
  -4   6   2    3.00    0.45
  -4   6   2    2.93    0.45
  -3   6   2   93.76    3.79
  -3   6   2   88.78    3.81
   2  -6  -2   99.93    4.50
  -2   6   2   99.10    4.55
  -2   6   2   91.87    3.90
  -2   6   2   89.88    3.45
  -2   6   2   94.07    3.93
  -1   6   2    0.19    0.14
  -1   6   2    0.13    0.07
  -1   6   2   -0.13    0.24
  -1   6   2   -0.02    0.27
  -1   6   2    0.09    0.16
  -1   6   2    0.06    0.20
   0  -6  -2   33.93    1.46
   0   6   2   33.20    1.61
   0   6   2   33.88    1.51
   0   6   2   33.50    1.62
   0   6   2   32.02    1.43
   0   6   2   35.75    1.66
   0   6   2   35.03    1.48
  -1  -6  -2   28.00    1.19
  -1  -6  -2   26.41    1.02
   1   6   2   26.30    1.21
   1   6   2   29.89    1.23
   1   6   2   27.91    1.21
   1   6   2   27.56    1.41
   1   6   2   27.13    1.14
  -2  -6  -2  103.71    4.40
   2   6   2  105.43    4.32
   2   6   2  101.13    5.05
   2   6   2  111.23    4.27
   2   6   2  105.61    4.40
   2   6   2  122.42    4.37
   2   6   2  104.84    4.47
   2   6   2  104.40    5.04
   3   6   2   29.62    1.14
   3   6   2   26.55    1.16
   3   6   2   25.42    1.36
   3   6   2   28.04    1.25
   3   6   2   25.58    1.49
   3   6   2   26.34    1.19
   4   6   2    3.60    0.39
   4   6   2    2.77    0.35
   4   6   2    3.38    0.33
   4   6   2    3.53    0.30
   4   6   2    2.46    0.46
   5   6   2    5.87    0.55
   5   6   2    7.07    0.44
   5   6   2    6.97    0.53
   5   6   2    5.35    0.55
   5   6   2    6.19    0.68
  -6  -6  -2   72.60    2.93
   6   6   2   76.10    3.66
   6   6   2   73.42    3.14
   6   6   2   71.48    3.65
   6   6   2   71.82    3.26
  -7  -6  -2   38.34    1.60
   7   6   2   36.46    1.92
   7   6   2   39.91    2.19
   7   6   2   40.25    1.89
   7   6   2   37.11    2.11
   8   6   2    4.07    0.85
   8   6   2    5.75    0.82
   8   6   2    6.12    0.73
   8   6   2    5.37    0.71
   9   6   2    5.95    0.85
   9   6   2    7.91    1.06
   9   6   2    7.25    0.86
   9   6   2    8.04    1.02
  10   6   2   -0.20    0.61
  10   6   2    0.31    0.86
  10   6   2   -0.10    0.67
  10   6   2    0.09    0.90
  11   6   2    8.10    1.19
  11   6   2    7.20    1.29
  11   6   2    7.27    1.03
  -7   7   2    6.03    0.76
  -6   7   2    2.83    0.59
  -6   7   2    2.62    0.59
  -5   7   2    1.81    0.54
  -5   7   2    1.13    0.48
  -4   7   2   52.99    2.42
  -4   7   2   55.69    2.41
  -3   7   2    0.95    0.28
  -3   7   2    1.01    0.39
  -3   7   2    1.11    0.39
  -2   7   2    0.44    0.34
  -2   7   2    0.33    0.31
  -2   7   2    0.05    0.20
  -2   7   2    0.42    0.25
   1  -7  -2    0.31    0.19
  -1   7   2    0.47    0.20
  -1   7   2    0.19    0.25
  -1   7   2    0.18    0.30
  -1   7   2    0.16    0.16
   0  -7  -2   17.98    0.86
   0   7   2   19.86    1.02
   0   7   2   17.84    0.86
   0   7   2   19.70    0.93
   0   7   2   18.46    0.91
   0   7   2   17.03    0.89
  -1  -7  -2   41.78    1.81
   1   7   2   43.73    2.11
   1   7   2   41.97    1.82
   1   7   2   42.11    1.82
   1   7   2   42.40    1.74
  -2  -7  -2   35.21    1.58
   2   7   2   35.52    1.77
   2   7   2   38.28    1.59
   2   7   2   38.37    1.51
   2   7   2   35.99    1.91
   2   7   2   38.24    1.63
   3   7   2    6.81    0.47
   3   7   2    6.69    0.61
   3   7   2    7.15    0.43
   3   7   2    6.79    0.42
   3   7   2    6.60    0.42
   3   7   2    6.45    0.50
   4   7   2    0.12    0.24
   4   7   2   -0.03    0.42
   4   7   2    0.13    0.13
   4   7   2    0.13    0.19
   4   7   2    0.43    0.29
   4   7   2    0.21    0.22
   5   7   2   52.17    2.30
   5   7   2   53.03    2.42
   5   7   2   53.46    2.81
   5   7   2   53.03    2.69
   5   7   2   56.17    2.32
   6   7   2    2.25    0.47
   6   7   2    1.53    0.43
   6   7   2    2.22    0.44
   6   7   2    3.08    0.68
   6   7   2    2.16    0.32
   7   7   2    7.85    0.96
   7   7   2    7.93    0.79
   7   7   2    9.16    0.77
   7   7   2    8.89    0.80
   7   7   2    8.97    0.61
   8   7   2   33.43    2.13
   8   7   2   34.48    1.73
   8   7   2   31.87    1.89
   8   7   2   29.01    1.74
   9   7   2    8.69    1.01
   9   7   2    7.13    1.14
   9   7   2   10.25    0.95
   9   7   2    8.76    0.97
  10   7   2    2.05    1.05
  10   7   2    1.86    0.90
  10   7   2    2.50    0.79
  11   7   2    2.88    1.20
  11   7   2    3.76    0.93
  11   7   2    2.64    1.04
  -6   8   2    7.57    0.80
  -6   8   2    7.65    0.81
  -5   8   2   28.30    1.50
  -5   8   2   28.09    1.54
  -4   8   2   25.23    1.53
  -4   8   2   32.34    1.51
  -4   8   2   30.25    1.49
  -3   8   2    3.88    0.53
  -3   8   2    4.07    0.52
  -3   8   2    3.60    0.41
  -2   8   2    0.91    0.25
  -2   8   2    0.80    0.42
  -2   8   2    0.82    0.36
   1  -8  -2   20.31    0.99
  -1   8   2   19.18    1.02
  -1   8   2   18.95    1.00
  -1   8   2   21.68    1.06
  -1   8   2   19.59    1.06
   0  -8  -2   36.07    1.60
   0   8   2   36.27    1.56
   0   8   2   37.54    1.81
   0   8   2   33.71    1.71
   0   8   2   37.91    1.64
  -1  -8  -2  107.93    4.53
   1   8   2  110.74    4.38
   1   8   2  111.26    5.15
   1   8   2  109.98    4.49
   1   8   2  107.55    4.55
  -2  -8  -2   15.08    0.77
   2   8   2   15.30    0.80
   2   8   2   17.72    0.85
   2   8   2   16.37    0.82
   2   8   2   16.31    1.08
   3   8   2    2.28    0.29
   3   8   2    2.29    0.35
   3   8   2    2.47    0.28
   3   8   2    2.21    0.27
   3   8   2    2.65    0.24
   3   8   2    2.03    0.50
   4   8   2    8.98    0.58
   4   8   2    9.08    0.84
   4   8   2   10.25    0.59
   4   8   2    9.42    0.68
   4   8   2   11.58    0.54
   4   8   2    9.58    0.67
   5   8   2   43.74    1.87
   5   8   2   38.57    1.95
   5   8   2   43.92    2.33
   5   8   2   41.11    2.17
   5   8   2   43.78    1.89
   6   8   2   36.32    1.95
   6   8   2   39.63    1.67
   6   8   2   35.54    1.68
   6   8   2   34.67    2.17
   6   8   2   32.29    1.74
   7   8   2    7.88    0.80
   7   8   2    8.61    0.84
   7   8   2    8.15    0.76
   7   8   2    8.45    1.03
   7   8   2    8.13    0.63
   8   8   2    0.78    0.64
   8   8   2    0.41    0.54
   8   8   2   -0.08    0.81
   8   8   2    0.95    0.57
   9   8   2    3.92    0.78
   9   8   2    3.16    1.05
   9   8   2    3.65    0.85
   9   8   2    4.48    0.75
  10   8   2   -0.29    1.03
  10   8   2    0.29    0.68
  10   8   2   -0.20    0.78
  -5   9   2    9.25    0.84
  -5   9   2    7.62    0.83
  -4   9   2    2.98    0.60
  -4   9   2    2.72    0.60
  -3   9   2    5.84    0.62
  -3   9   2    5.47    0.50
  -3   9   2    5.33    0.65
  -2   9   2    2.15    0.30
  -2   9   2    1.44    0.43
  -2   9   2    2.36    0.52
  -1   9   2   10.46    0.60
  -1   9   2   10.66    0.79
  -1   9   2   10.81    0.71
   0   9   2   10.11    0.75
   0   9   2    7.13    0.62
   0   9   2    7.86    0.57
   1   9   2   25.60    1.28
   1   9   2   26.66    1.49
  -2  -9  -2   46.92    2.09
   2   9   2   48.70    2.09
   2   9   2   47.20    2.11
   2   9   2   49.96    2.48
   3   9   2    5.43    0.47
   3   9   2    6.63    0.70
   3   9   2    5.30    0.45
   3   9   2    4.75    0.41
   3   9   2    5.34    0.37
   4   9   2    0.37    0.28
   4   9   2    0.36    0.24
   4   9   2    0.56    0.26
   4   9   2    0.27    0.34
   4   9   2   -0.09    0.57
   5   9   2   10.27    1.06
   5   9   2   14.24    0.77
   5   9   2   13.34    0.90
   5   9   2   14.13    0.89
   5   9   2   13.14    0.78
   6   9   2   34.84    1.53
   6   9   2   29.60    2.06
   6   9   2   31.67    1.54
   6   9   2   30.87    1.77
   6   9   2   30.46    1.63
   7   9   2   18.39    1.25
   7   9   2   16.45    1.20
   7   9   2   20.22    1.68
   7   9   2   19.88    1.04
   7   9   2   18.12    1.13
   8   9   2   -0.66    0.89
   8   9   2    0.67    0.55
   8   9   2   -0.16    0.61
   8   9   2    0.28    0.55
   9   9   2   -0.24    0.71
   9   9   2    0.46    0.61
   9   9   2   -0.76    1.00
  10   9   2    4.56    0.98
  10   9   2    2.97    0.81
  10   9   2    3.24    1.21
  -4  10   2    0.84    0.59
  -4  10   2   -0.06    0.55
  -3  10   2    0.24    0.51
  -3  10   2   -0.53    0.52
  -3  10   2   -0.09    0.30
  -2  10   2    5.71    0.46
  -1  10   2   32.17    1.50
  -1  10   2   26.14    1.35
   0  10   2   25.55    1.35
   1  10   2    2.92    0.50
   1  10   2    1.76    0.43
   2  10   2    0.47    0.37
   2  10   2    1.00    0.51
   3  10   2    0.50    0.33
   3  10   2    0.33    0.32
   3  10   2    0.25    0.56
   3  10   2    0.54    0.16
   3  10   2    0.74    0.19
   4  10   2   19.70    0.97
   4  10   2   17.93    1.45
   4  10   2   17.04    1.01
   4  10   2   18.45    1.01
   5  10   2    9.30    0.76
   5  10   2   10.12    0.70
   5  10   2    9.83    0.77
   5  10   2   10.39    1.08
   6  10   2   23.62    1.37
   6  10   2   22.34    1.81
   6  10   2   22.99    1.19
   6  10   2   20.48    1.27
   7  10   2    0.23    0.45
   7  10   2   -0.07    0.54
   7  10   2    0.25    0.48
   7  10   2   -0.29    0.89
   8  10   2    3.09    0.65
   8  10   2    1.87    0.98
   8  10   2    3.61    0.76
   9  10   2    3.09    0.84
   9  10   2    4.63    1.22
  -3  11   2    5.00    0.74
  -2  11   2   11.63    0.97
  -1  11   2    7.71    0.78
   0  11   2   14.32    1.03
   1  11   2    4.03    0.59
   2  11   2    1.80    0.48
   2  11   2    2.48    0.61
   3  11   2    8.77    0.92
   4  11   2   23.95    1.25
   4  11   2   23.81    1.74
   5  11   2    6.57    0.59
   5  11   2    6.54    0.67
   5  11   2    6.22    0.59
   5  11   2    8.30    1.08
   6  11   2    2.03    0.48
   6  11   2    0.02    0.90
   6  11   2    1.54    0.54
   7  11   2    3.66    0.69
   7  11   2    4.40    1.12
   8  11   2    0.37    1.01
   8  11   2    0.90    0.68
   9  11   2   15.71    1.31
  -1  12   2    6.04    0.79
   0  12   2   10.72    0.90
   1  12   2   -0.19    0.51
   3  12   2    4.87    0.82
   4  12   2   11.28    1.18
   5  12   2    4.80    0.48
   5  12   2    5.43    1.03
   6  12   2    0.16    0.98
   7  12   2   -0.59    1.06
   7  12   2    0.11    0.60
   4  13   2   -0.09    0.85
   5  13   2    1.66    0.98
   5  11  -3    0.00    0.97
   4  11  -3    1.87    0.95
   3  11  -3    7.03    1.03
   2  11  -3    2.13    0.78
   2  11  -3    2.65    0.55
   1  11  -3    8.97    0.78
   0  11  -3   13.72    1.01
   7  10  -3    1.33    0.98
   6  10  -3    6.37    1.18
   5  10  -3    0.76    0.92
   4  10  -3   15.69    1.40
   3  10  -3   16.63    1.41
   3  10  -3   18.13    1.03
   2  10  -3    8.33    0.68
   2  10  -3    7.77    0.97
   2  10  -3    8.63    0.76
   1  10  -3    1.67    0.47
   1  10  -3    0.87    0.67
   0  10  -3    0.37    0.47
  -1  10  -3    0.05    0.47
  -2  10  -3   16.96    1.13
   8   9  -3    9.65    1.35
   8   9  -3    7.37    0.96
   7   9  -3    4.28    0.76
   7   9  -3    4.79    1.12
   6   9  -3    9.36    0.88
   5   9  -3    0.92    0.81
   5   9  -3    1.20    0.53
   4   9  -3    8.46    1.10
   4   9  -3   10.40    0.69
   4   9  -3    8.41    0.80
   3   9  -3    9.16    0.79
   3   9  -3    9.03    1.05
   3   9  -3   10.12    0.71
   2   9  -3   29.35    1.69
   2   9  -3   32.22    2.04
   2   9  -3   33.22    1.52
   1   9  -3    1.09    0.35
   1   9  -3    1.19    0.42
   1   9  -3    1.38    0.63
   0   9  -3    8.19    0.68
   0   9  -3    8.07    0.81
   0   9  -3    8.06    0.68
  -1   9  -3   10.48    0.79
  -1   9  -3   10.16    0.78
  -2   9  -3   21.13    1.11
  -2   9  -3   19.52    1.16
  -3   9  -3    1.89    0.50
  -3   9  -3    1.67    0.53
  -4   9  -3   13.73    1.03
  -4   9  -3   15.64    1.06
   8   8  -3    0.91    0.95
   8   8  -3    0.74    0.73
   7   8  -3    0.21    0.63
   7   8  -3   -0.87    0.91
   6   8  -3   -0.37    0.84
   6   8  -3    0.12    0.54
   6   8  -3    0.17    0.51
   5   8  -3   38.54    2.28
   5   8  -3   33.41    1.97
   5   8  -3   36.04    1.78
   4   8  -3   15.34    0.82
   4   8  -3   12.20    1.15
   4   8  -3   13.14    0.88
   4   8  -3   12.37    0.96
   3   8  -3   40.80    1.72
   3   8  -3   36.92    2.25
   3   8  -3   35.93    2.00
   2   8  -3   20.50    1.00
   2   8  -3   19.25    1.13
   2   8  -3   16.64    1.44
   1   8  -3    5.39    0.50
   1   8  -3    4.86    0.50
   1   8  -3    5.12    0.73
   0   8  -3    7.71    0.79
   0   8  -3    8.17    0.64
   0   8  -3    9.55    0.62
   0   8  -3    9.00    0.67
  -1   8  -3   30.95    1.65
  -1   8  -3   30.11    1.48
  -1   8  -3   30.91    1.42
  -2   8  -3   22.61    1.19
  -2   8  -3   20.88    1.26
  -2   8  -3   21.90    1.12
  -3   8  -3   31.10    1.46
  -3   8  -3   28.03    1.64
  -3   8  -3   30.01    1.49
  -4   8  -3    3.87    0.57
  -4   8  -3    2.50    0.53
  -5   8  -3    0.48    0.52
  -5   8  -3    1.30    0.53
   9   7  -3   18.39    1.47
   9   7  -3   20.40    1.73
   8   7  -3    1.94    0.75
   8   7  -3   -0.77    0.94
   7   7  -3    0.95    0.82
   7   7  -3    2.20    0.62
   7   7  -3    2.68    0.70
   6   7  -3    2.89    0.61
   6   7  -3    1.98    0.84
   6   7  -3    2.29    0.57
   5   7  -3   26.60    1.58
   5   7  -3   29.12    1.88
   5   7  -3   23.75    1.40
   5   7  -3   27.30    1.23
   4   7  -3    5.75    0.46
   4   7  -3    4.73    0.58
   4   7  -3    5.93    0.57
   4   7  -3    5.78    0.54
   4   7  -3    5.86    0.80
   3   7  -3   25.36    1.20
   3   7  -3   24.95    1.27
   3   7  -3   25.30    1.27
   3   7  -3   26.44    1.73
   3   7  -3   25.70    1.43
   2   7  -3    3.29    0.34
   2   7  -3    2.97    0.38
   2   7  -3    2.49    0.38
   2   7  -3    2.38    0.63
  -2  -7   3    2.96    0.22
   1   7  -3    8.09    0.61
   1   7  -3    7.15    0.77
   1   7  -3    8.50    0.60
   0   7  -3   15.01    0.85
   0   7  -3   15.82    0.92
   0   7  -3   14.54    1.18
  -1   7  -3   35.99    1.69
  -1   7  -3   36.67    1.92
  -1   7  -3   36.63    1.99
  -1   7  -3   39.66    1.65
  -2   7  -3   44.65    1.89
  -2   7  -3   40.28    2.19
  -2   7  -3   43.53    1.93
  -3   7  -3   10.56    0.76
  -3   7  -3   10.44    0.82
  -3   7  -3   12.01    0.77
  -4   7  -3    0.53    0.40
  -4   7  -3    0.64    0.39
  -4   7  -3   -0.24    0.38
  -5   7  -3    9.02    0.76
  -5   7  -3    7.58    0.73
  -6   7  -3    9.92    0.84
  -6   7  -3   10.75    0.85
   9   6  -3    1.93    0.84
   9   6  -3    1.99    1.00
   8   6  -3    0.79    0.60
   8   6  -3   -0.94    0.85
   7   6  -3    6.49    1.02
   7   6  -3    6.70    0.82
   6   6  -3   19.65    1.56
   6   6  -3   16.53    1.18
   5   6  -3   20.30    1.11
   5   6  -3   20.37    1.29
   5   6  -3   22.92    1.52
   4   6  -3   35.48    1.63
   4   6  -3   33.22    1.84
   4   6  -3   34.95    2.01
   3   6  -3    3.31    0.34
   3   6  -3    2.38    0.40
   3   6  -3    1.93    0.56
   3   6  -3    2.66    0.35
   2   6  -3   26.55    1.66
   2   6  -3   27.38    1.25
   2   6  -3   28.57    1.28
   2   6  -3   26.94    1.30
   2   6  -3   27.07    1.46
   1   6  -3    1.22    0.21
   1   6  -3    0.77    0.28
   1   6  -3    0.86    0.25
   1   6  -3    0.80    0.27
   1   6  -3    0.89    0.48
  -1  -6   3    1.21    0.14
   0   6  -3   38.46    1.81
   0   6  -3   34.44    1.57
   0   6  -3   34.16    1.80
   0   6  -3   33.51    1.89
  -1   6  -3   51.36    2.15
  -1   6  -3   51.23    2.53
  -1   6  -3   47.16    2.48
  -2   6  -3    0.08    0.29
  -2   6  -3    0.76    0.37
  -2   6  -3    0.33    0.28
  -2   6  -3    0.50    0.28
  -3   6  -3    2.95    0.44
  -3   6  -3    3.79    0.43
  -3   6  -3    2.71    0.41
  -4   6  -3    6.01    0.54
  -4   6  -3    5.69    0.60
  -4   6  -3    6.18    0.56
  -5   6  -3   10.47    0.91
  -5   6  -3   12.94    0.86
  -5   6  -3   11.45    0.83
  -6   6  -3   34.49    1.66
  -6   6  -3   33.54    1.67
  -7   6  -3    2.52    0.60
  -7   6  -3    2.49    0.57
   9   5  -3    2.55    0.97
   9   5  -3    2.94    0.76
   8   5  -3   -0.45    0.80
   8   5  -3    1.01    0.57
   7   5  -3    8.12    0.86
   7   5  -3    8.74    1.04
   6   5  -3   46.90    2.53
   6   5  -3   40.48    2.36
   6   5  -3   46.58    2.06
   5   5  -3   34.42    1.56
   5   5  -3   31.47    1.80
   5   5  -3   32.13    1.94
   4   5  -3   24.92    1.23
   4   5  -3   24.96    1.56
   4   5  -3   25.23    1.41
  -4  -5   3   25.04    1.07
   3   5  -3    1.57    0.53
   3   5  -3    2.26    0.31
   3   5  -3    1.46    0.32
   2   5  -3    3.23    0.31
   2   5  -3    3.20    0.51
   2   5  -3    3.46    0.34
   2   5  -3    3.31    0.37
   1   5  -3  148.17    7.00
   1   5  -3  140.66    6.89
   1   5  -3  145.31    5.94
  -1  -5   3  154.74    6.07
  -1  -5   3  147.49    5.34
   0   5  -3   79.79    3.90
   0   5  -3   79.07    3.33
   0   5  -3   75.48    3.87
   0   5  -3   88.67    3.32
   0  -5   3   79.70    2.94
  -1   5  -3   22.00    1.15
  -1   5  -3   20.90    1.25
  -1   5  -3   20.82    1.02
  -2   5  -3   28.25    1.60
  -2   5  -3   29.91    1.60
  -2   5  -3   30.86    1.39
  -2   5  -3   30.58    1.36
   2  -5   3   33.01    1.59
  -3   5  -3    1.91    0.34
  -3   5  -3    2.43    0.37
  -3   5  -3    2.43    0.36
  -3   5  -3    3.22    0.41
   3  -5   3    2.71    0.25
  -4   5  -3   20.17    1.06
  -4   5  -3   20.78    1.22
  -4   5  -3   20.71    1.05
  -5   5  -3   49.68    2.15
  -5   5  -3   47.70    2.55
  -5   5  -3   48.94    2.16
  -6   5  -3   29.30    1.76
  -6   5  -3   31.69    1.50
  -6   5  -3   31.08    1.50
  -7   5  -3   15.20    1.02
  -7   5  -3   13.85    0.93
  -8   5  -3   -0.19    0.49
  -8   5  -3   -0.09    0.52
  10   4  -3    2.26    0.97
   9   4  -3    0.62    0.62
   9   4  -3    1.00    0.84
   8   4  -3    1.11    0.58
   8   4  -3    0.61    0.77
   7   4  -3   29.95    1.80
   7   4  -3   31.62    1.96
   6   4  -3   10.34    0.93
   6   4  -3    9.95    0.67
   6   4  -3    7.04    0.75
   5   4  -3   20.75    1.31
   5   4  -3   22.75    1.46
   5   4  -3   21.64    1.13
  -5  -4   3   23.60    0.98
   4   4  -3   21.34    1.02
   4   4  -3   18.50    1.16
   4   4  -3   22.15    1.40
  -4  -4   3   20.44    0.89
   3   4  -3    0.74    0.26
   3   4  -3    0.01    0.20
   3   4  -3    0.53    0.40
  -3  -4   3    0.42    0.13
   2   4  -3   37.15    1.61
   2   4  -3   37.46    1.94
   2   4  -3   32.56    1.83
  -2  -4   3   38.77    1.59
   1   4  -3  105.08    5.03
   1   4  -3  102.49    4.98
   1   4  -3  107.46    5.03
   1   4  -3  107.41    4.38
  -1  -4   3  104.89    3.84
  -1  -4   3  104.75    4.36
   0   4  -3   20.65    0.96
   0   4  -3   21.22    1.11
   0   4  -3   20.75    1.10
   0  -4   3   20.64    0.97
   0  -4   3   20.66    0.80
  -1   4  -3   32.50    1.40
  -1   4  -3   33.03    1.62
  -1   4  -3   30.87    1.62
   1  -4   3   32.12    1.42
   1  -4   3   31.42    1.19
  -2   4  -3    1.69    0.28
  -2   4  -3    1.28    0.25
  -2   4  -3    1.70    0.25
   2  -4   3    1.92    0.27
  -3   4  -3    6.63    0.48
  -3   4  -3    6.57    0.48
  -3   4  -3    5.98    0.54
  -3   4  -3    6.94    0.50
   3  -4   3    6.25    0.53
   3  -4   3    5.79    0.39
  -4   4  -3    1.86    0.32
  -4   4  -3    2.09    0.33
  -4   4  -3    1.56    0.36
   4  -4   3    2.01    0.26
  -5   4  -3   55.49    2.32
  -5   4  -3   52.50    2.30
  -5   4  -3   52.36    2.75
   5  -4   3   53.55    2.26
  -6   4  -3   19.90    1.02
  -6   4  -3   17.31    1.22
  -6   4  -3   18.76    1.03
   6  -4   3   20.38    1.02
  -7   4  -3    4.91    0.55
  -7   4  -3    4.43    0.65
  -7   4  -3    4.14    0.55
  -8   4  -3    0.23    0.48
  -8   4  -3   -0.73    0.41
   9   3  -3   -0.12    0.80
   8   3  -3   13.68    1.16
   8   3  -3   11.25    1.05
   7   3  -3   14.72    1.10
   7   3  -3   15.68    1.34
   6   3  -3   28.89    1.69
   6   3  -3   29.52    1.45
   6   3  -3   29.69    1.82
  -6  -3   3   31.23    1.31
   5   3  -3   11.93    0.89
   5   3  -3   12.98    1.14
   5   3  -3   14.99    0.78
  -5  -3   3   13.68    0.65
   4   3  -3    4.08    0.38
   4   3  -3    3.72    0.45
   4   3  -3    3.74    0.54
  -4  -3   3    4.49    0.30
   3   3  -3   46.28    2.40
   3   3  -3   47.29    2.08
   3   3  -3   50.78    2.46
  -3  -3   3   48.84    1.98
   2   3  -3   13.08    0.88
   2   3  -3   13.92    0.67
   2   3  -3   13.38    0.77
  -2  -3   3   12.90    0.65
   1   3  -3  106.47    4.96
   1   3  -3  102.03    4.29
  -1  -3   3  103.30    4.28
   0   3  -3   28.55    1.45
   0   3  -3   28.48    1.24
   0   3  -3   29.38    1.44
   0  -3   3   27.75    1.25
   0  -3   3   28.96    1.08
  -1   3  -3   13.37    0.74
  -1   3  -3   13.92    0.75
  -1   3  -3   12.54    0.64
   1  -3   3   12.89    0.72
   1  -3   3   12.68    0.52
   1  -3   3   13.14    0.65
  -2   3  -3   15.43    0.88
  -2   3  -3   16.02    0.76
  -2   3  -3   16.07    0.87
   2  -3   3   15.47    0.87
   2  -3   3   15.73    0.70
  -3   3  -3   98.71    4.13
  -3   3  -3   94.66    4.90
  -3   3  -3  105.84    4.88
  -3   3  -3  100.93    4.14
   3  -3   3  105.80    4.90
   3  -3   3  106.06    4.17
   3  -3   3  100.41    4.08
  -4   3  -3   73.95    3.64
  -4   3  -3   71.62    3.05
  -4   3  -3   70.35    3.05
  -4   3  -3   78.45    3.60
   4  -3   3   74.73    3.62
   4  -3   3   74.83    3.06
   4  -3   3   72.56    3.01
  -5   3  -3    3.58    0.49
  -5   3  -3    4.55    0.43
  -5   3  -3    3.32    0.38
   5  -3   3    4.38    0.35
   5  -3   3    3.67    0.39
   5  -3   3    3.67    0.47
  -6   3  -3    0.17    0.30
  -6   3  -3    0.87    0.40
  -6   3  -3    0.39    0.33
   6  -3   3    0.57    0.35
  -7   3  -3    6.09    0.58
  -7   3  -3    6.39    0.56
  -7   3  -3    5.99    0.73
   7  -3   3    7.81    0.66
  -8   3  -3    9.47    0.74
  -8   3  -3    9.18    0.96
  -8   3  -3    9.78    0.78
   8  -3   3   12.99    0.90
  -9   3  -3   12.54    0.96
  -9   3  -3   14.51    0.95
   8   2  -3    5.07    0.74
   8   2  -3    5.70    0.80
   7   2  -3   16.36    1.21
   7   2  -3   18.93    1.44
  -7  -2   3   19.47    0.94
   6   2  -3   24.70    1.50
   6   2  -3   22.47    1.40
  -6  -2   3   22.82    1.07
   5   2  -3    0.92    0.43
   5   2  -3    0.31    0.31
  -5  -2   3    0.22    0.19
   4   2  -3   30.26    1.38
   4   2  -3   28.89    1.61
   4   2  -3   30.94    1.68
  -4  -2   3   31.12    1.30
   3   2  -3   20.89    1.18
   3   2  -3   18.93    0.91
   3   2  -3   18.32    1.06
  -3  -2   3   19.58    0.84
   2   2  -3  169.96    8.33
   2   2  -3  172.85    7.20
  -2  -2   3  189.32    8.34
  -2  -2   3  173.32    7.08
   1   2  -3    5.02    0.31
   1   2  -3    4.91    0.36
  -1  -2   3    4.89    0.30
  -1  -2   3    5.20    0.35
   0   2  -3  197.37    9.21
   0   2  -3  191.54    9.21
   0  -2   3  203.02    9.20
   0  -2   3  195.86    7.07
   0  -2   3  190.39    7.95
  -1   2  -3    3.64    0.31
  -1   2  -3    3.80    0.28
  -1   2  -3    3.41    0.30
   1  -2   3    3.86    0.30
   1  -2   3    3.43    0.26
   1  -2   3    3.58    0.20
   1  -2   3    4.34    0.30
  -2   2  -3  105.76    4.30
  -2   2  -3  109.43    5.07
  -2   2  -3  104.80    5.09
   2  -2   3  104.99    4.25
   2  -2   3  111.00    4.37
   2  -2   3  103.36    5.07
  -3   2  -3   39.87    1.74
  -3   2  -3   39.98    2.08
  -3   2  -3   44.46    2.06
   3  -2   3   41.35    2.07
   3  -2   3   41.65    1.74
   3  -2   3   41.45    1.72
  -4   2  -3  100.03    4.98
  -4   2  -3  111.83    4.95
  -4   2  -3  101.26    4.17
  -4   2  -3  102.28    4.18
   4  -2   3   98.73    4.16
   4  -2   3  104.22    4.97
   4  -2   3  102.28    4.27
  -5   2  -3   40.57    2.14
  -5   2  -3   42.66    2.08
  -5   2  -3   39.48    1.75
  -5   2  -3   39.33    1.75
   5  -2   3   40.98    2.11
   5  -2   3   39.67    1.77
   5  -2   3   41.23    1.79
  -6   2  -3    2.23    0.36
  -6   2  -3    1.80    0.43
  -6   2  -3    2.36    0.35
   6  -2   3    2.43    0.40
   6  -2   3    2.90    0.40
   6  -2   3    2.73    0.47
  -7   2  -3   16.38    0.90
  -7   2  -3   17.23    0.95
  -7   2  -3   15.59    1.16
   7  -2   3   20.11    1.08
   7  -2   3   16.41    1.04
  -8   2  -3    3.83    0.48
  -8   2  -3    3.91    0.52
  -8   2  -3    3.06    0.62
   8  -2   3    4.09    0.65
  -9   2  -3   20.57    1.11
  -9   2  -3   21.13    1.16
  -9   2  -3   16.42    1.40
   9  -2   3   22.76    1.36
  -9  -1   3    9.16    0.77
   8   1  -3   51.39    2.63
  -8  -1   3   47.51    2.21
   7   1  -3    3.57    0.65
   7   1  -3    3.95    0.62
  -7  -1   3    4.72    0.44
  -7  -1   3    4.72    0.52
   6   1  -3   35.60    1.95
   6   1  -3   35.55    1.97
  -6  -1   3   36.49    1.59
  -6  -1   3   36.02    1.62
   5   1  -3    1.41    0.36
   5   1  -3    0.03    0.44
  -5  -1   3    0.88    0.22
   4   1  -3   57.20    2.81
   4   1  -3   56.04    2.85
  -4  -1   3   58.21    2.37
   3   1  -3   60.67    2.93
   3   1  -3   58.82    2.97
  -3  -1   3   63.10    2.98
  -3  -1   3   59.91    2.49
   2   1  -3   88.11    3.83
   2   1  -3   91.30    4.44
  -2  -1   3   93.80    3.76
  -2  -1   3   98.60    4.45
   1   1  -3  159.82    6.56
   1   1  -3  162.43    7.59
  -1  -1   3  156.29    6.54
  -1  -1   3  165.72    7.59
   0   1  -3   22.17    1.13
   0   1  -3   22.93    1.13
   0   1  -3   23.03    0.98
   0  -1   3   21.35    0.97
   0  -1   3   22.91    1.13
   0  -1   3   22.24    0.86
  -1   1  -3   35.23    1.75
  -1   1  -3   36.77    1.76
   1  -1   3   35.69    1.75
   1  -1   3   34.92    1.46
   1  -1   3   34.85    1.33
   1  -1   3   36.48    1.75
  -2   1  -3    2.00    0.19
  -2   1  -3    2.07    0.21
  -2   1  -3    2.27    0.24
   2  -1   3    2.17    0.22
   2  -1   3    2.15    0.17
   2  -1   3    1.69    0.21
   2  -1   3    1.78    0.17
   2  -1   3    2.01    0.15
  -3   1  -3  239.08   11.11
  -3   1  -3  236.60    9.39
  -3   1  -3  232.11   11.13
   3  -1   3  237.89    9.67
   3  -1   3  233.75    9.36
   3  -1   3  236.93   11.12
  -4   1  -3   82.17    4.09
  -4   1  -3   84.08    3.42
  -4   1  -3   84.28    3.42
  -4   1  -3   89.56    4.06
   4  -1   3   80.79    3.43
   4  -1   3   82.78    3.52
   4  -1   3   85.33    4.08
  -5   1  -3   15.94    0.99
  -5   1  -3   15.40    0.80
  -5   1  -3   16.61    0.92
  -5   1  -3   15.99    0.76
   5  -1   3   16.52    0.97
   5  -1   3   14.61    0.84
   5  -1   3   14.69    0.83
  -6   1  -3   -0.01    0.22
  -6   1  -3   -0.12    0.26
  -6   1  -3   -0.07    0.32
   6  -1   3   -0.17    0.32
   6  -1   3   -0.05    0.35
   6  -1   3   -0.07    0.34
  -7   1  -3   15.11    0.84
  -7   1  -3   14.43    0.78
  -7   1  -3   15.27    1.09
   7  -1   3   15.49    1.02
   7  -1   3   14.07    0.99
  -8   1  -3   27.04    1.82
  -8   1  -3   30.35    1.48
  -8   1  -3   30.33    1.44
   8  -1   3   36.25    1.71
   8  -1   3   33.67    1.67
  -9   1  -3    7.32    0.69
  -9   1  -3    6.54    0.85
  -9   1  -3    8.61    0.63
   9  -1   3    7.44    0.87
 -10   1  -3    3.05    0.59
 -10   1  -3    5.98    0.58
  10  -1   3    6.33    0.93
 -10   0   3    5.10    0.72
  -9   0   3    6.11    0.70
  -8   0   3   26.03    1.36
   7   0  -3   17.31    1.24
   7   0  -3   18.93    1.26
  -7   0   3   19.01    1.00
  -7   0   3   18.88    1.05
   6   0  -3    8.00    0.74
   6   0  -3    7.69    0.70
  -6   0   3    8.29    0.62
  -6   0   3    7.66    0.58
   5   0  -3    0.94    0.35
   5   0  -3    0.78    0.41
  -5   0   3    0.76    0.28
  -5   0   3    0.91    0.25
   4   0  -3    6.59    0.57
   4   0  -3    6.63    0.56
  -4   0   3    8.09    0.59
  -4   0   3    7.28    0.49
  -4   0   3    6.73    0.44
   3   0  -3   81.69    4.03
  -3   0   3   81.94    3.41
  -3   0   3   87.06    4.04
   2   0  -3  142.35    6.97
  -2   0   3  155.01    6.98
  -2   0   3  144.74    5.93
   1   0  -3    5.28    0.29
   1   0  -3    5.04    0.35
  -1   0   3    5.79    0.35
  -1   0   3    5.49    0.29
   0   0  -3   20.24    1.01
   0   0  -3   20.82    1.02
   0   0  -3   19.85    0.86
   0   0   3   20.21    1.01
   0   0   3   20.43    0.78
   0   0   3   18.40    0.85
  -1   0  -3   20.18    1.03
  -1   0  -3   21.00    1.04
   1   0   3   21.85    1.04
   1   0   3   20.85    0.87
   1   0   3   20.14    0.89
   1   0   3   19.94    1.03
   1   0   3   20.85    0.79
  -2   0  -3   16.68    0.83
  -2   0  -3   14.50    0.83
  -2   0  -3   15.28    0.69
   2   0   3   17.11    0.83
   2   0   3   15.38    0.69
   2   0   3   15.70    0.83
   2   0   3   15.14    0.70
   2   0   3   15.00    0.62
  -3   0  -3    2.75    0.21
  -3   0  -3    3.12    0.30
  -3   0  -3    2.72    0.26
   3   0   3    3.43    0.26
   3   0   3    2.75    0.24
   3   0   3    3.03    0.29
  -4   0  -3  126.40    5.57
  -4   0  -3  115.85    4.68
  -4   0  -3  119.53    4.69
  -4   0  -3  116.32    5.60
   4   0   3  112.33    4.86
   4   0   3  114.30    4.71
   4   0   3  112.73    5.59
  -5   0  -3   14.06    0.80
  -5   0  -3   13.21    0.65
  -5   0  -3   12.98    0.67
   5   0   3   13.54    0.78
   5   0   3   12.84    0.73
   5   0   3   11.90    0.83
  -6   0  -3    5.63    0.41
  -6   0  -3    6.55    0.46
   6   0   3    4.48    0.52
   6   0   3    5.11    0.53
   6   0   3    4.62    0.56
  -7   0  -3   51.02    2.16
  -7   0  -3   49.92    2.19
   7   0   3   50.39    2.70
   7   0   3   50.97    2.31
   7   0   3   53.60    2.41
  -8   0  -3    7.08    0.54
  -8   0  -3    7.51    0.60
   8   0   3    9.02    0.87
   8   0   3    8.10    0.82
  -9   0  -3   15.01    0.86
  -9   0  -3   14.13    0.92
   9   0   3   18.06    1.24
   9   0   3   13.26    1.11
 -10   0  -3    2.17    0.55
  10   0   3    3.73    0.85
  10   0   3    4.31    0.86
  -8   1   3    6.89    0.71
  -7   1   3   20.06    1.13
   6  -1  -3    8.91    0.82
   6  -1  -3   10.80    0.81
  -6   1   3    9.74    0.68
  -6   1   3    7.78    0.64
   5  -1  -3   20.88    1.18
   5  -1  -3   18.28    1.15
  -5   1   3   18.28    0.95
  -5   1   3   18.79    1.00
  -5   1   3   22.34    1.22
   4  -1  -3   70.73    3.50
   4  -1  -3   69.48    3.37
  -4   1   3   76.23    3.51
  -4   1   3   69.95    2.96
  -4   1   3   69.25    2.95
   3  -1  -3  134.37    6.77
  -3   1   3  139.26    5.72
  -3   1   3  142.58    5.78
  -3   1   3  154.27    6.80
   2  -1  -3    4.11    0.34
  -2   1   3    4.23    0.34
  -2   1   3    4.12    0.29
   1  -1  -3   99.68    4.76
  -1   1   3  101.64    4.77
   0  -1  -3   14.67    0.73
   0  -1  -3   14.72    0.61
   0  -1  -3   13.72    0.72
   0   1   3   14.57    0.73
   0   1   3   14.63    0.57
   0   1   3   13.49    0.60
   0   1   3   13.40    0.63
  -1  -1  -3  105.43    4.72
  -1  -1  -3  103.09    4.72
   1   1   3   94.75    3.97
   1   1   3   98.38    3.63
   1   1   3  102.88    4.72
   1   1   3   99.66    4.12
   1   1   3   95.23    4.71
  -2  -1  -3  466.73   21.59
  -2  -1  -3  444.23   21.44
   2   1   3  453.85   18.78
   2   1   3  461.84   16.59
   2   1   3  480.15   21.52
   2   1   3  429.49   21.50
   2   1   3  451.26   18.12
  -3  -1  -3   17.55    0.72
  -3  -1  -3   17.45    0.88
  -3  -1  -3   17.36    0.90
   3   1   3   16.22    0.78
   3   1   3   15.40    0.89
   3   1   3   16.24    0.76
  -4  -1  -3   13.15    0.61
  -4  -1  -3   13.62    0.64
  -4  -1  -3   15.43    0.77
   4   1   3   13.17    0.71
   4   1   3   12.99    0.69
   4   1   3   13.18    0.80
  -5  -1  -3    2.44    0.25
  -5  -1  -3    2.51    0.22
   5   1   3    2.78    0.37
   5   1   3    1.96    0.32
   5   1   3    2.59    0.36
  -6  -1  -3   37.56    1.59
  -6  -1  -3   38.13    1.62
   6   1   3   37.96    1.80
   6   1   3   34.69    1.72
   6   1   3   39.81    2.03
  -7  -1  -3   11.93    0.63
  -7  -1  -3   11.41    0.68
   7   1   3   11.62    0.93
   7   1   3   12.13    0.92
   7   1   3   10.74    0.87
  -8  -1  -3   55.39    2.32
  -8  -1  -3   58.79    2.39
   8   1   3   52.89    2.94
   8   1   3   52.09    2.53
   8   1   3   55.17    2.63
  -9  -1  -3   13.44    0.76
  -9  -1  -3   11.99    0.86
   9   1   3   13.62    1.13
   9   1   3   13.45    1.12
 -10  -1  -3    0.10    0.41
  10   1   3    2.66    0.77
  10   1   3   -0.71    0.73
  -9   2   3    9.63    0.85
  -8   2   3    2.08    0.53
  -7   2   3    0.32    0.42
  -6   2   3    0.35    0.38
  -6   2   3    0.15    0.34
   5  -2  -3   64.43    3.46
   5  -2  -3   72.10    3.32
  -5   2   3   79.76    3.54
  -5   2   3   65.38    2.97
  -5   2   3   69.42    2.96
   4  -2  -3   94.59    4.85
   4  -2  -3  104.21    4.69
  -4   2   3  107.28    4.90
  -4   2   3  102.65    4.13
  -4   2   3   95.54    4.15
   3  -2  -3    6.39    0.47
  -3   2   3    5.76    0.48
  -3   2   3    6.18    0.45
  -3   2   3    5.44    0.41
   2  -2  -3   99.14    4.80
  -2   2   3  106.82    4.82
  -2   2   3   97.34    4.11
  -2   2   3  100.43    4.07
   1  -2  -3   25.54    1.29
  -1   2   3   26.72    1.13
   0  -2  -3  383.43   16.06
   0  -2  -3  414.36   18.64
   0  -2  -3  401.80   18.67
   0   2   3  397.13   14.36
   0   2   3  386.32   15.91
  -1  -2  -3  116.11    5.83
  -1  -2  -3  131.99    5.84
   1   2   3  127.59    5.84
   1   2   3  126.34    4.51
   1   2   3  117.81    5.11
   1   2   3  126.96    5.00
   1   2   3  122.72    4.93
  -2  -2  -3  166.82    7.90
  -2  -2  -3  172.12    7.90
   2   2   3  165.16    6.67
   2   2   3  164.11    6.92
   2   2   3  168.01    7.91
   2   2   3  166.46    6.09
   2   2   3  175.01    7.91
  -3  -2  -3  165.42    6.33
  -3  -2  -3  166.62    7.50
  -3  -2  -3  155.96    7.51
   3   2   3  154.89    7.51
   3   2   3  154.39    7.32
   3   2   3  157.04    6.57
  -4  -2  -3    5.53    0.34
  -4  -2  -3    5.87    0.30
  -4  -2  -3    6.28    0.42
   4   2   3    6.12    0.52
   4   2   3    5.58    0.45
   4   2   3    5.21    0.41
   4   2   3    6.11    0.45
  -5  -2  -3   18.09    0.81
  -5  -2  -3   17.97    0.77
   5   2   3   16.42    1.04
   5   2   3   18.83    0.94
   5   2   3   17.50    0.96
   5   2   3   17.93    1.04
  -6  -2  -3   11.96    0.64
  -6  -2  -3   11.99    0.58
   6   2   3   13.48    0.93
   6   2   3   13.13    0.82
   6   2   3   11.21    0.78
   6   2   3   11.61    0.87
  -7  -2  -3   66.41    2.63
  -7  -2  -3   65.19    2.67
   7   2   3   65.84    3.16
   7   2   3   63.91    2.94
   7   2   3   61.73    2.81
   7   2   3   60.84    3.29
  -8  -2  -3   44.05    1.75
  -8  -2  -3   40.20    1.80
   8   2   3   39.58    1.99
   8   2   3   36.83    2.28
   8   2   3   42.18    2.11
  -9  -2  -3    0.42    0.35
   9   2   3   -0.43    0.65
   9   2   3    0.30    0.58
   9   2   3    0.67    0.63
 -10  -2  -3   -0.11    0.41
  10   2   3   -0.51    0.75
  10   2   3    1.13    0.75
 -11  -2  -3    2.57    0.53
  11   2   3    4.34    0.99
  11   2   3    4.16    0.97
  -9   3   3    2.67    0.63
  -8   3   3   -0.01    0.53
  -7   3   3    0.06    0.46
  -6   3   3   14.65    0.92
  -6   3   3   13.69    0.89
  -5   3   3   40.68    1.81
  -5   3   3   38.54    1.80
   4  -3  -3   36.80    1.69
   4  -3  -3   33.11    1.78
  -4   3   3   33.00    1.56
  -4   3   3   37.78    1.84
  -4   3   3   32.10    1.56
   3  -3  -3   30.24    1.60
  -3   3   3   30.31    1.40
  -3   3   3   32.50    1.65
  -3   3   3   33.17    1.41
   2  -3  -3   17.33    0.90
  -2   3   3   15.98    0.80
  -2   3   3   16.90    0.80
   1  -3  -3   17.26    0.91
  -1   3   3   17.72    0.82
  -1   3   3   17.44    0.81
  -1   3   3   18.81    0.92
   0  -3  -3   76.08    3.40
   0  -3  -3   70.86    3.39
   0   3   3   72.86    2.63
   0   3   3   70.08    3.40
   0   3   3   69.67    2.94
  -1  -3  -3  130.54    6.33
  -1  -3  -3  135.81    6.34
   1   3   3  142.22    6.34
   1   3   3  131.25    5.44
   1   3   3  134.93    5.57
   1   3   3  133.09    6.34
   1   3   3  137.37    4.90
   1   3   3  136.88    5.36
  -2  -3  -3   60.05    2.76
  -2  -3  -3   60.35    2.77
   2   3   3   60.04    2.15
   2   3   3   58.71    2.37
   2   3   3   52.92    2.76
   2   3   3   57.23    2.35
   2   3   3   57.85    2.45
  -3  -3  -3    6.88    0.40
  -3  -3  -3    6.38    0.40
   3   3   3    6.15    0.48
   3   3   3    6.77    0.39
   3   3   3    5.98    0.41
   3   3   3    6.84    0.42
  -4  -3  -3    0.77    0.08
  -4  -3  -3    1.14    0.14
   4   3   3    0.53    0.20
   4   3   3    1.22    0.28
   4   3   3    0.73    0.22
   4   3   3    0.38    0.22
  -5  -3  -3   32.55    1.34
  -5  -3  -3   32.93    1.30
   5   3   3   31.47    1.46
   5   3   3   31.35    1.68
   5   3   3   30.97    1.69
   5   3   3   31.18    1.51
  -6  -3  -3   41.88    1.67
  -6  -3  -3   42.19    1.72
   6   3   3   38.62    2.15
   6   3   3   40.90    1.85
   6   3   3   39.55    1.92
   6   3   3   40.21    2.12
  -7  -3  -3   12.56    0.68
   7   3   3   11.68    0.93
   7   3   3   11.64    0.91
   7   3   3   12.60    0.90
   7   3   3   11.80    1.02
  -8  -3  -3    3.91    0.40
   8   3   3    3.92    0.67
   8   3   3    2.81    0.59
   8   3   3    3.18    0.63
   8   3   3    3.04    0.68
  -9  -3  -3    0.75    0.35
   9   3   3    0.85    0.61
   9   3   3    0.12    0.63
   9   3   3    1.03    0.60
   9   3   3    0.57    0.64
 -10  -3  -3    1.28    0.42
  10   3   3    1.94    0.75
  10   3   3    0.47    0.70
  10   3   3    1.59    0.84
 -11  -3  -3    0.84    0.44
  11   3   3    1.56    0.92
  11   3   3    3.39    0.90
  -8   4   3   -0.31    0.52
  -7   4   3   23.77    1.32
  -6   4   3   27.40    1.41
  -5   4   3    6.28    0.62
  -5   4   3    6.69    0.59
   4  -4  -3   19.18    1.13
  -4   4   3   19.94    1.05
  -4   4   3   19.38    1.06
  -4   4   3   23.08    1.22
   3  -4  -3    7.91    0.52
  -3   4   3    7.05    0.54
  -3   4   3    5.58    0.52
  -3   4   3    8.25    0.55
  -3   4   3    7.38    0.54
   2  -4  -3    1.26    0.20
  -2   4   3    1.59    0.24
  -2   4   3    1.21    0.26
  -2   4   3    1.09    0.22
  -2   4   3    1.56    0.26
   1  -4  -3  133.88    6.36
  -1   4   3  140.00    6.39
  -1   4   3  130.66    5.50
  -1   4   3  135.20    4.92
  -1   4   3  134.34    5.46
  -1   4   3  138.74    5.43
   0  -4  -3   69.11    3.18
   0  -4  -3   66.11    3.18
   0   4   3   66.84    2.79
   0   4   3   69.49    2.48
   0   4   3   68.20    2.73
   0   4   3   65.56    2.76
   0   4   3   68.27    3.20
  -1  -4  -3   63.37    2.75
   1   4   3   57.59    2.47
   1   4   3   57.65    2.41
   1   4   3   57.23    2.76
   1   4   3   59.97    2.76
   1   4   3   58.35    2.15
   1   4   3   58.07    2.76
   1   4   3   57.05    2.36
  -2  -4  -3    9.02    0.46
  -2  -4  -3    8.38    0.46
   2   4   3    8.81    0.56
   2   4   3    9.01    0.47
   2   4   3    8.03    0.39
   2   4   3    8.83    0.48
   2   4   3    8.87    0.42
   2   4   3    8.64    0.43
  -3  -4  -3   10.09    0.43
  -3  -4  -3   10.57    0.57
  -3  -4  -3   10.57    0.58
   3   4   3   11.60    0.54
   3   4   3   10.94    0.56
   3   4   3   10.22    0.71
   3   4   3   10.27    0.59
   3   4   3   10.01    0.47
  -4  -4  -3   17.31    0.71
   4   4   3   17.80    1.03
   4   4   3   15.73    0.92
   4   4   3   17.18    0.83
   4   4   3   15.01    0.83
  -5  -4  -3  103.31    4.04
   5   4   3  100.40    4.80
   5   4   3   96.94    4.89
   5   4   3  103.92    4.16
   5   4   3  100.25    4.30
  -6  -4  -3   71.70    2.81
   6   4   3   71.19    3.40
   6   4   3   66.45    2.95
   6   4   3   69.39    3.46
   6   4   3   65.85    3.06
  -7  -4  -3    2.59    0.29
   7   4   3    1.87    0.47
   7   4   3    1.58    0.46
   7   4   3    2.73    0.58
   7   4   3    1.91    0.56
  -8  -4  -3    1.72    0.31
   8   4   3    1.05    0.52
   8   4   3    0.68    0.53
   8   4   3    1.40    0.63
   8   4   3    1.60    0.63
  -9  -4  -3    1.46    0.35
   9   4   3    1.97    0.76
   9   4   3    1.11    0.64
   9   4   3    0.58    0.60
   9   4   3    1.68    0.74
 -10  -4  -3   15.69    0.92
  10   4   3   15.21    1.26
  10   4   3   15.65    1.42
  10   4   3   15.94    1.35
  10   4   3   14.64    1.31
 -11  -4  -3    3.55    0.53
  11   4   3    4.31    0.95
  11   4   3    4.41    1.04
  -8   5   3    0.72    0.57
  -7   5   3   23.20    1.38
  -6   5   3   15.36    1.00
  -5   5   3   36.55    1.73
  -4   5   3    4.51    0.54
  -4   5   3    5.73    0.53
  -4   5   3    5.64    0.53
   3  -5  -3    0.22    0.21
  -3   5   3    0.05    0.28
  -3   5   3   -0.12    0.25
  -3   5   3    0.37    0.29
  -3   5   3   -0.08    0.31
   2  -5  -3   72.61    3.46
  -2   5   3   74.36    3.50
  -2   5   3   74.77    3.04
  -2   5   3   73.23    3.00
  -2   5   3   66.99    3.05
   1  -5  -3   63.16    2.91
  -1   5   3   61.88    2.58
  -1   5   3   61.04    2.26
  -1   5   3   57.50    2.58
  -1   5   3   63.30    2.95
  -1   5   3   61.60    2.54
   0  -5  -3   31.34    1.31
   0   5   3   29.93    1.36
   0   5   3   32.02    1.32
   0   5   3   30.27    1.49
   0   5   3   31.38    1.36
   0   5   3   31.91    1.17
  -1  -5  -3  101.84    4.25
   1   5   3  103.16    4.21
   1   5   3  100.38    4.34
   1   5   3  103.65    4.25
   1   5   3  106.39    4.15
   1   5   3  107.23    4.85
   1   5   3  108.90    3.80
  -2  -5  -3   51.76    2.38
   2   5   3   50.38    2.41
   2   5   3   48.89    2.16
   2   5   3   49.46    2.09
   2   5   3   50.29    2.44
   2   5   3   51.35    2.06
   2   5   3   52.90    2.10
  -3  -5  -3   85.55    4.11
   3   5   3   86.91    3.57
   3   5   3   90.48    3.51
   3   5   3   84.46    4.11
   3   5   3   83.33    4.13
   3   5   3   90.56    3.51
  -4  -5  -3   37.88    1.59
   4   5   3   38.91    1.98
   4   5   3   39.77    2.05
   4   5   3   38.79    1.69
   4   5   3   42.45    1.62
   4   5   3   39.76    1.78
  -5  -5  -3   58.81    2.39
   5   5   3   62.05    2.40
   5   5   3   61.67    2.53
   5   5   3   57.68    2.95
   5   5   3   57.54    2.94
   5   5   3   56.87    2.62
  -6  -5  -3   69.59    2.76
   6   5   3   71.39    2.93
   6   5   3   68.25    3.39
   6   5   3   64.13    3.41
   6   5   3   67.71    3.03
  -7  -5  -3    9.86    0.55
   7   5   3    9.84    0.91
   7   5   3    8.49    0.82
   7   5   3    9.02    0.78
   7   5   3    8.92    0.81
  -8  -5  -3    1.31    0.28
   8   5   3   -0.09    0.57
   8   5   3    0.44    0.50
   8   5   3    0.58    0.66
   8   5   3    0.94    0.55
  -9  -5  -3    5.50    0.46
   9   5   3    5.32    0.92
   9   5   3    6.18    0.83
   9   5   3    3.92    0.80
   9   5   3    4.71    0.79
 -10  -5  -3   20.86    1.12
  10   5   3   21.85    1.48
  10   5   3   22.25    1.64
  10   5   3   21.76    1.88
  10   5   3   22.98    1.69
  11   5   3   19.96    1.64
  11   5   3   19.34    1.56
  -7   6   3   14.49    1.08
  -6   6   3   17.96    1.14
  -5   6   3   17.09    1.02
  -5   6   3   14.68    0.98
  -4   6   3    0.55    0.39
  -4   6   3   -0.39    0.35
  -3   6   3   18.99    1.03
  -3   6   3   17.74    1.02
  -3   6   3   18.93    1.03
   2  -6  -3    7.48    0.45
  -2   6   3    6.92    0.36
  -2   6   3    7.22    0.54
  -2   6   3    6.15    0.49
  -2   6   3    5.67    0.54
  -2   6   3    6.12    0.53
  -1   6   3   80.99    3.23
  -1   6   3   76.65    2.83
  -1   6   3   74.13    3.25
  -1   6   3   77.21    3.18
  -1   6   3   77.87    3.69
   0  -6  -3   43.18    1.85
   0   6   3   45.42    1.90
   0   6   3   42.26    2.08
   0   6   3   44.84    1.63
   0   6   3   44.71    1.90
   0   6   3   44.91    1.83
  -1  -6  -3   12.83    0.59
   1   6   3   12.56    0.66
   1   6   3   12.95    0.79
   1   6   3   13.19    0.66
   1   6   3   12.06    0.64
   2   6   3   -0.11    0.15
   2   6   3    0.22    0.19
   2   6   3    0.19    0.17
   2   6   3    0.00    0.25
   2   6   3    0.17    0.12
   2   6   3    0.10    0.11
   2   6   3    0.25    0.09
  -3  -6  -3    1.98    0.17
   3   6   3    2.14    0.23
   3   6   3    1.42    0.36
   3   6   3    2.09    0.20
   3   6   3    2.18    0.23
   3   6   3    2.06    0.20
   3   6   3    2.20    0.29
   4   6   3   57.06    2.54
   4   6   3   57.29    2.85
   4   6   3   57.05    2.91
   4   6   3   60.48    2.46
   4   6   3   59.43    2.43
  -5  -6  -3   22.91    0.97
   5   6   3   25.18    1.33
   5   6   3   23.30    1.23
   5   6   3   24.07    1.16
   5   6   3   24.61    1.44
  -6  -6  -3    0.18    0.14
   6   6   3   -0.27    0.44
   6   6   3    0.25    0.37
   6   6   3    0.23    0.33
   6   6   3   -0.07    0.36
  -7  -6  -3   65.65    2.61
   7   6   3   62.57    2.96
   7   6   3   62.41    3.29
   7   6   3   63.26    2.82
   7   6   3   66.04    3.35
   8   6   3    7.80    0.83
   8   6   3    9.45    0.84
   8   6   3    8.08    0.88
   8   6   3    6.84    0.96
   9   6   3   20.86    1.46
   9   6   3   16.69    1.46
   9   6   3   17.20    1.25
   9   6   3   18.57    1.41
  10   6   3    5.15    1.11
  10   6   3    4.89    0.90
  10   6   3    5.42    0.88
  10   6   3    5.60    1.00
  11   6   3    4.40    0.95
  11   6   3    3.65    1.12
  11   6   3    3.15    1.06
  -7   7   3    1.91    0.68
  -6   7   3   33.56    1.77
  -5   7   3    5.13    0.63
  -5   7   3    5.32    0.65
  -4   7   3    6.84    0.67
  -4   7   3    6.62    0.67
  -3   7   3   13.63    0.85
  -3   7   3   13.40    0.88
  -2   7   3   41.41    1.56
  -2   7   3   42.43    1.87
  -2   7   3   39.46    1.91
  -2   7   3   43.50    2.10
   1  -7  -3   23.22    1.09
  -1   7   3   23.01    1.12
  -1   7   3   24.12    0.90
  -1   7   3   23.03    1.20
  -1   7   3   24.62    1.18
  -1   7   3   24.03    1.21
   0  -7  -3   15.32    0.76
   0   7   3   17.12    0.79
   0   7   3   16.73    0.86
   0   7   3   15.92    0.63
   0   7   3   16.04    0.85
  -1  -7  -3    0.11    0.14
   1   7   3    0.07    0.23
   1   7   3    0.18    0.25
   1   7   3    0.17    0.20
   1   7   3    0.11    0.26
   2   7   3   29.48    1.64
   2   7   3   29.52    1.38
   2   7   3   30.18    1.33
   2   7   3   30.47    1.27
   2   7   3   33.11    1.36
   3   7   3   42.14    1.89
   3   7   3   42.60    2.15
   3   7   3   51.71    1.88
   3   7   3   44.60    1.85
   3   7   3   43.33    1.97
   3   7   3   42.94    2.29
   3   7   3   45.39    1.85
  -4  -7  -3   21.70    1.12
   4   7   3   22.95    1.03
   4   7   3   22.84    1.03
   4   7   3   21.97    1.41
   4   7   3   21.65    1.18
   4   7   3   23.72    1.13
   5   7   3    9.95    0.67
   5   7   3   10.45    0.91
   5   7   3   10.55    0.73
   5   7   3   11.10    0.59
   5   7   3   10.50    0.71
   6   7   3    5.74    0.59
   6   7   3    6.39    0.47
   6   7   3    4.76    0.58
   6   7   3    5.00    0.56
   6   7   3    4.97    0.75
   7   7   3   17.07    1.41
   7   7   3   19.55    1.09
   7   7   3   18.84    1.20
   7   7   3   16.97    1.20
   8   7   3    2.66    0.62
   8   7   3    0.27    0.76
   8   7   3    1.44    0.61
   8   7   3    1.66    0.55
   9   7   3   12.02    1.27
   9   7   3   10.36    1.10
   9   7   3   12.70    1.06
   9   7   3    9.78    1.03
  10   7   3    5.27    0.90
  10   7   3    4.77    0.95
  10   7   3    2.87    1.07
  11   7   3    4.90    0.96
  11   7   3    7.13    1.20
  11   7   3    4.77    1.23
  -6   8   3    0.94    0.64
  -5   8   3    0.46    0.54
  -5   8   3    1.10    0.55
  -4   8   3    0.68    0.47
  -4   8   3    0.53    0.49
  -3   8   3   13.24    0.85
  -3   8   3   15.82    0.93
  -3   8   3   15.47    0.97
  -2   8   3   60.81    2.51
  -2   8   3   56.43    2.44
  -2   8   3   52.76    2.72
   1  -8  -3   23.31    1.09
  -1   8   3   22.79    1.17
  -1   8   3   22.78    1.18
  -1   8   3   21.81    1.14
  -1   8   3   24.61    1.13
   0  -8  -3    6.04    0.43
   0   8   3    6.60    0.49
   0   8   3    6.35    0.55
  -1  -8  -3   21.05    0.99
   1   8   3   21.22    1.03
   1   8   3   21.83    1.07
   1   8   3   21.24    1.24
   1   8   3   22.14    0.95
  -2  -8  -3   14.73    0.74
   2   8   3   16.05    0.84
   2   8   3   16.09    0.81
   2   8   3   16.77    1.05
   2   8   3   14.96    0.68
   3   8   3   48.77    2.17
   3   8   3   47.66    2.36
   3   8   3   51.87    2.08
   3   8   3   48.13    2.10
   3   8   3   50.69    2.03
   3   8   3   49.64    2.54
   4   8   3   28.24    1.75
   4   8   3   29.77    1.50
   4   8   3   29.73    1.33
   4   8   3   29.56    1.42
   4   8   3   28.72    1.30
   5   8   3   22.46    1.09
   5   8   3   21.09    1.24
   5   8   3   20.23    1.45
   5   8   3   22.55    1.06
   5   8   3   23.64    1.19
   6   8   3    0.47    0.27
   6   8   3   -0.04    0.35
   6   8   3   -0.29    0.33
   6   8   3    0.04    0.42
   6   8   3    0.43    0.63
   7   8   3   28.83    1.31
   7   8   3   25.93    1.87
   7   8   3   24.99    1.36
   7   8   3   25.68    1.57
   7   8   3   25.19    1.49
   8   8   3    6.93    0.76
   8   8   3    6.31    0.99
   8   8   3    5.65    0.79
   8   8   3    7.79    0.84
   8   8   3    6.27    0.57
   9   8   3   10.66    1.07
   9   8   3    8.84    1.19
   9   8   3    8.73    1.01
   9   8   3   11.75    1.01
  10   8   3   19.84    1.77
  -5   9   3    0.13    0.59
  -5   9   3   -0.06    0.60
  -4   9   3    4.48    0.67
  -4   9   3    4.39    0.67
  -3   9   3   29.87    1.64
  -3   9   3   33.34    1.65
  -3   9   3   34.07    1.63
  -2   9   3    9.11    0.58
  -2   9   3    7.34    0.72
  -2   9   3    9.06    0.70
  -1   9   3   12.89    0.69
  -1   9   3   13.26    0.83
  -1   9   3   11.93    0.85
  -1   9   3   12.14    0.66
   0   9   3    4.23    0.51
   0   9   3    3.13    0.37
  -1  -9  -3   22.60    1.09
   1   9   3   25.30    1.36
   1   9   3   22.95    1.17
  -2  -9  -3   10.77    0.62
   2   9   3   11.80    0.72
   2   9   3   11.84    0.95
   2   9   3   11.48    0.71
   3   9   3   37.78    1.75
   3   9   3   41.38    1.68
   3   9   3   36.95    1.82
   3   9   3   37.99    2.10
   4   9   3   36.95    1.90
   4   9   3   37.88    1.78
   4   9   3   39.64    1.64
   4   9   3   37.85    1.70
   4   9   3   39.25    2.18
   5   9   3    1.02    0.33
   5   9   3    0.80    0.64
   5   9   3    1.11    0.28
   5   9   3    0.99    0.33
   5   9   3    1.63    0.43
   6   9   3    4.25    0.44
   6   9   3    3.79    0.50
   6   9   3    4.44    0.60
   6   9   3    3.12    0.51
   6   9   3    3.31    0.81
   7   9   3    7.22    0.58
   7   9   3    6.67    0.72
   7   9   3    5.51    0.73
   7   9   3    5.83    1.01
   7   9   3    6.19    0.67
   8   9   3    6.19    0.80
   8   9   3    5.75    0.76
   8   9   3    6.87    0.82
   8   9   3    5.96    1.09
   9   9   3    7.88    0.99
   9   9   3   10.25    0.97
   9   9   3   11.34    1.37
  10   9   3   -0.85    0.82
  10   9   3   -0.46    1.09
  10   9   3    0.75    0.76
  -4  10   3   10.66    0.94
  -4  10   3   12.19    1.02
  -3  10   3    3.22    0.65
  -3  10   3    4.03    0.42
  -3  10   3    3.32    0.62
  -2  10   3    6.26    0.70
  -2  10   3    6.24    0.63
  -2  10   3    5.21    0.43
  -1  10   3    1.64    0.50
   0  10   3    1.74    0.50
   1  10   3    1.79    0.45
   1  10   3    1.24    0.43
   2  10   3   64.78    2.79
   2  10   3   64.46    2.81
   2  10   3   65.70    3.25
   3  10   3    9.09    0.74
   3  10   3   10.20    0.89
   3  10   3   10.43    0.69
   4  10   3    0.52    0.37
   4  10   3    0.62    0.22
   4  10   3    0.13    0.60
   4  10   3    0.92    0.28
   5  10   3    0.43    0.69
   5  10   3   -0.15    0.30
   5  10   3    0.21    0.42
   5  10   3   -0.04    0.28
   6  10   3    0.29    0.47
   6  10   3    0.54    0.40
   6  10   3   -0.59    0.78
   6  10   3    0.25    0.38
   6  10   3    0.54    0.33
   7  10   3    4.58    0.71
   7  10   3    5.39    0.62
   7  10   3    5.17    0.68
   7  10   3    6.14    0.57
   7  10   3    4.71    0.99
   8  10   3   18.07    1.16
   8  10   3   15.88    1.25
   9  10   3    3.42    0.85
   9  10   3    4.91    1.24
   9  10   3    5.84    0.82
  10  10   3    1.23    0.78
  10  10   3    1.11    0.89
  10  10   3   -0.57    1.17
  -3  11   3    0.87    0.63
  -2  11   3    0.92    0.59
  -1  11   3    1.75    0.56
   0  11   3    9.30    0.80
   1  11   3   17.36    1.05
   2  11   3   10.25    0.88
   2  11   3    9.60    0.76
   3  11   3    4.48    0.73
   4  11   3   -0.21    0.40
   4  11   3   -0.05    0.65
   5  11   3    5.37    0.94
   5  11   3    5.04    0.46
   5  11   3    4.32    0.59
   6  11   3   12.89    0.99
   6  11   3   14.74    1.39
   6  11   3   13.70    0.95
   7  11   3    8.21    1.19
   7  11   3    8.04    0.86
   7  11   3    8.78    0.82
   8  11   3    8.58    1.34
   8  11   3    7.87    0.93
   9  11   3    2.58    0.73
   9  11   3    3.19    1.24
   9  11   3    0.87    0.78
  -1  12   3    3.00    0.67
   0  12   3   10.05    0.92
   1  12   3    9.30    0.83
   3  12   3    0.05    0.66
   4  12   3    2.45    0.79
   5  12   3    5.73    1.00
   5  12   3    4.48    0.41
   6  12   3    7.31    0.77
   6  12   3    8.06    0.71
   6  12   3    8.17    1.22
   7  12   3   17.29    1.66
   7  12   3   15.76    1.21
   8  12   3    6.01    1.33
   8  12   3    4.23    0.81
   4  13   3   -0.15    0.79
   5  13   3    6.90    1.14
   6  13   3    0.74    1.05
   2  11  -4   -0.23    0.49
   5  10  -4    0.93    0.91
   4  10  -4   11.72    1.31
   3  10  -4    0.62    0.45
   3  10  -4    0.77    0.84
   2  10  -4    1.28    0.48
   2  10  -4    1.26    0.79
   1  10  -4    9.88    0.81
   1  10  -4   10.37    1.02
   0  10  -4   12.02    0.93
  -1  10  -4    2.48    0.57
  -2  10  -4    0.41    0.53
   7   9  -4    4.55    1.17
   7   9  -4    4.37    0.78
   6   9  -4    7.36    1.15
   5   9  -4   17.71    1.55
   4   9  -4    0.55    0.78
   4   9  -4    0.84    0.42
   3   9  -4    2.25    0.83
   3   9  -4    1.17    0.42
   3   9  -4    1.48    0.46
   2   9  -4   17.47    0.98
   2   9  -4   15.00    1.06
   2   9  -4   14.83    1.29
   1   9  -4   12.60    0.85
   1   9  -4   10.54    1.05
   1   9  -4   10.86    0.84
   0   9  -4    7.72    0.69
   0   9  -4    8.09    0.71
  -1   9  -4   11.78    0.87
  -2   9  -4    0.12    0.47
  -2   9  -4   -0.49    0.40
  -3   9  -4   13.91    0.93
  -3   9  -4   11.00    0.90
   8   8  -4    0.90    0.75
   8   8  -4   -0.22    1.06
   7   8  -4   14.95    1.21
   7   8  -4   18.43    1.60
   6   8  -4    3.74    1.02
   6   8  -4    3.93    0.68
   5   8  -4   10.00    1.19
   5   8  -4    9.62    0.83
   5   8  -4   11.65    0.99
   4   8  -4    0.35    0.36
   4   8  -4    0.45    0.45
   4   8  -4   -0.71    0.75
   3   8  -4    1.83    0.79
   3   8  -4    2.03    0.41
   3   8  -4    1.92    0.46
   2   8  -4   11.76    1.10
   2   8  -4   11.34    0.86
   2   8  -4   13.59    0.79
   1   8  -4   32.86    1.76
   1   8  -4   32.61    1.54
   1   8  -4   32.01    1.97
   0   8  -4   37.96    1.76
   0   8  -4   36.20    2.14
   0   8  -4   37.17    1.97
   0   8  -4   37.98    1.68
  -1   8  -4    4.11    0.47
  -1   8  -4    3.90    0.52
  -1   8  -4    4.51    0.52
  -2   8  -4    6.78    0.64
  -2   8  -4    6.06    0.56
  -2   8  -4    5.58    0.61
  -3   8  -4    6.75    0.63
  -3   8  -4    6.43    0.66
  -4   8  -4   17.05    1.06
  -4   8  -4   15.69    1.08
  -5   8  -4   21.47    1.26
  -5   8  -4   19.57    1.22
   8   7  -4    6.87    0.94
   8   7  -4    6.32    1.22
   7   7  -4   11.57    1.09
   7   7  -4    9.83    1.30
   6   7  -4    9.08    1.11
   6   7  -4    9.74    0.93
   5   7  -4    0.39    0.71
   5   7  -4    0.86    0.49
   4   7  -4    0.92    0.43
   4   7  -4    1.15    0.35
   4   7  -4   -0.13    0.66
   4   7  -4    0.65    0.42
   3   7  -4   15.67    0.95
   3   7  -4   16.33    0.96
   3   7  -4   14.87    1.06
   3   7  -4   16.99    1.45
   3   7  -4   16.91    0.90
  -3  -7   4   17.62    0.75
   2   7  -4   26.22    1.73
   2   7  -4   24.94    1.45
   2   7  -4   27.08    1.27
   1   7  -4   12.99    0.87
   1   7  -4   12.51    1.03
   1   7  -4   13.77    0.82
   0   7  -4    8.77    0.84
   0   7  -4   10.19    0.72
   0   7  -4   10.33    0.72
  -1   7  -4    2.78    0.56
  -1   7  -4    2.86    0.45
  -1   7  -4    2.79    0.39
  -1   7  -4    2.89    0.42
  -2   7  -4    7.91    0.68
  -2   7  -4    8.24    0.66
  -2   7  -4    7.46    0.60
  -3   7  -4   13.21    0.92
  -3   7  -4   15.22    0.89
  -3   7  -4   14.06    0.98
  -4   7  -4   24.84    1.32
  -4   7  -4   23.87    1.49
  -4   7  -4   25.78    1.31
  -5   7  -4    4.57    0.60
  -5   7  -4    4.54    0.60
  -6   7  -4    0.49    0.53
  -6   7  -4    0.31    0.49
   9   6  -4   30.67    2.30
   8   6  -4    7.16    0.92
   8   6  -4    5.86    1.15
   7   6  -4   12.78    1.11
   7   6  -4   13.36    1.28
   6   6  -4    7.59    1.03
   6   6  -4   10.73    0.95
   5   6  -4    0.81    0.47
   5   6  -4    0.60    0.72
   4   6  -4    5.98    0.55
   4   6  -4    4.70    0.77
   4   6  -4    5.15    0.60
   3   6  -4    3.04    0.46
   3   6  -4    5.09    0.75
   3   6  -4    3.66    0.42
   2   6  -4   73.15    3.07
   2   6  -4   69.16    3.49
   2   6  -4   70.53    2.97
   2   6  -4   69.54    3.54
  -2  -6   4   71.03    2.63
   1   6  -4   67.97    2.90
   1   6  -4   69.06    3.45
   1   6  -4   67.84    3.40
  -1  -6   4   70.73    2.55
   0   6  -4   14.20    1.09
   0   6  -4   14.44    0.89
   0   6  -4   14.12    0.81
  -1   6  -4    0.36    0.28
  -1   6  -4    0.27    0.44
  -1   6  -4    0.28    0.30
  -2   6  -4   11.41    0.68
  -2   6  -4   11.18    0.95
  -2   6  -4   10.67    0.75
  -2   6  -4   10.89    0.79
  -3   6  -4   54.28    2.30
  -3   6  -4   53.75    2.73
  -3   6  -4   51.36    2.32
  -4   6  -4   24.85    1.47
  -4   6  -4   24.40    1.27
  -4   6  -4   26.56    1.30
  -5   6  -4    3.55    0.52
  -5   6  -4    4.00    0.53
  -5   6  -4    3.36    0.57
  -6   6  -4    0.64    0.49
  -6   6  -4    0.35    0.46
  -7   6  -4   14.67    1.02
  -7   6  -4   17.21    1.12
   9   5  -4    2.01    1.04
   8   5  -4   18.99    1.45
   8   5  -4   23.01    1.83
   7   5  -4    2.02    0.60
   7   5  -4    1.69    0.86
   6   5  -4    0.58    0.75
   6   5  -4   -0.25    0.43
   5   5  -4    0.55    0.33
   5   5  -4    0.98    0.44
   5   5  -4   -0.20    0.60
   4   5  -4   33.59    1.64
   4   5  -4   31.73    1.86
   4   5  -4   36.84    2.01
  -4  -5   4   36.51    1.47
   3   5  -4   72.94    3.68
   3   5  -4   76.75    3.22
   3   5  -4   74.06    3.71
   2   5  -4    2.44    0.37
   2   5  -4    2.09    0.32
   2   5  -4    2.67    0.38
   2   5  -4    2.25    0.54
   1   5  -4    0.42    0.25
   1   5  -4    0.44    0.26
   1   5  -4    1.22    0.28
   1   5  -4    1.08    0.46
  -1  -5   4    0.89    0.16
   0   5  -4   21.34    1.11
   0   5  -4   25.96    1.03
   0   5  -4   22.71    1.42
   0   5  -4   22.61    1.27
   0   5  -4   24.99    1.29
   0  -5   4   22.86    0.91
  -1   5  -4   43.44    2.33
  -1   5  -4   46.61    2.01
  -1   5  -4   49.51    2.33
   1  -5   4   45.80    1.71
  -2   5  -4   32.26    1.65
  -2   5  -4   29.40    1.41
  -3   5  -4   42.00    1.84
  -3   5  -4   40.83    2.16
  -3   5  -4   41.59    1.82
  -4   5  -4   24.13    1.42
  -4   5  -4   24.17    1.19
  -4   5  -4   23.82    1.18
  -5   5  -4    5.02    0.54
  -5   5  -4    5.16    0.53
  -5   5  -4    4.50    0.61
  -6   5  -4    5.35    0.58
  -6   5  -4    5.76    0.60
  -6   5  -4    6.27    0.73
  -7   5  -4    5.64    0.64
  -7   5  -4    4.64    0.59
   9   4  -4    8.21    1.16
   8   4  -4   23.04    1.56
   8   4  -4   22.77    1.81
   7   4  -4    5.12    0.70
   7   4  -4    3.51    0.87
   6   4  -4    0.24    0.69
   6   4  -4    0.38    0.45
   6   4  -4    0.47    0.34
   5   4  -4   43.54    2.01
   5   4  -4   39.22    2.30
   5   4  -4   45.29    2.46
  -5  -4   4   46.44    1.84
   4   4  -4   28.83    1.45
   4   4  -4   30.55    1.80
   4   4  -4   30.16    1.67
  -4  -4   4   32.22    1.31
   3   4  -4   66.94    3.31
   3   4  -4   62.81    3.26
  -3  -4   4   67.81    2.71
   2   4  -4   26.57    1.21
   2   4  -4   25.15    1.48
   2   4  -4   24.81    1.37
   1   4  -4    8.04    0.57
   1   4  -4    7.98    0.60
   1   4  -4    8.51    0.51
  -1  -4   4    8.74    0.50
  -1  -4   4    8.04    0.41
   0   4  -4   11.64    0.71
   0   4  -4   11.03    0.63
   0   4  -4   11.98    0.72
   0  -4   4   10.95    0.49
   0  -4   4   11.14    0.61
  -1   4  -4   56.08    2.84
  -1   4  -4   59.89    2.83
   1  -4   4   56.93    2.12
  -2   4  -4   77.11    3.18
  -2   4  -4   79.42    3.73
  -2   4  -4   70.07    3.73
   2  -4   4   79.96    3.73
  -3   4  -4   21.25    1.24
  -3   4  -4   21.11    1.05
  -3   4  -4   22.05    1.07
   3  -4   4   21.93    0.99
   3  -4   4   23.31    1.23
  -4   4  -4   10.26    0.65
  -4   4  -4    9.78    0.76
  -4   4  -4   10.26    0.65
   4  -4   4   10.06    0.60
  -5   4  -4    0.35    0.33
  -5   4  -4    0.33    0.31
  -5   4  -4    0.42    0.38
   5  -4   4    0.22    0.28
  -6   4  -4    3.77    0.48
  -6   4  -4    4.21    0.49
  -6   4  -4    3.20    0.57
  -7   4  -4   24.36    1.24
  -7   4  -4   23.15    1.50
  -7   4  -4   21.77    1.22
  -8   4  -4   18.38    1.06
  -8   4  -4   17.11    1.08
   9   3  -4    3.03    0.90
   8   3  -4    2.16    0.64
   8   3  -4    3.62    0.87
   7   3  -4    5.24    0.73
   7   3  -4    5.32    0.88
   6   3  -4    0.76    0.66
   6   3  -4    1.10    0.46
   6   3  -4    1.08    0.36
  -6  -3   4    0.62    0.24
   5   3  -4   37.21    2.24
   5   3  -4   44.16    1.96
   5   3  -4   45.82    2.33
  -5  -3   4   44.73    1.82
   4   3  -4   43.07    1.88
   4   3  -4   42.98    2.25
   4   3  -4   37.11    2.14
  -4  -3   4   43.62    1.75
   3   3  -4   21.71    1.21
   3   3  -4   22.46    1.05
   3   3  -4   22.85    1.39
  -3  -3   4   21.01    0.96
   2   3  -4   25.86    1.40
   2   3  -4   27.06    1.22
  -2  -3   4   26.94    1.19
   1   3  -4   19.28    0.88
   1   3  -4   18.61    1.00
   1   3  -4   17.79    1.00
  -1  -3   4   17.24    0.84
  -1  -3   4   17.75    0.74
   0   3  -4    5.76    0.44
   0   3  -4    5.68    0.43
   0  -3   4    6.12    0.30
   0  -3   4    5.27    0.35
  -1   3  -4   64.84    2.97
  -1   3  -4   60.22    2.97
  -1   3  -4   59.64    2.52
   1  -3   4   58.56    2.24
  -2   3  -4   46.49    2.02
  -2   3  -4   49.97    2.37
  -2   3  -4   46.64    2.38
   2  -3   4   46.77    2.37
   2  -3   4   48.68    1.97
  -3   3  -4   23.49    1.20
  -3   3  -4   20.75    1.02
  -3   3  -4   19.96    1.21
   3  -3   4   22.83    1.22
   3  -3   4   22.45    0.99
  -4   3  -4    0.71    0.26
  -4   3  -4    0.50    0.31
  -4   3  -4    0.24    0.25
   4  -3   4    0.53    0.23
   4  -3   4    0.18    0.27
  -5   3  -4    1.24    0.34
  -5   3  -4    0.89    0.29
  -5   3  -4    0.98    0.38
   5  -3   4    1.11    0.30
  -6   3  -4   13.21    0.83
  -6   3  -4   13.33    1.00
  -6   3  -4   13.53    0.78
   6  -3   4   13.39    0.84
  -7   3  -4   27.67    1.43
  -7   3  -4   30.44    1.78
  -7   3  -4   30.89    1.43
   7  -3   4   29.89    1.49
  -8   3  -4    0.37    0.44
  -8   3  -4    0.55    0.42
  -8   3  -4    0.43    0.53
  -9   3  -4    9.11    0.74
  -9   3  -4    6.71    0.75
   8   2  -4    0.89    0.72
   7   2  -4   -0.06    0.48
   7   2  -4    1.15    0.66
  -7  -2   4    0.91    0.33
   6   2  -4   29.47    1.34
   6   2  -4   23.78    1.53
   6   2  -4   26.06    1.68
  -6  -2   4   25.82    1.19
   5   2  -4   13.61    0.98
   5   2  -4   15.78    0.84
   5   2  -4   14.82    1.20
  -5  -2   4   15.35    0.75
   4   2  -4   44.88    2.27
   4   2  -4   41.16    2.24
   4   2  -4   42.31    1.93
  -4  -2   4   45.76    1.84
   3   2  -4   53.59    2.31
   3   2  -4   51.56    2.66
  -3  -2   4   55.49    2.22
   2   2  -4   10.67    0.59
   2   2  -4   11.63    0.70
  -2  -2   4   10.82    0.54
   1   2  -4   67.05    2.88
   1   2  -4   69.88    3.33
  -1  -2   4   68.23    2.86
  -1  -2   4   70.24    2.55
   0   2  -4  298.33   14.35
   0   2  -4  325.48   14.36
   0  -2   4  304.40   11.03
   0  -2   4  294.24   12.39
  -1   2  -4   25.62    1.37
  -1   2  -4   28.16    1.37
   1  -2   4   25.33    1.01
   1  -2   4   27.31    1.36
  -2   2  -4   42.38    2.24
  -2   2  -4   49.28    2.23
  -2   2  -4   44.65    1.89
   2  -2   4   44.48    1.85
   2  -2   4   44.37    1.68
   2  -2   4   44.92    2.23
  -3   2  -4   25.75    1.27
  -3   2  -4   23.21    1.08
  -3   2  -4   22.16    1.28
   3  -2   4   24.34    1.03
   3  -2   4   24.02    1.28
   3  -2   4   23.53    1.05
  -4   2  -4   33.61    1.64
  -4   2  -4   29.56    1.38
  -4   2  -4   31.98    1.39
  -4   2  -4   30.70    1.68
   4  -2   4   31.67    1.66
   4  -2   4   31.88    1.36
   4  -2   4   30.66    1.37
  -5   2  -4   53.99    2.83
  -5   2  -4   55.83    2.35
  -5   2  -4   55.59    2.34
   5  -2   4   53.09    2.34
   5  -2   4   55.87    2.37
   5  -2   4   58.41    2.82
  -6   2  -4   40.15    1.75
  -6   2  -4   39.60    1.77
  -6   2  -4   40.86    2.17
   6  -2   4   38.67    1.80
   6  -2   4   40.73    1.81
  -7   2  -4   23.16    1.10
  -7   2  -4   20.73    1.42
  -7   2  -4   22.32    1.14
   7  -2   4   22.87    1.23
  -8   2  -4    5.72    0.61
  -8   2  -4    6.41    0.58
  -8   2  -4    7.64    0.84
   8  -2   4    7.75    0.76
  -9   2  -4    4.47    0.61
  -9   2  -4    4.37    0.56
   9  -2   4    5.06    0.76
   8   1  -4    0.78    0.68
   7   1  -4    6.75    0.84
   7   1  -4    7.71    0.81
  -7  -1   4    8.32    0.60
   6   1  -4    8.16    0.79
   6   1  -4    8.63    0.84
  -6  -1   4    9.52    0.61
   5   1  -4   11.28    0.82
   5   1  -4   11.44    1.00
  -5  -1   4   10.41    0.61
   4   1  -4   54.53    2.67
   4   1  -4   50.29    2.69
   4   1  -4   53.80    2.31
  -4  -1   4   54.81    2.24
   3   1  -4    2.29    0.33
   3   1  -4    3.09    0.30
  -3  -1   4    3.09    0.35
  -3  -1   4    2.94    0.25
   2   1  -4    8.71    0.47
   2   1  -4    7.82    0.55
  -2  -1   4    8.37    0.44
  -2  -1   4    9.27    0.57
   1   1  -4    5.61    0.35
   1   1  -4    5.94    0.42
  -1  -1   4    6.68    0.43
  -1  -1   4    6.48    0.34
   0   1  -4   85.00    3.92
   0   1  -4   82.13    3.91
   0   1  -4   77.60    3.37
   0  -1   4   81.29    3.00
   0  -1   4   84.08    3.91
   0  -1   4   79.93    3.36
  -1   1  -4  167.72    7.76
  -1   1  -4  155.42    7.76
   1  -1   4  158.99    6.69
   1  -1   4  178.74    7.76
   1  -1   4  165.36    7.75
   1  -1   4  159.69    5.95
  -2   1  -4  104.72    5.21
  -2   1  -4  110.06    4.40
  -2   1  -4  114.01    5.21
   2  -1   4  104.65    3.98
   2  -1   4  106.22    4.37
   2  -1   4  112.99    5.20
   2  -1   4  112.34    4.50
   2  -1   4  109.37    5.21
  -3   1  -4    0.22    0.20
  -3   1  -4    0.63    0.17
  -3   1  -4   -0.06    0.15
   3  -1   4    0.14    0.14
   3  -1   4   -0.11    0.12
   3  -1   4    0.04    0.17
  -4   1  -4    1.43    0.30
  -4   1  -4    1.31    0.25
  -4   1  -4    1.37    0.23
   4  -1   4    1.36    0.25
   4  -1   4    1.11    0.20
   4  -1   4    1.23    0.28
  -5   1  -4  116.35    5.02
  -5   1  -4  103.65    4.22
  -5   1  -4  102.35    5.07
  -5   1  -4  102.61    4.21
   5  -1   4  100.59    5.05
   5  -1   4   97.78    4.24
   5  -1   4  103.46    4.35
  -6   1  -4   62.13    2.53
  -6   1  -4   59.12    2.50
  -6   1  -4   57.29    3.05
   6  -1   4   59.46    2.61
   6  -1   4   61.88    3.06
   6  -1   4   57.84    2.55
  -7   1  -4   13.67    0.74
  -7   1  -4   13.18    0.78
  -7   1  -4   13.15    1.02
   7  -1   4   12.45    0.92
   7  -1   4   14.24    0.91
  -8   1  -4   17.18    1.00
  -8   1  -4   18.06    1.32
  -8   1  -4   18.31    0.97
   8  -1   4   17.55    1.18
   8  -1   4   20.27    1.20
  -9   1  -4   -0.22    0.55
  -9   1  -4    0.43    0.45
  -9   1  -4    0.10    0.37
   9  -1   4    0.54    0.63
 -10   1  -4    9.28    0.82
  10  -1   4   12.97    1.11
   7   0  -4   44.16    2.43
  -7   0   4   47.52    2.05
   6   0  -4   63.50    3.35
   6   0  -4   67.81    3.29
  -6   0   4   66.65    2.80
   5   0  -4   30.47    1.68
   5   0  -4   29.99    1.73
  -5   0   4   31.14    1.38
   4   0  -4   17.11    1.05
   4   0  -4   19.20    1.14
  -4   0   4   16.97    0.86
  -4   0   4   18.63    1.07
   3   0  -4   33.13    1.76
  -3   0   4   34.94    1.47
  -3   0   4   35.02    1.78
   2   0  -4   18.06    0.88
   2   0  -4   19.44    1.04
  -2   0   4   19.06    0.86
  -2   0   4   21.16    1.05
   1   0  -4   44.90    1.92
   1   0  -4   43.41    2.24
  -1   0   4   46.78    1.91
  -1   0   4   48.68    2.26
   0   0  -4   92.11    4.26
   0   0  -4   88.43    4.25
   0   0  -4   89.20    3.66
   0   0   4   87.33    3.27
   0   0   4   87.56    3.65
   0   0   4   90.82    4.26
  -1   0  -4  107.31    4.86
  -1   0  -4  103.67    4.87
   1   0   4  101.70    3.73
   1   0   4  101.41    4.86
   1   0   4   99.02    4.18
   1   0   4  101.18    4.09
  -2   0  -4    0.24    0.15
  -2   0  -4    0.31    0.13
   2   0   4    0.04    0.13
   2   0   4    0.09    0.11
   2   0   4    0.19    0.13
   2   0   4    0.15    0.11
   2   0   4    0.04    0.09
  -3   0  -4   72.97    3.62
  -3   0  -4   75.97    3.04
  -3   0  -4   76.49    3.60
   3   0   4   74.31    3.12
   3   0   4   73.25    3.61
   3   0   4   76.25    3.04
  -4   0  -4   17.69    0.95
  -4   0  -4   17.47    0.99
  -4   0  -4   17.67    0.78
   4   0   4   16.19    0.98
   4   0   4   15.70    0.83
   4   0   4   17.80    0.83
  -5   0  -4   29.07    1.56
  -5   0  -4   27.96    1.26
  -5   0  -4   29.43    1.23
   5   0   4   28.06    1.54
   5   0   4   27.81    1.32
   5   0   4   27.90    1.32
  -6   0  -4   17.84    0.87
  -6   0  -4   17.47    0.82
  -6   0  -4   15.84    1.08
   6   0   4   16.71    1.08
   6   0   4   16.66    0.96
   6   0   4   16.33    0.95
  -7   0  -4    5.54    0.65
  -7   0  -4    5.68    0.49
  -7   0  -4    6.01    0.44
   7   0   4    6.44    0.64
   7   0   4    5.11    0.61
   7   0   4    6.81    0.71
  -8   0  -4    0.37    0.29
  -8   0  -4    0.05    0.35
  -8   0  -4    0.17    0.45
   8   0   4    0.06    0.49
   8   0   4    0.24    0.51
  -9   0  -4   13.58    0.81
  -9   0  -4   12.06    1.11
  -9   0  -4   14.25    0.88
   9   0   4   13.62    1.12
   9   0   4   13.86    1.10
 -10   0  -4    7.71    0.72
  10   0   4    9.95    1.05
  -9   1   4   -0.31    0.52
  -8   1   4   -0.08    0.49
  -7   1   4    9.73    0.71
  -7   1   4    7.98    0.72
   6  -1  -4   30.12    1.78
   6  -1  -4   33.72    1.76
  -6   1   4   32.11    1.50
  -6   1   4   31.86    1.53
   5  -1  -4   93.50    4.83
   5  -1  -4   98.30    4.69
  -5   1   4   94.12    4.08
  -5   1   4  100.02    4.10
  -5   1   4  109.50    4.89
   4  -1  -4    5.26    0.51
   4  -1  -4    5.50    0.53
  -4   1   4    5.44    0.42
  -4   1   4    4.01    0.42
  -4   1   4    5.90    0.53
   2  -1  -4   24.67    1.33
  -2   1   4   27.03    1.35
  -2   1   4   25.86    1.13
   1  -1  -4  123.71    5.80
   1  -1  -4  118.72    4.99
  -1   1   4  127.36    5.81
  -1   1   4  120.52    4.96
   0  -1  -4  101.53    4.11
   0  -1  -4   96.50    4.78
   0  -1  -4   97.45    4.78
   0   1   4  100.34    4.09
   0   1   4  101.23    4.11
   0   1   4  104.34    3.69
   0   1   4  104.98    4.79
  -1  -1  -4   46.81    2.18
  -1  -1  -4   44.00    2.18
   1   1   4   44.23    1.85
   1   1   4   45.71    1.68
   1   1   4   43.91    2.17
   1   1   4   47.92    2.18
   1   1   4   42.96    1.90
   1   1   4   44.20    1.84
  -2  -1  -4    2.91    0.27
  -2  -1  -4    3.39    0.27
   2   1   4    2.59    0.19
   2   1   4    3.21    0.24
   2   1   4    2.85    0.27
   2   1   4    2.65    0.22
   2   1   4    3.11    0.27
  -3  -1  -4    1.67    0.17
  -3  -1  -4    1.67    0.23
  -3  -1  -4    1.46    0.20
   3   1   4    1.44    0.19
   3   1   4    1.24    0.21
  -4  -1  -4  205.73    9.60
  -4  -1  -4  213.61    9.57
  -4  -1  -4  201.57    8.06
   4   1   4  198.37    8.36
   4   1   4  198.76    8.09
   4   1   4  197.83    9.59
  -5  -1  -4   46.37    1.89
  -5  -1  -4   45.79    2.33
  -5  -1  -4   46.04    1.92
   5   1   4   43.70    1.98
   5   1   4   45.58    2.34
   5   1   4   46.57    2.03
  -6  -1  -4   50.28    2.09
  -6  -1  -4   51.53    2.58
  -6  -1  -4   50.56    2.06
   6   1   4   49.43    2.58
   6   1   4   48.04    2.19
   6   1   4   48.30    2.24
  -7  -1  -4    4.18    0.57
  -7  -1  -4    4.61    0.42
  -7  -1  -4    5.02    0.37
   7   1   4    5.69    0.62
   7   1   4    4.59    0.57
   7   1   4    4.28    0.61
  -8  -1  -4   36.01    1.65
  -8  -1  -4   32.22    2.04
  -8  -1  -4   37.26    1.60
   8   1   4   37.31    1.91
   8   1   4   39.56    2.17
   8   1   4   37.60    1.86
  -9  -1  -4   10.78    1.01
  -9  -1  -4   11.75    0.83
  -9  -1  -4   11.43    0.73
   9   1   4   12.11    1.05
   9   1   4   14.51    1.11
 -10  -1  -4   13.57    0.93
  10   1   4   14.55    1.24
  10   1   4   12.02    1.18
  -9   2   4   -0.37    0.58
  -8   2   4   13.19    0.99
  -7   2   4   17.47    1.06
  -7   2   4   16.31    1.03
  -6   2   4   18.61    1.06
  -6   2   4   18.09    1.04
   5  -2  -4    1.93    0.42
   5  -2  -4    1.61    0.41
  -5   2   4    1.52    0.34
  -5   2   4    1.01    0.36
   4  -2  -4    0.61    0.30
   4  -2  -4    0.51    0.34
  -4   2   4    0.07    0.27
  -4   2   4    0.60    0.31
  -4   2   4    0.18    0.25
   3  -2  -4    9.02    0.60
  -3   2   4    7.33    0.54
  -3   2   4    7.98    0.61
  -3   2   4    9.53    0.53
   2  -2  -4  343.18   15.98
  -2   2   4  328.79   13.66
  -2   2   4  349.79   15.99
   1  -2  -4    1.85    0.21
  -1   2   4    2.59    0.22
  -1   2   4    2.30    0.23
   0  -2  -4   11.82    0.61
   0  -2  -4   11.21    0.49
   0  -2  -4   11.20    0.61
   0   2   4   11.79    0.49
   0   2   4   11.41    0.54
   0   2   4   10.87    0.62
  -1  -2  -4    4.38    0.28
  -1  -2  -4    4.05    0.29
   1   2   4    4.04    0.29
   1   2   4    4.24    0.28
   1   2   4    4.15    0.28
   1   2   4    4.46    0.27
   1   2   4    4.27    0.24
   1   2   4    4.17    0.20
  -2  -2  -4   69.70    3.12
  -2  -2  -4   66.46    3.12
   2   2   4   64.34    2.73
   2   2   4   60.50    2.63
   2   2   4   61.59    3.11
   2   2   4   68.10    3.12
  -3  -2  -4   40.84    2.04
  -3  -2  -4   43.38    2.03
   3   2   4   39.45    1.73
   3   2   4   43.10    2.05
   3   2   4   40.78    1.79
  -4  -2  -4   29.12    1.19
  -4  -2  -4   28.02    1.48
   4   2   4   28.17    1.49
   4   2   4   28.23    1.30
   4   2   4   28.87    1.28
  -5  -2  -4   79.43    3.11
  -5  -2  -4   77.61    3.79
  -5  -2  -4   76.41    3.14
   5   2   4   79.19    3.23
   5   2   4   75.73    3.80
   5   2   4   75.47    3.32
  -6  -2  -4    5.11    0.54
  -6  -2  -4    5.80    0.35
  -6  -2  -4    6.25    0.41
   6   2   4    5.88    0.59
   6   2   4    5.66    0.53
   6   2   4    6.05    0.56
  -7  -2  -4    0.57    0.25
  -7  -2  -4    0.49    0.20
   7   2   4    0.72    0.42
   7   2   4    0.64    0.45
   7   2   4    0.16    0.43
  -8  -2  -4    2.53    0.30
  -8  -2  -4    1.78    0.35
   8   2   4    1.41    0.56
   8   2   4    1.35    0.57
   8   2   4    2.54    0.62
  -9  -2  -4    9.83    0.73
   9   2   4    8.68    0.93
   9   2   4    9.73    1.00
   9   2   4    9.66    1.02
 -10  -2  -4   35.28    1.73
  10   2   4   39.78    2.11
 -11  -2  -4    0.86    0.50
  11   2   4    1.20    0.88
  11   2   4    1.43    0.84
  -8   3   4   16.57    1.17
  -7   3   4    7.48    0.73
  -6   3   4    7.33    0.68
  -6   3   4    8.49    0.69
  -5   3   4    8.43    0.65
  -5   3   4    8.03    0.65
   4  -3  -4    3.09    0.41
   4  -3  -4    3.33    0.38
  -4   3   4    2.82    0.37
  -4   3   4    2.81    0.39
  -4   3   4    3.05    0.43
   3  -3  -4   70.39    3.52
  -3   3   4   71.78    3.01
  -3   3   4   71.72    3.03
  -3   3   4   75.81    3.56
   2  -3  -4  112.10    5.41
  -2   3   4  117.46    4.61
  -2   3   4  111.97    4.65
   1  -3  -4  276.49   12.44
  -1   3   4  275.69   10.66
  -1   3   4  277.85    9.59
  -1   3   4  230.94   12.43
   0  -3  -4    1.33    0.16
   0  -3  -4    1.53    0.10
   0  -3  -4    1.47    0.17
   0   3   4    1.36    0.14
   0   3   4    1.15    0.18
   0   3   4    1.38    0.17
  -1  -3  -4   16.28    0.80
  -1  -3  -4   16.16    0.80
   1   3   4   16.23    0.72
   1   3   4   15.47    0.69
   1   3   4   14.75    0.73
   1   3   4   14.97    0.79
   1   3   4   15.46    0.63
   1   3   4   16.22    0.80
  -2  -3  -4    8.54    0.49
  -2  -3  -4    9.23    0.50
   2   3   4    8.97    0.50
   2   3   4    9.16    0.40
   2   3   4    8.81    0.46
   2   3   4    8.34    0.46
  -3  -3  -4   75.14    3.63
  -3  -3  -4   78.27    3.62
   3   3   4   74.31    3.64
   3   3   4   76.65    3.08
   3   3   4   75.13    3.20
  -4  -3  -4  203.53    9.81
  -4  -3  -4  217.52    8.24
   4   3   4  207.70    8.60
   4   3   4  200.37    9.83
   4   3   4  210.54    8.30
  -5  -3  -4    5.70    0.33
  -5  -3  -4    4.51    0.44
  -5  -3  -4    5.31    0.28
   5   3   4    4.17    0.46
   5   3   4    4.69    0.47
   5   3   4    4.75    0.46
   5   3   4    4.88    0.45
  -6  -3  -4    3.95    0.32
  -6  -3  -4    4.20    0.27
   6   3   4    2.56    0.45
   6   3   4    4.32    0.52
   6   3   4    3.29    0.44
   6   3   4    4.37    0.50
  -7  -3  -4   19.62    0.85
  -7  -3  -4   18.94    0.92
   7   3   4   17.73    1.15
   7   3   4   17.93    1.22
   7   3   4   20.48    1.29
   7   3   4   18.36    1.10
  -8  -3  -4   12.68    0.67
   8   3   4    9.56    0.96
   8   3   4   10.78    0.95
   8   3   4   10.61    0.91
  -9  -3  -4   10.03    0.73
   9   3   4   11.13    1.06
   9   3   4    9.99    1.06
   9   3   4   11.92    1.05
 -10  -3  -4   11.95    0.84
  10   3   4   15.26    1.27
  10   3   4   11.94    1.17
  10   3   4   11.83    1.24
 -11  -3  -4    1.55    0.48
  11   3   4    0.72    0.89
  11   3   4    1.84    0.87
  -8   4   4    5.22    0.72
  -7   4   4   14.22    1.03
  -6   4   4    0.23    0.45
  -6   4   4    0.90    0.46
  -5   4   4    1.91    0.44
  -5   4   4    1.99    0.46
  -4   4   4   13.39    0.79
  -4   4   4   12.48    0.82
   3  -4  -4   58.96    2.90
  -3   4   4   59.80    2.54
   2  -4  -4    2.76    0.30
  -2   4   4    3.10    0.33
  -2   4   4    3.00    0.33
  -2   4   4    4.09    0.35
   1  -4  -4   29.69    1.50
  -1   4   4   30.35    1.31
  -1   4   4   29.97    1.34
  -1   4   4   30.48    1.51
  -1   4   4   31.29    1.17
   0  -4  -4   30.26    1.42
   0  -4  -4   28.51    1.41
   0   4   4   28.92    1.42
   0   4   4   28.31    1.26
   0   4   4   28.99    1.11
  -1  -4  -4   38.13    1.74
  -1  -4  -4   35.42    1.74
   1   4   4   36.86    1.75
   1   4   4   36.54    1.58
   1   4   4   35.19    1.54
   1   4   4   36.27    1.50
   1   4   4   36.37    1.37
  -2  -4  -4   52.09    2.54
  -2  -4  -4   55.23    2.55
   2   4   4   51.80    2.20
   2   4   4   56.82    2.56
   2   4   4   52.72    2.28
   2   4   4   50.90    2.55
   2   4   4   53.19    2.18
   2   4   4   54.62    1.99
  -3  -4  -4  172.23    8.04
   3   4   4  173.57    6.82
   3   4   4  169.78    6.87
   3   4   4  163.31    7.90
   3   4   4  177.74    7.08
   3   4   4  168.81    8.05
  -4  -4  -4    3.34    0.17
  -4  -4  -4    2.64    0.28
   4   4   4    3.28    0.34
   4   4   4    2.47    0.36
   4   4   4    3.16    0.32
   4   4   4    2.56    0.31
  -5  -4  -4    3.54    0.36
  -5  -4  -4    3.39    0.18
  -5  -4  -4    3.51    0.25
   5   4   4    3.89    0.42
   5   4   4    3.32    0.46
   5   4   4    2.91    0.38
   5   4   4    3.22    0.37
  -6  -4  -4    3.23    0.21
  -6  -4  -4    3.04    0.27
   6   4   4    3.27    0.45
   6   4   4    2.47    0.42
   6   4   4    3.07    0.46
   6   4   4    2.76    0.51
  -7  -4  -4    1.27    0.25
   7   4   4    0.94    0.52
   7   4   4    1.16    0.49
   7   4   4    0.54    0.42
   7   4   4    1.41    0.43
  -8  -4  -4   29.26    1.33
   8   4   4   29.85    1.58
   8   4   4   27.43    1.65
   8   4   4   31.68    1.83
   8   4   4   28.25    1.79
  -9  -4  -4   30.72    1.46
   9   4   4   32.70    1.76
   9   4   4   31.28    1.97
   9   4   4   35.01    2.03
   9   4   4   30.77    1.85
 -10  -4  -4    1.53    0.38
  10   4   4    1.56    0.84
  10   4   4    1.33    0.72
  10   4   4    0.80    0.71
 -11  -4  -4   -0.20    0.42
  11   4   4   -0.33    0.87
  11   4   4   -0.01    0.79
  -8   5   4    7.70    0.87
  -7   5   4    8.67    0.87
  -6   5   4    0.91    0.52
  -5   5   4   11.05    0.85
  -5   5   4   10.11    0.80
  -4   5   4   42.85    2.01
  -4   5   4   45.78    2.01
  -3   5   4   21.79    1.12
  -3   5   4   22.36    1.23
  -3   5   4   20.37    1.09
   2  -5  -4   20.81    1.08
  -2   5   4   20.33    0.85
  -2   5   4   21.04    1.04
  -2   5   4   21.50    1.13
  -2   5   4   20.57    1.03
   1  -5  -4   43.53    2.13
  -1   5   4   43.22    1.91
  -1   5   4   44.27    2.16
  -1   5   4   44.34    1.67
  -1   5   4   46.47    1.88
   0  -5  -4   28.81    1.19
   0  -5  -4   28.55    1.36
   0   5   4   28.75    1.09
   0   5   4   27.00    1.26
   0   5   4   28.67    1.39
   1   5   4   55.78    2.32
   1   5   4   56.51    2.64
   1   5   4   57.52    2.07
   1   5   4   52.99    2.37
  -2  -5  -4  136.83    6.16
   2   5   4  130.56    5.32
   2   5   4  127.64    5.45
   2   5   4  130.41    6.10
   2   5   4  129.74    5.24
   2   5   4  130.20    6.17
   2   5   4  135.84    4.79
   2   5   4  130.08    5.31
  -3  -5  -4   98.46    4.48
   3   5   4   95.69    3.98
   3   5   4   90.51    4.46
   3   5   4   91.29    4.49
   3   5   4   93.60    3.86
   3   5   4   94.76    3.83
   3   5   4   98.06    3.82
  -4  -5  -4   28.23    1.48
   4   5   4   29.52    1.59
   4   5   4   29.90    1.52
   4   5   4   30.37    1.25
   4   5   4   30.13    1.32
   4   5   4   30.20    1.39
  -5  -5  -4    1.14    0.23
  -5  -5  -4    0.75    0.14
   5   5   4    1.06    0.30
   5   5   4    1.11    0.29
   5   5   4    0.63    0.40
   5   5   4    1.36    0.34
  -6  -5  -4   58.51    2.32
   6   5   4   56.63    2.92
   6   5   4   55.36    2.89
   6   5   4   58.12    2.50
   6   5   4   55.77    2.59
  -7  -5  -4   38.92    1.65
   7   5   4   38.27    1.93
   7   5   4   38.22    2.21
   7   5   4   40.78    1.87
   7   5   4   39.49    2.16
  -8  -5  -4   42.34    1.77
   8   5   4   40.09    2.02
   8   5   4   39.37    2.30
   8   5   4   42.85    2.39
   8   5   4   40.76    2.09
  -9  -5  -4    5.20    0.46
   9   5   4    4.85    0.86
   9   5   4    5.66    0.82
   9   5   4    4.64    0.91
   9   5   4    5.66    0.85
 -10  -5  -4   -0.03    0.34
  10   5   4    0.96    0.77
  10   5   4    0.00    0.64
  10   5   4    0.20    0.67
  10   5   4    0.22    0.83
  11   5   4    0.63    0.91
  11   5   4    0.91    0.85
  -7   6   4   -0.22    0.61
  -6   6   4    5.46    0.71
  -5   6   4   18.33    1.13
  -4   6   4   18.26    1.07
  -4   6   4   17.79    1.05
  -3   6   4   26.77    1.34
  -3   6   4   26.40    1.33
   2  -6  -4    1.60    0.23
  -2   6   4    1.20    0.28
  -2   6   4    1.22    0.37
  -2   6   4    1.34    0.19
  -2   6   4    1.22    0.31
   1  -6  -4    7.43    0.41
  -1   6   4    5.85    0.51
  -1   6   4    7.78    0.53
  -1   6   4    7.10    0.54
  -1   6   4    7.46    0.47
  -1   6   4    6.84    0.37
   0  -6  -4    2.57    0.19
   0   6   4    2.22    0.20
   0   6   4    2.47    0.19
   0   6   4    2.43    0.32
  -1  -6  -4   16.61    0.73
   1   6   4   15.89    0.82
   1   6   4   17.59    0.69
   1   6   4   16.99    0.81
   1   6   4   17.03    0.83
   2   6   4   78.50    3.73
   2   6   4   78.94    3.35
   2   6   4   81.12    3.77
   2   6   4   77.84    3.19
   2   6   4   80.31    3.26
  -3  -6  -4   16.27    0.78
   3   6   4   15.35    0.97
   3   6   4   16.32    0.72
   3   6   4   14.75    0.70
   3   6   4   15.48    0.74
   3   6   4   14.71    0.79
   3   6   4   15.85    0.82
  -4  -6  -4   12.95    0.55
  -4  -6  -4   13.05    0.72
   4   6   4   13.37    0.63
   4   6   4   12.24    0.75
   4   6   4   13.23    0.99
   4   6   4   14.35    0.62
   4   6   4   13.09    0.74
   4   6   4   13.22    0.70
  -5  -6  -4    4.29    0.27
  -5  -6  -4    4.60    0.39
   5   6   4    4.85    0.44
   5   6   4    4.28    0.56
   5   6   4    4.52    0.46
   5   6   4    4.85    0.28
   5   6   4    3.90    0.45
  -6  -6  -4   16.50    0.71
   6   6   4   16.77    0.70
   6   6   4   12.30    1.16
   6   6   4   15.46    1.00
   6   6   4   14.63    0.93
   6   6   4   15.70    1.01
  -7  -6  -4   38.94    1.62
   7   6   4   39.08    2.12
   7   6   4   36.42    1.90
   7   6   4   38.39    2.25
   7   6   4   40.05    1.88
  -8  -6  -4    7.57    0.50
   8   6   4    6.69    0.79
   8   6   4    7.47    0.84
   8   6   4    6.46    0.94
   8   6   4    6.99    0.84
   9   6   4   12.06    1.14
   9   6   4   14.09    1.16
   9   6   4   13.52    1.33
   9   6   4   16.09    1.25
  10   6   4    4.55    0.87
  10   6   4    4.85    0.97
  10   6   4    3.70    1.04
  10   6   4    5.53    0.91
  11   6   4    4.53    0.99
  11   6   4    1.38    1.05
  11   6   4    3.01    0.97
  -6   7   4   15.25    1.18
  -5   7   4   14.52    1.04
  -4   7   4   38.85    1.88
  -3   7   4   44.58    1.95
  -3   7   4   39.24    1.60
  -3   7   4   41.51    1.93
  -3   7   4   42.86    1.98
  -2   7   4   16.48    0.98
  -2   7   4   17.15    0.97
  -2   7   4   16.27    0.70
  -2   7   4   16.91    0.96
  -2   7   4   17.20    0.97
  -1   7   4   82.90    3.70
  -1   7   4   92.44    3.63
  -1   7   4   89.45    3.23
  -1   7   4   86.26    4.18
  -1   7   4   88.91    3.69
   0  -7  -4   34.33    1.45
   0   7   4   36.13    1.47
   0   7   4   31.33    1.61
   0   7   4   33.19    1.28
   0   7   4   35.83    1.54
   0   7   4   33.61    1.52
  -1  -7  -4   53.64    2.30
   1   7   4   53.15    2.38
   1   7   4   58.01    2.06
   1   7   4   56.31    2.35
   1   7   4   56.77    2.36
   2   7   4    5.93    0.45
   2   7   4    6.06    0.38
   2   7   4    5.84    0.44
   2   7   4    9.63    0.69
   3   7   4    9.76    0.51
   3   7   4    8.58    0.51
   3   7   4    9.67    0.51
   3   7   4    9.58    0.83
   3   7   4    8.70    0.56
   3   7   4    8.66    0.46
  -4  -7  -4    2.76    0.25
   4   7   4    3.09    0.32
   4   7   4    3.34    0.33
   4   7   4    2.77    0.27
   4   7   4    2.89    0.51
   4   7   4    3.45    0.41
   4   7   4    3.89    0.26
  -5  -7  -4   66.23    3.21
   5   7   4   60.04    2.91
   5   7   4   68.17    2.80
   5   7   4   64.70    3.27
   5   7   4   71.60    2.81
   5   7   4   68.42    3.38
   6   7   4   14.10    0.94
   6   7   4   14.96    1.27
   6   7   4   13.56    0.86
   6   7   4   13.66    0.95
   7   7   4   19.27    1.11
   7   7   4   17.08    1.20
   7   7   4   19.99    1.26
   7   7   4   18.81    1.45
   8   7   4   -0.04    0.51
   8   7   4   -1.04    0.72
   8   7   4   -0.22    0.52
   8   7   4    0.52    0.61
   9   7   4    0.66    0.89
   9   7   4    0.55    0.64
   9   7   4    0.88    0.73
   9   7   4    0.69    0.60
  10   7   4    0.71    0.84
  10   7   4    0.80    0.72
  10   7   4   -0.30    0.98
  11   7   4    7.55    1.22
  11   7   4    9.20    1.12
  11   7   4    9.89    1.41
  -6   8   4    4.89    0.77
  -5   8   4   33.71    1.75
  -4   8   4    7.77    0.74
  -3   8   4    0.80    0.44
  -3   8   4    0.64    0.48
  -2   8   4    1.84    0.41
  -2   8   4    2.63    0.49
  -2   8   4    1.94    0.49
  -1   8   4    0.43    0.38
  -1   8   4    0.39    0.30
  -1   8   4    0.60    0.38
  -1   8   4    0.49    0.18
   0  -8  -4   42.88    1.83
   0   8   4   44.43    1.83
   0   8   4   42.85    1.60
   0   8   4   40.13    1.91
   0   8   4   43.87    1.93
  -1  -8  -4   40.42    1.77
   1   8   4   43.15    1.86
   1   8   4   42.46    1.86
   2   8   4   19.39    0.95
   2   8   4   20.08    0.95
   2   8   4   19.14    1.18
   2   8   4   18.72    0.98
   3   8   4    4.65    0.33
   3   8   4    5.77    0.42
   3   8   4    4.55    0.30
   3   8   4    4.43    0.56
   3   8   4    4.01    0.42
   3   8   4    4.78    0.34
   4   8   4   23.41    1.15
   4   8   4   23.28    1.52
   4   8   4   24.67    1.31
   4   8   4   24.46    1.27
   4   8   4   25.76    1.16
   4   8   4   30.25    1.13
   5   8   4   15.89    0.88
   5   8   4   16.52    0.82
   5   8   4   16.90    1.33
   5   8   4   16.21    0.97
   5   8   4   16.67    0.98
   6   8   4    4.10    0.76
   6   8   4    4.48    0.40
   6   8   4    4.51    0.50
   6   8   4    3.98    0.52
   6   8   4    5.09    0.61
   7   8   4   35.95    1.90
   7   8   4   35.32    2.25
   7   8   4   42.10    1.75
   7   8   4   36.43    1.82
   7   8   4   38.56    2.10
   8   8   4   26.33    1.92
   8   8   4   26.05    1.71
   8   8   4   27.90    1.54
   8   8   4   29.66    1.36
   8   8   4   27.77    1.60
   9   8   4    4.88    0.79
   9   8   4    4.45    0.78
   9   8   4    3.79    0.81
   9   8   4    3.37    1.04
  10   8   4   11.28    1.23
  10   8   4    8.78    1.03
  10   8   4    9.74    1.31
  11   8   4    4.79    0.99
  -5   9   4    1.01    0.63
  -4   9   4    4.30    0.69
  -3   9   4   -0.26    0.47
  -3   9   4   -0.18    0.48
  -3   9   4    0.52    0.28
  -2   9   4   10.75    0.84
  -2   9   4    8.69    0.59
  -2   9   4    9.49    0.73
  -1   9   4   16.54    0.85
  -1   9   4   16.83    1.03
  -1   9   4   18.11    0.96
   0   9   4   41.16    1.91
   0   9   4   42.00    1.93
   0   9   4   41.70    1.80
   1   9   4   19.29    1.04
   1   9   4   19.84    1.06
   2   9   4    3.55    0.52
   2   9   4    5.89    0.47
   2   9   4    3.90    0.41
   2   9   4    3.62    0.43
   3   9   4   19.28    0.88
   3   9   4   19.37    1.31
   3   9   4   19.09    1.01
   4   9   4    7.32    0.53
   4   9   4    7.70    0.60
   4   9   4    6.62    0.48
   4   9   4    7.33    0.47
   4   9   4    7.64    0.79
   5   9   4   18.05    0.87
   5   9   4   17.08    0.88
   5   9   4   14.94    0.99
   5   9   4   15.26    1.38
   5   9   4   17.11    0.98
   6   9   4   18.97    0.94
   6   9   4   17.77    0.99
   6   9   4   17.36    1.52
   6   9   4   18.12    1.12
   6   9   4   16.50    1.06
   7   9   4    1.96    0.49
   7   9   4    1.35    0.58
   7   9   4    0.92    0.83
   7   9   4    1.91    0.36
   7   9   4    1.13    0.48
   8   9   4    0.31    0.58
   8   9   4    0.98    0.54
   8   9   4    1.06    0.35
   8   9   4   -0.58    0.88
   8   9   4    0.42    0.55
   9   9   4    1.94    0.70
   9   9   4    1.33    0.77
   9   9   4    0.86    0.97
  10   9   4    8.91    1.35
  10   9   4    6.64    1.10
  10   9   4    8.75    1.03
  -4  10   4    2.81    0.67
  -3  10   4    1.65    0.57
  -3  10   4    1.06    0.32
  -3  10   4    1.49    0.61
  -2  10   4    9.17    0.58
  -2  10   4   10.77    0.78
  -2  10   4    9.66    0.85
  -1  10   4    2.60    0.58
   0  10   4   35.97    1.76
   1  10   4   27.68    1.41
   2  10   4    0.31    0.31
   2  10   4    0.57    0.44
   2  10   4    0.05    0.35
   3  10   4    2.79    0.44
   3  10   4    2.90    0.59
   4  10   4   23.61    1.60
   4  10   4   22.42    1.19
   4  10   4   22.57    1.12
   5  10   4   21.07    1.00
   5  10   4   18.07    1.08
   5  10   4   19.55    1.57
   5  10   4   18.67    1.12
   5  10   4   21.54    1.00
   6  10   4   27.46    1.32
   6  10   4   27.52    1.96
   6  10   4   27.40    1.51
   6  10   4   25.87    1.46
   7  10   4    2.58    0.54
   7  10   4    1.45    0.47
   7  10   4    1.40    0.92
   7  10   4    2.24    0.61
   8  10   4   -0.77    0.94
   8  10   4    0.60    0.59
   8  10   4    0.45    0.56
   8  10   4    0.36    0.53
   9  10   4    9.93    0.93
   9  10   4    8.29    1.38
   9  10   4    7.83    1.02
  10  10   4    0.86    0.75
  10  10   4    0.22    0.86
  10  10   4   -1.21    1.19
  -2  11   4   20.07    1.32
  -1  11   4   19.57    1.21
   0  11   4    0.47    0.52
   1  11   4   -0.09    0.46
   2  11   4    1.38    0.54
   2  11   4    1.35    0.46
   3  11   4   10.62    0.95
   3  11   4   10.10    0.81
   4  11   4    7.76    0.91
   4  11   4    7.34    0.68
   5  11   4   17.87    1.56
   5  11   4   16.30    0.92
   5  11   4   17.68    1.06
   6  11   4    2.73    0.43
   6  11   4    2.22    0.59
   6  11   4    1.97    0.92
   7  11   4    2.09    1.01
   7  11   4    2.68    0.55
   7  11   4    2.00    0.64
   8  11   4    3.93    1.19
   8  11   4    4.59    0.79
   8  11   4    5.04    0.70
   9  11   4    0.44    1.09
   9  11   4    1.22    0.78
   9  11   4    1.13    0.67
  -1  12   4   10.65    0.98
   0  12   4    6.04    0.78
   1  12   4    1.56    0.57
   3  12   4    5.18    0.78
   4  12   4   36.44    2.29
   5  12   4    0.88    0.50
   5  12   4    0.12    0.81
   6  12   4   -0.42    0.51
   6  12   4    1.02    0.34
   6  12   4    0.72    0.95
   7  12   4    0.64    1.07
   7  12   4    1.55    0.66
   8  12   4   16.86    1.73
   8  12   4   13.94    1.20
   4  13   4    1.10    0.79
   5  13   4    0.99    0.95
   6  13   4   -0.05    1.02
   7  13   4    0.08    0.61
   4  10  -5    9.00    1.24
   3  10  -5    1.45    0.51
   3  10  -5    1.86    0.97
   2  10  -5   10.06    1.17
   2  10  -5   10.24    0.81
   1  10  -5   12.61    0.91
   0  10  -5    0.38    0.54
   6   9  -5   -0.44    1.02
   5   9  -5    4.79    1.03
   4   9  -5   27.50    1.33
   4   9  -5   21.05    1.91
   3   9  -5    7.37    1.06
   3   9  -5    5.99    0.64
   2   9  -5    3.70    0.56
   2   9  -5    3.18    0.88
   1   9  -5    0.16    0.44
   1   9  -5    0.49    0.71
   0   9  -5    0.09    0.44
  -1   9  -5   15.62    1.06
  -2   9  -5    5.63    0.68
  -3   9  -5    2.68    0.61
   7   8  -5    1.24    0.69
   7   8  -5   -0.56    1.04
   6   8  -5   -0.24    0.95
   6   8  -5    0.25    0.62
   5   8  -5    6.63    1.05
   4   8  -5    2.42    0.60
   4   8  -5    4.47    0.52
   4   8  -5    3.56    0.96
   3   8  -5   44.23    2.51
   3   8  -5   48.89    2.13
   3   8  -5   49.87    2.77
   2   8  -5    1.18    0.74
   2   8  -5    1.14    0.43
   2   8  -5    0.81    0.43
   1   8  -5    0.31    0.42
   1   8  -5    0.85    0.72
   1   8  -5    0.75    0.40
   0   8  -5    9.26    0.79
   0   8  -5    8.74    0.94
   0   8  -5    9.95    0.75
  -1   8  -5   13.15    0.97
  -1   8  -5   15.28    0.94
  -1   8  -5   13.67    0.86
  -2   8  -5   18.48    1.13
  -2   8  -5   20.86    1.11
  -3   8  -5   17.32    1.04
  -3   8  -5   15.66    1.04
  -4   8  -5    0.34    0.49
  -4   8  -5    1.05    0.52
   8   7  -5    5.85    1.27
   7   7  -5   -0.79    0.98
   6   7  -5   17.26    1.32
   6   7  -5   15.60    1.43
   5   7  -5    5.17    0.71
   5   7  -5    5.99    0.97
   4   7  -5   17.70    1.45
   4   7  -5   15.39    1.14
   4   7  -5   16.07    0.93
   3   7  -5   12.87    1.18
   3   7  -5   11.96    0.94
   3   7  -5   12.08    0.77
   2   7  -5    0.42    0.69
   2   7  -5    0.04    0.37
   2   7  -5    0.31    0.37
   1   7  -5   10.91    0.74
   1   7  -5   11.34    0.81
   1   7  -5   10.27    1.01
   0   7  -5   35.17    2.12
   0   7  -5   37.41    1.70
   0   7  -5   36.37    1.95
  -1   7  -5    6.27    0.58
  -1   7  -5    6.16    0.61
  -1   7  -5    4.27    0.70
  -2   7  -5   22.78    1.15
  -2   7  -5   21.42    1.32
  -2   7  -5   21.44    1.17
  -3   7  -5    2.64    0.46
  -3   7  -5    2.13    0.50
  -3   7  -5    1.76    0.49
  -4   7  -5    2.05    0.48
  -4   7  -5    2.20    0.52
  -5   7  -5    0.30    0.48
  -5   7  -5    1.30    0.51
   8   6  -5    7.95    1.27
   7   6  -5    7.84    1.10
   7   6  -5    6.14    0.86
   6   6  -5   10.98    1.02
   6   6  -5   10.32    1.16
   5   6  -5   19.59    1.30
   4   6  -5   40.78    2.30
   4   6  -5   47.23    2.54
   3   6  -5    4.94    0.52
   3   6  -5    3.86    0.54
   3   6  -5    6.34    0.86
  -3  -6   5    5.75    0.39
   2   6  -5    0.48    0.29
   2   6  -5    0.59    0.33
   2   6  -5    0.87    0.61
   2   6  -5    0.38    0.33
  -2  -6   5    0.17    0.20
   1   6  -5    2.26    0.40
   1   6  -5    3.31    0.65
   1   6  -5    2.83    0.40
  -1  -6   5    3.03    0.25
   0   6  -5   52.63    2.28
   0   6  -5   52.03    2.65
   0   6  -5   51.84    2.72
  -1   6  -5  105.62    4.28
  -1   6  -5   99.47    4.95
  -1   6  -5  103.78    5.02
  -2   6  -5    5.08    0.51
  -2   6  -5    4.65    0.61
  -2   6  -5    3.87    0.52
  -3   6  -5   -0.07    0.36
  -3   6  -5   -0.21    0.36
  -3   6  -5   -0.24    0.37
  -4   6  -5   11.10    0.95
  -4   6  -5   12.87    0.81
  -4   6  -5   11.98    0.82
  -5   6  -5   21.95    1.24
  -5   6  -5   22.66    1.22
  -6   6  -5   14.34    1.00
  -6   6  -5   13.13    0.94
   8   5  -5    0.03    0.97
   8   5  -5   -0.54    0.61
   7   5  -5    5.31    1.05
   7   5  -5    4.12    0.74
   6   5  -5    7.41    0.82
   6   5  -5    7.59    1.01
   5   5  -5   22.83    1.66
   5   5  -5   19.83    1.33
   4   5  -5    1.65    0.38
   4   5  -5    1.60    0.70
   4   5  -5    2.27    0.48
  -4  -5   5    1.82    0.25
   3   5  -5   -0.13    0.27
   3   5  -5    0.10    0.33
   3   5  -5   -0.07    0.57
   2   5  -5    7.07    0.77
   2   5  -5    8.11    0.58
   2   5  -5    8.35    0.66
  -2  -5   5    7.45    0.45
   1   5  -5   57.02    2.36
   1   5  -5   54.79    2.80
   1   5  -5   53.36    2.76
  -1  -5   5   54.51    2.07
   0   5  -5   19.40    1.12
   0   5  -5   19.65    0.98
   0  -5   5   18.13    0.77
  -1   5  -5   12.32    0.78
  -1   5  -5    9.94    0.69
   1  -5   5   11.81    0.51
  -2   5  -5   17.98    0.96
  -2   5  -5   18.13    1.09
  -3   5  -5    3.26    0.49
  -3   5  -5    3.61    0.43
  -3   5  -5    3.27    0.43
  -4   5  -5    3.44    0.46
  -4   5  -5    3.53    0.52
  -4   5  -5    4.06    0.49
  -5   5  -5   36.74    1.74
  -5   5  -5   36.68    2.09
  -5   5  -5   39.04    1.74
  -6   5  -5   15.31    1.00
  -6   5  -5   15.71    0.95
  -6   5  -5   14.94    1.15
  -7   5  -5   12.51    0.91
  -7   5  -5   12.22    0.90
   9   4  -5    0.83    1.04
   8   4  -5    4.79    1.06
   8   4  -5    4.16    0.79
   7   4  -5   31.83    2.05
   7   4  -5   27.15    1.77
   6   4  -5   18.06    1.28
   6   4  -5   22.41    1.64
   5   4  -5   19.25    1.32
   5   4  -5   22.87    1.17
   5   4  -5   24.38    1.63
  -5  -4   5   20.98    0.99
   4   4  -5    1.49    0.62
   4   4  -5    0.93    0.37
   4   4  -5    1.28    0.34
  -4  -4   5    1.00    0.22
   3   4  -5   23.36    1.47
   3   4  -5   22.66    1.15
   3   4  -5   22.92    1.33
  -3  -4   5   22.77    1.03
   2   4  -5   49.34    2.59
   2   4  -5   54.33    2.27
  -2  -4   5   50.48    1.96
   1   4  -5   53.57    2.90
   1   4  -5   62.45    2.93
   1   4  -5   60.04    2.54
  -1  -4   5   58.65    2.20
   0   4  -5   21.50    1.15
   0   4  -5   20.42    1.15
   0   4  -5   18.38    0.98
   0  -4   5   20.86    0.83
  -1   4  -5   26.80    1.38
  -1   4  -5   25.23    1.18
  -1   4  -5   24.43    1.36
   1  -4   5   24.07    0.98
  -2   4  -5    3.62    0.40
  -2   4  -5    4.97    0.48
   2  -4   5    4.76    0.45
  -3   4  -5    9.12    0.62
  -3   4  -5    8.90    0.70
  -4   4  -5   60.24    2.59
  -4   4  -5   58.97    3.09
  -4   4  -5   60.51    2.58
   4  -4   5   62.56    2.53
  -5   4  -5   38.73    1.75
  -5   4  -5   38.43    1.76
  -5   4  -5   36.91    2.12
   5  -4   5   40.30    1.72
  -6   4  -5    4.62    0.55
  -6   4  -5    5.59    0.55
  -6   4  -5    5.81    0.70
  -7   4  -5    2.79    0.64
  -7   4  -5    3.61    0.50
  -7   4  -5    3.17    0.55
  -8   4  -5    3.12    0.56
  -8   4  -5    3.67    0.61
   9   3  -5    1.57    0.93
   8   3  -5   14.17    1.35
   7   3  -5   11.30    1.15
   7   3  -5    9.71    0.95
   6   3  -5   22.01    1.14
   6   3  -5   19.79    1.58
   6   3  -5   17.92    1.28
  -6  -3   5   19.81    0.96
   5   3  -5    5.93    0.83
   5   3  -5    6.51    0.69
  -5  -3   5    6.63    0.47
   4   3  -5    8.20    0.73
   4   3  -5    8.79    0.87
   4   3  -5    9.50    0.64
  -4  -3   5   10.32    0.54
   3   3  -5   18.64    1.24
   3   3  -5   16.93    0.93
   3   3  -5   17.15    1.07
  -3  -3   5   18.96    0.84
   2   3  -5  118.29    4.89
   2   3  -5  116.21    5.64
   1   3  -5   52.20    2.41
   1   3  -5   55.17    2.78
   1   3  -5   59.94    2.80
  -1  -3   5   56.14    2.39
  -1  -3   5   57.48    2.12
   0   3  -5   24.76    1.31
   0   3  -5   25.87    1.32
   0  -3   5   22.49    0.96
   0  -3   5   24.62    1.12
  -1   3  -5    3.19    0.32
  -1   3  -5    2.38    0.33
  -1   3  -5    3.07    0.34
   1  -3   5    2.96    0.22
   1  -3   5    2.69    0.29
  -2   3  -5    1.76    0.32
  -2   3  -5    1.84    0.29
  -2   3  -5    2.01    0.30
   2  -3   5    1.62    0.18
   2  -3   5    1.72    0.29
  -3   3  -5    8.68    0.69
  -3   3  -5   10.67    0.70
  -3   3  -5    8.83    0.59
   3  -3   5    8.85    0.68
   3  -3   5   10.23    0.55
  -4   3  -5   52.96    2.77
  -4   3  -5   54.04    2.31
   4  -3   5   55.54    2.75
   4  -3   5   53.98    2.28
  -5   3  -5   59.57    2.54
  -5   3  -5   57.15    3.06
  -5   3  -5   61.33    2.55
   5  -3   5   60.20    2.52
  -6   3  -5    9.86    0.75
  -6   3  -5   10.47    0.69
  -6   3  -5   10.89    0.90
   6  -3   5   10.60    0.79
  -7   3  -5    0.79    0.41
  -7   3  -5    0.72    0.52
  -7   3  -5    0.59    0.36
   7  -3   5   -0.06    0.41
  -8   3  -5    2.07    0.48
  -8   3  -5    1.45    0.48
  -9   3  -5    9.73    0.78
  -9   3  -5    9.27    0.81
   8   2  -5   14.73    1.32
   7   2  -5   10.81    1.01
   7   2  -5   12.28    1.14
   6   2  -5   25.59    1.30
   6   2  -5   24.30    1.68
   6   2  -5   22.66    1.48
  -6  -2   5   24.75    1.14
   5   2  -5    5.20    0.62
   5   2  -5    6.64    0.79
   5   2  -5    6.37    0.55
  -5  -2   5    6.40    0.47
   4   2  -5    8.59    0.57
   4   2  -5    7.19    0.73
   4   2  -5    7.49    0.65
  -4  -2   5    8.13    0.49
   3   2  -5   27.14    1.57
   3   2  -5   30.51    1.38
  -3  -2   5   30.95    1.29
   2   2  -5   74.73    3.09
   2   2  -5   70.86    3.56
  -2  -2   5   73.23    3.00
   1   2  -5   11.16    0.57
   1   2  -5   10.27    0.68
   1   2  -5    9.87    0.65
  -1  -2   5   10.05    0.54
  -1  -2   5   10.04    0.50
   0   2  -5   88.29    4.11
   0   2  -5   82.55    4.10
   0  -2   5   85.48    3.53
   0  -2   5   83.14    3.13
  -1   2  -5   12.40    0.72
  -1   2  -5   10.14    0.70
   1  -2   5   11.72    0.51
   1  -2   5   11.78    0.60
  -2   2  -5   35.85    1.57
  -2   2  -5   34.19    1.85
  -2   2  -5   39.82    1.85
   2  -2   5   36.55    1.84
   2  -2   5   35.58    1.59
   2  -2   5   35.67    1.53
   2  -2   5   35.68    1.38
  -3   2  -5  114.36    5.81
  -3   2  -5  129.08    5.79
  -3   2  -5  118.46    4.90
   3  -2   5  122.05    5.80
   3  -2   5  119.94    4.86
  -4   2  -5    7.22    0.58
  -4   2  -5    6.64    0.59
  -4   2  -5    5.86    0.47
   4  -2   5    6.36    0.57
   4  -2   5    6.95    0.42
   4  -2   5    6.45    0.48
  -5   2  -5    2.59    0.46
  -5   2  -5    3.00    0.36
  -5   2  -5    3.20    0.37
   5  -2   5    3.21    0.30
   5  -2   5    2.51    0.44
   5  -2   5    3.04    0.37
  -6   2  -5   10.59    0.88
  -6   2  -5   11.44    0.73
  -6   2  -5   10.04    0.65
   6  -2   5   10.04    0.73
  -7   2  -5    8.70    0.66
  -7   2  -5    7.57    0.83
  -7   2  -5    8.26    0.61
   7  -2   5    8.28    0.70
  -8   2  -5    7.31    0.87
  -8   2  -5    7.43    0.66
  -8   2  -5    8.79    0.65
   8  -2   5    8.29    0.81
  -9   2  -5   22.64    1.31
  -9   2  -5   22.69    1.24
   9  -2   5   26.45    1.47
   8   1  -5    4.58    0.84
   7   1  -5   10.35    1.04
  -7  -1   5   10.50    0.71
   6   1  -5    2.69    0.69
   6   1  -5    2.30    0.43
   6   1  -5    2.55    0.54
  -6  -1   5    2.83    0.37
   5   1  -5   24.20    1.13
   5   1  -5   19.16    1.27
   5   1  -5   20.43    1.42
  -5  -1   5   20.86    1.01
   4   1  -5    1.83    0.38
   4   1  -5    1.43    0.30
   4   1  -5    1.85    0.51
  -4  -1   5    1.76    0.26
   3   1  -5   29.73    1.34
   3   1  -5   26.65    1.54
  -3  -1   5   30.67    1.28
   2   1  -5   28.08    1.56
   2   1  -5   31.58    1.36
  -2  -1   5   30.91    1.31
   1   1  -5  110.55    5.51
   1   1  -5  115.45    4.76
  -1  -1   5  115.69    4.74
  -1  -1   5  114.80    4.24
  -1  -1   5  120.93    5.52
   0   1  -5    0.92    0.19
   0   1  -5    0.33    0.19
   0  -1   5    0.23    0.14
   0  -1   5    0.57    0.18
   0  -1   5    0.41    0.14
  -1   1  -5   48.58    2.31
  -1   1  -5   46.87    2.32
   1  -1   5   45.70    1.76
   1  -1   5   42.59    1.97
   1  -1   5   48.18    2.30
   1  -1   5   48.39    2.31
  -2   1  -5   41.41    2.07
  -2   1  -5   43.51    2.10
   2  -1   5   41.80    1.58
   2  -1   5   41.19    1.74
   2  -1   5   40.19    2.07
  -3   1  -5   95.42    4.75
  -3   1  -5   98.11    3.99
  -3   1  -5  102.64    4.73
   3  -1   5   97.06    4.73
   3  -1   5   96.72    3.97
   3  -1   5   99.63    4.07
  -4   1  -5   39.09    1.68
  -4   1  -5   43.00    2.00
  -4   1  -5   38.36    2.04
   4  -1   5   37.08    1.68
   4  -1   5   36.80    2.01
   4  -1   5   40.55    1.69
  -5   1  -5    7.60    0.49
  -5   1  -5    7.42    0.66
  -5   1  -5    6.96    0.52
   5  -1   5    7.50    0.67
   5  -1   5    7.30    0.53
   5  -1   5    7.40    0.51
  -6   1  -5    0.38    0.28
  -6   1  -5    0.62    0.39
  -6   1  -5   -0.06    0.25
   6  -1   5    0.16    0.29
   6  -1   5    0.63    0.35
   6  -1   5    0.09    0.35
  -7   1  -5   13.08    0.82
  -7   1  -5   14.81    0.80
  -7   1  -5   13.53    1.07
   7  -1   5   15.11    0.93
   7  -1   5   15.09    0.96
  -8   1  -5   31.50    1.46
  -8   1  -5   28.78    1.87
  -8   1  -5   31.08    1.49
   8  -1   5   34.00    1.66
  -9   1  -5   10.40    0.75
  -9   1  -5   11.20    0.85
  -9   1  -5    8.74    1.01
   9  -1   5   12.99    1.03
 -10   1  -5    6.11    0.69
  10  -1   5    7.73    0.97
  -8   0   5    5.97    0.63
   7   0  -5    9.83    0.97
  -7   0   5   11.48    0.77
   6   0  -5    1.12    0.46
   6   0  -5   -0.04    0.59
  -6   0   5    0.72    0.33
   5   0  -5   20.96    1.33
   5   0  -5   24.45    1.44
  -5   0   5   22.85    1.09
   4   0  -5  131.43    5.57
   4   0  -5  133.70    6.46
  -4   0   5  137.52    5.48
   3   0  -5   10.09    0.71
   3   0  -5   10.38    0.61
  -3   0   5   12.73    0.77
  -3   0   5   11.41    0.61
   2   0  -5   82.88    3.45
   2   0  -5   79.52    4.00
  -2   0   5   80.75    3.40
  -2   0   5   88.67    4.03
   1   0  -5    8.87    0.48
   1   0  -5    8.63    0.57
  -1   0   5    8.56    0.45
  -1   0   5   10.63    0.60
  -1   0   5    9.37    0.49
   0   0  -5   11.59    0.71
   0   0  -5   11.88    0.70
   0   0  -5   12.88    0.59
   0   0   5   12.35    0.54
   0   0   5   12.22    0.70
   0   0   5   11.56    0.56
  -1   0  -5   26.00    1.31
  -1   0  -5   24.12    1.31
   1   0   5   23.96    1.30
   1   0   5   27.49    1.31
   1   0   5   24.55    1.10
   1   0   5   26.58    1.00
  -2   0  -5  134.23    6.18
  -2   0  -5  128.76    6.19
   2   0   5  127.27    4.74
   2   0   5  128.34    5.36
   2   0   5  128.01    6.17
   2   0   5  125.26    5.19
   2   0   5  137.54    6.18
  -3   0  -5  104.44    4.82
  -3   0  -5   99.00    4.06
  -3   0  -5   94.63    4.83
   3   0   5   99.19    4.17
   3   0   5  112.54    4.83
   3   0   5   97.04    4.82
   3   0   5   97.97    3.69
   3   0   5   99.30    4.06
  -4   0  -5   36.72    1.79
  -4   0  -5   34.50    1.49
  -4   0  -5   35.15    1.83
   4   0   5   34.03    1.51
   4   0   5   34.23    1.53
   4   0   5   35.06    1.81
  -5   0  -5    8.89    0.68
  -5   0  -5    7.85    0.48
   5   0   5    8.60    0.57
   5   0   5    8.29    0.57
   5   0   5    7.69    0.64
  -6   0  -5   10.10    0.83
  -6   0  -5   10.25    0.60
  -6   0  -5   11.19    0.64
   6   0   5   10.30    0.76
   6   0   5   11.18    0.73
   6   0   5   10.16    0.82
  -7   0  -5   24.58    1.18
  -7   0  -5   23.33    1.50
  -7   0  -5   24.00    1.13
   7   0   5   24.04    1.30
   7   0   5   25.48    1.51
   7   0   5   25.19    1.33
  -8   0  -5   12.85    0.81
  -8   0  -5   13.70    0.76
  -8   0  -5   13.52    1.09
   8   0   5   14.33    1.06
   8   0   5   12.78    1.02
  -9   0  -5    6.39    0.53
  -9   0  -5    5.23    0.80
  -9   0  -5    5.63    0.59
   9   0   5    7.47    0.87
 -10   0  -5   -0.05    0.48
  10   0   5    0.34    0.72
  -8   1   5   41.67    1.94
  -7   1   5    0.48    0.43
   6  -1  -5   10.05    0.87
  -6   1   5    8.70    0.69
   5  -1  -5    3.29    0.58
   5  -1  -5    3.49    0.51
  -5   1   5    3.89    0.41
   4  -1  -5   46.83    2.52
  -4   1   5   49.00    2.13
  -4   1   5   53.90    2.57
   3  -1  -5  153.50    7.67
  -3   1   5  159.11    6.54
  -3   1   5  171.43    7.71
   2  -1  -5   15.41    0.87
   2  -1  -5   15.08    0.73
  -2   1   5   15.78    0.74
  -2   1   5   15.31    0.89
   1  -1  -5    0.09    0.11
   1  -1  -5    0.28    0.16
  -1   1   5    0.04    0.14
  -1   1   5    0.13    0.13
  -1   1   5    0.22    0.17
   0  -1  -5    7.59    0.48
   0  -1  -5    7.73    0.39
   0  -1  -5    8.38    0.51
   0   1   5    8.25    0.38
   0   1   5    7.31    0.37
   0   1   5    7.32    0.43
   0   1   5    7.82    0.50
  -1  -1  -5   43.37    2.18
  -1  -1  -5   46.54    2.19
   1   1   5   42.38    1.85
   1   1   5   42.61    2.18
   1   1   5   46.80    2.19
   1   1   5   45.82    1.68
  -2  -1  -5   98.79    4.55
  -2  -1  -5   97.09    4.53
   2   1   5   89.46    4.53
   2   1   5   91.84    3.95
   2   1   5   92.78    3.48
   2   1   5   90.42    3.82
   2   1   5  104.75    4.55
  -3  -1  -5   54.93    2.71
  -3  -1  -5   57.43    2.69
   3   1   5   54.80    2.34
   3   1   5   54.83    2.07
   3   1   5   53.19    2.70
   3   1   5   52.29    2.27
   3   1   5   57.73    2.70
  -4  -1  -5   95.88    4.69
  -4  -1  -5   99.33    3.91
   4   1   5   96.43    3.95
   4   1   5   96.51    4.06
   4   1   5   96.66    4.68
  -5  -1  -5    0.03    0.26
  -5  -1  -5    0.49    0.17
   5   1   5    0.29    0.28
   5   1   5    0.32    0.26
   5   1   5    0.09    0.24
  -6  -1  -5  124.30    5.92
  -6  -1  -5  125.44    4.90
  -6  -1  -5  122.16    4.92
   6   1   5  118.00    5.92
   6   1   5  119.34    5.00
   6   1   5  119.70    5.13
  -7  -1  -5    9.86    0.85
  -7  -1  -5   10.29    0.58
  -7  -1  -5   10.36    0.66
   7   1   5    9.00    0.77
   7   1   5    9.41    0.88
   7   1   5   10.59    0.78
  -8  -1  -5   30.31    1.34
  -8  -1  -5   29.45    1.79
  -8  -1  -5   27.95    1.39
   8   1   5   30.89    1.84
   8   1   5   30.09    1.62
   8   1   5   31.66    1.62
  -9  -1  -5    7.25    0.61
  -9  -1  -5    7.30    0.53
  -9  -1  -5    6.26    0.83
   9   1   5    6.86    0.88
   9   1   5    8.32    0.87
 -10  -1  -5    0.52    0.46
  10   1   5    0.08    0.75
  10   1   5   -0.54    0.74
  -7   2   5    0.36    0.44
  -6   2   5    2.84    0.47
   5  -2  -5   40.92    2.01
  -5   2   5   35.85    1.73
   4  -2  -5   41.39    2.26
  -4   2   5   44.53    1.92
  -4   2   5   45.88    2.30
   3  -2  -5    6.95    0.58
  -3   2   5    8.93    0.62
  -3   2   5    7.76    0.52
   2  -2  -5    6.41    0.49
  -2   2   5    6.69    0.44
  -2   2   5    6.03    0.49
   1  -2  -5   10.19    0.61
   1  -2  -5   10.54    0.49
  -1   2   5   10.32    0.54
  -1   2   5   10.36    0.63
  -1   2   5   10.38    0.50
   0  -2  -5   36.50    1.48
   0  -2  -5   34.81    1.74
   0  -2  -5   33.62    1.75
   0   2   5   35.20    1.51
   0   2   5   36.99    1.76
   0   2   5   35.45    1.36
  -1  -2  -5   31.92    1.62
  -1  -2  -5   35.10    1.64
   1   2   5   31.82    1.62
   1   2   5   32.89    1.63
   1   2   5   32.33    1.36
  -2  -2  -5   57.96    2.70
  -2  -2  -5   55.85    2.70
   2   2   5   52.34    2.35
   2   2   5   58.32    2.08
   2   2   5   57.37    2.70
   2   2   5   52.75    2.69
   2   2   5   54.91    2.28
  -3  -2  -5    4.56    0.39
   3   2   5    5.28    0.32
   3   2   5    5.00    0.40
   3   2   5    4.86    0.37
   3   2   5    6.18    0.40
   3   2   5    4.67    0.35
  -4  -2  -5    5.01    0.30
  -4  -2  -5    4.00    0.39
   4   2   5    3.94    0.36
   4   2   5    4.42    0.37
   4   2   5    4.41    0.41
  -5  -2  -5   10.11    0.72
  -5  -2  -5   10.92    0.53
   5   2   5   11.00    0.75
   5   2   5   11.26    0.66
   5   2   5   11.30    0.69
  -6  -2  -5    4.21    0.36
  -6  -2  -5    4.88    0.52
  -6  -2  -5    4.38    0.34
   6   2   5    3.82    0.51
   6   2   5    3.72    0.47
   6   2   5    4.68    0.51
  -7  -2  -5   76.59    3.12
  -7  -2  -5   76.97    3.07
  -7  -2  -5   77.08    3.80
   7   2   5   74.33    3.83
   7   2   5   72.09    3.26
   7   2   5   73.66    3.34
  -8  -2  -5   14.67    0.75
  -8  -2  -5   13.38    1.06
  -8  -2  -5   14.20    0.83
   8   2   5   15.12    1.12
   8   2   5   14.39    1.16
   8   2   5   15.83    1.11
  -9  -2  -5    0.10    0.37
   9   2   5   -0.61    0.55
   9   2   5   -0.33    0.62
   9   2   5   -0.65    0.61
 -10  -2  -5    0.01    0.41
  10   2   5   -1.19    0.72
  10   2   5   -0.63    0.71
 -11  -2  -5    4.99    0.62
  11   2   5    6.71    1.09
  -7   3   5   -1.10    0.50
  -7   3   5   -0.53    0.50
  -6   3   5   40.16    1.93
  -6   3   5   40.62    1.90
  -5   3   5   52.90    2.34
   4  -3  -5   10.82    0.79
  -4   3   5   10.89    0.69
   3  -3  -5   32.09    1.73
  -3   3   5   35.70    1.79
  -3   3   5   33.25    1.51
   2  -3  -5    0.52    0.21
  -2   3   5    0.54    0.22
  -2   3   5    0.59    0.23
   1  -3  -5   82.53    4.00
  -1   3   5   82.71    3.45
  -1   3   5   86.12    3.11
   0  -3  -5  180.24    7.32
   0  -3  -5  186.98    8.48
   0   3   5  183.72    6.56
   0   3   5  170.37    7.28
  -1  -3  -5  176.28    8.11
   1   3   5  167.70    7.11
   1   3   5  171.06    6.95
   1   3   5  174.06    6.26
  -2  -3  -5   56.78    2.65
   2   3   5   51.65    2.33
   2   3   5   57.48    2.65
   2   3   5   54.71    2.65
   2   3   5   53.84    2.25
   2   3   5   54.92    2.05
  -3  -3  -5    7.89    0.51
   3   3   5    8.92    0.52
   3   3   5    8.69    0.42
   3   3   5    8.31    0.47
   3   3   5    7.79    0.52
   3   3   5    8.26    0.49
  -4  -3  -5   30.55    1.59
  -4  -3  -5   32.54    1.29
   4   3   5   31.04    1.37
   4   3   5   29.46    1.60
   4   3   5   31.46    1.43
  -5  -3  -5    7.36    0.58
  -5  -3  -5    7.80    0.39
   5   3   5    7.99    0.56
   5   3   5    7.21    0.59
   5   3   5    7.27    0.55
  -6  -3  -5   68.11    3.37
  -6  -3  -5   67.09    2.77
  -6  -3  -5   68.94    2.73
   6   3   5   70.10    2.90
   6   3   5   64.80    3.39
   6   3   5   65.81    2.98
  -7  -3  -5   36.28    2.05
  -7  -3  -5   40.71    1.60
  -7  -3  -5   38.77    1.66
   7   3   5   37.37    2.11
   7   3   5   36.68    1.88
  -8  -3  -5   11.04    0.67
  -8  -3  -5   10.45    0.88
   8   3   5    9.77    0.87
   8   3   5   10.81    0.94
   8   3   5    9.81    0.97
  -9  -3  -5    0.54    0.35
   9   3   5    0.60    0.62
   9   3   5    1.13    0.62
   9   3   5    0.90    0.66
 -10  -3  -5   10.74    0.82
  10   3   5   11.92    1.17
  10   3   5   12.56    1.19
 -11  -3  -5    3.34    0.54
  11   3   5    1.98    0.94
  11   3   5    3.16    0.90
  -8   4   5    1.00    0.66
  -7   4   5    5.55    0.70
  -6   4   5    8.84    0.77
  -6   4   5   10.02    0.82
  -5   4   5   56.26    2.50
  -4   4   5   15.68    0.89
  -4   4   5   15.38    0.93
   3  -4  -5    0.26    0.25
  -3   4   5    0.19    0.31
  -3   4   5    0.66    0.29
  -3   4   5    0.44    0.26
   2  -4  -5    4.37    0.40
  -2   4   5    4.57    0.40
   1  -4  -5   36.45    1.83
  -1   4   5   36.08    1.61
  -1   4   5   37.56    1.44
  -1   4   5   38.07    1.85
   0  -4  -5  121.94    5.65
   0   4   5  118.12    4.88
   0   4   5  119.58    4.38
   0   4   5  119.12    5.67
  -1  -4  -5   82.07    3.90
   1   4   5   82.36    3.46
   1   4   5   80.65    3.38
   1   4   5   82.99    3.04
   1   4   5   83.57    3.91
  -2  -4  -5    7.01    0.42
   2   4   5    6.80    0.40
   2   4   5    6.74    0.41
   2   4   5    6.65    0.43
   2   4   5    6.81    0.46
   2   4   5    7.28    0.36
   2   4   5    7.11    0.43
  -3  -4  -5    8.56    0.54
   3   4   5    9.04    0.55
   3   4   5    8.75    0.53
   3   4   5    9.79    0.45
   3   4   5    9.57    0.51
  -4  -4  -5   52.96    2.56
   4   4   5   52.70    2.28
   4   4   5   52.52    2.58
   4   4   5   50.35    2.19
  -5  -4  -5   46.85    2.41
  -5  -4  -5   50.63    1.95
   5   4   5   44.63    2.43
   5   4   5   49.65    2.10
   5   4   5   49.12    2.17
  -6  -4  -5   36.68    1.42
  -6  -4  -5   34.04    1.48
  -6  -4  -5   33.94    1.83
   6   4   5   33.34    1.66
   6   4   5   35.32    1.90
   6   4   5   34.94    1.64
  -7  -4  -5   10.10    0.78
  -7  -4  -5   11.30    0.60
   7   4   5   10.86    0.81
   7   4   5    9.71    0.87
   7   4   5   10.53    0.84
  -8  -4  -5    0.15    0.27
   8   4   5   -0.26    0.46
   8   4   5   -0.09    0.54
   8   4   5    0.07    0.48
  -9  -4  -5    0.17    0.32
   9   4   5   -0.40    0.56
   9   4   5   -0.26    0.63
   9   4   5    0.62    0.60
 -10  -4  -5    5.88    0.55
  10   4   5    6.27    0.97
  10   4   5    3.84    0.92
  10   4   5    4.57    0.91
 -11  -4  -5   12.91    0.92
  11   4   5   16.91    1.43
  11   4   5   15.33    1.40
  -7   5   5   15.82    1.16
  -6   5   5    2.47    0.62
  -6   5   5    3.57    0.61
  -5   5   5    3.39    0.55
  -5   5   5    2.80    0.56
  -4   5   5   10.76    0.80
  -4   5   5   10.06    0.75
  -3   5   5    1.40    0.38
  -3   5   5    1.37    0.36
   2  -5  -5   47.88    2.46
  -2   5   5   47.11    2.18
  -2   5   5   53.57    2.17
  -2   5   5   52.25    2.51
  -2   5   5   51.71    1.93
   1  -5  -5   20.28    1.06
  -1   5   5   19.87    1.00
  -1   5   5   20.82    1.09
  -1   5   5   21.20    0.85
   0  -5  -5   33.31    1.61
   0   5   5   31.70    1.28
   0   5   5   34.66    1.63
   0   5   5   32.54    1.46
  -1  -5  -5   23.68    1.11
   1   5   5   21.70    1.06
   1   5   5   21.88    1.02
   1   5   5   22.03    0.90
   1   5   5   23.34    1.13
  -2  -5  -5    1.63    0.16
   2   5   5    1.74    0.24
   2   5   5    1.02    0.16
   2   5   5    1.22    0.19
   2   5   5    1.53    0.20
   2   5   5    1.37    0.18
   2   5   5    1.47    0.18
  -3  -5  -5    8.27    0.48
   3   5   5    7.88    0.49
   3   5   5    7.60    0.44
   3   5   5    8.09    0.51
   3   5   5    8.88    0.42
   3   5   5    7.74    0.51
  -4  -5  -5   25.08    1.29
   4   5   5   25.75    1.40
   4   5   5   25.05    1.20
   4   5   5   24.91    1.09
   4   5   5   24.61    1.32
   4   5   5   26.22    1.16
  -5  -5  -5  124.12    5.81
   5   5   5  125.31    5.15
   5   5   5  120.51    5.76
   5   5   5  122.76    4.96
   5   5   5  115.99    5.84
  -6  -5  -5    4.13    0.29
  -6  -5  -5    3.29    0.39
   6   5   5    2.79    0.57
   6   5   5    3.47    0.45
   6   5   5    4.11    0.51
   6   5   5    2.43    0.45
  -7  -5  -5    0.24    0.21
   7   5   5   -0.14    0.42
   7   5   5    0.20    0.40
   7   5   5    0.38    0.40
   7   5   5    0.46    0.55
  -8  -5  -5    0.22    0.26
   8   5   5   -0.37    0.63
   8   5   5    0.06    0.48
   8   5   5   -0.07    0.48
   8   5   5    0.93    0.59
  -9  -5  -5    8.30    0.64
   9   5   5    8.92    0.99
   9   5   5    8.98    0.99
   9   5   5    8.12    0.92
 -10  -5  -5   13.68    0.85
  10   5   5   16.43    1.29
  10   5   5   14.78    1.32
  10   5   5   14.59    1.36
  11   5   5    3.33    0.93
  11   5   5    4.14    1.04
  -6   6   5   12.09    0.98
  -5   6   5    3.46    0.61
  -5   6   5    3.86    0.65
  -4   6   5   -0.24    0.44
  -4   6   5    0.34    0.45
  -3   6   5   25.38    1.31
  -3   6   5   27.48    1.32
  -3   6   5   25.41    1.08
  -2   6   5   27.09    1.41
  -2   6   5   26.01    1.08
  -2   6   5   27.84    1.31
  -2   6   5   26.41    1.30
   1  -6  -5   61.63    2.88
  -1   6   5   61.47    2.27
  -1   6   5   60.14    2.92
  -1   6   5   58.15    2.58
   0  -6  -5    4.19    0.26
   0  -6  -5    4.47    0.23
   0   6   5    4.09    0.27
   0   6   5    3.50    0.38
   0   6   5    3.68    0.31
   1   6   5   21.88    1.09
   1   6   5   21.78    1.05
   1   6   5   22.31    1.04
   1   6   5   22.60    0.89
  -2  -6  -5   11.37    0.55
   2   6   5   11.09    0.63
   2   6   5   11.18    0.57
   2   6   5   10.61    0.59
   2   6   5   10.87    0.51
   2   6   5   10.88    0.59
  -3  -6  -5   31.38    1.47
   3   6   5   30.64    1.26
   3   6   5   30.55    1.31
   3   6   5   29.27    1.49
   3   6   5   30.20    1.40
   3   6   5   27.96    1.29
  -4  -6  -5   65.16    3.13
   4   6   5   67.46    2.68
   4   6   5   65.72    2.71
   4   6   5   64.64    3.19
   4   6   5   64.13    3.16
   4   6   5   63.21    2.82
  -5  -6  -5   46.75    1.86
  -5  -6  -5   44.07    2.26
   5   6   5   47.17    2.39
   5   6   5   46.23    1.99
   5   6   5   44.55    2.31
   5   6   5   45.98    1.90
   5   6   5   45.73    2.10
  -6  -6  -5   11.53    0.55
   6   6   5   11.10    0.84
   6   6   5   11.68    0.57
   6   6   5   10.28    0.91
   6   6   5   11.38    0.78
   6   6   5   10.75    0.80
  -7  -6  -5    0.75    0.21
   7   6   5    0.92    0.50
   7   6   5    0.37    0.43
   7   6   5    0.36    0.43
   7   6   5    0.62    0.62
  -8  -6  -5    9.46    0.57
   8   6   5    9.71    0.94
   8   6   5    8.19    1.02
   8   6   5    9.37    0.84
   8   6   5    7.53    0.86
   9   6   5    7.47    1.08
   9   6   5   10.01    0.97
   9   6   5    8.69    1.00
   9   6   5    7.94    0.99
  10   6   5   14.39    1.25
  10   6   5   14.92    1.46
  10   6   5   15.57    1.37
  10   6   5   14.62    1.36
  11   6   5    2.13    0.94
  11   6   5    3.81    0.95
  -5   7   5    2.34    0.63
  -4   7   5    3.74    0.61
  -4   7   5    4.14    0.61
  -3   7   5   18.12    0.83
  -3   7   5   19.78    1.09
  -3   7   5   18.08    1.06
  -2   7   5   25.29    1.32
  -2   7   5   28.62    1.31
  -2   7   5   24.78    1.05
  -1   7   5   42.75    1.61
  -1   7   5   43.17    1.91
  -1   7   5   41.39    2.08
   0  -7  -5   50.34    2.08
   0   7   5   49.58    2.39
   0   7   5   52.19    1.88
   0   7   5   48.13    2.16
   1   7   5    4.48    0.41
   1   7   5    4.67    0.32
   1   7   5    4.85    0.28
   2   7   5    1.00    0.19
   2   7   5    0.90    0.17
   2   7   5    0.76    0.23
   2   7   5    0.91    0.27
   3   7   5   92.72    4.38
   3   7   5   92.20    3.78
   3   7   5   94.79    3.79
   3   7   5   92.80    3.75
   3   7   5   90.37    4.42
  -4  -7  -5   24.15    1.18
   4   7   5   23.93    1.05
   4   7   5   23.88    1.09
   4   7   5   22.21    1.45
   4   7   5   22.98    1.23
   4   7   5   24.13    1.20
   4   7   5   23.69    1.04
   5   7   5    4.12    0.64
   5   7   5    4.89    0.46
   5   7   5    5.31    0.53
   5   7   5    4.65    0.44
   5   7   5    5.15    0.35
   5   7   5    4.96    0.36
   6   7   5   36.78    1.97
   6   7   5   36.32    1.79
   6   7   5   36.20    1.70
   6   7   5   39.18    2.12
   7   7   5    0.69    0.50
   7   7   5   -0.35    0.59
   7   7   5   -0.43    0.40
   7   7   5    0.11    0.40
   8   7   5   24.21    1.54
   8   7   5   24.40    1.42
   8   7   5   26.16    1.60
   8   7   5   26.86    1.80
   9   7   5   30.44    1.73
   9   7   5   32.75    2.01
   9   7   5   31.36    2.21
  10   7   5   -0.01    0.83
  10   7   5    0.36    0.68
  10   7   5   -1.04    0.97
  11   7   5    2.04    1.16
  11   7   5    2.10    0.87
  11   7   5    1.91    0.95
  -5   8   5    5.56    0.77
  -4   8   5    0.59    0.57
  -3   8   5   19.81    1.17
  -3   8   5   20.99    1.20
  -2   8   5   30.55    1.44
  -2   8   5   26.86    1.44
  -1   8   5    4.87    0.31
  -1   8   5    4.38    0.54
  -1   8   5    4.44    0.38
   0   8   5    6.61    0.54
   0   8   5    5.98    0.36
  -1  -8  -5    2.16    0.20
   1   8   5    1.74    0.33
   1   8   5    2.69    0.22
   2   8   5   27.34    1.25
   2   8   5   27.20    1.30
   3   8   5   16.12    0.88
   3   8   5   14.56    1.08
   3   8   5   14.02    0.75
   3   8   5   14.43    0.73
   3   8   5   15.63    0.76
   4   8   5    8.90    0.58
   4   8   5    9.34    0.84
   4   8   5    9.61    0.52
   4   8   5   10.70    0.54
   4   8   5   10.24    0.60
   4   8   5    9.54    0.70
   5   8   5   28.18    1.26
   5   8   5   31.14    1.78
   5   8   5   27.76    1.31
   5   8   5   26.87    1.43
   5   8   5   27.95    1.49
   6   8   5    3.45    0.46
   6   8   5    2.95    0.53
   6   8   5    2.93    0.45
   6   8   5    3.03    0.71
   6   8   5    2.93    0.33
   7   8   5   11.76    0.68
   7   8   5   11.22    0.87
   7   8   5   12.38    1.19
   7   8   5   11.93    0.92
   7   8   5   10.08    0.89
   8   8   5    0.82    0.55
   8   8   5    1.30    0.87
   8   8   5    2.16    0.67
   8   8   5    1.74    0.58
   9   8   5    9.58    0.99
   9   8   5    7.97    0.97
   9   8   5    8.96    0.94
   9   8   5    6.85    1.20
  10   8   5   15.23    1.40
  10   8   5   16.02    1.29
  10   8   5   14.91    1.61
  11   8   5    0.26    0.83
  11   8   5    0.24    0.97
  -5   9   5    0.10    0.64
  -4   9   5   18.49    1.27
  -3   9   5    8.39    0.78
  -2   9   5    9.02    0.79
  -2   9   5    9.17    0.73
  -1   9   5    9.19    0.75
  -1   9   5    8.99    0.51
   0   9   5    9.93    0.74
   1   9   5   16.23    0.93
   2   9   5   18.24    0.94
   2   9   5   17.60    0.99
   3   9   5   32.57    1.87
   3   9   5   32.64    1.42
   3   9   5   34.33    1.48
   3   9   5   33.35    1.60
   4   9   5   17.51    0.84
   4   9   5   15.73    0.77
   4   9   5   13.99    1.19
   4   9   5   15.07    0.84
   4   9   5   18.23    0.81
   4   9   5   16.04    0.95
   5   9   5    2.82    0.39
   5   9   5    3.32    0.49
   5   9   5    1.65    0.62
   5   9   5    2.54    0.31
   5   9   5    2.86    0.35
   6   9   5    2.60    0.73
   6   9   5    2.68    0.34
   6   9   5    2.39    0.54
   6   9   5    2.70    0.43
   6   9   5    3.23    0.46
   7   9   5    5.44    0.73
   7   9   5    6.83    0.52
   7   9   5    5.86    0.67
   7   9   5    5.33    0.94
   7   9   5    5.96    0.64
   8   9   5   14.06    1.01
   8   9   5   10.73    1.01
   8   9   5   11.77    1.03
   8   9   5   11.78    1.34
   8   9   5   12.35    0.77
   9   9   5   12.73    1.47
   9   9   5   14.64    1.08
   9   9   5   10.40    1.09
  10   9   5   -0.57    1.13
  10   9   5    0.80    0.76
  10   9   5   -0.27    0.83
  -4  10   5   23.72    1.48
  -3  10   5    8.74    0.82
  -2  10   5   19.66    1.11
  -2  10   5   16.64    0.91
   0  10   5   11.84    0.90
   1  10   5    9.43    0.72
   2  10   5   30.15    1.51
   2  10   5   32.67    1.49
   3  10   5   18.38    1.35
   3  10   5   20.28    1.00
   3  10   5   18.57    1.07
   4  10   5   21.34    1.52
   4  10   5   21.54    1.16
   5  10   5    8.38    0.57
   5  10   5    6.78    0.67
   5  10   5    7.45    0.53
   5  10   5    6.73    0.87
   6  10   5   15.58    0.99
   6  10   5   13.93    1.30
   6  10   5   15.54    1.05
   6  10   5   16.71    0.92
   7  10   5    6.96    0.68
   7  10   5    6.75    0.69
   7  10   5    5.49    1.08
   7  10   5    5.49    0.75
   8  10   5    6.39    0.79
   8  10   5    7.54    1.17
   8  10   5    6.70    0.75
   8  10   5    5.85    0.85
   9  10   5    0.63    0.74
   9  10   5    0.15    0.62
   9  10   5   -0.47    1.00
  10  10   5    6.10    1.42
  10  10   5    5.75    1.05
  10  10   5    6.87    0.98
   3  11   5    0.92    0.58
   3  11   5    1.28    0.43
   4  11   5    1.14    0.46
   4  11   5    1.06    0.65
   5  11   5    0.06    0.19
   5  11   5    1.20    0.76
   5  11   5    0.58    0.47
   6  11   5    2.84    0.40
   6  11   5    3.54    0.95
   6  11   5    2.32    0.58
   7  11   5   13.52    1.06
   7  11   5   12.71    1.38
   7  11   5   13.12    0.97
   8  11   5   18.95    1.32
   8  11   5   18.20    1.16
   8  11   5   16.80    1.69
   9  11   5   -0.33    0.74
   9  11   5   -0.09    1.09
   9  11   5    1.45    0.66
   3  12   5    1.25    0.66
   4  12   5    0.49    0.49
   4  12   5    0.41    0.71
   5  12   5    1.21    0.83
   5  12   5    0.79    0.53
   6  12   5   14.12    1.41
   6  12   5   12.63    0.78
   6  12   5   13.84    1.01
   7  12   5    6.15    1.24
   7  12   5    5.66    0.81
   8  12   5    1.83    0.73
   8  12   5    0.72    1.17
   4  13   5   25.79    1.86
   5  13   5    1.82    0.93
   6  13   5    9.95    0.93
   6  13   5   11.03    1.36
   7  13   5    2.97    0.71
   7  13   5    2.32    1.17
   4   9  -6    0.50    0.97
   3   9  -6    1.52    0.52
   3   9  -6    1.35    0.93
   2   9  -6   12.60    1.31
   2   9  -6   13.83    0.92
   1   9  -6    8.66    1.08
   1   9  -6    9.10    0.79
   0   9  -6   10.27    0.84
  -1   9  -6    1.93    0.56
   6   8  -6   12.97    1.45
   5   8  -6    8.36    1.24
   4   8  -6    2.01    0.90
   4   8  -6    1.76    0.48
   3   8  -6    7.44    0.68
   3   8  -6    5.30    0.98
   2   8  -6    7.81    1.04
   2   8  -6    7.32    0.74
   2   8  -6    6.97    0.67
   1   8  -6    4.77    0.62
   1   8  -6    5.15    0.60
   1   8  -6    5.63    0.90
   0   8  -6    5.87    0.88
   0   8  -6    5.02    0.61
  -1   8  -6    1.74    0.51
  -1   8  -6    2.13    0.48
  -2   8  -6    7.45    0.68
  -2   8  -6    7.31    0.75
  -3   8  -6    3.00    0.60
  -3   8  -6    2.70    0.53
   7   7  -6   11.97    1.44
   6   7  -6   -0.55    0.96
   5   7  -6    1.65    0.61
   5   7  -6    1.02    0.94
   4   7  -6    1.92    0.55
   4   7  -6    2.09    0.91
   4   7  -6    1.72    0.45
   3   7  -6   21.08    1.12
   3   7  -6   21.97    1.70
   3   7  -6   19.72    1.34
   2   7  -6   19.22    1.21
   2   7  -6   18.59    1.05
   2   7  -6   18.95    1.59
   1   7  -6   32.17    1.57
   1   7  -6   33.20    2.09
   1   7  -6   32.85    1.83
   0   7  -6    8.87    0.79
   0   7  -6    8.88    0.72
   0   7  -6    9.37    0.97
  -1   7  -6   10.44    0.96
  -1   7  -6   10.15    0.87
  -1   7  -6   10.64    0.80
  -2   7  -6   23.29    1.27
  -2   7  -6   23.55    1.42
  -2   7  -6   23.36    1.24
  -3   7  -6    7.72    0.69
  -3   7  -6    8.76    0.75
  -4   7  -6   21.65    1.24
  -4   7  -6   21.32    1.23
  -5   7  -6    7.53    0.77
  -5   7  -6    8.02    0.78
   7   6  -6   27.05    2.12
   6   6  -6    2.23    1.01
   6   6  -6    3.74    0.72
   5   6  -6    1.33    0.58
   5   6  -6    3.34    0.93
   4   6  -6    3.26    0.82
   4   6  -6    3.56    0.61
   3   6  -6   15.68    1.08
   3   6  -6   14.69    1.33
  -3  -6   6   16.28    0.78
   2   6  -6   41.28    2.26
   2   6  -6   38.02    1.80
   2   6  -6   38.20    2.11
  -2  -6   6   40.95    1.57
   1   6  -6   20.37    1.25
   1   6  -6   19.74    1.08
   1   6  -6   20.97    1.53
   0   6  -6    0.50    0.38
   0   6  -6    1.17    0.63
   0   6  -6    0.37    0.36
  -1   6  -6    0.88    0.39
  -1   6  -6    0.38    0.37
  -1   6  -6    1.47    0.60
  -2   6  -6   22.77    1.20
  -2   6  -6   24.21    1.39
  -2   6  -6   20.62    1.50
  -3   6  -6   56.52    2.57
  -3   6  -6   58.04    3.04
  -3   6  -6   60.69    2.57
  -4   6  -6    4.66    0.66
  -4   6  -6    3.87    0.56
  -4   6  -6    5.09    0.58
  -5   6  -6    6.62    0.68
  -5   6  -6    8.11    0.70
  -6   6  -6    0.64    0.52
  -6   6  -6    0.48    0.51
   8   5  -6   18.73    1.72
   7   5  -6    1.16    1.00
   7   5  -6    0.23    0.61
   6   5  -6    0.94    0.58
   6   5  -6    0.54    0.88
   5   5  -6    3.88    0.85
   5   5  -6    3.82    0.64
   4   5  -6    2.20    0.52
   4   5  -6    0.73    0.73
   3   5  -6   44.30    2.39
   3   5  -6   45.42    2.10
  -3  -5   6   46.91    1.94
  -3  -5   6   44.20    1.79
   2   5  -6   22.59    1.38
   2   5  -6   25.44    1.24
   2   5  -6   24.19    1.65
  -2  -5   6   24.10    1.02
   1   5  -6    1.58    0.36
   1   5  -6    2.05    0.40
  -1  -5   6    1.45    0.24
   0   5  -6    0.24    0.32
   0   5  -6    0.39    0.34
   0  -5   6    0.36    0.18
  -1   5  -6   11.40    0.75
  -1   5  -6   11.30    0.82
   1  -5   6   12.06    0.55
  -2   5  -6   15.12    0.92
  -2   5  -6   17.32    1.08
  -3   5  -6   40.84    1.87
  -3   5  -6   41.57    2.21
  -4   5  -6    9.88    0.89
  -4   5  -6   10.33    0.74
  -4   5  -6    9.44    0.72
  -5   5  -6    0.38    0.47
  -5   5  -6    0.48    0.42
  -5   5  -6    0.50    0.42
  -6   5  -6    9.76    0.78
  -6   5  -6    9.43    0.76
  -7   5  -6    2.35    0.57
  -7   5  -6    2.60    0.56
   8   4  -6    0.39    1.00
   7   4  -6    0.38    0.58
   7   4  -6    0.37    0.93
   6   4  -6    0.05    0.83
   6   4  -6    0.00    0.51
   5   4  -6   11.98    1.13
   5   4  -6    8.62    0.85
   4   4  -6   43.65    2.52
   4   4  -6   51.18    2.68
   4   4  -6   50.23    2.23
  -4  -4   6   49.16    2.05
   3   4  -6    8.77    0.76
   3   4  -6   10.45    0.68
   3   4  -6    9.99    0.94
  -3  -4   6   10.05    0.58
   2   4  -6    1.15    0.37
   2   4  -6    2.94    0.37
  -2  -4   6    2.03    0.28
   1   4  -6    3.71    0.46
  -1  -4   6    3.57    0.30
   0   4  -6   14.48    0.91
   0   4  -6   14.82    0.81
   0  -4   6   13.83    0.64
  -1   4  -6   31.46    1.40
  -1   4  -6   27.68    1.61
   1  -4   6   30.38    1.17
  -2   4  -6   41.84    1.84
  -2   4  -6   41.82    2.15
   2  -4   6   39.52    1.56
  -3   4  -6   25.84    1.29
  -3   4  -6   27.89    1.54
  -4   4  -6   10.64    0.85
  -4   4  -6   10.11    0.71
  -5   4  -6    6.61    0.71
  -5   4  -6    5.42    0.55
  -5   4  -6    6.57    0.59
  -6   4  -6   15.19    1.20
  -6   4  -6   16.24    0.96
  -6   4  -6   15.67    0.95
  -7   4  -6   26.82    1.43
  -7   4  -6   27.81    1.41
  -8   4  -6    9.56    0.85
  -8   4  -6   10.84    0.84
   8   3  -6   13.83    1.38
   7   3  -6    0.57    0.58
   7   3  -6   -0.02    0.89
   6   3  -6   13.58    1.14
   6   3  -6   15.46    1.30
   5   3  -6   30.56    1.82
   5   3  -6   33.95    2.03
   5   3  -6   33.09    1.60
  -5  -3   6   31.59    1.42
   4   3  -6   43.91    1.98
   4   3  -6   45.79    2.42
   4   3  -6   40.20    2.25
  -4  -3   6   41.76    1.82
   3   3  -6   18.64    1.15
   3   3  -6   19.18    1.00
  -3  -3   6   19.14    0.90
   2   3  -6    6.66    0.52
   2   3  -6    6.27    0.59
  -2  -3   6    7.14    0.44
   1   3  -6    6.61    0.58
   1   3  -6    7.23    0.49
   1   3  -6    6.66    0.59
  -1  -3   6    6.13    0.42
   0   3  -6   27.81    1.44
   0   3  -6   23.76    1.39
   0  -3   6   25.70    1.03
  -1   3  -6  140.84    5.59
  -1   3  -6  135.01    6.59
  -1   3  -6  143.56    6.59
   1  -3   6  130.54    5.02
  -2   3  -6   26.84    1.46
  -2   3  -6   28.03    1.44
   2  -3   6   26.21    1.42
   2  -3   6   23.66    1.03
  -3   3  -6   17.32    0.92
  -3   3  -6   17.65    1.10
   3  -3   6   18.30    1.07
  -4   3  -6    0.48    0.30
  -4   3  -6    0.11    0.34
   4  -3   6    0.15    0.27
  -5   3  -6    2.24    0.49
  -5   3  -6    1.95    0.39
  -5   3  -6    2.04    0.38
   5  -3   6    1.90    0.37
  -6   3  -6   20.95    1.40
  -6   3  -6   21.16    1.11
  -6   3  -6   20.82    1.13
   6  -3   6   22.98    1.15
  -7   3  -6   39.23    2.30
  -7   3  -6   41.54    1.86
  -7   3  -6   39.92    1.87
  -8   3  -6   17.57    1.11
  -8   3  -6   18.32    1.04
   8   2  -6    7.17    1.08
   7   2  -6    1.76    0.90
   6   2  -6   19.63    1.38
   6   2  -6   24.06    1.68
  -6  -2   6   22.28    1.08
   5   2  -6   20.92    1.52
   5   2  -6   18.14    1.29
   5   2  -6   20.84    1.11
  -5  -2   6   20.36    0.99
   4   2  -6   25.97    1.58
   4   2  -6   23.01    1.43
   4   2  -6   25.41    1.26
  -4  -2   6   26.02    1.15
   3   2  -6   28.00    1.29
   3   2  -6   24.75    1.47
  -3  -2   6   27.12    1.20
   2   2  -6    2.15    0.30
   2   2  -6    2.02    0.35
  -2  -2   6    1.95    0.27
  -2  -2   6    2.46    0.27
   1   2  -6   10.55    0.70
   1   2  -6    9.78    0.57
   1   2  -6    9.62    0.67
  -1  -2   6    9.25    0.54
  -1  -2   6    9.86    0.52
   0   2  -6   42.59    2.06
   0   2  -6   39.29    2.05
   0  -2   6   38.73    1.55
   0  -2   6   39.99    1.74
  -1   2  -6   36.70    1.90
  -1   2  -6   37.50    1.91
   1  -2   6   36.11    1.42
   1  -2   6   37.42    1.62
  -2   2  -6   62.92    2.71
  -2   2  -6   63.01    3.21
  -2   2  -6   68.04    3.20
   2  -2   6   64.04    2.42
   2  -2   6   65.80    3.19
  -3   2  -6    0.44    0.24
  -3   2  -6    0.49    0.26
  -3   2  -6    0.30    0.28
   3  -2   6    0.36    0.23
   3  -2   6    0.52    0.26
   3  -2   6    0.62    0.18
  -4   2  -6    6.03    0.60
  -4   2  -6    5.36    0.47
   4  -2   6    6.51    0.59
   4  -2   6    6.96    0.49
  -5   2  -6   20.57    1.05
  -5   2  -6   20.06    1.07
  -5   2  -6   21.25    1.32
   5  -2   6   22.55    1.09
   5  -2   6   22.97    1.31
  -6   2  -6   34.75    1.59
  -6   2  -6   35.66    1.62
  -6   2  -6   34.85    2.00
   6  -2   6   35.48    1.65
  -7   2  -6   11.93    0.81
  -7   2  -6   12.79    0.78
  -7   2  -6   13.05    1.06
   7  -2   6   13.10    0.94
  -8   2  -6    7.03    0.89
  -8   2  -6    6.60    0.65
  -8   2  -6    6.40    0.59
   8  -2   6    9.18    0.81
  -9   2  -6    1.12    0.46
  -9   2  -6    0.67    0.48
   8   1  -6    0.70    0.85
   7   1  -6   12.53    1.19
  -7  -1   6   12.11    0.79
   6   1  -6   12.70    0.84
   6   1  -6   10.08    0.94
   6   1  -6   11.45    1.07
  -6  -1   6   12.39    0.74
   5   1  -6   23.98    1.55
   5   1  -6   23.81    1.19
   5   1  -6   19.36    1.33
  -5  -1   6   21.96    1.07
   4   1  -6   23.27    1.46
   4   1  -6   28.14    1.29
  -4  -1   6   27.10    1.21
   3   1  -6    0.41    0.24
   3   1  -6    0.72    0.30
  -3  -1   6    0.46    0.22
   2   1  -6    7.17    0.56
   2   1  -6    6.54    0.46
  -2  -1   6    7.32    0.47
   1   1  -6  114.92    4.60
   1   1  -6  101.85    5.31
  -1  -1   6  113.29    4.10
  -1  -1   6  113.40    4.57
   0   1  -6   31.55    1.67
   0   1  -6   34.60    1.69
   0  -1   6   31.50    1.41
   0  -1   6   31.92    1.28
  -1   1  -6   15.76    0.87
  -1   1  -6   14.66    0.86
   1  -1   6   13.97    0.64
   1  -1   6   13.91    0.70
  -2   1  -6   20.33    1.08
  -2   1  -6   18.70    1.09
   2  -1   6   18.66    0.80
   2  -1   6   19.30    0.91
   2  -1   6   19.26    1.07
  -3   1  -6   14.27    0.73
  -3   1  -6   14.07    0.85
  -3   1  -6   13.81    0.88
   3  -1   6   13.73    0.62
   3  -1   6   13.42    0.71
   3  -1   6   14.40    0.86
  -4   1  -6   47.69    2.42
  -4   1  -6   48.20    2.00
   4  -1   6   44.74    2.38
   4  -1   6   47.45    2.01
   4  -1   6   45.36    1.99
  -5   1  -6   24.13    1.12
  -5   1  -6   23.46    1.39
   5  -1   6   23.91    1.14
   5  -1   6   23.59    1.11
   5  -1   6   23.04    1.37
  -6   1  -6   10.48    0.62
  -6   1  -6    9.16    0.68
  -6   1  -6    9.50    0.85
   6  -1   6   10.42    0.66
   6  -1   6    9.54    0.70
   6  -1   6    9.97    0.87
  -7   1  -6   10.01    0.92
  -7   1  -6    8.97    0.68
  -7   1  -6    9.77    0.66
   7  -1   6   10.02    0.77
  -8   1  -6    0.27    0.34
  -8   1  -6    0.27    0.54
  -8   1  -6   -0.04    0.38
   8  -1   6   -0.13    0.50
  -9   1  -6    0.76    0.64
  -9   1  -6    0.20    0.45
  -9   1  -6    0.52    0.40
   9  -1   6    0.32    0.61
  -8   0   6    1.13    0.49
   7   0  -6    8.24    0.99
  -7   0   6    9.46    0.73
   6   0  -6   10.46    1.03
   6   0  -6   11.39    0.80
  -6   0   6   10.91    0.72
   5   0  -6   18.09    0.97
   5   0  -6   16.70    1.13
   5   0  -6   17.34    1.34
  -5   0   6   17.17    0.92
   4   0  -6   46.23    2.08
   4   0  -6   46.13    2.42
  -4   0   6   47.41    2.02
   3   0  -6    0.67    0.23
   3   0  -6    0.78    0.31
  -3   0   6    0.44    0.23
   2   0  -6   54.21    2.90
   2   0  -6   58.51    2.50
  -2   0   6   59.07    2.46
  -2   0   6   64.09    2.95
   1   0  -6   48.15    2.09
   1   0  -6   47.83    2.44
  -1   0   6   49.62    2.07
  -1   0   6   49.70    1.89
  -1   0   6   50.11    2.45
   0   0  -6  167.61    7.46
   0   0  -6  158.18    6.41
   0   0  -6  141.47    7.42
   0   0   6  158.04    5.73
   0   0   6  165.58    7.45
   0   0   6  149.37    6.38
  -1   0  -6   83.52    4.00
  -1   0  -6   82.29    4.00
   1   0   6   86.61    4.00
   1   0   6   81.23    3.42
   1   0   6   79.94    3.06
  -2   0  -6    0.09    0.19
  -2   0  -6    0.11    0.19
   2   0   6   -0.05    0.18
   2   0   6    0.04    0.18
   2   0   6    0.13    0.14
   2   0   6    0.46    0.19
   2   0   6    0.03    0.13
  -3   0  -6    0.70    0.24
  -3   0  -6    0.05    0.19
   3   0   6    0.34    0.18
   3   0   6    0.18    0.22
   3   0   6    0.41    0.16
   3   0   6    0.58    0.21
  -4   0  -6   93.64    4.83
  -4   0  -6  103.96    4.05
   4   0   6   98.56    4.82
   4   0   6  101.85    4.16
   4   0   6   98.74    4.05
  -5   0  -6  155.53    7.56
  -5   0  -6  160.03    6.32
   5   0   6  158.98    7.55
   5   0   6  160.45    6.52
   5   0   6  150.08    6.34
  -6   0  -6   26.25    1.18
  -6   0  -6   25.04    1.21
  -6   0  -6   27.79    1.54
   6   0   6   27.53    1.27
   6   0   6   23.68    1.26
   6   0   6   24.70    1.51
  -7   0  -6    2.19    0.38
  -7   0  -6    0.86    0.48
  -7   0  -6    1.65    0.32
   7   0   6    2.60    0.51
   7   0   6    2.74    0.55
   7   0   6    2.15    0.44
  -8   0  -6    0.43    0.36
  -8   0  -6    0.34    0.30
  -8   0  -6    0.60    0.52
   8   0   6   -0.04    0.51
   8   0   6    0.40    0.49
  -9   0  -6   18.99    1.41
  -9   0  -6   19.33    1.00
  -9   0  -6   18.04    1.05
   9   0   6   18.48    1.32
 -10   0  -6    8.58    0.76
  10   0   6   11.91    1.13
  -8   1   6   21.54    1.20
  -7   1   6    3.46    0.51
   6  -1  -6   29.04    1.74
  -6   1   6   28.27    1.39
   5  -1  -6   23.48    1.48
   5  -1  -6   20.17    1.28
  -5   1   6   20.11    1.04
   4  -1  -6   41.59    2.23
   4  -1  -6   43.28    1.92
  -4   1   6   43.79    1.88
   3  -1  -6    3.13    0.33
   3  -1  -6    2.59    0.38
  -3   1   6    2.66    0.32
  -3   1   6    2.94    0.41
   2  -1  -6   22.70    1.02
   2  -1  -6   21.21    1.21
  -2   1   6   24.65    1.25
  -2   1   6   20.87    1.03
   1  -1  -6   45.52    1.98
   1  -1  -6   46.42    2.31
  -1   1   6   44.95    1.80
  -1   1   6   49.23    2.34
  -1   1   6   47.26    1.98
   0  -1  -6   74.50    3.06
   0  -1  -6   70.35    3.57
   0   1   6   78.03    3.59
   0   1   6   73.56    3.06
   0   1   6   73.41    2.76
   0   1   6   74.02    3.05
  -1  -1  -6   21.78    1.16
   1   1   6   21.75    0.90
   1   1   6   22.46    1.17
   1   1   6   22.03    0.96
  -2  -1  -6    0.76    0.21
   2   1   6    0.67    0.18
   2   1   6    0.63    0.20
   2   1   6    0.52    0.14
   2   1   6    0.53    0.18
   2   1   6    0.62    0.15
   2   1   6    0.72    0.20
  -3  -1  -6   35.33    1.91
   3   1   6   37.76    1.65
   3   1   6   37.58    1.62
   3   1   6   36.57    1.90
   3   1   6   37.27    1.45
   3   1   6   40.43    1.91
  -4  -1  -6   40.06    1.74
  -4  -1  -6   41.30    2.13
   4   1   6   41.88    2.12
   4   1   6   42.63    1.82
   4   1   6   41.14    1.79
  -5  -1  -6    2.06    0.38
  -5  -1  -6    2.05    0.26
   5   1   6    1.66    0.36
   5   1   6    2.77    0.35
   5   1   6    2.55    0.34
  -6  -1  -6   71.76    2.92
  -6  -1  -6   70.49    3.58
  -6  -1  -6   71.74    2.95
   6   1   6   75.03    3.09
   6   1   6   66.82    3.56
   6   1   6   69.14    3.02
  -7  -1  -6   11.52    0.94
  -7  -1  -6   11.25    0.70
  -7  -1  -6   12.09    0.65
   7   1   6   12.65    0.89
   7   1   6   10.93    0.96
   7   1   6   12.65    0.90
  -8  -1  -6   14.18    1.13
  -8  -1  -6   15.53    0.89
  -8  -1  -6   15.19    0.79
   8   1   6   14.45    1.05
   8   1   6   15.80    1.09
   8   1   6   14.08    1.18
  -9  -1  -6    6.31    0.58
   9   1   6    5.26    0.84
   9   1   6    7.16    0.81
 -10  -1  -6    5.90    0.64
  10   1   6    5.63    0.95
  -8   2   6   18.86    1.14
  -7   2   6   27.53    1.44
  -6   2   6   27.37    1.35
   5  -2  -6   -0.05    0.51
  -5   2   6   -0.05    0.31
   4  -2  -6    0.80    0.36
  -4   2   6    1.26    0.33
   3  -2  -6   29.41    1.67
  -3   2   6   32.38    1.43
  -3   2   6   33.18    1.71
   2  -2  -6   52.31    2.34
   2  -2  -6   54.65    2.75
  -2   2   6   55.74    2.36
  -2   2   6   60.33    2.78
   1  -2  -6   58.07    2.86
   1  -2  -6   56.73    2.44
  -1   2   6   60.36    2.89
  -1   2   6   58.75    2.46
  -1   2   6   59.26    2.23
   0  -2  -6   44.76    2.29
   0  -2  -6   47.25    1.95
   0   2   6   47.34    2.31
   0   2   6   47.28    1.98
  -1  -2  -6   12.46    0.71
   1   2   6   12.11    0.56
   1   2   6   12.63    0.72
   1   2   6   12.00    0.56
  -2  -2  -6   25.92    1.34
   2   2   6   23.63    1.16
   2   2   6   25.73    1.15
   2   2   6   25.63    1.34
   2   2   6   26.06    1.11
   2   2   6   28.29    1.35
   2   2   6   26.08    1.04
  -3  -2  -6   25.00    1.36
   3   2   6   27.06    1.20
   3   2   6   27.49    1.36
   3   2   6   25.03    1.16
   3   2   6   25.91    1.05
   3   2   6   25.22    1.36
  -4  -2  -6   57.57    3.02
  -4  -2  -6   62.04    2.51
   4   2   6   60.09    3.02
   4   2   6   63.48    2.63
   4   2   6   62.79    2.56
  -5  -2  -6   53.73    2.74
  -5  -2  -6   54.60    2.24
   5   2   6   54.82    2.38
   5   2   6   54.71    2.32
   5   2   6   53.37    2.74
  -6  -2  -6    1.02    0.26
  -6  -2  -6    1.17    0.35
  -6  -2  -6    1.25    0.22
   6   2   6    1.54    0.39
   6   2   6    1.38    0.38
   6   2   6    1.58    0.38
  -7  -2  -6   22.60    1.37
  -7  -2  -6   23.58    1.08
  -7  -2  -6   22.87    1.01
   7   2   6   20.67    1.21
   7   2   6   20.50    1.39
   7   2   6   21.55    1.23
  -8  -2  -6    9.89    0.60
  -8  -2  -6   11.48    0.71
  -8  -2  -6    9.95    0.92
   8   2   6   10.90    0.88
   8   2   6    9.83    0.86
   8   2   6    8.60    0.94
  -9  -2  -6   14.01    0.86
   9   2   6   15.47    1.17
   9   2   6   15.64    1.30
   9   2   6   16.16    1.19
 -10  -2  -6   20.45    1.11
  10   2   6   20.49    1.49
  10   2   6   20.46    1.53
  -7   3   6   30.72    1.59
  -6   3   6    0.27    0.42
  -5   3   6    0.32    0.37
  -4   3   6    5.93    0.52
   3  -3  -6   74.97    3.96
  -3   3   6   88.14    4.02
  -3   3   6   81.62    3.42
   2  -3  -6   21.34    1.19
  -2   3   6   22.60    1.05
  -2   3   6   23.43    1.23
  -2   3   6   20.48    0.95
   1  -3  -6   11.00    0.54
   1  -3  -6   11.49    0.69
  -1   3   6   11.65    0.70
  -1   3   6   11.26    0.64
  -1   3   6   11.54    0.56
   0  -3  -6    6.47    0.43
   0  -3  -6    5.87    0.30
   0   3   6    5.83    0.37
   0   3   6    6.40    0.42
   0   3   6    5.57    0.45
  -1  -3  -6    2.52    0.26
   1   3   6    2.76    0.27
   1   3   6    2.60    0.16
   1   3   6    3.09    0.29
   1   3   6    2.35    0.22
  -2  -3  -6   64.01    3.09
   2   3   6   61.88    3.08
   2   3   6   61.32    2.62
   2   3   6   64.41    2.39
   2   3   6   64.28    2.62
   2   3   6   64.21    2.72
   2   3   6   66.78    3.09
  -3  -3  -6   49.93    2.58
   3   3   6   51.83    2.00
   3   3   6   52.00    2.28
   3   3   6   58.17    2.59
   3   3   6   51.46    2.59
  -4  -3  -6   58.19    2.86
   4   3   6   57.79    2.86
   4   3   6   55.63    2.42
   4   3   6   60.14    2.52
  -5  -3  -6   13.68    0.86
  -5  -3  -6   13.80    0.64
   5   3   6   13.41    0.78
   5   3   6   13.98    0.88
   5   3   6   14.85    0.82
  -6  -3  -6    0.00    0.28
  -6  -3  -6    0.12    0.16
   6   3   6    0.19    0.33
   6   3   6    0.41    0.35
   6   3   6    0.12    0.35
  -7  -3  -6    7.46    0.53
  -7  -3  -6    8.09    0.44
  -7  -3  -6    6.34    0.66
   7   3   6    6.45    0.65
   7   3   6    6.11    0.71
   7   3   6    6.48    0.67
  -8  -3  -6   13.70    0.75
   8   3   6   12.94    1.10
   8   3   6   14.00    1.01
   8   3   6   12.39    1.00
  -9  -3  -6   40.10    1.85
   9   3   6   46.38    2.20
   9   3   6   39.70    2.44
   9   3   6   40.80    2.15
 -10  -3  -6   11.58    0.82
  10   3   6   10.36    1.14
  10   3   6   12.88    1.16
 -11  -3  -6    4.03    0.58
  11   3   6    4.63    1.02
  11   3   6    5.54    1.06
  -7   4   6    5.22    0.70
  -6   4   6    3.35    0.61
  -5   4   6    0.34    0.40
  -4   4   6   16.26    0.95
  -3   4   6   72.72    3.09
   2  -4  -6  112.43    5.39
  -2   4   6  112.95    4.18
  -2   4   6  112.42    4.65
   1  -4  -6   17.33    0.96
   1  -4  -6   17.16    0.78
  -1   4   6   19.05    0.78
  -1   4   6   17.67    0.88
   0  -4  -6   38.50    1.57
   0  -4  -6   38.95    1.89
   0   4   6   39.34    1.50
   0   4   6   37.36    1.66
   0   4   6   37.76    1.91
  -1  -4  -6    2.06    0.22
   1   4   6    2.26    0.25
   1   4   6    2.33    0.25
   1   4   6    1.90    0.21
  -2  -4  -6   54.32    2.53
   2   4   6   52.67    2.12
   2   4   6   52.89    2.17
   2   4   6   52.19    2.25
   2   4   6   52.53    2.19
   2   4   6   51.15    1.97
   2   4   6   48.96    2.52
  -3  -4  -6  202.03    9.67
   3   4   6  208.11    7.47
   3   4   6  195.52    8.18
   3   4   6  199.40    9.68
   3   4   6  206.80    8.49
   3   4   6  219.84    9.68
  -4  -4  -6   10.23    0.66
   4   4   6   10.07    0.67
   4   4   6   10.59    0.62
   4   4   6   10.93    0.63
  -5  -4  -6   24.56    1.01
  -5  -4  -6   23.26    1.29
   5   4   6   24.14    1.19
   5   4   6   24.40    1.16
   5   4   6   22.50    1.31
  -6  -4  -6   36.12    1.47
  -6  -4  -6   36.14    1.53
  -6  -4  -6   35.61    1.88
   6   4   6   35.15    1.93
   6   4   6   35.69    1.66
   6   4   6   34.09    1.72
  -7  -4  -6    4.81    0.53
  -7  -4  -6    4.09    0.36
   7   4   6    3.60    0.54
   7   4   6    3.41    0.54
   7   4   6    3.09    0.56
  -8  -4  -6   31.02    1.35
   8   4   6   27.53    1.80
   8   4   6   30.17    1.66
  -9  -4  -6   11.14    0.72
   9   4   6   11.54    1.05
   9   4   6   11.33    1.06
   9   4   6   10.15    1.08
 -10  -4  -6    3.88    0.49
  10   4   6    3.40    0.89
  10   4   6    4.94    0.92
  10   4   6    4.27    0.88
 -11  -4  -6    0.48    0.44
  11   4   6    0.39    0.82
  11   4   6   -1.38    0.82
  -7   5   6    1.04    0.62
  -6   5   6    0.81    0.55
  -5   5   6    4.44    0.62
  -4   5   6   28.49    1.42
  -3   5   6    4.25    0.47
  -3   5   6    4.02    0.37
  -2   5   6   13.05    0.82
  -2   5   6   13.12    0.76
  -2   5   6   12.27    0.65
   1  -5  -6   34.56    1.78
  -1   5   6   35.92    1.60
  -1   5   6   36.73    1.81
  -1   5   6   35.59    1.41
   0  -5  -6    3.93    0.35
   0   5   6    5.08    0.40
   0   5   6    4.12    0.36
   0   5   6    4.22    0.30
  -1  -5  -6   14.09    0.74
   1   5   6   13.42    0.75
   1   5   6   14.54    0.62
   1   5   6   13.30    0.71
  -2  -5  -6   90.43    4.13
   2   5   6   83.44    4.14
   2   5   6   87.42    3.22
   2   5   6   84.94    3.57
   2   5   6   91.09    4.15
   2   5   6   84.03    3.52
  -3  -5  -6   18.59    0.93
   3   5   6   18.54    0.93
   3   5   6   17.17    0.83
   3   5   6   17.49    0.75
   3   5   6   17.36    0.83
   3   5   6   16.32    0.88
   3   5   6   15.99    0.93
  -4  -5  -6    6.22    0.45
   4   5   6    5.85    0.46
   4   5   6    5.25    0.48
   4   5   6    6.54    0.47
   4   5   6    6.72    0.42
  -5  -5  -6    0.30    0.22
  -5  -5  -6    0.49    0.12
   5   5   6    0.25    0.27
   5   5   6    0.50    0.32
   5   5   6    0.56    0.30
  -6  -5  -6    2.01    0.34
  -6  -5  -6    2.27    0.25
   6   5   6    2.98    0.47
   6   5   6    2.78    0.43
   6   5   6    1.57    0.39
  -7  -5  -6   26.21    1.16
   7   5   6   24.45    1.55
   7   5   6   27.88    1.42
   7   5   6   26.63    1.45
  -8  -5  -6   34.61    1.51
   8   5   6   33.82    1.76
   8   5   6   33.25    2.02
   8   5   6   36.20    1.83
  -9  -5  -6    1.15    0.33
   9   5   6    0.69    0.63
   9   5   6    1.13    0.64
   9   5   6   -0.04    0.59
 -10  -5  -6    0.73    0.37
  10   5   6    0.52    0.70
  10   5   6    0.64    0.71
  10   5   6    0.05    0.79
  11   5   6   -0.34    0.83
  11   5   6   -0.90    0.89
  -6   6   6    4.26    0.69
  -5   6   6   23.48    1.36
  -4   6   6   11.77    0.68
  -4   6   6   12.37    0.91
  -3   6   6   13.59    0.73
  -3   6   6   16.12    0.94
  -2   6   6    9.24    0.68
  -2   6   6   10.41    0.53
   1  -6  -6    6.30    0.45
  -1   6   6    6.36    0.50
  -1   6   6    7.03    0.42
  -1   6   6    6.37    0.51
   0  -6  -6   24.72    1.24
   0   6   6   25.68    1.28
   0   6   6   23.91    1.17
   0   6   6   25.37    1.02
  -1  -6  -6  154.40    7.00
   1   6   6  145.99    7.03
   1   6   6  151.03    5.45
   1   6   6  144.75    6.07
  -2  -6  -6   15.01    0.73
   2   6   6   13.64    0.70
   2   6   6   14.63    0.64
   2   6   6   13.78    0.75
   2   6   6   12.83    0.72
   2   6   6   13.90    0.79
  -3  -6  -6   11.12    0.61
   3   6   6   11.78    0.55
   3   6   6   11.85    0.60
   3   6   6   10.90    0.62
   3   6   6   11.18    0.70
   3   6   6   11.12    0.48
   3   6   6    9.85    0.64
  -4  -6  -6    0.56    0.19
   4   6   6    0.73    0.30
   4   6   6    0.49    0.19
   4   6   6    0.65    0.22
   4   6   6    0.30    0.24
  -5  -6  -6   42.78    2.15
   5   6   6   46.84    1.92
   5   6   6   41.84    1.98
   5   6   6   43.96    1.82
   5   6   6   40.39    2.18
  -6  -6  -6   33.15    1.38
   6   6   6   31.43    1.77
   6   6   6   33.71    1.55
   6   6   6   32.92    1.62
  -7  -6  -6   29.46    1.26
   7   6   6   28.78    1.57
   7   6   6   29.35    1.69
   7   6   6   28.81    1.48
  -8  -6  -6    7.02    0.48
   8   6   6    6.80    0.74
   8   6   6    6.01    0.77
   8   6   6    7.57    0.84
   9   6   6   -0.02    0.61
   9   6   6    0.60    0.59
   9   6   6   -0.09    0.69
  10   6   6    4.40    0.90
  10   6   6    3.70    0.88
  10   6   6    3.51    0.87
  11   6   6    0.44    0.91
  11   6   6    0.91    0.83
  -5   7   6   10.96    0.93
  -4   7   6   10.34    0.84
  -4   7   6    9.58    0.61
  -3   7   6   12.07    0.90
  -3   7   6   12.80    0.66
  -2   7   6   -0.06    0.20
  -2   7   6    0.27    0.37
  -1   7   6    3.49    0.29
  -1   7   6    3.58    0.35
  -1   7   6    3.05    0.42
   0  -7  -6    0.54    0.09
   0   7   6    0.47    0.28
   0   7   6    0.52    0.19
   0   7   6    0.55    0.18
   1   7   6  123.77    5.22
   1   7   6  128.15    6.00
   1   7   6  129.96    4.67
   2   7   6   47.88    2.07
   2   7   6   48.65    2.15
   2   7   6   48.52    2.32
   2   7   6   48.64    1.84
  -3  -7  -6   10.02    0.51
   3   7   6    9.24    0.55
   3   7   6    9.62    0.67
   3   7   6    8.64    0.57
   3   7   6    9.10    0.56
  -4  -7  -6   11.87    0.66
   4   7   6   12.74    0.68
   4   7   6   11.69    0.70
   4   7   6   11.92    0.63
   4   7   6   11.67    0.73
   4   7   6   11.47    0.56
   5   7   6   20.31    1.34
   5   7   6   19.08    1.12
   5   7   6   20.04    1.01
   5   7   6   20.95    1.13
   5   7   6   20.65    0.93
   6   7   6   77.38    3.87
   6   7   6   79.64    3.32
   6   7   6   79.34    3.96
   6   7   6   75.48    3.46
   6   7   6   78.79    3.20
   7   7   6   27.29    1.92
   7   7   6   29.35    1.59
   7   7   6   29.78    1.49
   7   7   6   29.92    1.70
   8   7   6    5.47    0.70
   8   7   6    3.37    0.64
   8   7   6    2.83    0.87
   8   7   6    4.07    0.69
   9   7   6   26.00    1.91
   9   7   6   25.90    1.53
   9   7   6   24.25    1.66
   9   7   6   26.27    1.76
  10   7   6    7.50    1.03
  10   7   6    6.26    0.94
  11   7   6   21.40    1.59
  11   7   6   21.81    1.76
  -4   8   6    8.64    0.85
  -3   8   6    2.17    0.56
  -2   8   6   10.85    0.81
  -1   8   6   20.61    1.11
  -1   8   6   21.56    0.90
   0   8   6   40.80    1.84
   0   8   6   39.80    1.95
   0   8   6   40.90    1.56
   1   8   6    5.04    0.31
   1   8   6    4.97    0.33
   1   8   6    5.45    0.47
   2   8   6   18.06    0.74
   2   8   6   16.62    0.88
   2   8   6   16.12    0.93
   3   8   6   14.98    0.79
   3   8   6   16.10    0.78
   3   8   6   15.34    0.90
   3   8   6   14.68    0.79
   4   8   6   33.93    1.41
   4   8   6   33.09    1.48
   4   8   6   32.29    1.59
   4   8   6   32.24    1.66
   4   8   6   34.16    1.45
   5   8   6    6.54    0.42
   5   8   6    7.89    0.46
   5   8   6    5.69    0.60
   5   8   6    5.41    0.76
   5   8   6    6.05    0.53
   5   8   6    6.75    0.53
   6   8   6    1.52    0.27
   6   8   6    1.76    0.39
   6   8   6    1.88    0.64
   6   8   6    2.72    0.44
   6   8   6    2.97    0.53
   7   8   6   17.81    1.18
   7   8   6   17.40    1.18
   7   8   6   17.64    1.08
   7   8   6   17.99    1.44
   8   8   6    0.01    0.51
   8   8   6    0.58    0.53
   8   8   6    0.49    0.57
   8   8   6   -0.43    0.74
   9   8   6    1.99    0.68
   9   8   6    1.10    0.63
   9   8   6    1.10    0.99
   9   8   6    0.82    0.67
  10   8   6   -1.79    1.05
  10   8   6    0.85    0.76
  10   8   6    0.38    0.85
  -3   9   6    0.53    0.56
  -2   9   6    2.40    0.58
  -1   9   6   23.47    1.26
   0   9   6   22.90    1.19
   1   9   6   20.16    1.06
   1   9   6   21.13    0.86
   2   9   6    4.01    0.45
   2   9   6    3.74    0.42
   3   9   6   18.60    0.96
   3   9   6   18.80    1.06
   3   9   6   20.55    0.93
   4   9   6    9.41    0.89
   4   9   6   11.02    0.60
   4   9   6    9.92    0.62
   4   9   6    9.62    0.59
   4   9   6    9.56    0.73
   5   9   6   20.21    1.19
   5   9   6   23.48    1.13
   5   9   6   20.98    1.17
   5   9   6   23.26    1.58
   6   9   6   23.30    1.59
   6   9   6   19.05    1.20
   6   9   6   21.94    1.25
   6   9   6   22.75    1.14
   7   9   6    2.57    0.51
   7   9   6    1.20    0.54
   7   9   6    2.06    0.86
   7   9   6    2.78    0.50
   8   9   6   -0.82    0.88
   8   9   6    0.20    0.58
   8   9   6   -0.31    0.50
   8   9   6   -0.18    0.48
   9   9   6   13.17    1.49
   9   9   6   13.10    1.10
   9   9   6   12.17    1.15
  10   9   6   10.32    1.17
  10   9   6   10.00    1.49
  -2  10   6    5.05    0.42
  -2  10   6    5.45    0.74
  -1  10   6   13.25    1.00
   0  10   6   28.34    1.44
   1  10   6    1.58    0.44
   2  10   6    1.54    0.39
   3  10   6   14.92    0.98
   3  10   6   17.29    0.90
   4  10   6    6.47    0.47
   4  10   6    5.39    0.77
   4  10   6    5.52    0.60
   5  10   6    9.31    0.65
   5  10   6    8.90    0.59
   5  10   6    8.43    0.75
   5  10   6    8.44    0.94
   6  10   6   20.33    1.04
   6  10   6   17.73    1.08
   6  10   6   16.17    1.10
   6  10   6   20.34    1.65
   7  10   6    0.17    0.43
   7  10   6   -0.83    0.51
   7  10   6   -0.94    0.83
   7  10   6   -0.11    0.39
   8  10   6    0.88    0.52
   8  10   6    0.59    0.92
   8  10   6    0.76    0.51
   8  10   6    0.37    0.66
   9  10   6   15.42    1.31
   9  10   6   14.50    1.15
   9  10   6   13.86    1.63
  10  10   6    0.59    0.82
  10  10   6   -0.67    1.20
  10  10   6    1.27    0.77
   0  11   6   17.60    1.09
   1  11   6    3.91    0.57
   2  11   6    2.88    0.50
   3  11   6    7.76    0.68
   4  11   6   24.26    1.35
   5  11   6   24.63    1.23
   5  11   6   25.99    1.81
   5  11   6   23.82    1.36
   6  11   6    0.08    0.82
   6  11   6    0.06    0.51
   6  11   6    0.07    0.28
   7  11   6   -0.04    0.43
   7  11   6   -1.66    0.88
   7  11   6   -0.46    0.37
   7  11   6   -0.45    0.56
   8  11   6    4.03    1.20
   8  11   6    3.17    0.77
   8  11   6    4.29    0.66
   9  11   6   -0.73    0.60
   9  11   6    0.43    0.71
   9  11   6   -3.10    1.10
   4  12   6   20.01    1.22
   5  12   6    1.15    0.54
   5  12   6   -1.11    0.77
   6  12   6    0.06    0.90
   6  12   6    0.70    0.56
   6  12   6   -0.05    0.24
   7  12   6    0.51    0.62
   7  12   6   -0.08    1.03
   8  12   6    2.18    0.75
   8  12   6    1.62    1.12
   5  13   6    0.10    0.58
   5  13   6    0.83    0.89
   6  13   6    2.68    0.73
   6  13   6    2.48    1.07
   7  13   6    5.26    0.84
   7  13   6    5.37    1.27
   4   8  -7    4.91    0.61
   4   8  -7    4.43    1.05
   3   8  -7    6.45    1.13
   3   8  -7    7.45    0.72
   2   8  -7    1.19    0.89
   2   8  -7    0.92    0.48
   1   8  -7    1.74    0.85
   1   8  -7    2.95    0.56
   0   8  -7   20.53    1.22
   0   8  -7   18.75    1.60
  -1   8  -7    3.13    0.60
  -2   8  -7    1.32    0.57
  -2   8  -7    1.21    0.51
   6   7  -7   14.23    1.53
   5   7  -7   10.18    1.31
   4   7  -7   24.18    1.29
   4   7  -7   22.40    1.90
   3   7  -7    6.86    0.67
   3   7  -7    5.39    1.04
   3   7  -7    5.65    0.73
   2   7  -7   -0.14    0.43
   2   7  -7    0.75    0.83
   2   7  -7   -0.04    0.44
   1   7  -7   15.88    1.12
   1   7  -7   15.10    1.31
   1   7  -7   17.24    1.02
   0   7  -7    7.74    0.73
   0   7  -7    6.80    0.73
   0   7  -7    6.91    0.92
  -1   7  -7   26.10    1.40
  -1   7  -7   27.08    1.75
  -2   7  -7   27.23    1.44
  -3   7  -7    1.15    0.49
  -3   7  -7    0.98    0.54
  -4   7  -7    3.66    0.62
  -4   7  -7    4.26    0.65
   7   6  -7   12.22    1.46
   6   6  -7    5.08    1.14
   5   6  -7   15.17    1.21
   5   6  -7   17.63    1.49
  -5  -6   7   14.29    0.86
   4   6  -7   12.70    1.03
   4   6  -7   10.58    1.21
  -4  -6   7   12.97    0.75
   3   6  -7    1.61    0.77
   3   6  -7    0.90    0.49
  -3  -6   7    1.56    0.33
   2   6  -7    1.56    0.44
   2   6  -7    2.02    0.49
   2   6  -7    2.40    0.78
   1   6  -7   13.91    1.15
   1   6  -7   10.64    0.89
   1   6  -7   11.60    0.82
   0   6  -7   20.57    1.62
   0   6  -7   19.25    1.11
   0   6  -7   20.11    1.25
  -1   6  -7   15.52    0.97
  -1   6  -7   13.41    1.17
  -1   6  -7   16.10    1.07
  -2   6  -7    3.80    0.55
  -2   6  -7    4.21    0.60
  -2   6  -7    2.48    0.67
  -3   6  -7    6.97    0.76
  -3   6  -7    6.64    0.69
  -4   6  -7    2.10    0.51
  -4   6  -7    2.25    0.52
  -5   6  -7   21.50    1.22
  -5   6  -7   18.74    1.18
   7   5  -7   14.48    1.54
   6   5  -7   15.39    1.26
   6   5  -7   15.21    1.42
   5   5  -7   23.48    1.81
   5   5  -7   19.73    1.41
   4   5  -7    2.69    0.86
   4   5  -7    3.66    0.61
  -4  -5   7    3.83    0.43
   3   5  -7    1.96    0.49
   3   5  -7    2.36    0.72
  -3  -5   7    2.32    0.35
  -3  -5   7    2.00    0.34
   2   5  -7    5.01    0.61
   2   5  -7    5.45    0.85
  -2  -5   7    5.80    0.43
   1   5  -7   34.09    1.89
   1   5  -7   34.65    1.63
  -1  -5   7   34.59    1.39
   0   5  -7   36.38    1.66
   0   5  -7   34.57    1.91
   0  -5   7   34.58    1.39
  -1   5  -7   29.79    1.77
  -1   5  -7   33.67    1.54
  -2   5  -7    1.51    0.45
  -2   5  -7    1.79    0.46
  -3   5  -7   12.17    0.98
  -3   5  -7   11.99    0.82
  -4   5  -7    8.73    0.72
  -4   5  -7    8.66    0.73
  -4   5  -7    9.93    0.90
  -5   5  -7   13.37    0.92
  -5   5  -7   14.68    0.94
  -6   5  -7    1.47    0.53
  -6   5  -7    1.80    0.52
   7   4  -7    4.70    1.10
   7   4  -7    3.06    0.75
   6   4  -7   23.90    1.77
   6   4  -7   22.26    1.53
   5   4  -7    0.09    0.50
   5   4  -7    0.25    0.81
   4   4  -7    0.67    0.45
   4   4  -7    0.50    0.74
  -4  -4   7    0.44    0.27
   3   4  -7   19.30    1.43
   3   4  -7   15.82    1.07
   3   4  -7   15.54    0.94
  -3  -4   7   14.96    0.82
  -3  -4   7   14.43    0.79
   2   4  -7   26.24    1.28
   2   4  -7   24.13    1.44
  -2  -4   7   24.84    1.09
   1   4  -7   51.66    2.66
  -1  -4   7   51.68    2.00
   0   4  -7   14.10    0.96
   0  -4   7   15.38    0.69
  -1   4  -7   18.82    1.16
  -1   4  -7   18.90    1.00
   1  -4   7   17.52    0.79
  -2   4  -7    0.71    0.36
  -2   4  -7   -0.08    0.34
   2  -4   7    0.55    0.20
  -3   4  -7    9.11    0.69
  -3   4  -7    8.68    0.77
  -4   4  -7   44.00    1.95
  -4   4  -7   41.75    2.33
  -5   4  -7   22.69    1.45
  -5   4  -7   21.91    1.20
  -5   4  -7   22.40    1.19
  -6   4  -7   22.67    1.54
  -6   4  -7   23.87    1.24
  -6   4  -7   23.82    1.26
  -7   4  -7    0.61    0.44
  -7   4  -7    0.47    0.48
   8   3  -7    8.79    1.29
   7   3  -7   11.37    1.32
   6   3  -7   13.17    1.12
   6   3  -7   13.42    1.31
   5   3  -7    0.15    0.69
   5   3  -7    1.16    0.51
  -5  -3   7    0.64    0.30
   4   3  -7    5.87    0.68
   4   3  -7    7.05    0.91
   4   3  -7    6.82    0.63
  -4  -3   7    7.26    0.54
   3   3  -7   41.74    1.88
   3   3  -7   38.76    2.13
  -3  -3   7   39.70    1.74
  -3  -3   7   39.21    1.63
   2   3  -7   12.26    0.92
   2   3  -7   15.75    0.84
  -2  -3   7   14.26    0.72
   1   3  -7   17.44    1.09
  -1  -3   7   18.29    0.81
   0   3  -7   32.43    1.82
   0  -3   7   35.82    1.37
  -1   3  -7    1.93    0.38
   1  -3   7    2.22    0.25
  -2   3  -7    0.09    0.30
  -2   3  -7    1.34    0.37
   2  -3   7    0.23    0.19
  -3   3  -7   53.33    2.25
  -3   3  -7   49.65    2.67
  -4   3  -7   38.93    1.78
  -4   3  -7   38.27    2.15
   4  -3   7   40.42    1.74
  -5   3  -7   18.40    1.04
  -5   3  -7   17.98    1.27
  -5   3  -7   19.81    1.04
   5  -3   7   20.55    1.06
  -6   3  -7    1.83    0.59
  -6   3  -7    2.17    0.46
  -6   3  -7    1.59    0.42
   6  -3   7    2.32    0.46
  -7   3  -7    0.41    0.42
  -7   3  -7    0.39    0.43
  -7   3  -7    0.58    0.57
  -8   3  -7    2.66    0.51
  -8   3  -7    2.20    0.55
   8   2  -7   16.03    1.49
   7   2  -7    4.68    1.08
   6   2  -7    7.37    1.04
   6   2  -7    5.77    0.78
  -6  -2   7    7.80    0.57
   5   2  -7    3.87    0.81
   5   2  -7    2.62    0.47
   5   2  -7    2.96    0.59
  -5  -2   7    3.15    0.39
   4   2  -7    1.22    0.36
   4   2  -7    1.47    0.43
   4   2  -7    1.53    0.62
  -4  -2   7    1.00    0.28
   3   2  -7   75.77    3.14
   3   2  -7   66.24    3.59
  -3  -2   7   74.41    3.02
   2   2  -7   48.82    2.10
   2   2  -7   45.06    2.41
  -2  -2   7   47.05    1.86
  -2  -2   7   47.47    2.03
   1   2  -7   19.46    1.15
   1   2  -7   19.64    0.99
  -1  -2   7   19.84    0.87
   0   2  -7   10.44    0.75
   0  -2   7   11.50    0.57
  -1   2  -7    3.87    0.46
   1  -2   7    4.33    0.31
  -2   2  -7    1.78    0.31
  -2   2  -7    1.16    0.34
   2  -2   7    1.70    0.23
  -3   2  -7   63.81    2.69
  -3   2  -7   64.29    3.20
   3  -2   7   60.75    2.38
   3  -2   7   64.37    3.17
  -4   2  -7   58.10    2.49
  -4   2  -7   52.64    2.97
   4  -2   7   60.47    2.96
   4  -2   7   61.25    2.48
  -5   2  -7   22.58    1.13
  -5   2  -7   23.87    1.43
   5  -2   7   22.45    1.16
  -6   2  -7    0.52    0.45
  -6   2  -7    0.04    0.33
  -6   2  -7    0.04    0.38
   6  -2   7   -0.02    0.38
  -7   2  -7    3.42    0.67
  -7   2  -7    3.22    0.46
  -7   2  -7    2.99    0.49
   7  -2   7    3.74    0.58
  -8   2  -7    9.21    0.70
  -8   2  -7    7.87    0.72
  -8   2  -7    8.59    1.01
   8  -2   7    8.25    0.82
   7   1  -7   22.41    1.87
   6   1  -7    2.56    0.83
  -6  -1   7    2.86    0.42
   5   1  -7    0.93    0.38
   5   1  -7    0.80    0.71
   5   1  -7    0.58    0.48
  -5  -1   7    1.14    0.34
   4   1  -7   23.80    1.46
   4   1  -7   26.51    1.29
  -4  -1   7   25.25    1.19
   3   1  -7   53.86    3.00
   3   1  -7   64.95    2.63
  -3  -1   7   60.73    2.53
   2   1  -7   13.98    0.94
   2   1  -7   15.44    0.81
  -2  -1   7   16.40    0.80
  -2  -1   7   14.59    0.75
   1   1  -7   12.76    0.87
   1   1  -7   15.02    0.75
  -1  -1   7   14.06    0.68
  -1  -1   7   14.35    0.71
   0   1  -7    0.26    0.24
   0  -1   7    0.18    0.16
   0  -1   7    0.11    0.19
  -1   1  -7   15.48    0.93
   1  -1   7   14.94    0.69
   1  -1   7   15.40    0.77
  -2   1  -7   99.91    4.91
   2  -1   7  100.01    4.88
   2  -1   7  102.16    3.74
   2  -1   7  102.17    4.21
  -3   1  -7    4.95    0.43
  -3   1  -7    5.50    0.54
   3  -1   7    5.40    0.43
   3  -1   7    4.89    0.35
   3  -1   7    5.68    0.52
  -4   1  -7    9.44    0.60
  -4   1  -7    8.22    0.73
   4  -1   7   10.15    0.61
   4  -1   7    8.99    0.72
  -5   1  -7    9.56    0.82
  -5   1  -7    9.34    0.62
   5  -1   7   10.79    0.65
   5  -1   7   10.00    0.67
   5  -1   7    9.99    0.81
  -6   1  -7    5.64    0.68
  -6   1  -7    6.08    0.49
  -6   1  -7    4.64    0.51
   6  -1   7    5.42    0.56
  -7   1  -7    8.86    0.62
  -7   1  -7    8.48    0.89
  -7   1  -7    7.66    0.64
   7  -1   7    8.57    0.75
  -8   1  -7   10.09    0.79
  -8   1  -7   11.43    1.09
  -8   1  -7   11.79    0.76
   8  -1   7   11.29    0.93
  -9   1  -7   10.90    0.78
  -9   1  -7    9.57    0.79
   9  -1   7   11.17    0.99
   7   0  -7    6.65    1.01
  -7   0   7    7.06    0.63
   6   0  -7    0.65    0.74
  -6   0   7   -0.04    0.36
   5   0  -7    1.63    0.41
   5   0  -7    2.21    0.69
  -5   0   7    1.13    0.36
   4   0  -7   19.02    0.99
   4   0  -7   16.43    1.13
  -4   0   7   17.90    0.91
   3   0  -7    2.14    0.39
   3   0  -7    2.48    0.35
  -3   0   7    1.87    0.30
   2   0  -7  177.15    8.54
   2   0  -7  178.42    7.37
  -2   0   7  181.53    6.59
  -2   0   7  180.16    7.27
   1   0  -7    2.24    0.34
   1   0  -7    1.79    0.27
  -1   0   7    1.80    0.26
  -1   0   7    2.21    0.29
   0   0  -7   38.13    1.94
   0   0   7   38.97    1.50
   0   0   7   36.52    1.63
  -1   0  -7   28.02    1.63
   1   0   7   33.38    1.26
   1   0   7   32.81    1.38
  -2   0  -7  107.02    5.08
   2   0   7  106.16    5.05
   2   0   7  103.53    4.34
   2   0   7  102.89    3.87
  -3   0  -7   77.97    3.79
   3   0   7   74.38    2.87
   3   0   7   78.99    3.17
   3   0   7   76.53    3.77
  -4   0  -7    1.39    0.35
  -4   0  -7    1.30    0.28
   4   0   7    1.66    0.28
   4   0   7    1.83    0.32
   4   0   7    1.25    0.34
  -5   0  -7   -0.34    0.23
  -5   0  -7   -0.11    0.32
   5   0   7   -0.01    0.25
   5   0   7    0.11    0.32
   5   0   7   -0.10    0.30
  -6   0  -7    1.85    0.33
  -6   0  -7    1.94    0.48
   6   0   7    2.06    0.48
   6   0   7    1.72    0.38
   6   0   7    2.40    0.43
  -7   0  -7   89.27    3.65
  -7   0  -7   87.67    3.68
   7   0   7   88.16    3.80
   7   0   7   88.17    3.75
  -8   0  -7   35.05    1.58
  -8   0  -7   34.53    2.04
  -8   0  -7   33.78    1.53
   8   0   7   30.35    1.68
  -9   0  -7    1.15    0.46
  -9   0  -7    1.11    0.39
   9   0   7    1.48    0.62
  -8   1   7    4.25    0.66
  -7   1   7    0.74    0.47
   6  -1  -7   12.00    1.08
  -6   1   7   10.54    0.74
   5  -1  -7   20.31    1.14
   5  -1  -7   23.20    1.61
  -5   1   7   21.93    1.10
   4  -1  -7   18.06    1.15
   4  -1  -7   19.21    0.99
  -4   1   7   17.73    0.97
   3  -1  -7   20.91    1.26
   3  -1  -7   22.33    1.07
  -3   1   7   22.72    1.08
   2  -1  -7    0.35    0.26
   2  -1  -7    0.01    0.19
  -2   1   7   -0.05    0.22
  -2   1   7   -0.08    0.24
  -2   1   7    0.16    0.22
   1  -1  -7    6.80    0.54
   1  -1  -7    6.37    0.41
  -1   1   7    6.50    0.54
  -1   1   7    6.60    0.46
  -1   1   7    6.26    0.43
   0  -1  -7   18.13    1.01
   0   1   7   17.25    0.82
   0   1   7   17.59    0.80
   0   1   7   19.27    1.05
   0   1   7   17.86    0.89
  -1  -1  -7   71.06    3.48
   1   1   7   70.36    2.96
   1   1   7   70.03    2.68
   1   1   7   74.11    3.49
  -2  -1  -7   51.84    2.52
   2   1   7   51.72    2.50
   2   1   7   50.74    2.12
   2   1   7   47.57    2.49
   2   1   7   48.95    1.92
  -3  -1  -7   23.55    1.24
   3   1   7   22.58    0.93
   3   1   7   21.39    1.04
   3   1   7   22.90    1.05
   3   1   7   19.95    1.20
  -4  -1  -7   35.15    1.49
  -4  -1  -7   34.64    1.82
   4   1   7   34.49    1.80
   4   1   7   34.66    1.54
   4   1   7   33.60    1.53
   4   1   7   32.21    1.36
  -5  -1  -7   28.33    1.28
  -5  -1  -7   29.28    1.60
   5   1   7   27.86    1.35
   5   1   7   28.75    1.59
   5   1   7   28.60    1.37
  -6  -1  -7   21.14    0.97
  -6  -1  -7   20.20    1.27
   6   1   7   18.73    1.26
   6   1   7   20.22    1.08
   6   1   7   20.15    1.08
  -7  -1  -7    1.66    0.35
  -7  -1  -7    1.35    0.48
  -7  -1  -7    1.96    0.31
   7   1   7    1.26    0.51
   7   1   7    1.70    0.46
   7   1   7    1.09    0.44
  -8  -1  -7   32.52    1.51
  -8  -1  -7   32.08    1.46
  -8  -1  -7   33.47    1.96
   8   1   7   33.94    1.70
   8   1   7   30.62    1.67
  -9  -1  -7    5.54    0.57
   9   1   7    3.93    0.74
 -10  -1  -7    2.26    0.51
  10   1   7    3.04    0.81
  -8   2   7    1.01    0.59
  -7   2   7    1.16    0.49
  -6   2   7    4.74    0.55
   5  -2  -7   33.27    1.95
   5  -2  -7   34.70    1.59
  -5   2   7   29.78    1.51
   4  -2  -7   72.03    3.01
  -4   2   7   67.23    2.96
   3  -2  -7   23.41    1.42
   3  -2  -7   25.65    1.21
  -3   2   7   28.34    1.24
   2  -2  -7    0.22    0.18
   2  -2  -7    0.06    0.24
  -2   2   7    0.29    0.23
  -2   2   7    0.15    0.24
  -2   2   7   -0.06    0.24
   1  -2  -7   11.79    0.60
   1  -2  -7   11.14    0.74
  -1   2   7   13.23    0.79
  -1   2   7   12.42    0.67
  -1   2   7   13.20    0.63
   0  -2  -7   27.50    1.18
   0  -2  -7   26.29    1.42
   0   2   7   27.48    1.12
   0   2   7   28.59    1.45
   0   2   7   26.11    1.23
  -1  -2  -7   83.21    4.03
   1   2   7   81.75    3.12
   1   2   7   90.53    4.05
   1   2   7   79.33    3.43
  -2  -2  -7   67.73    3.28
   2   2   7   68.30    2.53
   2   2   7   67.65    2.78
   2   2   7   67.60    2.77
   2   2   7   63.98    3.26
  -3  -2  -7   28.62    1.53
   3   2   7   29.87    1.18
   3   2   7   26.53    1.29
   3   2   7   27.74    1.52
   3   2   7   28.68    1.33
   3   2   7   32.96    1.54
  -4  -2  -7    6.32    0.55
   4   2   7    6.17    0.48
   4   2   7    6.95    0.50
   4   2   7    5.87    0.53
   4   2   7    7.50    0.43
   4   2   7    6.90    0.55
  -5  -2  -7   50.84    2.06
  -5  -2  -7   49.00    2.54
   5   2   7   49.59    2.20
   5   2   7   47.75    2.53
   5   2   7   49.72    2.16
  -6  -2  -7   29.77    1.30
  -6  -2  -7   28.98    1.67
   6   2   7   28.95    1.68
   6   2   7   29.47    1.44
   6   2   7   31.08    1.47
  -7  -2  -7   26.91    1.49
  -7  -2  -7   22.48    1.13
  -7  -2  -7   24.15    1.08
   7   2   7   23.37    1.31
   7   2   7   22.86    1.28
   7   2   7   22.96    1.47
  -8  -2  -7    2.55    0.33
  -8  -2  -7    3.05    0.41
   8   2   7    2.94    0.65
   8   2   7    2.54    0.59
   8   2   7    2.48    0.59
  -9  -2  -7    0.57    0.38
   9   2   7   -0.02    0.60
   9   2   7    1.38    0.64
 -10  -2  -7   19.20    1.12
  10   2   7   20.45    1.55
  10   2   7   23.97    1.58
  -7   3   7    2.27    0.59
  -6   3   7    5.61    0.63
  -5   3   7   24.87    1.26
  -4   3   7   16.89    0.94
   3  -3  -7    4.85    0.40
  -3   3   7    3.90    0.44
   2  -3  -7    3.90    0.32
   2  -3  -7    3.12    0.39
  -2   3   7    4.07    0.37
  -2   3   7    4.16    0.44
  -2   3   7    3.51    0.39
   1  -3  -7    6.04    0.48
   1  -3  -7    6.03    0.36
  -1   3   7    5.71    0.45
  -1   3   7    4.86    0.39
  -1   3   7    6.72    0.54
   0  -3  -7   33.91    1.70
   0   3   7   32.60    1.49
   0   3   7   34.72    1.74
   0   3   7   33.61    1.35
  -1  -3  -7   21.19    1.19
   1   3   7   22.93    1.06
   1   3   7   23.76    0.96
   1   3   7   24.68    1.23
   1   3   7   22.11    0.97
  -2  -3  -7   37.72    1.90
   2   3   7   37.01    1.69
   2   3   7   41.08    1.93
   2   3   7   38.72    1.49
   2   3   7   37.37    1.63
   2   3   7   36.53    1.91
   2   3   7   37.56    1.59
  -3  -3  -7   14.46    0.85
   3   3   7   14.41    0.86
   3   3   7   14.30    0.68
   3   3   7   13.98    0.75
   3   3   7   15.02    0.78
   3   3   7   16.07    0.87
  -4  -3  -7   21.94    1.26
   4   3   7   24.87    1.28
   4   3   7   24.00    0.98
   4   3   7   23.69    1.10
   4   3   7   21.69    1.14
   4   3   7   22.20    1.26
  -5  -3  -7    7.94    0.47
  -5  -3  -7    8.28    0.63
   5   3   7    8.52    0.63
   5   3   7    7.98    0.60
   5   3   7    7.82    0.64
  -6  -3  -7   90.50    3.55
   6   3   7   85.15    3.68
   6   3   7   87.68    3.79
   6   3   7   86.06    4.34
  -7  -3  -7   22.41    1.00
  -7  -3  -7   21.79    1.35
  -7  -3  -7   22.26    1.07
   7   3   7   23.61    1.25
   7   3   7   21.33    1.40
   7   3   7   20.91    1.25
  -8  -3  -7    2.41    0.37
   8   3   7    2.35    0.60
   8   3   7    2.33    0.58
   8   3   7    2.75    0.63
  -9  -3  -7    0.20    0.34
   9   3   7    0.07    0.60
   9   3   7    0.44    0.65
   9   3   7    0.99    0.65
 -10  -3  -7    5.60    0.59
  10   3   7    6.30    0.94
  10   3   7    5.56    0.95
  -7   4   7   19.19    1.24
  -6   4   7   16.51    1.08
  -5   4   7   10.71    0.84
  -4   4   7    3.79    0.49
  -3   4   7    0.64    0.29
  -3   4   7    1.41    0.36
   2  -4  -7   33.83    1.47
   2  -4  -7   32.96    1.76
  -2   4   7   34.39    1.40
  -2   4   7   34.19    1.56
   1  -4  -7   43.28    2.11
   1  -4  -7   39.98    1.75
  -1   4   7   43.93    2.14
  -1   4   7   41.48    1.66
  -1   4   7   41.62    1.84
   0  -4  -7   66.38    3.21
   0   4   7   64.74    2.79
   0   4   7   68.09    2.52
  -1  -4  -7   67.06    3.28
   1   4   7   68.76    2.57
   1   4   7   68.54    2.85
  -2  -4  -7   10.82    0.64
   2   4   7   11.11    0.47
   2   4   7   10.32    0.64
   2   4   7   10.71    0.63
   2   4   7   10.46    0.54
   2   4   7   10.17    0.62
   2   4   7   11.35    0.66
   2   4   7   10.03    0.58
  -3  -4  -7   16.02    0.90
   3   4   7   15.58    0.90
   3   4   7   17.01    0.92
   3   4   7   15.07    0.86
   3   4   7   17.12    0.83
   3   4   7   15.45    0.72
  -4  -4  -7    4.49    0.41
   4   4   7    4.26    0.43
   4   4   7    3.62    0.40
   4   4   7    4.20    0.33
   4   4   7    4.16    0.39
  -5  -4  -7   30.36    1.27
  -5  -4  -7   30.64    1.60
   5   4   7   28.54    1.61
   5   4   7   30.66    1.40
   5   4   7   29.20    1.45
  -6  -4  -7   49.79    1.95
  -6  -4  -7   44.57    2.42
   6   4   7   48.32    2.13
   6   4   7   42.83    2.44
   6   4   7   49.76    2.19
  -7  -4  -7   33.29    1.45
   7   4   7   33.62    1.63
   7   4   7   33.11    1.68
   7   4   7   30.29    1.85
  -8  -4  -7    0.27    0.29
   8   4   7    0.63    0.51
   8   4   7   -0.02    0.49
   8   4   7    0.47    0.54
  -9  -4  -7    6.67    0.54
   9   4   7    6.75    0.91
   9   4   7    6.89    0.86
   9   4   7    7.00    0.89
 -10  -4  -7    8.06    0.65
  10   4   7    7.18    1.01
  10   4   7    9.38    1.12
  10   4   7    7.28    1.03
 -11  -4  -7    2.32    0.51
  11   4   7    1.67    0.92
  11   4   7    1.94    0.94
  -7   5   7    6.57    0.83
  -6   5   7   16.84    1.11
  -5   5   7   11.02    0.86
  -4   5   7    1.64    0.38
  -4   5   7    1.78    0.46
  -3   5   7    0.26    0.36
  -3   5   7   -0.33    0.25
  -2   5   7   14.95    0.85
  -2   5   7   12.68    0.69
   1  -5  -7  114.01    5.20
   1  -5  -7  101.96    4.42
  -1   5   7  105.18    4.49
  -1   5   7  111.97    5.22
  -1   5   7  110.27    4.04
   0  -5  -7   43.29    2.18
   0   5   7   44.98    1.94
   0   5   7   46.25    2.22
   0   5   7   42.85    1.72
  -1  -5  -7    9.04    0.56
   1   5   7    9.87    0.50
   1   5   7    9.20    0.58
   1   5   7    9.76    0.60
  -2  -5  -7    3.39    0.30
   2   5   7    3.09    0.32
   2   5   7    3.73    0.33
   2   5   7    3.03    0.28
   2   5   7    3.12    0.34
   2   5   7    2.89    0.30
  -3  -5  -7   13.94    0.76
   3   5   7   13.61    0.63
   3   5   7   12.34    0.70
   3   5   7   12.34    0.76
   3   5   7   13.54    0.75
   3   5   7   13.16    0.69
  -4  -5  -7   32.17    1.67
   4   5   7   31.44    1.69
   4   5   7   33.92    1.47
   4   5   7   32.57    1.32
   4   5   7   33.12    1.53
   4   5   7   33.93    1.46
  -5  -5  -7   52.54    2.64
   5   5   7   53.31    2.38
   5   5   7   56.71    2.29
   5   5   7   49.25    2.65
  -6  -5  -7    6.98    0.37
   6   5   7    6.18    0.62
   6   5   7    6.68    0.59
   6   5   7    6.05    0.62
  -7  -5  -7    1.10    0.27
   7   5   7    2.12    0.54
   7   5   7    1.80    0.47
   7   5   7    1.30    0.44
  -8  -5  -7   -0.11    0.26
   8   5   7   -0.22    0.49
   8   5   7   -0.17    0.49
   8   5   7    0.68    0.53
  -9  -5  -7    1.70    0.35
   9   5   7    1.46    0.66
   9   5   7    1.50    0.69
   9   5   7    1.21    0.70
 -10  -5  -7   13.55    0.82
  10   5   7   12.30    1.24
  10   5   7   11.21    1.19
  10   5   7   12.50    1.34
  11   5   7   11.34    1.33
  11   5   7   13.99    1.34
  -6   6   7    3.03    0.51
  -6   6   7    3.94    0.72
  -5   6   7    5.71    0.55
  -5   6   7    6.56    0.75
  -4   6   7    2.76    0.52
  -4   6   7    1.48    0.36
  -3   6   7   16.73    0.95
  -3   6   7   14.35    0.79
  -2   6   7    9.95    0.70
  -2   6   7    9.72    0.56
   1  -6  -7   29.17    1.26
  -1   6   7   30.38    1.24
  -1   6   7   31.24    1.44
   0  -6  -7   20.89    1.12
   0   6   7   21.93    1.16
   0   6   7   21.70    1.07
   0   6   7   21.65    0.93
  -1  -6  -7   13.04    0.71
   1   6   7   12.59    0.60
   1   6   7   12.64    0.72
   1   6   7   11.78    0.71
  -2  -6  -7   11.77    0.64
   2   6   7   10.84    0.63
   2   6   7   11.30    0.70
   2   6   7   10.92    0.66
   2   6   7   10.77    0.55
  -3  -6  -7   35.73    1.72
   3   6   7   34.65    1.38
   3   6   7   34.63    1.62
   3   6   7   33.75    1.73
   3   6   7   34.31    1.73
   3   6   7   33.91    1.52
   3   6   7   35.51    1.53
  -4  -6  -7   66.75    3.08
   4   6   7   62.88    2.65
   4   6   7   60.38    3.10
   4   6   7   62.00    2.79
   4   6   7   64.95    2.66
   5   6   7   13.51    0.87
   5   6   7   14.49    0.74
   5   6   7   14.95    0.82
   5   6   7   13.89    0.86
   6   6   7    1.17    0.41
   6   6   7    0.96    0.36
   6   6   7    1.13    0.39
  -7  -6  -7    0.49    0.24
   7   6   7    0.53    0.42
   7   6   7    0.28    0.42
   7   6   7    0.00    0.46
  -8  -6  -7    4.94    0.42
   8   6   7    5.88    0.71
   8   6   7    5.65    0.77
   8   6   7    5.65    0.74
  -9  -6  -7   14.41    0.83
   9   6   7   16.83    1.32
   9   6   7   16.93    1.30
   9   6   7   17.17    1.21
  10   6   7    7.98    1.11
  10   6   7    9.57    1.05
  10   6   7    8.50    1.10
  11   6   7    1.72    0.98
  11   6   7    1.71    0.92
  -6   7   7    7.61    0.88
  -5   7   7   -0.27    0.56
  -4   7   7    4.53    0.66
  -4   7   7    3.85    0.44
  -3   7   7    7.17    0.67
  -3   7   7    6.27    0.48
  -2   7   7   19.58    1.09
  -2   7   7   20.16    0.91
  -1   7   7   12.94    0.63
  -1   7   7   12.79    0.81
   0   7   7    5.11    0.36
   0   7   7    4.84    0.43
   0   7   7    4.27    0.48
   1   7   7    2.57    0.37
   1   7   7    3.35    0.28
   1   7   7    3.28    0.30
  -2  -7  -7    5.16    0.36
   2   7   7    5.24    0.44
   2   7   7    5.49    0.39
   2   7   7    4.79    0.45
   2   7   7    5.77    0.37
  -3  -7  -7   99.71    4.45
   3   7   7   93.46    3.50
   3   7   7   91.23    3.88
   3   7   7   92.22    3.83
   3   7   7   92.35    4.48
   3   7   7   94.69    4.02
   4   7   7   53.81    2.16
   4   7   7   53.48    2.38
   4   7   7   54.68    2.24
   4   7   7   52.16    2.22
   4   7   7   48.87    2.58
   5   7   7   18.01    0.95
   5   7   7   15.81    0.81
   5   7   7   16.90    0.96
   5   7   7   15.12    0.95
   6   7   7   -0.11    0.31
   6   7   7   -0.19    0.38
   6   7   7    0.16    0.35
   6   7   7    0.20    0.22
   7   7   7    1.00    0.42
   7   7   7    0.44    0.48
   7   7   7    1.50    0.48
   8   7   7   20.66    1.41
   8   7   7   19.52    1.23
   8   7   7   20.79    1.38
   9   7   7   14.76    1.27
   9   7   7   16.78    1.35
   9   7   7   14.49    1.17
  10   7   7    2.87    0.92
  10   7   7    3.32    0.86
  11   7   7   11.49    1.25
  -5   8   7    3.06    0.72
  -4   8   7    5.82    0.75
  -3   8   7   29.48    1.56
  -2   8   7    7.55    0.51
  -2   8   7    6.82    0.67
  -1   8   7    9.30    0.72
  -1   8   7    8.45    0.51
   0   8   7    3.21    0.31
   0   8   7    3.56    0.31
   0   8   7    2.85    0.46
   1   8   7    4.50    0.47
   1   8   7    5.43    0.37
   1   8   7    4.81    0.37
   2   8   7   81.54    3.54
   2   8   7   83.24    3.07
   2   8   7   78.82    3.44
   2   8   7   84.58    3.90
   3   8   7    3.10    0.36
   3   8   7    3.00    0.42
   3   8   7    4.33    0.38
   4   8   7    4.56    0.40
   4   8   7    5.11    0.54
   4   8   7    4.43    0.44
   4   8   7    5.65    0.43
   5   8   7   34.86    1.81
   5   8   7   36.50    1.62
   5   8   7   34.31    1.72
   5   8   7   34.86    1.53
   6   8   7    1.22    0.37
   6   8   7    0.56    0.38
   6   8   7    1.47    0.49
   7   8   7   22.74    1.34
   7   8   7   19.54    1.17
   7   8   7   21.09    1.31
   8   8   7    6.73    0.75
   8   8   7    7.92    0.84
   8   8   7    6.15    0.85
   9   8   7   13.17    1.17
   9   8   7   13.33    1.09
   9   8   7   11.95    1.19
  10   8   7    0.73    0.72
  10   8   7    0.29    0.87
  -3   9   7   12.99    1.00
  -2   9   7   30.89    1.61
  -1   9   7    1.57    0.47
   0   9   7    0.37    0.38
   1   9   7   14.54    0.91
   1   9   7   16.87    0.74
   2   9   7    9.27    0.63
   2   9   7    9.65    0.52
   3   9   7   18.09    1.02
   3   9   7   18.03    0.94
   4   9   7   17.45    0.98
   4   9   7   20.12    1.11
   4   9   7   18.94    0.95
   4   9   7   18.71    0.94
   5   9   7    0.37    0.32
   5   9   7   -0.28    0.37
   5   9   7    0.22    0.25
   6   9   7    2.13    0.39
   6   9   7    1.85    0.53
   6   9   7    2.60    0.43
   7   9   7   15.70    1.14
   7   9   7   16.17    0.98
   7   9   7   15.83    1.07
   8   9   7    8.03    0.84
   8   9   7    9.68    0.90
   8   9   7    8.65    0.96
   9   9   7    4.45    0.77
   9   9   7    3.79    0.81
  10   9   7    1.38    0.91
  10   9   7    0.22    0.71
  -3  10   7    0.48    0.62
  -2  10   7   11.78    0.99
  -1  10   7    0.90    0.53
   0  10   7    2.71    0.53
   1  10   7    9.25    0.72
   2  10   7   24.87    1.24
   3  10   7    7.03    0.65
   3  10   7    7.48    0.57
   4  10   7    2.17    0.36
   4  10   7    1.87    0.46
   4  10   7    2.23    0.36
   5  10   7    8.98    0.62
   5  10   7    7.54    0.57
   5  10   7    8.18    0.77
   6  10   7    1.37    0.34
   6  10   7    1.15    0.41
   6  10   7    1.01    0.49
   7  10   7    8.36    0.74
   7  10   7    7.79    0.84
   7  10   7    6.96    0.69
   7  10   7    7.10    1.07
   8  10   7   21.66    1.79
   8  10   7   19.47    1.39
   8  10   7   20.06    1.24
   9  10   7    0.94    0.71
   9  10   7   -0.21    0.63
  10  10   7    3.66    1.00
  10  10   7    3.79    0.85
  -1  11   7    3.00    0.65
   0  11   7   10.04    0.85
   1  11   7    4.08    0.57
   2  11   7   14.06    0.91
   3  11   7   13.68    0.89
   3  11   7   14.70    0.96
   4  11   7    1.32    0.50
   5  11   7   11.06    0.64
   5  11   7   11.60    0.92
   6  11   7    6.75    0.60
   6  11   7    5.74    0.51
   6  11   7    5.61    0.72
   7  11   7    3.58    0.50
   7  11   7    3.47    0.57
   7  11   7    3.20    0.69
   7  11   7    2.48    1.05
   8  11   7    0.93    0.54
   8  11   7    2.14    0.69
   8  11   7    0.26    1.10
   9  11   7    4.25    0.89
   9  11   7    2.52    0.70
   9  11   7    1.13    1.27
   1  12   7   25.04    1.38
   2  12   7    3.12    0.56
   4  12   7    0.80    0.52
   5  12   7    2.23    0.61
   6  12   7   16.23    1.22
   6  12   7   16.00    0.88
   7  12   7    3.99    0.76
   7  12   7    3.43    1.07
   8  12   7   -1.31    0.63
   8  12   7   -0.91    1.14
   4  13   7    0.64    0.55
   5  13   7    1.41    0.61
   6  13   7   33.73    1.88
   7  13   7   -0.24    0.72
   2   8  -8   15.61    1.08
   2   8  -8   13.58    1.45
   1   8  -8   14.03    1.03
   1   8  -8   15.63    1.42
   0   8  -8    1.20    0.89
   0   8  -8    0.90    0.55
   4   7  -8    8.29    0.78
   4   7  -8    7.33    1.15
   3   7  -8   11.74    0.90
   3   7  -8    9.58    1.28
   2   7  -8    1.93    0.53
   2   7  -8    0.89    0.90
   1   7  -8   16.50    1.41
   1   7  -8   15.72    1.09
   0   7  -8    6.06    0.71
   0   7  -8    5.90    0.95
  -1   7  -8    5.05    0.68
  -1   7  -8    5.09    0.89
  -2   7  -8   -0.36    0.52
  -3   7  -8   10.29    0.85
  -3   7  -8    7.34    0.80
  -6  -6   8   -0.09    0.46
   5   6  -8    0.95    1.00
  -5  -6   8    1.32    0.44
   4   6  -8    2.41    1.01
  -4  -6   8    2.01    0.43
   3   6  -8   14.99    1.38
   3   6  -8   13.78    1.12
   2   6  -8   12.33    1.01
   2   6  -8   12.67    1.27
   2   6  -8   13.51    0.91
   1   6  -8    6.00    0.65
   1   6  -8    5.36    0.97
   1   6  -8    6.50    0.72
   0   6  -8    1.66    0.53
   0   6  -8    2.95    0.54
   0   6  -8    1.95    0.81
  -1   6  -8    5.88    0.88
  -1   6  -8    5.38    0.68
  -1   6  -8    5.12    0.64
  -2   6  -8   24.67    1.35
  -3   6  -8    3.97    0.61
  -4   6  -8    2.91    0.59
  -4   6  -8    2.47    0.58
   6   5  -8    1.30    1.04
   5   5  -8    8.72    1.16
   5   5  -8    7.86    0.93
  -5  -5   8    9.14    0.69
   4   5  -8    5.42    0.73
  -4  -5   8    4.75    0.52
   3   5  -8   38.67    2.29
   3   5  -8   33.75    2.00
  -3  -5   8   36.15    1.60
  -3  -5   8   33.65    1.50
   2   5  -8   27.18    1.87
   2   5  -8   23.16    1.52
  -2  -5   8   26.92    1.14
   1   5  -8    1.37    0.47
   1   5  -8    1.52    0.46
  -1  -5   8    1.49    0.30
   0   5  -8    5.28    0.59
   0   5  -8    5.08    0.65
  -1   5  -8   12.51    0.87
  -1   5  -8   12.52    0.96
  -2   5  -8   39.46    1.87
  -2   5  -8   39.32    2.19
  -3   5  -8   24.69    1.26
  -3   5  -8   21.34    1.44
  -4   5  -8    4.08    0.58
  -5   5  -8    1.46    0.51
  -5   5  -8    1.44    0.51
  -6   5  -8    6.58    0.73
   7   4  -8    0.90    1.07
   6   4  -8    0.40    0.98
   6   4  -8   -0.12    0.61
   5   4  -8    0.89    0.93
   5   4  -8    1.11    0.60
   4   4  -8   28.73    1.81
  -4  -4   8   32.57    1.44
  -4  -4   8   31.37    1.39
   3   4  -8   18.47    1.25
   3   4  -8   20.68    1.52
  -3  -4   8   18.82    0.94
  -3  -4   8   19.17    1.00
   2   4  -8    5.17    0.63
  -2  -4   8    4.87    0.44
   1   4  -8    2.69    0.50
  -1  -4   8    2.78    0.34
   0   4  -8    1.16    0.41
   0  -4   8    1.07    0.26
  -1   4  -8   44.33    2.36
  -1   4  -8   45.00    2.03
   1  -4   8   43.22    1.72
  -2   4  -8   27.11    1.56
  -2   4  -8   24.46    1.32
   2  -4   8   27.03    1.09
  -3   4  -8   22.30    1.44
  -3   4  -8   24.16    1.24
  -4   4  -8    0.80    0.47
  -4   4  -8    0.21    0.41
  -5   4  -8   11.65    0.86
  -5   4  -8   11.47    0.88
  -5   4  -8   11.64    1.03
  -6   4  -8    0.71    0.49
  -6   4  -8    0.94    0.50
   7   3  -8    1.21    1.07
   6   3  -8   -0.21    0.95
   5   3  -8   24.23    1.59
   4   3  -8    4.41    0.66
   4   3  -8    4.23    0.83
  -4  -3   8    4.53    0.44
  -4  -3   8    3.47    0.47
   3   3  -8    8.96    0.71
   3   3  -8    7.12    0.75
  -3  -3   8    8.44    0.61
  -3  -3   8    8.88    0.61
   2   3  -8    4.84    0.52
   2   3  -8    4.82    0.58
  -2  -3   8    5.23    0.46
  -2  -3   8    5.18    0.44
   1   3  -8   13.15    0.92
  -1  -3   8   12.42    0.69
   0   3  -8    6.40    0.63
   0  -3   8    6.24    0.44
  -1   3  -8   23.40    1.42
   1  -3   8   25.03    1.04
  -2   3  -8   30.12    1.50
  -2   3  -8   33.98    1.80
   2  -3   8   31.19    1.28
  -3   3  -8   22.60    1.16
  -3   3  -8   22.54    1.38
   3  -3   8   21.80    0.96
  -4   3  -8    1.54    0.41
  -4   3  -8    1.58    0.50
  -5   3  -8   12.20    1.01
  -5   3  -8   11.57    0.80
  -6   3  -8   29.90    1.51
  -6   3  -8   32.56    1.52
  -6   3  -8   28.86    1.85
  -7   3  -8   15.08    0.96
  -7   3  -8   13.44    0.91
   7   2  -8    7.98    1.22
   6   2  -8   23.03    1.88
   5   2  -8   13.87    1.14
   5   2  -8   17.31    1.41
  -5  -2   8   14.91    0.85
   4   2  -8   16.57    1.24
   4   2  -8   20.79    1.12
  -4  -2   8   20.25    1.00
   3   2  -8    0.81    0.42
   3   2  -8    1.58    0.38
  -3  -2   8    1.39    0.35
  -3  -2   8    1.13    0.31
   2   2  -8    0.55    0.36
   2   2  -8    0.46    0.31
  -2  -2   8    0.42    0.27
  -2  -2   8    0.03    0.26
   1   2  -8   11.64    0.86
  -1  -2   8   12.72    0.66
   0   2  -8   70.75    3.53
   0  -2   8   70.42    2.68
  -1   2  -8   31.78    1.77
   1  -2   8   32.81    1.31
  -2   2  -8   13.81    0.94
  -2   2  -8   12.78    0.80
   2  -2   8   14.52    0.67
  -3   2  -8    2.28    0.39
  -3   2  -8    1.82    0.43
   3  -2   8    2.25    0.41
   3  -2   8    1.91    0.27
  -4   2  -8   -0.06    0.37
  -4   2  -8    0.22    0.33
  -5   2  -8   26.92    1.31
  -5   2  -8   26.29    1.61
   5  -2   8   26.38    1.32
  -6   2  -8   25.25    1.56
  -6   2  -8   24.41    1.21
  -6   2  -8   21.38    1.22
   6  -2   8   24.06    1.27
  -7   2  -8   33.72    2.04
  -7   2  -8   32.66    1.59
  -7   2  -8   34.62    1.64
   7  -2   8   32.26    1.68
  -8   2  -8    1.39    0.45
  -8   2  -8    1.31    0.52
   7   1  -8    6.55    1.11
   6   1  -8   24.65    1.87
  -6  -1   8   23.89    1.25
   5   1  -8   19.05    1.59
  -5  -1   8   17.00    0.96
   4   1  -8   22.21    1.42
   4   1  -8   24.74    1.25
  -4  -1   8   23.72    1.16
   3   1  -8   10.93    0.72
   3   1  -8    9.55    0.82
  -3  -1   8   10.99    0.67
  -3  -1   8   10.60    0.68
   2   1  -8    4.24    0.52
   2   1  -8    5.66    0.49
  -2  -1   8    4.67    0.43
  -2  -1   8    4.76    0.43
   1   1  -8   75.85    3.16
   1   1  -8   68.62    3.65
  -1  -1   8   77.95    2.83
  -1  -1   8   73.01    3.10
   0   1  -8   35.83    1.99
   0  -1   8   40.14    1.53
  -1   1  -8   37.57    2.03
   1  -1   8   39.54    1.54
  -2   1  -8    8.17    0.69
   2  -1   8    8.16    0.48
  -3   1  -8    2.64    0.44
  -3   1  -8    3.12    0.38
   3  -1   8    2.71    0.41
   3  -1   8    2.37    0.28
  -4   1  -8   20.53    1.04
  -4   1  -8   21.79    1.28
   4  -1   8   19.15    1.05
   4  -1   8   20.58    1.24
  -5   1  -8   37.87    1.73
  -5   1  -8   37.31    2.12
   5  -1   8   39.85    1.77
   5  -1   8   39.13    2.12
  -6   1  -8   40.61    1.81
  -6   1  -8   40.89    2.28
   6  -1   8   40.17    1.89
  -7   1  -8    7.72    0.60
  -7   1  -8    6.07    0.60
  -7   1  -8    7.41    0.86
   7  -1   8    5.60    0.67
  -8   1  -8    1.10    0.62
  -8   1  -8    0.72    0.47
  -8   1  -8    0.48    0.38
   8  -1   8    0.59    0.57
  -9   1  -8    2.17    0.55
  -9   1  -8    1.95    0.47
   9  -1   8    2.00    0.70
   7   0  -8    2.97    0.94
  -7   0   8    2.72    0.51
   6   0  -8    3.26    0.95
  -6   0   8    4.92    0.53
   5   0  -8   13.16    1.20
   5   0  -8   14.37    0.93
  -5   0   8   13.85    0.85
   4   0  -8    3.10    0.45
   4   0  -8    3.84    0.56
  -4   0   8    3.26    0.42
   3   0  -8    3.38    0.42
   3   0  -8    3.13    0.47
  -3   0   8    3.52    0.41
  -3   0   8    3.62    0.39
   2   0  -8   17.97    1.11
   2   0  -8   19.10    0.96
  -2   0   8   18.54    0.95
  -2   0   8   18.36    0.89
   1   0  -8    2.15    0.29
   1   0  -8    1.53    0.34
  -1   0   8    1.34    0.30
  -1   0   8    1.67    0.29
   0   0  -8   53.88    2.78
   0   0   8   55.41    2.15
   0   0   8   56.77    2.35
  -1   0  -8   18.16    1.08
   1   0   8   18.89    0.88
   1   0   8   17.82    0.83
  -2   0  -8    0.50    0.29
   2   0   8    0.37    0.21
   2   0   8    0.35    0.19
  -3   0  -8   12.90    0.87
   3   0   8   12.42    0.83
   3   0   8   12.36    0.62
   3   0   8   12.65    0.71
  -4   0  -8   12.81    0.71
  -4   0  -8   12.16    0.88
   4   0   8   13.10    0.87
   4   0   8   11.92    0.62
   4   0   8   11.48    0.73
  -5   0  -8   24.89    1.22
  -5   0  -8   22.47    1.51
   5   0   8   29.37    1.28
   5   0   8   26.57    1.29
   5   0   8   27.12    1.53
  -6   0  -8    7.03    0.76
  -6   0  -8    6.38    0.52
   6   0   8    7.45    0.57
   6   0   8    7.75    0.77
   6   0   8    7.23    0.66
  -7   0  -8    3.14    0.48
  -7   0  -8    4.14    0.68
  -7   0  -8    4.75    0.47
   7   0   8    4.32    0.60
  -8   0  -8    4.60    0.76
  -8   0  -8    3.95    0.53
  -8   0  -8    5.64    0.51
   8   0   8    5.01    0.69
  -9   0  -8   12.71    0.81
  -9   0  -8   11.59    0.86
   9   0   8   11.75    1.06
  -7   1   8    4.09    0.58
   6  -1  -8   13.05    1.22
  -6   1   8   13.25    0.88
   5  -1  -8    8.73    0.71
   5  -1  -8    7.71    0.93
  -5   1   8    7.45    0.61
   4  -1  -8   -0.23    0.31
  -4   1   8   -0.45    0.32
   3  -1  -8    9.96    0.78
   3  -1  -8    9.42    0.63
  -3   1   8   10.93    0.65
  -3   1   8   10.63    0.66
   2  -1  -8   89.07    4.42
   2  -1  -8   90.90    3.80
  -2   1   8   90.75    3.77
  -2   1   8   91.37    3.44
   1  -1  -8   48.05    2.54
   1  -1  -8   49.49    2.17
  -1   1   8   52.36    2.00
  -1   1   8   52.24    2.18
   0  -1  -8   16.25    0.98
   0   1   8   16.32    0.85
   0   1   8   16.49    0.77
   0   1   8   16.41    0.99
   0   1   8   15.39    0.77
  -1  -1  -8    1.31    0.30
   1   1   8    1.38    0.20
   1   1   8    0.92    0.23
  -2  -1  -8    0.47    0.27
   2   1   8    0.00    0.16
   2   1   8    0.36    0.24
   2   1   8    0.30    0.21
  -3  -1  -8   92.23    4.48
   3   1   8   90.43    3.76
   3   1   8   93.45    3.82
   3   1   8   92.29    3.42
   3   1   8   89.18    4.46
  -4  -1  -8   96.53    3.97
  -4  -1  -8   97.68    4.76
   4   1   8   99.88    4.09
   4   1   8   97.25    4.74
   4   1   8   94.45    3.99
   4   1   8   95.61    3.62
  -5  -1  -8    6.52    0.49
  -5  -1  -8    6.35    0.65
   5   1   8    7.32    0.57
   5   1   8    6.67    0.56
   5   1   8    7.06    0.66
  -6  -1  -8   15.57    1.11
  -6  -1  -8   15.70    0.83
   6   1   8   14.99    1.09
   6   1   8   15.43    0.99
   6   1   8   17.33    0.97
  -7  -1  -8    3.97    0.40
  -7  -1  -8    3.32    0.61
  -7  -1  -8    3.92    0.48
   7   1   8    3.21    0.62
   7   1   8    3.89    0.53
   7   1   8    3.28    0.57
  -8  -1  -8   12.20    0.72
  -8  -1  -8   12.68    0.83
   8   1   8   10.30    0.92
  -9  -1  -8    2.59    0.49
   9   1   8    1.04    0.68
  -7   2   8    8.22    0.76
  -6   2   8   26.90    1.39
   5  -2  -8    1.25    0.69
   5  -2  -8    2.40    0.46
  -5   2   8    2.06    0.46
   4  -2  -8    1.95    0.38
  -4   2   8    2.06    0.41
   3  -2  -8    8.63    0.57
  -3   2   8    8.46    0.61
  -3   2   8    7.49    0.57
   2  -2  -8   19.74    0.96
   2  -2  -8   19.93    1.16
  -2   2   8   20.50    0.95
  -2   2   8   19.70    1.02
   1  -2  -8   74.00    3.78
   1  -2  -8   76.96    3.24
  -1   2   8   86.12    3.85
  -1   2   8   75.76    3.25
  -1   2   8   75.59    2.95
   0  -2  -8   33.31    1.77
   0   2   8   34.35    1.40
   0   2   8   32.91    1.53
   0   2   8   36.54    1.81
  -1  -2  -8    3.32    0.38
   1   2   8    3.36    0.38
   1   2   8    3.10    0.25
   1   2   8    3.30    0.39
   1   2   8    3.61    0.32
  -2  -2  -8   20.89    1.21
   2   2   8   21.28    0.95
   2   2   8   21.61    1.21
   2   2   8   22.13    0.99
   2   2   8   24.91    1.24
  -3  -2  -8   52.43    2.70
   3   2   8   58.22    2.70
   3   2   8   52.35    2.34
   3   2   8   52.93    2.29
   3   2   8   53.43    2.07
   3   2   8   51.38    2.68
   3   2   8   54.76    2.27
  -4  -2  -8   40.32    2.08
   4   2   8   39.15    1.58
   4   2   8   43.27    1.77
   4   2   8   39.73    1.80
   4   2   8   35.97    2.05
  -5  -2  -8   40.83    1.71
  -5  -2  -8   38.54    2.11
   5   2   8   38.19    2.10
   5   2   8   40.32    1.79
   5   2   8   40.11    1.82
  -6  -2  -8   16.55    1.13
  -6  -2  -8   16.63    0.84
   6   2   8   17.81    1.00
   6   2   8   17.00    1.02
   6   2   8   16.31    1.14
  -7  -2  -8    2.75    0.41
  -7  -2  -8    4.10    0.38
  -7  -2  -8    3.64    0.58
   7   2   8    3.58    0.61
   7   2   8    2.32    0.52
   7   2   8    3.65    0.55
  -8  -2  -8   22.51    1.06
  -8  -2  -8   21.80    1.15
   8   2   8   20.30    1.34
   8   2   8   23.02    1.35
   8   2   8   23.22    1.54
  -9  -2  -8   11.56    0.81
   9   2   8   10.94    1.01
   9   2   8   10.68    1.04
 -10  -2  -8    1.61    0.49
  10   2   8    1.28    0.80
  -7   3   8   17.90    1.16
  -6   3   8    3.84    0.57
  -5   3   8    8.08    0.68
   4  -3  -8   13.69    0.80
  -4   3   8   12.64    0.83
   3  -3  -8   19.64    0.96
  -3   3   8   18.30    0.94
  -3   3   8   18.51    1.01
   2  -3  -8   31.33    1.38
   2  -3  -8   28.39    1.64
  -2   3   8   31.99    1.33
  -2   3   8   32.88    1.45
   1  -3  -8   32.97    1.44
   1  -3  -8   33.92    1.74
  -1   3   8   33.69    1.52
  -1   3   8   33.36    1.77
  -1   3   8   32.77    1.38
   0  -3  -8    0.28    0.22
   0   3   8    0.15    0.24
   0   3   8    0.37    0.22
   0   3   8    0.04    0.24
  -1  -3  -8   13.67    0.81
   1   3   8   14.38    0.76
   1   3   8   13.24    0.63
   1   3   8   15.95    0.88
   1   3   8   12.48    0.67
  -2  -3  -8   19.56    1.08
   2   3   8   19.80    1.10
   2   3   8   19.12    0.86
   2   3   8   19.82    0.86
  -3  -3  -8   12.46    0.82
   3   3   8   14.28    0.83
   3   3   8   12.99    0.76
   3   3   8   12.82    0.62
   3   3   8   12.69    0.80
   3   3   8   13.30    0.63
   3   3   8   12.41    0.73
  -4  -3  -8   57.17    2.94
   4   3   8   57.33    2.26
   4   3   8   57.65    2.50
   4   3   8   57.59    2.95
   4   3   8   63.89    2.95
   4   3   8   60.05    2.59
  -5  -3  -8   30.42    1.31
  -5  -3  -8   30.09    1.64
   5   3   8   30.28    1.44
   5   3   8   29.31    1.46
   5   3   8   29.59    1.65
  -6  -3  -8   17.64    1.08
  -6  -3  -8   16.28    0.81
   6   3   8   15.99    0.98
   6   3   8   15.28    1.10
   6   3   8   16.23    0.96
  -7  -3  -8    5.22    0.40
   7   3   8    5.13    0.61
   7   3   8    4.67    0.67
   7   3   8    6.43    0.65
  -8  -3  -8   15.32    0.87
   8   3   8   13.75    1.21
   8   3   8   18.19    1.15
   8   3   8   17.13    1.12
  -9  -3  -8   22.55    1.17
   9   3   8   23.97    1.53
   9   3   8   25.85    1.70
   9   3   8   22.19    1.50
 -10  -3  -8    0.11    0.42
  10   3   8    0.18    0.73
  10   3   8   -1.28    0.68
  -7   4   8    2.17    0.63
  -6   4   8    1.06    0.52
  -5   4   8    3.31    0.55
  -4   4   8   17.15    0.93
  -4   4   8   18.51    1.02
   3  -4  -8   17.90    0.88
  -3   4   8   16.59    0.89
  -3   4   8   18.06    0.99
   2  -4  -8    2.80    0.27
  -2   4   8    2.41    0.40
  -2   4   8    1.95    0.34
   1  -4  -8   12.88    0.80
   1  -4  -8   13.05    0.62
  -1   4   8   13.98    0.69
  -1   4   8   12.61    0.76
   0  -4  -8    5.41    0.47
   0   4   8    5.87    0.42
   0   4   8    5.65    0.50
   0   4   8    4.92    0.45
  -1  -4  -8    9.53    0.61
   1   4   8    9.25    0.53
   1   4   8    9.11    0.63
   1   4   8    8.59    0.59
  -2  -4  -8   42.36    2.17
   2   4   8   43.79    1.90
   2   4   8   42.09    1.70
   2   4   8   43.76    1.79
   2   4   8   45.03    2.20
  -3  -4  -8   43.25    2.30
   3   4   8   46.69    1.99
   3   4   8   48.99    2.32
   3   4   8   47.33    1.93
   3   4   8   46.29    2.32
   3   4   8   45.35    1.81
   3   4   8   45.16    2.06
  -4  -4  -8   14.54    0.93
   4   4   8   14.97    0.95
   4   4   8   16.07    0.89
   4   4   8   18.32    0.96
   4   4   8   16.31    0.73
   4   4   8   15.58    0.86
  -5  -4  -8    1.55    0.34
   5   4   8    1.59    0.36
   5   4   8    2.27    0.41
   5   4   8    2.05    0.36
  -6  -4  -8    9.51    0.50
   6   4   8    7.23    0.73
   6   4   8    8.39    0.68
   6   4   8    9.36    0.72
   7   4   8    5.61    0.63
   7   4   8    5.79    0.66
   7   4   8    5.70    0.69
  -8  -4  -8   42.94    1.90
   8   4   8   44.18    2.47
   8   4   8   45.04    2.17
   8   4   8   43.11    2.18
  -9  -4  -8   10.30    0.74
   9   4   8   10.25    1.01
   9   4   8   11.96    1.06
   9   4   8   11.85    1.15
 -10  -4  -8   16.13    0.98
  10   4   8   18.83    1.42
  10   4   8   17.44    1.50
  10   4   8   16.32    1.39
  -6   5   8    1.56    0.62
  -6   5   8    0.55    0.48
  -5   5   8    9.41    0.71
  -5   5   8    7.29    0.73
  -4   5   8   28.43    1.40
  -4   5   8   25.91    1.25
  -3   5   8   65.93    2.86
  -3   5   8   65.18    2.58
  -2   5   8   12.07    0.80
  -2   5   8   13.27    0.70
   1  -5  -8   22.81    1.00
  -1   5   8   24.40    1.04
  -1   5   8   22.80    1.16
   0   5   8    1.71    0.27
   0   5   8    1.18    0.32
   0   5   8    0.81    0.21
  -1  -5  -8   43.36    2.14
   1   5   8   44.52    1.91
   1   5   8   41.86    1.70
  -2  -5  -8   97.22    4.57
   2   5   8   95.56    3.56
   2   5   8   93.59    3.96
  -3  -5  -8   14.51    0.84
   3   5   8   14.15    0.77
   3   5   8   15.04    0.80
   3   5   8   15.13    0.83
   3   5   8   12.31    0.83
   3   5   8   14.13    0.84
   3   5   8   15.25    0.70
   3   5   8   14.92    0.63
  -4  -5  -8    6.15    0.51
   4   5   8    6.51    0.51
   4   5   8    7.37    0.54
   4   5   8    6.29    0.44
   4   5   8    5.22    0.52
   4   5   8    6.28    0.48
   4   5   8    5.89    0.54
   5   5   8   13.97    0.93
   5   5   8   14.76    0.87
   5   5   8   14.64    0.87
  -6  -5  -8    4.27    0.30
   6   5   8    4.39    0.55
   6   5   8    4.13    0.51
   6   5   8    2.99    0.49
   7   5   8   28.62    1.55
   7   5   8   30.83    1.61
   7   5   8   30.39    1.75
  -8  -5  -8    8.48    0.56
   8   5   8    7.87    0.85
   8   5   8    8.44    0.92
   8   5   8    8.65    0.83
  -9  -5  -8   10.24    0.68
   9   5   8    8.44    0.99
   9   5   8   11.06    1.10
   9   5   8    8.24    0.94
 -10  -5  -8   -0.07    0.37
  10   5   8   -0.10    0.76
  10   5   8   -0.40    0.69
  10   5   8   -0.39    0.76
  -6   6   8    4.49    0.59
  -6   6   8    3.33    0.71
  -5   6   8   28.08    1.32
  -5   6   8   27.81    1.49
  -4   6   8    4.57    0.62
  -4   6   8    3.16    0.46
  -3   6   8   12.43    0.87
  -3   6   8   13.62    0.77
  -2   6   8   34.73    1.45
  -2   6   8   34.69    1.65
  -1   6   8    0.58    0.34
  -1   6   8   -0.10    0.24
   0   6   8    8.89    0.56
   0   6   8   10.48    0.67
   1   6   8   48.41    1.87
   1   6   8   47.75    2.38
   1   6   8   47.70    2.10
  -2  -6  -8   30.24    1.51
   2   6   8   29.92    1.55
   2   6   8   28.72    1.37
   2   6   8   30.92    1.24
   3   6   8   65.73    2.84
   3   6   8   63.60    2.46
   3   6   8   61.45    2.70
   3   6   8   69.49    3.16
   3   6   8   63.15    3.15
   3   6   8   64.71    2.74
   4   6   8    5.28    0.50
   4   6   8    4.40    0.43
   4   6   8    3.93    0.36
   4   6   8    4.33    0.41
   4   6   8    4.57    0.44
   5   6   8    0.70    0.27
   5   6   8    0.36    0.36
   5   6   8    0.29    0.28
   5   6   8    0.77    0.32
   6   6   8   15.39    1.03
   6   6   8   16.68    1.03
   6   6   8   15.05    0.98
  -7  -6  -8   56.68    2.29
   7   6   8   54.31    2.59
   7   6   8   55.49    2.50
   7   6   8   52.11    2.86
  -8  -6  -8    5.71    0.45
   8   6   8    6.02    0.72
   8   6   8    5.90    0.79
   8   6   8    6.07    0.79
  -9  -6  -8    1.55    0.35
   9   6   8    2.46    0.77
   9   6   8    0.74    0.63
   9   6   8    1.44    0.66
  10   6   8   -0.72    0.71
  10   6   8    1.33    0.87
  -5   7   8    0.48    0.63
  -5   7   8    0.13    0.39
  -4   7   8    5.14    0.51
  -4   7   8    7.02    0.72
  -3   7   8    3.06    0.41
  -3   7   8    3.05    0.55
  -2   7   8    4.40    0.54
  -2   7   8    4.17    0.41
  -1   7   8    0.64    0.40
  -1   7   8    0.41    0.26
   0   7   8   33.07    1.57
   0   7   8   34.11    1.38
   1   7   8   34.35    1.59
   1   7   8   34.36    1.38
   2   7   8    1.90    0.28
   2   7   8    1.91    0.27
   2   7   8    2.17    0.36
   3   7   8    0.12    0.21
   3   7   8    0.14    0.21
   3   7   8    0.19    0.27
   3   7   8    0.59    0.32
   3   7   8    0.36    0.27
   4   7   8    0.17    0.25
   4   7   8   -0.05    0.28
   4   7   8    0.33    0.33
   4   7   8    0.46    0.25
   5   7   8   23.99    1.15
   5   7   8   21.71    1.22
   5   7   8   21.15    1.06
   5   7   8   20.92    1.22
   6   7   8   13.15    0.93
   6   7   8   14.60    0.77
   6   7   8   14.78    1.01
   6   7   8   15.74    0.97
  -7  -7  -8    7.88    0.50
   7   7   8    7.26    0.69
   7   7   8    6.91    0.72
   7   7   8    7.39    0.53
   7   7   8    7.21    0.78
   8   7   8    1.17    0.54
   8   7   8    0.54    0.51
   8   7   8    0.62    0.61
   9   7   8   -0.11    0.70
   9   7   8   -0.08    0.57
   9   7   8    0.89    0.63
  10   7   8    4.95    0.97
  10   7   8    6.42    0.95
  -5   8   8    9.69    0.98
  -4   8   8    5.27    0.74
  -3   8   8    0.03    0.53
  -2   8   8    0.84    0.30
  -2   8   8    0.21    0.46
  -1   8   8   15.65    0.77
  -1   8   8   15.16    0.94
   0   8   8   53.16    2.01
   0   8   8   50.01    2.30
   1   8   8   19.65    1.03
   1   8   8   18.78    0.86
   2   8   8   28.99    1.17
   2   8   8   27.07    1.32
   3   8   8    0.60    0.24
   3   8   8    0.91    0.35
   3   8   8    0.27    0.28
   4   8   8   22.19    1.20
   4   8   8   22.71    1.10
   4   8   8   21.91    1.20
   4   8   8   22.76    1.08
   5   8   8   59.92    2.98
   5   8   8   58.59    2.54
   5   8   8   61.12    2.60
   5   8   8   61.60    2.75
   6   8   8   33.86    1.48
   6   8   8   32.31    1.78
   6   8   8   33.76    1.60
   6   8   8   32.77    1.72
   7   8   8    2.89    0.63
   7   8   8    2.16    0.49
   7   8   8    2.12    0.53
   8   8   8    4.54    0.78
   8   8   8    5.23    0.69
   8   8   8    5.16    0.70
   9   8   8    3.55    0.73
   9   8   8    3.88    0.80
  10   8   8    8.97    1.09
  10   8   8    9.33    1.19
  -4   9   8    3.89    0.74
  -3   9   8    5.39    0.74
  -2   9   8    1.36    0.54
  -1   9   8   18.18    1.08
   0   9   8    1.22    0.26
   0   9   8    0.97    0.42
   1   9   8   11.65    0.60
   1   9   8   10.19    0.74
   2   9   8   24.38    1.02
   2   9   8   22.58    1.17
   3   9   8    8.27    0.69
   3   9   8    8.46    0.63
   4   9   8    3.82    0.42
   4   9   8    2.99    0.39
   4   9   8    3.42    0.35
   4   9   8    3.19    0.52
   5   9   8    5.77    0.54
   5   9   8    6.83    0.69
   5   9   8    6.92    0.50
   5   9   8    6.94    0.58
   6   9   8   20.41    1.21
   6   9   8   19.73    1.21
   6   9   8   21.76    1.16
   7   9   8    7.28    0.73
   7   9   8    7.20    0.78
   7   9   8    7.53    0.71
   8   9   8    1.50    0.67
   8   9   8    0.57    0.55
   8   9   8   -0.04    0.48
   9   9   8    3.04    0.70
   9   9   8    2.74    0.83
  10   9   8    0.41    0.89
  10   9   8    1.21    0.78
  -3  10   8    1.57    0.66
  -2  10   8   23.43    1.37
  -1  10   8    2.44    0.59
   0  10   8   11.71    0.85
   1  10   8    1.48    0.43
   2  10   8    0.60    0.38
   3  10   8    7.85    0.61
   3  10   8    8.02    0.69
   4  10   8    9.44    0.81
   4  10   8   11.21    0.69
   4  10   8   10.68    0.71
   5  10   8   18.72    1.18
   5  10   8   19.20    1.02
   5  10   8   17.14    1.00
   6  10   8    0.80    0.42
   6  10   8    1.61    0.55
   6  10   8    0.51    0.33
   7  10   8   -0.26    0.52
   7  10   8   -0.15    0.37
   7  10   8   -0.10    0.46
   8  10   8    1.62    0.71
   8  10   8    0.69    0.58
   9  10   8    5.85    0.90
   9  10   8    5.17    0.80
  10  10   8    5.74    0.91
  -2  11   8    3.63    0.72
  -1  11   8   14.92    1.07
   0  11   8    2.29    0.56
   1  11   8    0.46    0.47
   2  11   8   17.93    1.01
   3  11   8    0.94    0.41
   4  11   8    9.26    0.81
   5  11   8    5.95    0.70
   6  11   8    7.13    0.60
   6  11   8    7.56    0.82
   6  11   8    7.13    0.66
   7  11   8   -0.15    0.60
   7  11   8    0.18    0.46
   8  11   8   17.43    1.22
   8  11   8   14.74    1.25
   9  11   8    0.82    0.67
   9  11   8    2.11    0.78
   0  12   8    1.12    0.58
   1  12   8    1.10    0.55
   2  12   8    6.41    0.69
   4  12   8   25.31    1.45
   5  12   8   -0.93    0.55
   6  12   8   -0.01    0.61
   6  12   8    0.18    0.25
   7  12   8    7.71    0.87
   8  12   8   -0.47    0.69
   5  13   8   -0.54    0.59
   6  13   8    0.20    0.66
   2   7  -9    2.41    1.01
   2   7  -9    2.87    0.62
   1   7  -9    8.22    1.20
   1   7  -9   10.23    0.90
   0   7  -9    2.05    0.60
   0   7  -9    1.28    0.93
  -1   7  -9    6.60    0.79
  -1   7  -9    6.03    1.00
   4   6  -9    0.34    1.02
   3   6  -9    0.99    0.96
   2   6  -9    8.90    1.21
   2   6  -9   10.35    0.85
   1   6  -9    4.22    1.03
   1   6  -9    4.68    0.64
   0   6  -9   13.20    0.99
   0   6  -9   14.08    1.32
  -1   6  -9   11.80    0.92
  -1   6  -9    8.99    1.14
  -2   6  -9    0.88    0.55
  -3   6  -9   -0.02    0.52
   5   5  -9   22.71    1.95
  -5  -5   9   20.88    1.17
   4   5  -9    7.66    1.14
  -4  -5   9   10.28    0.73
   3   5  -9    4.26    1.04
   3   5  -9    3.28    0.67
  -3  -5   9    3.23    0.45
   2   5  -9    5.15    1.03
   2   5  -9    4.45    0.69
  -2  -5   9    4.79    0.47
   1   5  -9   25.88    1.37
   1   5  -9   25.20    1.56
  -1  -5   9   24.79    1.12
   0   5  -9   23.44    1.51
   0   5  -9   25.12    1.33
  -1   5  -9   16.73    1.20
  -1   5  -9   16.96    1.10
  -2   5  -9    0.04    0.49
  -2   5  -9   -0.31    0.46
  -3   5  -9    0.83    0.49
  -4   5  -9   29.52    1.55
  -5   5  -9   29.06    1.57
  -5   5  -9   29.51    1.58
   6   4  -9   13.94    1.53
  -6  -4   9   13.12    0.94
   5   4  -9    0.30    0.62
   5   4  -9    2.31    1.02
  -5  -4   9   -0.18    0.42
   4   4  -9    0.37    0.84
   4   4  -9    0.36    0.56
  -4  -4   9    0.11    0.41
   3   4  -9    1.15    0.82
   3   4  -9    1.82    0.57
  -3  -4   9    1.92    0.38
  -3  -4   9    1.87    0.42
   2   4  -9   21.85    1.45
  -2  -4   9   24.22    1.19
  -2  -4   9   23.39    1.10
   1   4  -9   14.25    1.06
  -1  -4   9   14.47    0.77
   0   4  -9   17.04    1.20
   0  -4   9   18.50    0.86
  -1   4  -9    3.86    0.58
  -1   4  -9    2.93    0.53
   1  -4   9    2.91    0.34
  -2   4  -9    0.69    0.47
  -2   4  -9    1.42    0.45
  -3   4  -9   15.58    1.02
  -3   4  -9   16.98    1.22
  -4   4  -9    3.61    0.57
  -4   4  -9    4.35    0.72
  -5   4  -9    9.05    0.78
  -6   4  -9   22.27    1.31
  -6   4  -9   22.14    1.25
   6   3  -9    1.77    1.07
   5   3  -9    0.70    0.92
  -5  -3   9    0.05    0.43
   4   3  -9   14.22    1.12
  -4  -3   9   14.58    0.84
  -4  -3   9   13.72    0.89
   3   3  -9   14.70    1.15
  -3  -3   9   16.73    0.87
  -3  -3   9   15.17    0.87
   2   3  -9   19.84    1.31
  -2  -3   9   21.29    1.08
  -2  -3   9   20.52    1.01
   1   3  -9   31.51    1.86
  -1  -3   9   34.80    1.41
   0   3  -9   15.43    1.06
   0  -3   9   14.54    0.75
  -1   3  -9    1.18    0.45
   1  -3   9    1.82    0.30
  -2   3  -9    2.88    0.50
  -2   3  -9    2.73    0.52
   2  -3   9    2.42    0.32
  -3   3  -9   35.81    1.67
  -3   3  -9   34.19    1.98
   3  -3   9   34.05    1.41
  -4   3  -9   16.15    1.17
  -4   3  -9   15.00    0.96
  -5   3  -9   23.34    1.22
  -5   3  -9   21.72    1.50
  -6   3  -9   -0.16    0.46
  -6   3  -9    0.44    0.45
  -7   3  -9    0.75    0.51
  -7   3  -9    1.53    0.50
   6   2  -9    4.07    1.10
   5   2  -9    7.00    1.12
  -5  -2   9    5.90    0.65
  -5  -2   9    6.22    0.56
   4   2  -9   11.83    1.05
  -4  -2   9   13.33    0.83
  -4  -2   9   15.19    0.83
   3   2  -9    4.41    0.63
  -3  -2   9    5.04    0.48
  -3  -2   9    4.61    0.50
   2   2  -9   14.65    1.04
   2   2  -9   15.85    0.92
  -2  -2   9   15.88    0.85
  -2  -2   9   13.89    0.80
   1   2  -9   17.84    1.13
  -1  -2   9   16.24    0.84
   0   2  -9    0.21    0.37
   0  -2   9    0.58    0.27
  -1   2  -9    0.06    0.34
   1  -2   9    0.33    0.25
  -2   2  -9   18.95    1.21
   2  -2   9   18.84    0.86
  -3   2  -9   49.04    2.18
  -3   2  -9   49.87    2.61
   3  -2   9   48.02    1.91
  -4   2  -9   22.27    1.18
  -4   2  -9   23.44    1.45
  -5   2  -9    3.30    0.61
  -5   2  -9    3.75    0.49
  -6   2  -9    0.01    0.53
  -6   2  -9   -0.21    0.40
   6  -2   9    0.97    0.46
  -7   2  -9    6.80    0.63
  -7   2  -9    4.94    0.63
  -7   2  -9    4.56    0.81
   7  -2   9    4.86    0.67
   7   1  -9    2.62    1.08
   6   1  -9    2.15    1.04
  -6  -1   9    1.61    0.45
   5   1  -9    2.11    0.93
  -5  -1   9    2.45    0.43
  -5  -1   9    2.86    0.52
  -4  -1   9   59.79    2.43
  -4  -1   9   58.91    2.55
   3   1  -9   29.22    1.36
   3   1  -9   21.84    1.51
  -3  -1   9   26.69    1.25
  -3  -1   9   25.80    1.23
   2   1  -9   17.49    0.93
   2   1  -9   15.29    1.07
  -2  -1   9   15.98    0.84
  -2  -1   9   15.81    0.87
   1   1  -9   17.08    1.12
  -1  -1   9   16.49    0.87
  -1  -1   9   19.57    0.95
   0   1  -9    0.49    0.33
   0  -1   9    0.46    0.26
  -1   1  -9   15.84    1.03
   1  -1   9   15.70    0.78
  -2   1  -9   45.36    2.33
   2  -1   9   42.77    1.74
  -3   1  -9   43.20    1.98
  -3   1  -9   45.26    2.38
   3  -1   9   45.65    2.34
   3  -1   9   43.94    1.76
  -4   1  -9   50.34    2.24
  -4   1  -9   52.75    2.71
   4  -1   9   49.93    1.99
   4  -1   9   50.72    2.66
  -5   1  -9    0.62    0.46
  -5   1  -9   -0.07    0.34
   5  -1   9    0.55    0.40
  -6   1  -9    1.18    0.41
  -6   1  -9    1.46    0.55
   6  -1   9    1.54    0.47
  -7   1  -9    5.67    0.84
  -7   1  -9    6.62    0.60
  -7   1  -9    7.68    0.68
   7  -1   9    8.16    0.76
  -8   1  -9   45.01    2.06
  -8   1  -9   43.97    2.10
   8  -1   9   48.61    2.25
   7   0  -9    4.00    1.09
   6   0  -9    0.47    0.89
  -6   0   9   -0.13    0.42
   5   0  -9   10.37    1.18
  -5   0   9   11.13    0.79
   4   0  -9   15.48    0.96
  -4   0   9   14.57    0.89
  -4   0   9   15.25    0.90
   3   0  -9   11.30    0.94
   3   0  -9   14.02    0.81
  -3   0   9   13.62    0.79
  -3   0   9   12.98    0.77
   2   0  -9   17.26    1.13
   2   0  -9   18.99    0.97
  -2   0   9   18.49    0.93
  -2   0   9   17.48    0.94
   1   0  -9    5.69    0.59
   1   0  -9    6.20    0.49
  -1   0   9    6.27    0.53
  -1   0   9    6.93    0.50
   0   0  -9    1.41    0.37
   0   0   9    1.49    0.30
  -1   0  -9   17.28    1.07
   1   0   9   16.62    0.83
  -2   0  -9   23.15    1.36
   2   0   9   23.94    1.03
  -3   0  -9    8.21    0.73
   3   0   9    7.91    0.69
   3   0   9    9.08    0.53
  -4   0  -9   18.08    1.14
  -4   0  -9   17.43    0.92
   4   0   9   15.99    1.10
   4   0   9   18.40    0.98
   4   0   9   16.34    0.81
  -5   0  -9    0.65    0.43
  -5   0  -9    0.55    0.32
   5   0   9    0.74    0.38
   5   0   9    0.82    0.41
  -6   0  -9    3.77    0.63
  -6   0  -9    3.11    0.44
   6   0   9    4.33    0.58
  -7   0  -9   14.49    0.86
  -7   0  -9   14.60    0.89
  -7   0  -9   14.66    1.19
   7   0   9   13.13    0.99
  -8   0  -9    5.07    0.60
  -8   0  -9    6.72    0.58
   8   0   9    5.89    0.78
  -9   0  -9    7.21    0.63
  -9   0  -9    7.29    0.73
   9   0   9    7.01    0.90
  -7   1   9    1.40    0.53
   6  -1  -9    3.01    0.95
  -6   1   9    2.06    0.50
   5  -1  -9   14.94    1.30
  -5   1   9   14.66    0.94
   4  -1  -9   11.29    0.77
  -4   1   9   10.46    0.76
  -4   1   9   10.00    0.74
   3  -1  -9   54.89    2.24
  -3   1   9   47.97    2.04
  -3   1   9   46.53    2.18
   2  -1  -9    7.24    0.54
   2  -1  -9    7.81    0.68
  -2   1   9    7.07    0.56
  -2   1   9    7.21    0.55
   1  -1  -9    6.29    0.48
   1  -1  -9    5.61    0.57
  -1   1   9    5.71    0.48
  -1   1   9    7.08    0.54
   0  -1  -9   65.05    3.23
   0   1   9   66.29    2.77
   0   1   9   65.22    2.72
   0   1   9   62.26    2.51
  -1  -1  -9   54.05    2.76
   1   1   9   55.58    2.32
   1   1   9   54.07    2.14
  -2  -1  -9   48.28    2.53
   2   1   9   50.61    2.12
   2   1   9   48.85    1.94
  -3  -1  -9    0.49    0.33
   3   1   9    0.63    0.25
   3   1   9    0.75    0.32
  -4  -1  -9    0.27    0.34
   4   1   9   -0.03    0.29
   4   1   9   -0.01    0.32
   4   1   9    0.13    0.24
  -5  -1  -9    7.12    0.71
  -5  -1  -9    5.79    0.49
   5   1   9    6.96    0.59
   5   1   9    5.95    0.66
   5   1   9    7.26    0.56
  -6  -1  -9   38.81    1.69
  -6  -1  -9   36.23    2.11
   6   1   9   37.58    1.80
   6   1   9   37.69    2.13
   6   1   9   37.61    1.79
  -7  -1  -9   42.37    1.87
   7   1   9   40.64    2.03
   7   1   9   42.23    2.38
   7   1   9   43.81    2.04
  -8  -1  -9    3.08    0.41
  -8  -1  -9    2.38    0.46
   8   1   9    1.88    0.62
  -9  -1  -9   -0.09    0.43
   9   1   9   -0.41    0.64
  -7   2   9    2.76    0.58
  -6   2   9    3.54    0.55
  -5   2   9    0.73    0.43
  -5   2   9   -0.81    0.42
  -4   2   9   25.20    1.23
  -4   2   9   25.35    1.30
   3  -2  -9    9.07    0.63
  -3   2   9   10.69    0.69
  -3   2   9    9.47    0.69
   2  -2  -9    1.79    0.30
  -2   2   9    1.49    0.36
  -2   2   9    1.22    0.34
   1  -2  -9    0.64    0.23
   1  -2  -9    0.38    0.30
  -1   2   9    0.74    0.30
  -1   2   9    1.00    0.32
   0  -2  -9   50.21    2.53
   0   2   9   51.06    1.98
   0   2   9   48.25    2.17
  -1  -2  -9   52.11    2.77
   1   2   9   57.53    2.33
   1   2   9   55.27    2.16
   1   2   9   57.95    2.81
   1   2   9   53.69    2.39
  -2  -2  -9   20.17    1.13
   2   2   9   18.47    0.88
   2   2   9   19.03    0.89
  -3  -2  -9   69.99    3.49
   3   2   9   67.47    3.47
   3   2   9   69.82    2.68
   3   2   9   72.45    2.94
  -4  -2  -9    8.25    0.70
   4   2   9    7.93    0.68
   4   2   9    8.71    0.62
   4   2   9    8.28    0.63
   4   2   9    7.69    0.52
  -5  -2  -9   26.63    1.58
  -5  -2  -9   27.42    1.26
   5   2   9   30.01    1.40
   5   2   9   27.19    1.35
   5   2   9   26.56    1.57
  -6  -2  -9   30.14    1.37
  -6  -2  -9   27.17    1.73
   6   2   9   31.45    1.52
   6   2   9   30.19    1.52
   6   2   9   31.74    1.76
  -7  -2  -9   18.48    0.94
   7   2   9   19.58    1.15
   7   2   9   18.24    1.31
   7   2   9   18.89    1.14
  -8  -2  -9   22.32    1.21
  -8  -2  -9   25.00    1.13
   8   2   9   21.09    1.41
   8   2   9   23.98    1.36
   8   2   9   23.44    1.60
  -9  -2  -9    5.57    0.59
   9   2   9    3.69    0.80
  -6   3   9   23.21    1.27
  -6   3   9   23.33    1.28
  -5   3   9   28.01    1.41
  -5   3   9   25.88    1.34
  -4   3   9    0.96    0.44
  -4   3   9   -0.09    0.38
  -3   3   9    3.35    0.49
  -3   3   9    3.37    0.45
   2  -3  -9    5.45    0.41
  -2   3   9    4.32    0.48
  -2   3   9    3.84    0.44
   1  -3  -9    7.03    0.45
  -1   3   9    7.53    0.53
  -1   3   9    6.95    0.56
   0  -3  -9   33.33    1.81
   0   3   9   36.90    1.61
   0   3   9   35.17    1.46
  -1  -3  -9   28.72    1.53
   1   3   9   28.50    1.35
   1   3   9   28.53    1.22
  -2  -3  -9   40.19    2.16
   2   3   9   42.25    1.88
   2   3   9   43.55    2.19
   2   3   9   42.51    1.79
   2   3   9   43.22    1.70
  -3  -3  -9    5.93    0.55
   3   3   9    6.24    0.39
   3   3   9    6.78    0.52
   3   3   9    5.41    0.43
   3   3   9    5.85    0.54
  -4  -3  -9   23.61    1.39
   4   3   9   25.68    1.25
   4   3   9   24.25    1.23
   4   3   9   25.77    1.41
   4   3   9   24.77    1.08
  -5  -3  -9    3.16    0.47
   5   3   9    3.10    0.49
   5   3   9    3.03    0.44
   5   3   9    3.82    0.48
  -6  -3  -9   26.27    1.17
   6   3   9   26.72    1.33
   6   3   9   25.47    1.35
   6   3   9   23.26    1.50
  -7  -3  -9    8.29    0.54
   7   3   9    7.59    0.82
   7   3   9    8.22    0.75
   7   3   9    7.76    0.74
  -8  -3  -9    3.30    0.48
   8   3   9    3.46    0.64
   8   3   9    3.83    0.69
   8   3   9    4.22    0.74
  -9  -3  -9    5.92    0.58
   9   3   9    4.35    0.78
   9   3   9    7.54    0.85
   9   3   9    5.67    0.92
 -10  -3  -9   -0.39    0.43
  10   3   9   -0.78    0.68
  -6   4   9    4.46    0.66
  -6   4   9    3.04    0.60
  -5   4   9   21.67    1.15
  -5   4   9   21.26    1.20
  -4   4   9    7.27    0.64
  -4   4   9    6.75    0.65
  -3   4   9    0.76    0.37
  -3   4   9    1.58    0.43
  -2   4   9    7.40    0.61
  -2   4   9    8.06    0.58
  -1   4   9   21.07    1.07
  -1   4   9   19.96    0.96
   0   4   9   13.44    0.72
   0   4   9   13.69    0.80
  -1  -4  -9   36.42    1.93
   1   4   9   38.90    1.55
   1   4   9   38.49    1.71
  -2  -4  -9    5.53    0.52
   2   4   9    5.77    0.43
   2   4   9    7.13    0.54
   2   4   9    6.27    0.34
  -3  -4  -9    2.06    0.33
   3   4   9    1.92    0.33
   3   4   9    1.68    0.34
   3   4   9    1.75    0.19
   3   4   9    2.33    0.30
   3   4   9    1.60    0.32
  -4  -4  -9   22.56    1.30
   4   4   9   24.29    1.21
   4   4   9   22.34    1.14
   4   4   9   23.74    1.02
   4   4   9   21.67    1.30
   5   4   9   62.60    3.31
   5   4   9   68.01    2.92
   5   4   9   67.48    2.84
  -6  -4  -9   15.16    0.78
   6   4   9   15.87    1.01
   6   4   9   15.31    1.05
   6   4   9   15.11    0.94
   7   4   9    3.46    0.57
   7   4   9    2.60    0.58
   7   4   9    2.53    0.54
  -8  -4  -9    0.40    0.35
   8   4   9    0.70    0.56
   8   4   9    0.17    0.51
   8   4   9    0.35    0.56
  -9  -4  -9    4.39    0.51
   9   4   9    4.76    0.85
   9   4   9    4.65    0.82
   9   4   9    5.38    0.84
 -10  -4  -9   27.60    1.43
  10   4   9   29.79    1.82
  10   4   9   31.59    1.87
  -6   5   9    6.36    0.73
  -6   5   9    8.14    0.83
  -5   5   9    4.72    0.65
  -5   5   9    4.38    0.59
  -4   5   9    0.84    0.47
  -4   5   9   -0.27    0.39
  -3   5   9   10.37    0.71
  -3   5   9   10.54    0.79
  -2   5   9    5.08    0.50
  -2   5   9    7.11    0.62
  -1   5   9   46.79    2.04
  -1   5   9   43.67    1.84
   0   5   9   31.53    1.48
   0   5   9   31.41    1.33
   1   5   9    0.70    0.26
   1   5   9    0.48    0.32
   2   5   9    9.66    0.66
   2   5   9   10.52    0.59
   3   5   9    5.33    0.48
   3   5   9    5.94    0.51
   3   5   9    5.15    0.47
   3   5   9    5.91    0.52
   3   5   9    5.45    0.43
   4   5   9   18.47    0.98
   4   5   9   16.96    0.83
   4   5   9   16.50    0.91
   4   5   9   17.69    0.93
   4   5   9   16.96    1.03
   5   5   9   38.64    1.84
   5   5   9   39.58    1.78
   5   5   9   38.20    2.06
  -6  -5  -9   33.18    1.40
   6   5   9   33.00    1.63
   6   5   9   31.07    1.81
   6   5   9   32.30    1.57
   7   5   9    3.63    0.61
   7   5   9    3.69    0.61
   7   5   9    2.65    0.53
  -8  -5  -9   14.76    0.84
   8   5   9   16.12    1.16
   8   5   9   14.05    1.22
   8   5   9   15.95    1.14
  -9  -5  -9    8.41    0.62
   9   5   9    8.93    0.97
   9   5   9    6.48    0.96
   9   5   9    8.78    0.98
 -10  -5  -9    3.80    0.51
  10   5   9    6.32    0.98
  10   5   9    4.94    0.93
  -5   6   9    2.44    0.64
  -5   6   9    3.08    0.53
  -4   6   9    3.38    0.50
  -4   6   9    4.07    0.62
  -3   6   9    5.43    0.53
  -3   6   9    7.09    0.67
  -2   6   9   48.74    1.98
  -1   6   9   22.63    1.19
  -1   6   9   22.50    1.04
   0   6   9   12.40    0.78
   0   6   9   12.02    0.67
   1   6   9    3.74    0.37
   1   6   9    3.98    0.46
   2   6   9    7.16    0.56
   2   6   9    7.88    0.51
   3   6   9    6.89    0.55
   3   6   9    7.28    0.60
   3   6   9    7.49    0.50
   3   6   9    6.85    0.54
   4   6   9   38.72    1.73
   4   6   9   36.04    1.69
   4   6   9   40.11    1.83
   4   6   9   37.08    1.96
   4   6   9   38.40    1.55
   5   6   9   54.13    2.39
   5   6   9   49.85    2.24
   5   6   9   49.03    2.62
   5   6   9   53.99    2.29
   6   6   9    0.66    0.39
   6   6   9    0.59    0.47
   6   6   9    0.86    0.39
   7   6   9    0.46    0.46
   7   6   9    0.48    0.43
   7   6   9    1.03    0.54
  -8  -6  -9    0.77    0.32
   8   6   9   -0.32    0.51
   8   6   9   -0.58    0.48
   8   6   9    0.33    0.60
  -9  -6  -9   15.81    0.89
   9   6   9   15.87    1.21
   9   6   9   15.52    1.36
   9   6   9   16.82    1.32
  10   6   9   16.77    1.39
  10   6   9   12.77    1.24
  -5   7   9    2.93    0.71
  -5   7   9    3.59    0.53
  -4   7   9    3.50    0.50
  -4   7   9    3.75    0.63
  -3   7   9    0.93    0.37
  -3   7   9    2.42    0.53
  -2   7   9   11.81    0.72
  -2   7   9   11.82    0.86
  -1   7   9   22.67    1.03
  -1   7   9   21.42    1.18
   0   7   9    0.27    0.27
   0   7   9    0.28    0.36
   1   7   9    0.66    0.26
   1   7   9    0.62    0.36
   2   7   9    4.18    0.46
   2   7   9    4.36    0.38
   3   7   9   80.09    3.43
   3   7   9   82.86    3.55
   3   7   9   81.90    3.09
   4   7   9    0.40    0.27
   4   7   9    0.42    0.30
   4   7   9    0.60    0.39
   4   7   9    0.72    0.27
   4   7   9    0.42    0.32
   5   7   9    0.41    0.36
   5   7   9    0.33    0.31
   5   7   9   -0.03    0.42
   5   7   9    0.04    0.29
   6   7   9    2.18    0.55
   6   7   9    2.78    0.45
   6   7   9    3.54    0.40
   6   7   9    2.51    0.47
   7   7   9    1.79    0.48
   7   7   9    2.43    0.55
   7   7   9    2.09    0.38
   7   7   9    2.30    0.62
   8   7   9    8.78    0.91
   8   7   9    8.50    0.83
   8   7   9    8.34    0.93
   9   7   9    2.39    0.68
   9   7   9    1.80    0.78
  10   7   9    6.29    1.07
  10   7   9    6.02    0.98
  -4   8   9    7.47    0.85
  -3   8   9   15.19    1.05
  -3   8   9   15.57    0.86
  -2   8   9    6.95    0.72
  -2   8   9    8.10    0.57
  -1   8   9    5.54    0.63
  -1   8   9    6.14    0.48
   0   8   9    1.02    0.44
   0   8   9    0.24    0.27
   1   8   9    2.07    0.44
   1   8   9    1.62    0.30
   2   8   9   31.91    1.52
   2   8   9   32.24    1.33
   3   8   9   45.29    2.07
   3   8   9   46.46    1.85
   3   8   9   48.59    2.17
   4   8   9   40.08    1.76
   4   8   9   37.77    1.88
   4   8   9   36.76    1.56
   4   8   9   38.54    1.74
   4   8   9   39.81    1.98
   5   8   9    5.30    0.63
   5   8   9    5.31    0.55
   5   8   9    4.34    0.45
   5   8   9    5.02    0.50
   6   8   9    1.26    0.33
   6   8   9    1.25    0.40
   6   8   9    1.07    0.53
   6   8   9    2.04    0.47
   7   8   9   19.31    1.26
   7   8   9   16.83    1.19
   7   8   9   18.66    1.17
   8   8   9   16.02    1.13
   8   8   9   16.76    1.21
   8   8   9   16.54    1.25
   9   8   9   12.28    1.19
   9   8   9   12.82    1.11
  10   8   9   -0.90    0.68
  10   8   9   -0.17    0.85
  -3   9   9    4.35    0.74
  -2   9   9    2.62    0.59
  -1   9   9    0.17    0.29
  -1   9   9    0.45    0.48
   0   9   9    7.36    0.67
   0   9   9    6.56    0.48
   1   9   9   38.58    1.84
   1   9   9   39.72    1.59
   2   9   9    7.21    0.61
   2   9   9    7.95    0.52
   3   9   9    2.03    0.40
   3   9   9    2.54    0.34
   4   9   9   31.16    1.44
   4   9   9   31.29    1.59
   4   9   9   29.09    1.42
   5   9   9    7.91    0.65
   5   9   9    8.69    0.78
   5   9   9    9.67    0.70
   5   9   9    9.43    0.66
   6   9   9   18.39    1.07
   6   9   9   16.28    1.17
   6   9   9   16.84    1.08
   7   9   9    6.08    0.79
   7   9   9    6.66    0.69
   7   9   9    4.96    0.63
   8   9   9   11.75    0.98
   8   9   9   10.07    1.02
   9   9   9   12.69    1.11
   9   9   9   11.32    1.18
  10   9   9    0.27    0.71
  10   9   9    0.42    0.85
  -2  10   9    7.24    0.80
  -1  10   9    2.22    0.60
   0  10   9   14.88    1.01
   1  10   9    0.93    0.44
   2  10   9    9.50    0.60
   2  10   9   10.62    0.78
   3  10   9    5.39    0.54
   4  10   9    2.36    0.55
   4  10   9    1.88    0.41
   5  10   9   -0.03    0.37
   5  10   9    1.15    0.54
   5  10   9    0.97    0.30
   6  10   9    2.00    0.41
   6  10   9    2.09    0.48
   6  10   9    2.31    0.62
   7  10   9   23.12    1.43
   7  10   9   24.08    1.37
   7  10   9   24.18    1.42
   8  10   9    0.53    0.57
   8  10   9    1.12    0.70
   9  10   9    0.62    0.69
   9  10   9    0.33    0.71
  -1  11   9   -0.02    0.58
   0  11   9    7.06    0.76
   1  11   9    8.32    0.76
   2  11   9    9.05    0.75
   3  11   9    1.74    0.45
   4  11   9    3.56    0.62
   5  11   9    3.46    0.65
   6  11   9    8.08    0.70
   6  11   9    7.76    0.65
   6  11   9    8.53    0.89
   7  11   9    7.22    0.75
   7  11   9    7.77    0.87
   8  11   9    5.70    0.75
   8  11   9    6.14    0.92
   9  11   9    1.79    0.83
   9  11   9    1.67    0.72
   0  12   9    6.73    0.80
   1  12   9    4.89    0.68
   2  12   9   12.95    0.94
   5  12   9    1.36    0.62
   6  12   9    6.72    0.86
   7  12   9    3.79    0.82
   8  12   9    8.75    1.03
   5  13   9    7.59    0.86
   6  13   9    6.29    0.88
   2   6 -10    1.95    1.01
   2   6 -10    5.03    0.71
   1   6 -10    9.79    1.32
   1   6 -10   11.17    0.95
   0   6 -10    4.16    0.69
   0   6 -10    3.71    1.04
  -1   6 -10    0.23    0.54
  -1   6 -10    0.28    0.95
   4   5 -10    1.25    1.04
  -4  -5  10    1.34    0.47
   3   5 -10   15.91    1.47
  -3  -5  10   14.72    0.87
   2   5 -10    7.19    1.13
  -2  -5  10    6.93    0.64
   1   5 -10   -0.53    0.49
   0   5 -10    0.18    0.52
  -1   5 -10   20.76    1.29
  -2   5 -10   15.03    1.07
  -3   5 -10    4.14    0.67
  -5  -4  10    3.11    0.60
   4   4 -10   14.65    1.50
  -4  -4  10   17.06    0.98
   3   4 -10   12.02    1.09
   3   4 -10   12.95    1.37
  -3  -4  10   11.48    0.80
  -3  -4  10   12.31    0.82
   2   4 -10    2.97    0.66
  -2  -4  10    2.72    0.47
  -2  -4  10    3.50    0.46
   1   4 -10    2.78    0.60
  -1  -4  10    2.85    0.41
   0   4 -10   12.58    1.06
   0  -4  10   11.92    0.71
  -1   4 -10   21.23    1.24
  -1   4 -10   20.80    1.39
  -2   4 -10    6.62    0.80
  -2   4 -10    4.71    0.65
  -3   4 -10   19.80    1.18
  -3   4 -10   19.40    1.37
  -4   4 -10    2.03    0.56
  -5   4 -10    4.89    0.66
   5   3 -10   21.18    1.81
  -5  -3  10   22.27    1.24
   4   3 -10    9.17    1.24
  -4  -3  10    9.27    0.73
  -4  -3  10    7.98    0.65
   3   3 -10    4.88    0.74
  -3  -3  10    5.77    0.58
  -3  -3  10    6.10    0.56
   2   3 -10    1.91    0.57
  -2  -3  10    1.06    0.40
  -2  -3  10    1.32    0.40
   1   3 -10    0.66    0.47
  -1  -3  10    0.94    0.34
   0   3 -10   19.76    1.31
   0  -3  10   19.32    0.95
  -1   3 -10   35.52    2.04
   1  -3  10   36.51    1.49
  -2   3 -10   22.71    1.26
  -2   3 -10   21.70    1.43
   2  -3  10   21.72    1.01
  -3   3 -10   -0.01    0.45
  -3   3 -10    0.25    0.49
   3  -3  10    0.84    0.31
  -4   3 -10    4.60    0.63
  -4   3 -10    7.54    0.84
  -5   3 -10    0.75    0.49
  -6   3 -10    8.57    0.76
  -6   3 -10    7.79    0.78
  -6  -2  10    9.70    0.87
   5   2 -10    1.68    1.05
  -5  -2  10    1.16    0.52
  -4  -2  10   23.42    1.23
  -4  -2  10   24.59    1.24
   3   2 -10    1.93    0.57
  -3  -2  10    1.93    0.45
  -3  -2  10    1.93    0.42
   2   2 -10    0.69    0.47
  -2  -2  10    0.60    0.37
  -2  -2  10    0.68    0.36
   1   2 -10    9.36    0.84
  -1  -2  10    9.58    0.64
  -1  -2  10    9.32    0.70
   0   2 -10   11.66    0.96
   0  -2  10   11.56    0.71
  -1   2 -10   32.70    1.87
   1  -2  10   33.15    1.40
  -2   2 -10   22.45    1.41
   2  -2  10   21.30    1.01
  -3   2 -10   -0.12    0.43
  -3   2 -10   -0.58    0.39
   3  -2  10    0.49    0.29
  -4   2 -10    7.28    0.82
  -4   2 -10    7.62    0.68
  -5   2 -10   39.63    1.92
  -5   2 -10   41.92    2.37
  -6   2 -10   11.06    0.82
  -6   2 -10   10.85    1.08
  -7   2 -10    9.76    0.80
  -7   2 -10   10.31    0.84
   6   1 -10   11.30    1.36
  -6  -1  10   10.10    0.88
   5   1 -10    7.70    1.16
  -5  -1  10    4.90    0.65
  -5  -1  10    5.91    0.60
  -4  -1  10    2.15    0.44
  -4  -1  10    1.44    0.48
  -3  -1  10    0.65    0.41
  -3  -1  10    0.91    0.39
   2   1 -10    2.53    0.43
   2   1 -10    2.29    0.52
  -2  -1  10    1.71    0.41
  -2  -1  10    2.67    0.43
   1   1 -10   21.76    1.37
  -1  -1  10   23.40    1.09
  -1  -1  10   22.87    1.18
   0   1 -10   20.07    1.21
   0  -1  10   16.40    0.89
  -1   1 -10   17.33    1.12
   1  -1  10   16.48    0.84
  -2   1 -10    4.68    0.60
   2  -1  10    3.60    0.40
  -3   1 -10   -0.33    0.40
  -3   1 -10    0.96    0.39
   3  -1  10    1.07    0.31
  -4   1 -10    9.35    0.91
  -4   1 -10    8.41    0.71
   4  -1  10    9.68    0.62
  -5   1 -10   20.52    1.40
  -5   1 -10   20.63    1.14
  -6   1 -10   53.55    2.36
  -6   1 -10   52.11    2.93
   6  -1  10   54.37    2.43
  -7   1 -10    0.63    0.48
  -7   1 -10    1.95    0.46
   7  -1  10    1.31    0.59
   6   0 -10    7.76    1.25
  -6   0  10    8.78    0.83
  -6   0  10    8.28    0.73
   5   0 -10   11.76    1.31
  -5   0  10   11.51    0.87
  -5   0  10   10.78    0.84
  -4   0  10    5.33    0.56
  -4   0  10    4.28    0.58
   3   0 -10    7.36    0.64
  -3   0  10    8.48    0.67
  -3   0  10    7.13    0.60
   2   0 -10   31.81    1.48
  -2   0  10   28.76    1.35
  -2   0  10   28.86    1.42
   1   0 -10   34.28    2.00
  -1   0  10   38.98    1.71
  -1   0  10   37.84    1.58
   0   0 -10   35.28    1.96
   0   0  10   36.42    1.52
   0   0  10   35.87    1.68
  -1   0 -10    1.79    0.44
   1   0  10    1.69    0.33
  -2   0 -10    6.48    0.66
   2   0  10    6.19    0.47
  -3   0 -10    5.04    0.61
   3   0  10    3.83    0.40
  -4   0 -10   32.40    1.55
  -4   0 -10   33.27    1.91
   4   0  10   33.42    1.39
   4   0  10   33.29    1.86
  -5   0 -10   36.72    2.05
  -5   0 -10   35.03    1.64
   5   0  10   35.84    1.71
   5   0  10   34.43    2.00
  -6   0 -10    5.22    0.73
  -6   0 -10    4.14    0.52
   6   0  10    4.09    0.58
  -7   0 -10    3.75    0.51
   7   0  10    4.76    0.68
  -8   0 -10    2.54    0.46
  -8   0 -10    2.93    0.54
   8   0  10    3.65    0.72
   6  -1 -10    7.76    1.17
  -6   1  10    9.42    0.76
  -6   1  10    8.46    0.83
   5  -1 -10    7.60    1.12
  -5   1  10    7.63    0.70
  -5   1  10    8.23    0.76
  -4   1  10    0.48    0.40
  -4   1  10    0.91    0.46
   3  -1 -10    8.64    0.66
  -3   1  10    7.68    0.65
  -3   1  10    7.65    0.63
   2  -1 -10    9.73    0.63
  -2   1  10    8.52    0.66
  -2   1  10    8.86    0.67
   1  -1 -10   15.45    1.05
  -1   1  10   17.02    0.95
  -1   1  10   15.86    0.86
   0  -1 -10   48.33    2.50
   0   1  10   49.82    1.95
   0   1  10   46.16    2.13
  -1  -1 -10    2.08    0.42
   1   1  10    2.37    0.35
  -2  -1 -10   14.52    0.98
   2   1  10   13.90    0.75
  -3  -1 -10    5.08    0.59
   3   1  10    4.74    0.43
  -4  -1 -10   37.90    2.11
   4   1  10   39.64    1.58
   4   1  10   37.65    2.08
  -5  -1 -10   11.55    0.98
  -5  -1 -10   13.03    0.77
   5   1  10   13.31    0.99
   5   1  10   14.15    0.92
  -6  -1 -10    4.77    0.50
   6   1  10    5.45    0.63
   6   1  10    5.64    0.57
   6   1  10    5.34    0.70
  -7  -1 -10    0.36    0.34
   7   1  10    0.61    0.50
  -8  -1 -10    1.13    0.50
  -8  -1 -10    0.88    0.39
   8   1  10    0.59    0.61
  -9  -1 -10   29.66    1.50
   9   1  10   29.74    1.79
  -6   2  10    3.00    0.58
  -6   2  10    3.01    0.63
  -5   2  10    0.14    0.49
  -5   2  10    0.09    0.46
  -4   2  10    1.67    0.50
  -4   2  10    2.80    0.51
  -3   2  10    7.89    0.65
  -3   2  10    7.99    0.66
  -2   2  10   41.81    1.74
  -2   2  10   39.89    1.86
  -1   2  10    8.57    0.61
  -1   2  10    8.85    0.67
   0  -2 -10    0.07    0.32
   0   2  10    0.63    0.31
   0   2  10    0.35    0.33
  -1  -2 -10    8.79    0.73
   1   2  10    8.47    0.61
   1   2  10    9.74    0.69
   1   2  10    9.88    0.53
  -2  -2 -10   46.40    2.41
   2   2  10   46.24    1.99
   2   2  10   46.51    1.87
  -3  -2 -10   79.78    3.92
   3   2  10   75.36    3.00
   3   2  10   80.44    3.30
  -4  -2 -10    1.62    0.42
   4   2  10    1.35    0.38
   4   2  10    2.08    0.33
   4   2  10    1.37    0.41
  -5  -2 -10   15.22    0.87
   5   2  10   16.31    0.99
   5   2  10   15.19    0.98
   5   2  10   15.76    1.08
  -6  -2 -10    4.30    0.44
   6   2  10    5.50    0.59
   6   2  10    5.06    0.60
   6   2  10    5.54    0.69
  -7  -2 -10   10.49    0.70
   7   2  10   10.73    0.85
   7   2  10   11.24    0.92
   7   2  10   10.86    1.01
  -8  -2 -10    9.99    0.66
  -8  -2 -10    8.03    0.70
   8   2  10    8.81    0.88
  -9  -2 -10    5.31    0.59
   9   2  10    5.27    0.84
  -6   3  10    0.44    0.56
  -6   3  10    0.40    0.53
  -5   3  10    0.78    0.47
  -5   3  10    0.25    0.50
  -4   3  10   18.93    1.11
  -4   3  10   17.86    1.06
  -3   3  10   11.25    0.81
  -3   3  10    9.07    0.71
  -2   3  10   18.89    1.00
  -2   3  10   19.60    1.05
  -1   3  10   27.82    1.32
  -1   3  10   31.63    1.44
   0   3  10    2.40    0.40
   0   3  10    1.95    0.36
   1   3  10   14.83    0.78
   1   3  10   14.51    0.86
  -2  -3 -10   27.41    1.55
   2   3  10   28.68    1.38
   2   3  10   28.94    1.23
  -3  -3 -10   33.67    1.79
   3   3  10   33.39    1.39
   3   3  10   31.95    1.77
   4   3  10   58.40    3.03
   4   3  10   59.13    2.59
   4   3  10   61.52    2.34
   5   3  10    2.68    0.37
   5   3  10    3.99    0.50
   5   3  10    2.39    0.44
   5   3  10    2.65    0.49
  -6  -3 -10    4.62    0.42
   6   3  10    4.26    0.62
   6   3  10    3.57    0.56
   6   3  10    3.88    0.55
  -7  -3 -10    2.19    0.35
   7   3  10    2.07    0.55
   7   3  10    2.87    0.58
   7   3  10    2.55    0.62
  -8  -3 -10   21.85    1.15
   8   3  10   23.11    1.39
   8   3  10   20.87    1.34
   8   3  10   22.21    1.56
  -9  -3 -10    3.76    0.53
   9   3  10    4.24    0.79
   9   3  10    4.18    0.80
  -5   4  10    5.02    0.67
  -5   4  10    5.79    0.68
  -4   4  10    4.63    0.60
  -4   4  10    4.72    0.60
  -3   4  10   21.60    1.13
  -3   4  10   22.75    1.21
  -2   4  10   19.90    1.02
  -2   4  10   20.08    1.10
  -1   4  10    6.05    0.54
  -1   4  10    8.34    0.63
   0   4  10    9.72    0.74
   0   4  10   10.07    0.64
   1   4  10    8.56    0.65
   1   4  10    7.79    0.56
   2   4  10   17.85    0.99
   2   4  10   18.63    0.89
   3   4  10   25.66    1.12
   3   4  10   24.41    1.25
   4   4  10   27.61    1.36
   4   4  10   28.93    1.39
   4   4  10   27.21    1.56
   4   4  10   28.18    1.22
   5   4  10   -0.03    0.40
   5   4  10    0.28    0.36
   5   4  10    0.50    0.38
   5   4  10    0.43    0.29
  -6  -4 -10    8.01    0.55
   6   4  10    8.06    0.73
   6   4  10    8.55    0.80
   6   4  10    8.41    0.71
   7   4  10   14.93    1.11
   7   4  10   17.43    1.16
   7   4  10   17.25    1.22
  -8  -4 -10   19.53    1.08
   8   4  10   22.38    1.38
   8   4  10   17.96    1.41
   8   4  10   21.48    1.34
  -9  -4 -10    0.36    0.42
   9   4  10   -0.14    0.63
   9   4  10   -0.06    0.66
   9   4  10    0.68    0.71
 -10  -4 -10   -0.59    0.43
  10   4  10   -0.56    0.75
  -5   5  10    1.74    0.57
  -5   5  10    2.09    0.56
  -4   5  10    8.17    0.71
  -4   5  10    8.21    0.75
  -3   5  10    7.37    0.64
  -3   5  10    7.61    0.71
  -2   5  10    6.99    0.66
  -2   5  10    7.89    0.61
  -1   5  10    0.34    0.33
  -1   5  10    0.39    0.39
   0   5  10    0.05    0.35
   0   5  10   -0.13    0.29
   1   5  10   29.90    1.48
   1   5  10   32.20    1.34
   2   5  10   15.42    0.80
   2   5  10   15.88    0.93
   3   5  10   43.05    1.70
   3   5  10   40.03    1.89
   4   5  10    3.61    0.50
   4   5  10    2.68    0.42
   4   5  10    3.09    0.38
   4   5  10    3.21    0.44
   4   5  10    3.52    0.47
   5   5  10    3.78    0.41
   5   5  10    3.96    0.55
   5   5  10    3.82    0.50
   5   5  10    3.65    0.51
  -6  -5 -10   14.85    0.79
   6   5  10   15.61    1.06
   6   5  10   15.85    1.10
   6   5  10   15.16    1.00
   7   5  10   29.63    1.73
   7   5  10   28.11    1.54
   7   5  10   27.93    1.60
  -8  -5 -10   11.77    0.77
   8   5  10   11.02    1.08
   8   5  10   11.77    1.00
   8   5  10   12.87    1.05
  -9  -5 -10   30.76    1.45
   9   5  10   31.00    1.80
   9   5  10   28.27    1.97
   9   5  10   30.94    1.79
 -10  -5 -10    6.02    0.59
  10   5  10    5.87    1.01
  10   5  10    5.61    0.93
  -5   6  10   15.27    1.03
  -5   6  10   15.60    1.08
  -4   6  10    3.68    0.61
  -4   6  10    3.09    0.55
  -3   6  10   10.00    0.72
  -3   6  10    8.35    0.77
  -2   6  10    7.46    0.70
  -2   6  10    8.59    0.63
  -1   6  10    2.00    0.37
  -1   6  10    1.24    0.44
   0   6  10   10.81    0.75
   0   6  10    9.33    0.64
   1   6  10   30.07    1.30
   1   6  10   29.66    1.45
   2   6  10   13.76    0.75
   2   6  10   13.69    0.83
   3   6  10    3.85    0.41
   3   6  10    4.03    0.47
   4   6  10    9.17    0.71
   4   6  10   11.81    0.63
   4   6  10    9.61    0.76
   4   6  10    9.80    0.69
   4   6  10   10.14    0.71
   5   6  10    4.33    0.55
   5   6  10    3.40    0.48
   5   6  10    3.41    0.46
   5   6  10    3.29    0.47
   6   6  10   13.51    0.96
   6   6  10   12.96    0.99
   6   6  10   13.38    0.86
   6   6  10   13.23    0.93
   7   6  10   28.52    1.49
   7   6  10   28.46    1.52
   7   6  10   24.50    1.61
  -8  -6 -10    8.80    0.62
   8   6  10    8.81    0.92
   8   6  10    8.89    0.96
   8   6  10    7.67    0.83
  -9  -6 -10    0.91    0.38
   9   6  10    1.07    0.66
   9   6  10    0.01    0.73
  10   6  10    0.80    0.79
  10   6  10    0.71    0.82
  -4   7  10   23.25    1.22
  -4   7  10   24.14    1.41
  -3   7  10    5.87    0.70
  -3   7  10    6.04    0.59
  -2   7  10   -0.32    0.34
  -2   7  10   -0.46    0.45
  -1   7  10    9.60    0.80
  -1   7  10   11.21    0.70
   0   7  10   27.25    1.18
   0   7  10   24.82    1.33
   1   7  10   33.19    1.42
   1   7  10   34.59    1.61
   2   7  10   24.86    1.28
   2   7  10   27.04    1.15
   3   7  10   -0.40    0.26
   3   7  10    0.40    0.33
   4   7  10    1.96    0.48
   4   7  10    2.28    0.40
   4   7  10    1.22    0.32
   4   7  10    1.23    0.34
   4   7  10    2.02    0.40
   5   7  10   35.01    1.70
   5   7  10   36.63    1.98
   5   7  10   38.78    1.77
   5   7  10   39.38    1.87
   6   7  10   12.62    0.91
   6   7  10   13.61    0.84
   6   7  10   13.56    0.99
   6   7  10   14.84    1.00
   7   7  10    6.52    0.78
   7   7  10    6.52    0.72
   7   7  10    5.78    0.70
   7   7  10    6.44    0.57
   8   7  10    2.23    0.73
   8   7  10    2.21    0.60
   8   7  10    3.00    0.63
   9   7  10    0.19    0.63
   9   7  10    0.21    0.73
  10   7  10    8.99    1.16
  10   7  10    7.22    0.98
  -3   8  10    0.06    0.36
  -3   8  10   -0.88    0.51
  -2   8  10    4.37    0.49
  -2   8  10    3.44    0.62
  -1   8  10    9.39    0.79
  -1   8  10    9.73    0.64
   0   8  10   17.34    1.04
   0   8  10   17.11    0.86
   1   8  10    3.60    0.39
   1   8  10    3.50    0.51
   2   8  10    2.59    0.44
   2   8  10    2.50    0.37
   3   8  10    0.56    0.30
   3   8  10    0.00    0.36
   4   8  10    0.50    0.41
   4   8  10    0.63    0.30
   4   8  10    0.09    0.35
   4   8  10    0.71    0.35
   5   8  10   19.73    1.10
   5   8  10   20.68    1.20
   5   8  10   19.87    1.06
   5   8  10   20.21    1.19
   6   8  10   21.79    1.38
   6   8  10   25.99    1.30
   6   8  10   23.63    1.40
   6   8  10   23.64    1.18
   7   8  10    1.44    0.55
   7   8  10    1.82    0.49
   7   8  10    1.78    0.60
   8   8  10    0.36    0.61
   8   8  10    1.36    0.58
   9   8  10    6.09    0.97
   9   8  10    5.56    0.82
  10   8  10   -0.60    0.74
  10   8  10    0.05    0.89
  -3   9  10    0.63    0.60
  -2   9  10    3.94    0.67
  -1   9  10   31.75    1.64
  -1   9  10   31.70    1.38
   0   9  10    1.87    0.37
   0   9  10    2.18    0.52
   1   9  10    1.13    0.48
   1   9  10    1.68    0.33
   2   9  10    3.72    0.53
   2   9  10    4.14    0.42
   3   9  10   13.38    0.71
   3   9  10   12.09    0.81
   4   9  10   34.13    1.64
   4   9  10   36.34    1.79
   5   9  10   16.46    0.96
   5   9  10   15.97    0.91
   5   9  10   16.26    1.06
   5   9  10   15.47    0.99
   6   9  10    0.69    0.38
   6   9  10    0.73    0.35
   6   9  10    0.87    0.52
   6   9  10    0.38    0.43
   7   9  10    5.85    0.67
   7   9  10    5.46    0.77
   7   9  10    5.88    0.69
   8   9  10    4.96    0.73
   8   9  10    5.08    0.85
   9   9  10    0.81    0.74
   9   9  10    2.28    0.70
  -2  10  10    7.61    0.85
  -1  10  10    0.45    0.52
   0  10  10   26.70    1.42
   1  10  10    8.20    0.55
   1  10  10    6.54    0.67
   2  10  10    5.83    0.47
   2  10  10    5.47    0.61
   3  10  10    2.03    0.35
   3  10  10    2.29    0.48
   4  10  10    6.05    0.66
   4  10  10    5.24    0.55
   5  10  10   22.90    1.39
   5  10  10   24.42    1.24
   5  10  10   21.25    1.18
   6  10  10    6.89    0.70
   6  10  10    6.56    0.63
   6  10  10    9.29    0.88
   7  10  10    0.62    0.64
   7  10  10    1.01    0.53
   8  10  10   -0.66    0.65
   8  10  10    0.59    0.58
   9  10  10    8.80    1.12
   9  10  10   12.20    1.10
  -1  11  10    2.57    0.65
   0  11  10    1.58    0.60
   1  11  10    0.90    0.52
   2  11  10    2.24    0.50
   3  11  10    4.64    0.57
   4  11  10   20.56    1.12
   5  11  10    0.54    0.58
   6  11  10    3.17    0.71
   6  11  10    3.70    0.58
   7  11  10    2.74    0.62
   7  11  10    4.10    0.75
   8  11  10    3.21    0.83
   8  11  10    2.69    0.65
   1  12  10    6.04    0.72
   2  12  10    1.19    0.53
   3  12  10    2.83    0.54
   5  12  10   12.32    1.04
   6  12  10    0.55    0.68
   7  12  10    8.15    0.95
   1   5 -11   15.67    1.12
   0   5 -11    4.97    0.76
  -1   5 -11   -0.52    0.54
   3   4 -11    7.62    1.26
  -3  -4  11    7.84    0.70
  -2  -4  11   14.14    0.86
  -2  -4  11   14.95    0.96
  -1  -4  11   11.25    0.77
  -1  -4  11   12.70    0.90
   0   4 -11   18.82    1.20
  -1   4 -11    0.31    0.53
  -2   4 -11    3.20    0.66
  -3   4 -11   22.58    1.38
   4   3 -11   -0.15    0.99
  -4  -3  11    0.52    0.48
  -3  -3  11   18.83    1.09
  -3  -3  11   18.34    1.05
   2   3 -11    5.44    0.78
  -2  -3  11    6.89    0.63
  -2  -3  11    4.82    0.56
   1   3 -11   18.72    1.35
  -1  -3  11   20.41    1.15
  -1  -3  11   20.24    1.01
   0   3 -11    2.27    0.59
   0  -3  11    2.31    0.41
  -1   3 -11    1.53    0.56
  -1   3 -11    0.74    0.51
   1  -3  11    0.86    0.36
  -2   3 -11    7.48    0.77
  -2   3 -11    7.96    0.89
   2  -3  11    7.77    0.56
  -3   3 -11    9.55    0.86
  -3   3 -11   12.49    1.06
  -4   3 -11   11.23    0.91
  -5   3 -11   27.21    1.49
   4   2 -11    2.43    1.11
  -4  -2  11    2.28    0.55
  -4  -2  11    2.86    0.50
  -3  -2  11   10.46    0.75
  -3  -2  11    9.74    0.77
  -2  -2  11   32.07    1.52
  -2  -2  11   30.66    1.46
   1   2 -11   12.14    1.02
  -1  -2  11   12.55    0.78
  -1  -2  11   12.43    0.88
   0   2 -11    0.64    0.50
   0  -2  11    0.48    0.35
  -1   2 -11    4.69    0.68
   1  -2  11    4.73    0.47
  -2   2 -11   16.08    1.26
  -2   2 -11   18.53    1.10
   2  -2  11   17.66    0.91
  -3   2 -11   14.60    1.17
  -3   2 -11   16.87    1.05
   3  -2  11   13.82    0.80
  -4   2 -11   13.96    1.19
  -4   2 -11   15.76    1.04
  -5   2 -11    1.55    0.53
  -5   2 -11    2.91    0.70
  -6   2 -11   -0.10    0.46
   5   1 -11    1.98    1.13
  -5  -1  11    1.39    0.49
  -5  -1  11    1.77    0.59
  -4  -1  11    1.45    0.46
  -4  -1  11    1.70    0.53
  -3  -1  11    2.76    0.52
  -3  -1  11    2.07    0.46
  -2  -1  11   16.51    0.97
  -2  -1  11   16.82    0.95
  -1  -1  11    1.06    0.44
  -1  -1  11    0.36    0.37
   0   1 -11    0.40    0.44
   0  -1  11    0.39    0.35
   0  -1  11    0.39    0.42
  -1   1 -11    4.10    0.63
   1  -1  11    3.09    0.43
  -2   1 -11   13.50    1.09
   2  -1  11   15.25    0.81
  -3   1 -11   29.55    1.47
  -3   1 -11   27.63    1.74
   3  -1  11   29.37    1.28
  -4   1 -11   15.37    0.95
  -4   1 -11   13.98    1.14
   4  -1  11   13.99    0.78
  -5   1 -11    2.30    0.50
  -5   1 -11    3.24    0.68
  -6   1 -11    1.01    0.47
  -7   1 -11    5.10    0.67
  -7   1 -11    5.60    0.65
   7  -1  11    6.30    0.77
   5   0 -11   33.83    2.30
  -5   0  11   29.61    1.53
  -5   0  11   28.95    1.56
  -4   0  11   20.19    1.16
  -4   0  11   20.13    1.15
  -3   0  11    9.27    0.71
  -3   0  11    7.89    0.71
   2   0 -11    6.53    0.61
  -2   0  11    6.90    0.63
  -2   0  11    6.97    0.64
  -1   0  11   -0.73    0.32
  -1   0  11    0.56    0.39
   0   0  11    6.88    0.64
   0   0  11    8.08    0.61
  -1   0 -11   54.27    2.87
   1   0  11   55.21    2.19
  -2   0 -11   33.70    1.95
   2   0  11   35.00    1.47
  -3   0 -11   12.72    0.98
   3   0  11   10.95    0.70
  -4   0 -11    0.63    0.41
  -4   0 -11    0.59    0.48
   4   0  11    1.50    0.36
  -5   0 -11    1.75    0.45
  -6   0 -11    6.27    0.62
   6   0  11    6.46    0.72
  -7   0 -11   34.49    1.66
   7   0  11   34.60    1.77
   5  -1 -11    2.36    1.06
  -5   1  11    3.01    0.56
  -5   1  11    2.53    0.62
  -4   1  11   14.36    0.95
  -4   1  11   13.33    0.94
  -3   1  11   20.49    1.14
  -3   1  11   19.64    1.10
  -2   1  11    1.00    0.41
  -2   1  11    0.78    0.41
  -1   1  11    1.18    0.39
  -1   1  11    0.31    0.37
   0   1  11    4.45    0.53
   0   1  11    5.27    0.51
   1   1  11    9.33    0.73
   1   1  11    9.10    0.64
   2   1  11   49.93    2.01
   3   1  11   23.26    1.08
   4   1  11    1.77    0.36
   4   1  11    2.31    0.48
  -5  -1 -11    0.26    0.37
   5   1  11    0.78    0.46
  -6  -1 -11   22.23    1.13
   6   1  11   20.25    1.27
  -7  -1 -11   19.55    1.06
   7   1  11   21.13    1.25
  -8  -1 -11    9.13    0.69
  -8  -1 -11    8.89    0.76
   8   1  11    9.07    0.95
  -5   2  11    4.54    0.69
  -5   2  11    4.55    0.62
  -4   2  11   13.06    0.98
  -4   2  11   15.99    0.97
  -3   2  11   -0.76    0.40
  -3   2  11   -0.04    0.41
  -2   2  11    2.23    0.45
  -2   2  11    1.51    0.44
  -1   2  11    4.22    0.49
  -1   2  11    3.07    0.48
   0   2  11   43.29    1.91
   0   2  11   49.01    2.10
   1   2  11   13.54    0.91
   1   2  11   13.52    0.77
   2   2  11    4.92    0.47
   3   2  11    2.10    0.38
   4   2  11    1.22    0.35
   4   2  11    1.46    0.45
  -5  -2 -11   13.56    0.81
   5   2  11   13.80    0.77
   5   2  11   13.38    0.94
   5   2  11   13.76    1.03
  -6  -2 -11   18.85    1.05
   6   2  11   21.39    1.38
   6   2  11   20.01    1.17
  -7  -2 -11    0.77    0.38
   7   2  11    0.76    0.55
   7   2  11    0.35    0.54
  -8  -2 -11    7.78    0.71
   8   2  11    9.65    0.93
  -5   3  11    6.44    0.77
  -5   3  11    8.18    0.77
  -4   3  11   13.10    0.91
  -4   3  11   10.36    0.85
  -3   3  11   10.96    0.82
  -3   3  11   11.12    0.82
  -2   3  11    7.03    0.64
  -2   3  11    8.27    0.69
  -1   3  11   39.39    1.71
  -1   3  11   40.19    1.85
   0   3  11   26.04    1.30
   0   3  11   24.45    1.19
   1   3  11   13.41    0.87
   1   3  11   14.27    0.79
   2   3  11   48.83    2.26
   2   3  11   52.07    2.05
   3   3  11   10.98    0.68
   4   3  11   16.18    0.88
   4   3  11   18.38    1.14
   5   3  11   34.58    1.43
   5   3  11   31.49    1.59
   5   3  11   32.00    1.86
  -6  -3 -11   34.52    1.59
   6   3  11   36.46    1.76
   6   3  11   33.65    2.02
   6   3  11   35.83    1.79
  -7  -3 -11    8.26    0.61
   7   3  11    8.09    0.91
   7   3  11    8.24    0.80
   7   3  11    8.75    0.82
   8   3  11    0.57    0.59
   8   3  11    0.63    0.62
   8   3  11    0.66    0.64
  -9  -3 -11    0.22    0.47
   9   3  11    0.74    0.69
  -5   4  11    1.52    0.59
  -5   4  11    1.57    0.60
  -4   4  11    0.35    0.52
  -4   4  11    0.55    0.50
  -3   4  11   -0.16    0.43
  -3   4  11    1.07    0.48
  -2   4  11    0.79    0.42
  -2   4  11    0.83    0.46
  -1   4  11   21.52    1.15
  -1   4  11   20.10    1.05
   0   4  11   17.13    0.93
   0   4  11   18.83    1.03
   1   4  11   48.31    1.96
   1   4  11   47.36    2.15
   2   4  11    0.99    0.33
   2   4  11    1.51    0.41
   3   4  11    2.19    0.47
   3   4  11    2.28    0.37
   4   4  11   13.66    0.97
   4   4  11   15.11    0.80
   5   4  11   10.12    0.77
   5   4  11   11.36    0.67
   5   4  11    8.98    0.75
   5   4  11    9.26    0.82
  -6  -4 -11   13.52    0.76
   6   4  11   12.58    0.91
   6   4  11   12.12    0.93
   6   4  11   12.82    1.03
   7   4  11   17.20    1.21
   7   4  11   16.99    1.30
   7   4  11   18.13    1.18
   8   4  11    1.48    0.63
   8   4  11    1.14    0.64
   8   4  11    0.73    0.63
  -9  -4 -11    0.31    0.42
   9   4  11    0.77    0.75
   9   4  11    0.01    0.71
  -4   5  11    0.76    0.54
  -4   5  11    0.65    0.50
  -3   5  11    0.80    0.50
  -3   5  11    0.68    0.45
  -2   5  11    7.41    0.70
  -2   5  11    7.43    0.65
  -1   5  11    9.54    0.67
  -1   5  11    7.91    0.71
   0   5  11   10.52    0.71
   0   5  11   11.76    0.81
   1   5  11   14.87    0.80
   1   5  11   13.59    0.89
   2   5  11   -0.24    0.31
   2   5  11    0.59    0.38
   3   5  11   10.67    0.70
   3   5  11   11.47    0.78
   4   5  11   29.80    1.68
   4   5  11   31.79    1.32
   4   5  11   28.21    1.46
   5   5  11   19.22    1.22
   5   5  11   18.70    1.17
   5   5  11   20.17    0.96
   5   5  11   18.66    1.12
  -6  -5 -11    3.31    0.37
   6   5  11    2.95    0.59
   6   5  11    1.66    0.50
   6   5  11    2.97    0.54
   7   5  11    1.16    0.51
   7   5  11    0.91    0.59
   7   5  11    0.03    0.49
   8   5  11    8.39    0.97
   8   5  11    6.58    0.89
   8   5  11    7.91    0.87
  -9  -5 -11   13.21    0.85
   9   5  11   13.86    1.23
   9   5  11   13.47    1.17
  -4   6  11    7.36    0.74
  -4   6  11    7.32    0.78
  -3   6  11    6.39    0.65
  -3   6  11    7.05    0.76
  -2   6  11    2.95    0.48
  -2   6  11    2.84    0.56
  -1   6  11   15.87    0.91
  -1   6  11   15.86    1.00
   0   6  11    3.27    0.51
   0   6  11    2.55    0.42
   1   6  11    9.59    0.73
   1   6  11    7.17    0.58
   2   6  11    1.93    0.37
   2   6  11    2.23    0.45
   3   6  11    4.63    0.56
   3   6  11    4.89    0.47
   4   6  11   26.49    1.48
   4   6  11   26.54    1.19
   4   6  11   25.71    1.35
   5   6  11   21.93    1.23
   5   6  11   20.52    1.17
   5   6  11   20.89    1.20
   5   6  11   21.43    1.32
   5   6  11   21.60    1.04
   6   6  11    0.53    0.47
   6   6  11    0.30    0.42
   6   6  11    0.45    0.43
   6   6  11    0.34    0.52
   7   6  11    1.39    0.55
   7   6  11    1.71    0.64
   7   6  11    2.29    0.58
   8   6  11    4.56    0.77
   8   6  11    5.28    0.83
   8   6  11    4.94    0.73
  -9  -6 -11    8.74    0.67
   9   6  11    7.15    0.91
   9   6  11    7.96    1.03
  -3   7  11   47.29    2.24
  -3   7  11   47.57    2.04
  -2   7  11   22.07    1.26
  -2   7  11   19.22    1.06
  -1   7  11    6.35    0.68
  -1   7  11    7.03    0.60
   0   7  11    1.98    0.40
   0   7  11    2.05    0.51
   1   7  11    4.08    0.57
   1   7  11    4.17    0.46
   2   7  11   10.11    0.62
   2   7  11    6.78    0.66
   3   7  11   30.09    1.30
   3   7  11   28.73    1.44
   4   7  11   25.39    1.15
   4   7  11   24.04    1.26
   5   7  11   14.61    0.94
   5   7  11   16.61    0.84
   5   7  11   14.66    1.07
   5   7  11   14.90    1.00
   5   7  11   15.31    0.96
   6   7  11    0.14    0.50
   6   7  11    0.24    0.41
   6   7  11    0.38    0.44
   6   7  11    0.10    0.40
   7   7  11    7.62    0.85
   7   7  11    9.26    0.85
   7   7  11    8.38    0.69
   7   7  11    8.68    0.86
   8   7  11    7.68    0.84
   8   7  11    7.13    0.93
   9   7  11   13.94    1.20
   9   7  11   15.23    1.31
  -3   8  11   -0.17    0.56
  -3   8  11    0.41    0.42
  -2   8  11   25.45    1.22
  -2   8  11   25.12    1.40
  -1   8  11    1.32    0.39
  -1   8  11    0.61    0.51
   0   8  11    0.45    0.49
   0   8  11    0.43    0.36
   1   8  11   -0.43    0.45
   1   8  11    0.22    0.32
   2   8  11   20.61    0.99
   2   8  11   20.47    1.17
   3   8  11   15.02    0.80
   3   8  11   14.40    0.91
   4   8  11    0.10    0.39
   4   8  11    0.35    0.33
   5   8  11    2.35    0.58
   5   8  11    2.59    0.45
   5   8  11    2.68    0.51
   5   8  11    2.65    0.44
   6   8  11    5.95    0.65
   6   8  11    5.22    0.62
   6   8  11    6.23    0.74
   6   8  11    5.26    0.55
   7   8  11    6.80    0.75
   7   8  11    7.10    0.62
   7   8  11    7.92    0.86
   7   8  11    7.78    0.80
   8   8  11    3.48    0.71
   8   8  11    2.42    0.76
   9   8  11   10.60    1.04
   9   8  11   10.59    1.17
  -2   9  11    0.03    0.57
  -1   9  11    1.41    0.39
  -1   9  11    0.89    0.57
   0   9  11    0.88    0.37
   0   9  11    0.57    0.51
   1   9  11   31.40    1.40
   1   9  11   33.10    1.64
   2   9  11    6.94    0.55
   2   9  11    7.67    0.69
   3   9  11    6.76    0.53
   3   9  11    7.12    0.64
   4   9  11    0.85    0.34
   4   9  11    0.47    0.40
   5   9  11    4.07    0.54
   5   9  11    4.80    0.68
   5   9  11    4.04    0.51
   6   9  11    9.91    0.81
   6   9  11    9.32    0.70
   6   9  11    9.65    0.82
   6   9  11    8.81    0.91
   7   9  11    2.53    0.73
   7   9  11    3.29    0.65
   8   9  11   11.78    1.11
   8   9  11   12.38    1.06
   9   9  11   -0.50    0.65
   9   9  11   -0.50    0.82
  -1  10  11    0.82    0.61
   0  10  11    8.43    0.82
   1  10  11    5.48    0.51
   1  10  11    5.11    0.67
   2  10  11   18.52    1.15
   2  10  11   19.70    0.94
   3  10  11   11.03    0.82
   3  10  11   12.10    0.73
   4  10  11    6.51    0.64
   5  10  11   17.04    1.07
   5  10  11   20.56    1.26
   6  10  11    4.08    0.63
   6  10  11    5.27    0.79
   7  10  11   21.47    1.46
   7  10  11   21.49    1.34
   8  10  11    5.35    0.87
   8  10  11    4.91    0.76
   0  11  11    1.68    0.59
   1  11  11    3.44    0.63
   2  11  11    4.01    0.61
   3  11  11    2.06    0.50
   4  11  11    3.56    0.55
   5  11  11    0.50    0.59
   6  11  11   29.39    1.69
   6  11  11   31.08    1.58
   7  11  11    0.74    0.56
   7  11  11    0.93    0.69
   8  11  11    1.12    0.79
   8  11  11    1.97    0.68
   2  12  11    5.84    0.71
   3  12  11    0.91    0.50
   6  12  11    1.36    0.72
  -2  -3  12    0.59    0.47
  -2  -3  12    0.15    0.45
  -1  -3  12    6.77    0.63
  -1  -3  12    8.64    0.76
   0  -3  12   11.31    0.78
  -1   3 -12    8.08    0.85
   1  -3  12    7.20    0.61
  -2   3 -12   10.99    0.94
  -3   3 -12    7.21    0.79
  -3  -2  12    0.04    0.48
  -3  -2  12   -0.36    0.44
  -2  -2  12    1.61    0.50
  -2  -2  12    1.16    0.48
  -1  -2  12   12.47    0.84
  -1  -2  12   14.20    0.97
   0  -2  12   12.52    0.81
   0  -2  12   14.16    0.95
   1  -2  12   22.53    1.09
  -2   2 -12    3.06    0.65
   2  -2  12    4.14    0.50
  -3   2 -12    2.35    0.59
   3  -2  12    2.82    0.43
  -4   2 -12   -0.04    0.54
  -3  -1  12    0.04    0.49
  -3  -1  12   -0.36    0.44
  -2  -1  12    8.24    0.69
  -2  -1  12    6.67    0.67
  -1  -1  12    1.75    0.49
  -1  -1  12    2.65    0.50
   0  -1  12   28.48    1.32
   0  -1  12   27.74    1.48
   1  -1  12   10.67    0.75
   2  -1  12    0.13    0.36
  -3   1 -12    8.24    0.78
   3  -1  12    7.38    0.59
  -4   1 -12    8.21    0.77
   4  -1  12    9.32    0.65
  -5   1 -12   11.72    0.91
  -6   1 -12    7.60    0.73
  -4   0  12    1.41    0.51
  -4   0  12    0.27    0.53
  -3   0  12    0.24    0.44
  -3   0  12   -0.07    0.47
  -2   0  12   12.73    0.89
  -2   0  12   13.16    0.92
  -1   0  12   15.52    0.94
  -1   0  12   17.31    1.01
   0   0  12   10.81    0.82
   0   0  12    9.36    0.71
   1   0  12   11.35    0.75
   1   0  12   10.57    0.83
   2   0  12    0.25    0.35
   3   0  12   18.34    0.95
  -4   0 -12   22.01    1.27
   4   0  12   24.37    1.13
  -5   0 -12   33.45    1.64
  -6   0 -12    6.33    0.68
  -4   1  12    7.10    0.70
  -4   1  12    7.24    0.77
  -3   1  12    5.13    0.66
  -3   1  12    5.33    0.61
  -2   1  12    8.69    0.73
  -2   1  12    9.05    0.74
  -1   1  12   22.17    1.16
  -1   1  12   23.74    1.24
   0   1  12    2.78    0.51
   0   1  12    2.32    0.45
   1   1  12    0.09    0.37
   1   1  12    0.10    0.45
   2   1  12    1.14    0.38
   3   1  12    4.24    0.49
   4   1  12   57.08    2.29
  -5  -1 -12    5.73    0.60
  -6  -1 -12   10.49    0.81
  -7  -1 -12   -0.12    0.42
   7   1  12    0.36    0.59
  -4   2  12    1.92    0.55
  -4   2  12    1.90    0.59
  -3   2  12   11.56    0.86
  -3   2  12    9.68    0.82
  -2   2  12   20.02    1.13
  -2   2  12   21.46    1.20
  -1   2  12    4.93    0.57
  -1   2  12    4.32    0.57
   0   2  12    2.35    0.45
   0   2  12    1.95    0.50
   1   2  12   -0.47    0.35
   1   2  12   -0.02    0.39
   2   2  12   13.94    0.94
   2   2  12   14.50    0.82
   3   2  12   16.63    0.90
   4   2  12    7.56    0.59
  -5  -2 -12    9.61    0.72
   5   2  12   10.84    0.91
   5   2  12    7.58    0.63
  -6  -2 -12   -0.20    0.36
   6   2  12    0.10    0.49
   6   2  12    0.51    0.51
  -7  -2 -12    0.47    0.40
   7   2  12    0.48    0.60
   8   2  12   11.13    1.02
  -4   3  12    3.77    0.67
  -4   3  12    4.87    0.67
  -3   3  12    7.78    0.78
  -3   3  12    7.78    0.73
  -2   3  12    9.57    0.79
  -2   3  12    9.30    0.76
  -1   3  12    3.81    0.53
  -1   3  12    3.99    0.56
   0   3  12    1.00    0.44
   0   3  12    1.18    0.41
   1   3  12   17.61    0.96
   1   3  12   17.82    1.08
   2   3  12   50.63    2.31
   3   3  12    1.05    0.49
   3   3  12    2.12    0.42
   4   3  12   11.17    0.74
   5   3  12    3.11    0.45
   5   3  12    3.70    0.61
  -6  -3 -12    1.64    0.43
   6   3  12    2.19    0.58
   6   3  12    2.58    0.58
  -7  -3 -12   11.18    0.80
   7   3  12   14.29    1.03
   7   3  12   12.48    1.12
   7   3  12   11.74    0.99
   8   3  12   16.87    1.23
  -4   4  12    5.81    0.73
  -4   4  12    5.20    0.69
  -3   4  12   10.31    0.84
  -3   4  12   10.56    0.87
  -2   4  12    9.09    0.76
  -2   4  12    8.55    0.78
  -1   4  12    6.17    0.62
  -1   4  12    5.99    0.64
   0   4  12    4.88    0.59
   0   4  12    4.38    0.54
   1   4  12    6.65    0.59
   1   4  12    8.07    0.69
   2   4  12   27.60    1.26
   2   4  12   26.57    1.42
   3   4  12   48.31    2.29
   3   4  12   52.59    2.08
   4   4  12    3.85    0.47
   4   4  12    3.64    0.59
   5   4  12    0.19    0.37
   5   4  12    0.71    0.46
  -6  -4 -12    3.25    0.44
   6   4  12    3.61    0.61
   6   4  12    3.83    0.63
   7   4  12   11.96    1.00
   7   4  12   11.06    0.96
   7   4  12   11.67    1.06
   8   4  12    7.82    0.93
   8   4  12    9.00    0.93
  -3   5  12   10.15    0.87
  -3   5  12    7.92    0.77
  -2   5  12    4.01    0.62
  -2   5  12    2.72    0.54
  -1   5  12    0.65    0.47
  -1   5  12    0.99    0.43
   0   5  12    5.52    0.56
   0   5  12    3.88    0.57
   1   5  12   15.58    0.88
   1   5  12   14.93    0.97
   2   5  12    2.15    0.41
   2   5  12    2.16    0.49
   3   5  12   31.35    1.57
   3   5  12   30.20    1.38
   4   5  12   -0.57    0.43
   4   5  12    0.28    0.36
   5   5  12    0.14    0.35
   5   5  12    0.90    0.47
   5   5  12    0.68    0.43
   5   5  12   -0.23    0.42
   6   5  12   12.20    0.98
   6   5  12   10.57    0.90
   6   5  12   11.51    0.94
   7   5  12   10.30    0.95
   7   5  12   10.47    1.01
   7   5  12   11.37    0.96
   8   5  12    1.34    0.67
   8   5  12    2.01    0.74
  -3   6  12   14.85    1.03
  -3   6  12   16.26    1.14
  -2   6  12    3.50    0.56
  -2   6  12    2.74    0.61
  -1   6  12    0.93    0.49
  -1   6  12    0.34    0.42
   0   6  12    9.45    0.69
   0   6  12    7.72    0.74
   1   6  12   10.33    0.79
   1   6  12    8.76    0.67
   2   6  12   32.29    1.38
   2   6  12   28.79    1.52
   3   6  12    1.39    0.40
   3   6  12    1.18    0.45
   4   6  12    1.40    0.46
   4   6  12    2.10    0.41
   5   6  12   17.24    1.05
   5   6  12   17.31    0.93
   5   6  12   17.99    1.18
   5   6  12   15.93    1.02
   6   6  12   25.60    1.46
   6   6  12   26.03    1.37
   6   6  12   23.21    1.31
   6   6  12   23.40    1.53
   7   6  12    4.15    0.76
   7   6  12    3.92    0.65
   8   6  12   10.26    1.06
   8   6  12   10.12    0.96
  -9  -6 -12    0.11    0.43
   9   6  12    0.70    0.72
   9   6  12   -0.62    0.77
  -2   7  12    7.65    0.82
  -2   7  12    8.13    0.71
  -1   7  12    9.90    0.75
  -1   7  12    9.57    0.84
   0   7  12    8.62    0.77
   0   7  12    8.40    0.66
   1   7  12   15.50    0.88
   1   7  12   15.57    1.00
   2   7  12    4.64    0.61
   2   7  12    6.66    0.56
   3   7  12    0.29    0.43
   3   7  12   -0.02    0.34
   4   7  12    0.80    0.38
   4   7  12    0.69    0.42
   5   7  12    3.96    0.56
   5   7  12    3.60    0.48
   5   7  12    3.83    0.54
   6   7  12   23.80    1.35
   6   7  12   22.61    1.44
   6   7  12   21.43    1.22
   6   7  12   23.91    1.42
   7   7  12   37.28    1.94
   7   7  12   39.03    1.88
   7   7  12   34.17    1.78
   8   7  12    1.23    0.50
   8   7  12    0.85    0.73
   8   7  12    0.77    0.60
   9   7  12   -1.21    0.79
   9   7  12    0.28    0.65
  -2   8  12    5.58    0.74
  -2   8  12    5.72    0.63
  -1   8  12    3.50    0.64
  -1   8  12    2.14    0.47
   0   8  12   17.49    0.97
   0   8  12   17.17    1.11
   1   8  12   10.65    0.84
   1   8  12    9.21    0.68
   2   8  12    1.02    0.50
   2   8  12    1.16    0.40
   3   8  12   -0.23    0.33
   3   8  12    0.14    0.43
   4   8  12    5.06    0.52
   4   8  12    5.03    0.61
   5   8  12   21.23    1.28
   5   8  12   22.03    1.07
   5   8  12   21.09    1.20
   6   8  12    0.81    0.50
   6   8  12    1.15    0.60
   6   8  12   -0.31    0.41
   7   8  12    2.95    0.53
   7   8  12    3.11    0.65
   7   8  12    2.74    0.74
   8   8  12    5.80    0.93
   8   8  12    4.79    0.76
  -1   9  12   17.40    1.18
  -1   9  12   18.66    1.01
   0   9  12    1.86    0.45
   0   9  12    2.13    0.61
   1   9  12    4.89    0.51
   1   9  12    5.04    0.66
   2   9  12    0.88    0.40
   2   9  12    1.09    0.52
   3   9  12    6.65    0.69
   3   9  12    6.07    0.56
   4   9  12    4.94    0.51
   4   9  12    3.86    0.58
   5   9  12   12.04    0.88
   6   9  12   10.12    0.77
   6   9  12   10.21    0.89
   6   9  12    9.86    0.96
   7   9  12    0.96    0.57
   7   9  12    0.53    0.66
   8   9  12    7.12    1.01
   8   9  12    7.74    0.88
   0  10  12    2.09    0.63
   1  10  12    0.52    0.38
   1  10  12   -0.03    0.54
   2  10  12   -0.06    0.35
   2  10  12    0.81    0.52
   3  10  12   12.26    0.75
   3  10  12   11.28    0.87
   4  10  12   22.57    1.11
   4  10  12   21.59    1.24
   5  10  12    0.87    0.46
   6  10  12    4.07    0.65
   6  10  12    4.21    0.78
   7  10  12    3.17    0.68
   7  10  12    3.21    0.80
   8  10  12    0.39    0.64
   1  11  12    2.53    0.63
   2  11  12    2.04    0.57
   3  11  12    2.95    0.59
   3  11  12    1.41    0.41
   4  11  12   16.66    1.07
   6  11  12    4.92    0.81
   7  11  12    0.52    0.74
   7  11  12   -0.53    0.56
   0  -2  13    4.50    0.66
   0  -2  13    4.60    0.56
   1  -2  13    6.84    0.62
  -2   2 -13    3.19    0.70
   2  -2  13    3.59    0.50
  -2  -1  13   17.63    1.07
  -2  -1  13   15.40    1.06
  -1  -1  13    0.53    0.51
  -1  -1  13    0.08    0.46
   0  -1  13    3.20    0.54
   0  -1  13    3.46    0.60
   1  -1  13   11.68    0.81
   1  -1  13   11.25    0.94
   2  -1  13   14.79    0.89
  -3   1 -13    7.56    0.80
   3  -1  13    7.35    0.63
  -4   1 -13    1.86    0.57
   4  -1  13    2.29    0.47
  -2   0  13    0.76    0.52
  -2   0  13    0.95    0.52
  -1   0  13    2.93    0.57
  -1   0  13    4.47    0.61
   0   0  13    0.84    0.43
   0   0  13    1.32    0.52
   1   0  13    9.09    0.72
   1   0  13    8.93    0.82
   2   0  13   18.24    0.99
   3   0  13   32.13    1.47
  -4   0 -13    0.76    0.53
   4   0  13    1.03    0.40
  -5   0 -13    5.89    0.69
  -3   1  13    1.62    0.54
  -3   1  13    2.27    0.59
  -2   1  13   -0.32    0.49
  -2   1  13    0.27    0.49
  -1   1  13    3.95    0.60
  -1   1  13    3.51    0.59
   0   1  13    7.85    0.76
   0   1  13    9.86    0.75
   1   1  13   17.26    0.97
   1   1  13   15.68    1.06
   2   1  13   14.51    0.88
   2   1  13   14.54    1.02
   3   1  13    3.19    0.49
   4   1  13    1.13    0.42
  -5  -1 -13   -0.78    0.43
  -6  -1 -13   32.43    1.61
  -3   2  13    1.03    0.53
  -3   2  13    0.98    0.55
  -2   2  13    1.68    0.54
  -2   2  13    0.32    0.52
  -1   2  13    5.06    0.63
  -1   2  13    4.26    0.61
   0   2  13   27.75    1.47
   0   2  13   29.26    1.38
   1   2  13   12.29    0.84
   1   2  13   12.99    0.96
   2   2  13   24.45    1.19
   2   2  13   23.14    1.33
   3   2  13    3.33    0.50
   4   2  13    5.70    0.57
  -5  -2 -13   13.60    0.94
   5   2  13   13.01    0.83
  -6  -2 -13   17.76    1.07
  -7  -2 -13   12.76    0.90
  -3   3  13    0.06    0.52
  -3   3  13    0.64    0.52
  -2   3  13    0.11    0.50
  -2   3  13   -0.03    0.49
  -1   3  13    4.78    0.65
  -1   3  13    6.25    0.66
   0   3  13   10.95    0.81
   0   3  13   11.52    0.87
   1   3  13    0.91    0.42
   1   3  13    1.46    0.51
   2   3  13    1.50    0.44
   2   3  13    1.36    0.52
   3   3  13    1.97    0.55
   3   3  13    3.17    0.49
   4   3  13    3.79    0.51
   5   3  13   20.24    1.06
  -6  -3 -13    0.63    0.43
   6   3  13    1.19    0.59
   7   3  13   11.83    1.02
  -3   4  13   -0.24    0.54
  -3   4  13   -0.55    0.55
  -2   4  13   31.04    1.63
  -2   4  13   30.96    1.53
  -1   4  13    9.66    0.81
  -1   4  13   11.27    0.87
   0   4  13    1.46    0.49
   0   4  13    1.11    0.51
   1   4  13   30.11    1.38
   1   4  13   28.22    1.50
   2   4  13    9.59    0.70
   2   4  13    7.78    0.75
   3   4  13    4.17    0.53
   3   4  13    3.76    0.60
   4   4  13   21.83    1.29
   4   4  13   21.52    1.10
   5   4  13   15.22    0.91
  -6  -4 -13   12.02    0.79
   6   4  13   12.19    1.06
   7   4  13    0.18    0.57
  -2   5  13    7.90    0.82
  -2   5  13    6.85    0.73
  -1   5  13   10.59    0.87
  -1   5  13    9.78    0.80
   0   5  13   21.16    1.12
   0   5  13   19.85    1.20
   1   5  13    0.92    0.49
   1   5  13    0.69    0.44
   2   5  13    0.62    0.49
   2   5  13    0.51    0.40
   3   5  13   14.72    0.99
   3   5  13   15.60    0.90
   4   5  13    7.74    0.63
   4   5  13    6.26    0.70
   5   5  13   10.01    0.72
   5   5  13    8.66    0.82
   6   5  13    7.65    0.77
   7   5  13    1.82    0.62
   7   5  13    1.34    0.65
   8   5  13    2.95    0.77
   8   5  13    1.79    0.69
  -2   6  13    3.82    0.63
  -2   6  13    3.65    0.69
  -1   6  13   23.43    1.21
  -1   6  13   21.12    1.28
   0   6  13    5.18    0.61
   0   6  13    4.39    0.64
   1   6  13    0.31    0.50
   1   6  13   -0.45    0.40
   2   6  13    4.23    0.53
   2   6  13    4.55    0.64
   3   6  13   19.98    1.18
   3   6  13   20.66    1.08
   4   6  13   12.88    0.83
   4   6  13   12.31    0.91
   5   6  13    3.11    0.58
   5   6  13    4.48    0.54
   6   6  13    2.08    0.60
   6   6  13    2.95    0.61
   7   6  13    6.47    0.80
   7   6  13    6.19    0.85
   7   6  13    5.31    0.74
   8   6  13   17.42    1.34
   8   6  13   17.36    1.32
  -1   7  13    5.19    0.74
   0   7  13   -0.07    0.43
   0   7  13    0.70    0.56
   1   7  13    1.37    0.56
   1   7  13    0.91    0.43
   2   7  13    1.30    0.50
   2   7  13    0.06    0.39
   3   7  13   14.42    0.99
   3   7  13   15.09    0.89
   4   7  13   19.05    1.18
   4   7  13   18.97    1.02
   5   7  13    4.54    0.62
   5   7  13    3.52    0.51
   6   7  13    3.12    0.61
   6   7  13    3.46    0.58
   7   7  13    0.73    0.69
   7   7  13    0.33    0.49
   7   7  13   -0.33    0.57
   8   7  13    6.65    0.98
   8   7  13    6.51    0.84
   8   7  13    6.93    0.77
  -1   8  13    3.56    0.69
  -1   8  13    4.09    0.59
   0   8  13    1.87    0.50
   0   8  13    3.54    0.67
   1   8  13    4.36    0.54
   1   8  13    3.69    0.66
   2   8  13   12.60    0.80
   2   8  13   10.67    0.89
   3   8  13   11.19    0.86
   3   8  13    9.45    0.72
   4   8  13    1.33    0.42
   4   8  13    1.71    0.53
   5   8  13    2.52    0.54
   5   8  13    2.64    0.49
   6   8  13    4.81    0.74
   6   8  13    3.92    0.60
   7   8  13   16.90    1.19
   7   8  13   16.39    1.09
   7   8  13   18.02    1.34
   0   9  13    0.70    0.61
   0   9  13   -0.46    0.41
   1   9  13    9.52    0.89
   1   9  13   11.51    0.79
   2   9  13   12.62    0.83
   2   9  13   13.05    1.02
   3   9  13    7.11    0.74
   3   9  13    7.02    0.62
   4   9  13    7.27    0.72
   4   9  13    6.05    0.59
   5   9  13    1.03    0.48
   6   9  13    0.82    0.49
   6   9  13   -0.25    0.59
   7   9  13    3.58    0.82
   7   9  13    3.57    0.70
   1  10  13    4.58    0.56
   1  10  13    4.25    0.73
   2  10  13    2.19    0.47
   2  10  13    2.06    0.62
   3  10  13    1.01    0.41
   3  10  13    0.81    0.56
   4  10  13    1.27    0.51
   4  10  13    0.91    0.42
   5  10  13    0.48    0.49
   4  11  13   11.61    0.92
   1   0  14    1.69    0.61
   1   0  14    2.72    0.56
   2   0  14    5.80    0.63
   2   0  14    3.78    0.71
  -1   1  14    3.85    0.63
   0   1  14    4.10    0.61
   0   1  14    4.61    0.67
   1   1  14    0.54    0.57
   1   1  14    0.28    0.47
   2   1  14    1.96    0.64
   2   1  14    1.90    0.49
   3   1  14   25.25    1.26
  -4  -1 -14   25.43    1.45
   4   1  14   25.04    1.25
  -1   2  14    5.03    0.72
  -1   2  14    7.36    0.76
   0   2  14    0.56    0.49
   0   2  14    0.00    0.52
   1   2  14   -0.07    0.47
   1   2  14    0.04    0.54
   2   2  14    9.57    0.89
   2   2  14    9.28    0.77
   3   2  14   18.33    1.06
   3   2  14   16.72    1.16
   4   2  14   21.51    1.13
  -5  -2 -14   12.91    0.96
   5   2  14   14.49    0.90
  -1   3  14   -0.38    0.49
  -1   3  14    0.06    0.53
   0   3  14    0.56    0.52
   0   3  14    0.88    0.49
   1   3  14    0.00    0.51
   1   3  14    0.17    0.45
   2   3  14   12.65    0.88
   2   3  14   13.52    0.99
   3   3  14    9.33    0.76
   3   3  14    8.59    0.85
   4   3  14    6.09    0.79
   4   3  14    8.91    0.71
   5   3  14    1.04    0.47
  -6  -3 -14   -0.15    0.46
  -1   4  14    7.11    0.80
  -1   4  14    7.15    0.74
   0   4  14   13.46    0.93
   0   4  14   12.53    0.98
   1   4  14   25.59    1.28
   1   4  14   23.83    1.37
   2   4  14    0.54    0.51
   2   4  14    0.00    0.46
   3   4  14    3.52    0.63
   3   4  14    2.61    0.53
   4   4  14    2.55    0.52
   4   4  14    2.39    0.62
   5   4  14   -0.54    0.56
   5   4  14    0.37    0.45
  -6  -4 -14    5.78    0.63
  -1   5  14    1.83    0.58
  -1   5  14    1.79    0.60
   0   5  14    5.08    0.71
   0   5  14    4.74    0.64
   1   5  14   19.37    1.11
   1   5  14   19.66    1.20
   2   5  14   29.76    1.58
   2   5  14   30.33    1.44
   3   5  14    4.08    0.58
   3   5  14    4.07    0.65
   4   5  14    2.17    0.51
   4   5  14    2.43    0.60
   5   5  14    1.27    0.48
   5   5  14    0.21    0.55
   6   5  14   14.84    1.10
   0   6  14    6.96    0.71
   1   6  14    5.37    0.66
   1   6  14    5.76    0.72
   2   6  14   15.87    1.06
   2   6  14   14.51    0.93
   3   6  14    5.13    0.68
   3   6  14    5.47    0.62
   4   6  14    0.34    0.45
   4   6  14    0.45    0.55
   5   6  14    6.97    0.69
   5   6  14   10.07    0.87
   6   6  14    3.74    0.69
   0   7  14    2.51    0.67
   0   7  14    3.57    0.58
   1   7  14   17.97    1.21
   1   7  14   18.09    1.06
   2   7  14    1.93    0.59
   2   7  14    1.91    0.52
   3   7  14   -0.01    0.54
   3   7  14    0.28    0.44
   4   7  14    5.73    0.73
   4   7  14    5.42    0.61
   5   7  14    6.61    0.65
   5   7  14    4.59    0.69
   6   7  14    3.76    0.66
   1   8  14   -0.23    0.42
   1   8  14    0.45    0.60
   2   8  14    0.16    0.45
   2   8  14    0.51    0.55
   3   8  14    0.38    0.53
   3   8  14    0.15    0.44
   4   8  14    4.74    0.68
   4   8  14    6.78    0.64
   5   8  14   22.29    1.19
   5   8  14   23.58    1.32
   6   8  14    7.23    0.76
   2   9  14    0.47    0.47
   2   9  14   -0.15    0.55
   3   9  14    0.97    0.55
   3   9  14    0.44    0.45
   4   9  14    4.17    0.56
   4   9  14    5.12    0.71
   5   9  14    4.94    0.59
   5   9  14    3.57    0.62
   2   3  15    1.35    0.53
   2   4  15   -0.06    0.59
   2   4  15    0.75    0.52
   3   4  15    0.73    0.60
   3   4  15    0.58    0.51
   4   4  15   13.95    0.94
   4   4  15   12.74    1.07
   2   5  15    1.93    0.62
   2   5  15    2.64    0.58
   3   5  15    6.12    0.77
   3   5  15    4.94    0.66
   4   5  15   11.39    0.87
   4   5  15    9.61    0.94
   2   6  15    9.94    0.94
   2   6  15   10.91    0.85
   3   6  15   11.81    1.00
   3   6  15   13.15    0.93
   4   6  15    2.09    0.63
   4   6  15    2.81    0.57
   3   7  15    8.48    0.77
   3   7  15    8.45    0.89
   4   7  15    1.72    0.64
   4   7  15    0.81    0.50
   0   0   0    0.00    0.00
;
_shelx_hkl_checksum              57656
loop_
_space_group_symop_operation_xyz
'x, y, z'
'-x, -y, -z'
loop_
_atom_site_label
_atom_site_type_symbol
_atom_site_fract_x
_atom_site_fract_y
_atom_site_fract_z
_atom_site_U_iso_or_equiv
_atom_site_adp_type
_atom_site_occupancy
_atom_site_site_symmetry_order
_atom_site_calc_flag
_atom_site_refinement_flags_posn
_atom_site_refinement_flags_adp
C1 C 0.0634(2) -0.24152(19) 0.44377(16) 0.0128(3) Uani 1 1 d . .
H1 H -0.0368 -0.2200 0.4025 0.015 Uiso 1 1 calc R U
C2 C 0.1637(2) -0.13568(19) 0.39984(16) 0.0124(3) Uani 1 1 d . .
C3 C 0.3163(2) -0.16342(18) 0.45746(16) 0.0113(3) Uani 1 1 d . .
H3 H 0.3831 -0.0919 0.4260 0.014 Uiso 1 1 calc R U
C4 C 0.3644(2) -0.30077(18) 0.56273(15) 0.0096(3) Uani 1 1 d . .
C5 C 0.2635(2) -0.40728(18) 0.60860(15) 0.0096(3) Uani 1 1 d . .
C6 C 0.1131(2) -0.38032(19) 0.55009(16) 0.0116(3) Uani 1 1 d . .
H6 H 0.0474 -0.4526 0.5808 0.014 Uiso 1 1 calc R U
C7 C 0.3276(2) -0.24722(18) 0.87026(15) 0.0099(3) Uani 1 1 d . .
C8 C 0.2165(2) -0.18042(19) 0.97106(17) 0.0126(3) Uani 1 1 d . .
H8 H 0.2140 -0.0808 0.9649 0.015 Uiso 1 1 calc R U
C9 C 0.1106(2) -0.2589(2) 1.07941(16) 0.0135(3) Uani 1 1 d . .
H9 H 0.0381 -0.2128 1.1455 0.016 Uiso 1 1 calc R U
C10 C 0.1133(2) -0.4069(2) 1.08879(16) 0.0137(3) Uani 1 1 d . .
H10 H 0.0417 -0.4605 1.1609 0.016 Uiso 1 1 calc R U
C11 C 0.2233(2) -0.47501(18) 0.98999(16) 0.0113(3) Uani 1 1 d . .
H11 H 0.2249 -0.5747 0.9971 0.014 Uiso 1 1 calc R U
C12 C 0.3314(2) -0.39730(18) 0.88035(15) 0.0094(3) Uani 1 1 d . .
C13 C 0.4489(2) -0.47797(17) 0.77508(15) 0.0089(3) Uani 1 1 d . .
H13 H 0.5490 -0.5654 0.8156 0.011 Uiso 1 1 calc R U
C14 C 0.5218(2) -0.36530(18) 0.64333(15) 0.0093(3) Uani 1 1 d . .
H14 H 0.6258 -0.4268 0.5949 0.011 Uiso 1 1 calc R U
C15 C 0.5828(2) -0.24726(18) 0.67008(16) 0.0118(3) Uani 1 1 d . .
H15A H 0.6237 -0.1782 0.5831 0.014 Uiso 1 1 calc R U
H15B H 0.6845 -0.3018 0.7215 0.014 Uiso 1 1 calc R U
C16 C 0.4307(2) -0.15083(19) 0.74995(16) 0.0134(3) Uani 1 1 d . .
H16A H 0.4817 -0.0955 0.7834 0.016 Uiso 1 1 calc R U
H16B H 0.3465 -0.0735 0.6882 0.016 Uiso 1 1 calc R U
C17 C 0.3297(2) -0.68234(18) 0.75322(16) 0.0111(3) Uani 1 1 d . .
C18 C 0.4220(2) -0.80555(19) 0.87176(17) 0.0153(3) Uani 1 1 d . .
H18A H 0.3453 -0.8708 0.9266 0.023 Uiso 1 1 calc R U
H18B H 0.4442 -0.7562 0.9271 0.023 Uiso 1 1 calc R U
H18C H 0.5352 -0.8681 0.8370 0.023 Uiso 1 1 calc R U
N1 N 0.33645(18) -0.53331(15) 0.72144(13) 0.0096(2) Uani 1 1 d . .
O1 O 0.24961(16) -0.71554(14) 0.68885(12) 0.0139(2) Uani 1 1 d . .
Br1 Br 0.09101(2) 0.05346(2) 0.25698(2) 0.01702(6) Uani 1 1 d . .
loop_
_atom_site_aniso_label
_atom_site_aniso_U_11
_atom_site_aniso_U_22
_atom_site_aniso_U_33
_atom_site_aniso_U_23
_atom_site_aniso_U_13
_atom_site_aniso_U_12
C1 0.0105(7) 0.0183(8) 0.0110(7) -0.0069(6) -0.0014(5) -0.0032(6)
C2 0.0110(7) 0.0134(7) 0.0098(6) -0.0036(6) -0.0014(5) -0.0001(6)
C3 0.0107(7) 0.0133(7) 0.0098(6) -0.0042(5) 0.0002(5) -0.0039(6)
C4 0.0078(6) 0.0120(7) 0.0096(6) -0.0060(5) 0.0007(5) -0.0023(5)
C5 0.0101(7) 0.0095(7) 0.0093(6) -0.0040(5) -0.0004(5) -0.0025(5)
C6 0.0102(7) 0.0147(7) 0.0122(7) -0.0063(6) -0.0007(5) -0.0044(6)
C7 0.0087(7) 0.0112(7) 0.0098(6) -0.0036(5) -0.0020(5) -0.0019(5)
C8 0.0117(7) 0.0121(7) 0.0158(7) -0.0074(6) -0.0028(6) -0.0019(6)
C9 0.0114(7) 0.0181(8) 0.0114(7) -0.0081(6) -0.0016(6) -0.0009(6)
C10 0.0112(7) 0.0184(8) 0.0095(7) -0.0033(6) 0.0005(5) -0.0044(6)
C11 0.0118(7) 0.0113(7) 0.0115(7) -0.0035(5) -0.0010(5) -0.0045(6)
C12 0.0081(7) 0.0115(7) 0.0092(6) -0.0036(5) -0.0028(5) -0.0021(5)
C13 0.0076(6) 0.0088(7) 0.0113(6) -0.0043(5) -0.0018(5) -0.0019(5)
C14 0.0068(6) 0.0108(7) 0.0101(6) -0.0040(5) -0.0002(5) -0.0023(5)
C15 0.0110(7) 0.0131(7) 0.0128(7) -0.0045(6) -0.0005(6) -0.0057(6)
C16 0.0168(8) 0.0105(7) 0.0143(7) -0.0052(6) 0.0004(6) -0.0061(6)
C17 0.0091(7) 0.0112(7) 0.0128(7) -0.0061(6) 0.0027(5) -0.0033(5)
C18 0.0185(8) 0.0095(7) 0.0184(8) -0.0045(6) -0.0039(6) -0.0036(6)
N1 0.0096(6) 0.0090(6) 0.0112(6) -0.0041(5) -0.0020(5) -0.0027(5)
O1 0.0137(6) 0.0151(6) 0.0175(6) -0.0095(5) -0.0005(4) -0.0060(4)
Br1 0.01607(9) 0.01617(9) 0.01382(8) -0.00111(6) -0.00556(6) -0.00021(6)
loop_
_atom_type_symbol
_atom_type_description
_atom_type_scat_dispersion_real
_atom_type_scat_dispersion_imag
_atom_type_scat_source
C C 0.0033 0.0016 'International Tables Vol C Tables 4.2.6.8 and 6.1.1.4'
H H 0.0000 0.0000 'International Tables Vol C Tables 4.2.6.8 and 6.1.1.4'
N N 0.0061 0.0033 'International Tables Vol C Tables 4.2.6.8 and 6.1.1.4'
O O 0.0106 0.0060 'International Tables Vol C Tables 4.2.6.8 and 6.1.1.4'
Br Br -0.2901 2.4595 'International Tables Vol C Tables 4.2.6.8 and 6.1.1.4'
loop_
_geom_angle_atom_site_label_1
_geom_angle_atom_site_label_2
_geom_angle_atom_site_label_3
_geom_angle
C2 C1 C6 119.82(14)
C1 C2 C3 122.24(15)
C1 C2 Br1 118.96(11)
C3 C2 Br1 118.80(12)
C4 C3 C2 117.57(15)
C3 C4 C5 120.68(14)
C3 C4 C14 130.23(14)
C5 C4 C14 109.08(13)
C6 C5 C4 121.65(14)
C6 C5 N1 129.32(14)
C4 C5 N1 108.98(13)
C5 C6 C1 118.03(15)
C12 C7 C8 118.97(14)
C12 C7 C16 122.24(14)
C8 C7 C16 118.69(14)
C9 C8 C7 121.56(15)
C8 C9 C10 119.47(15)
C9 C10 C11 119.66(15)
C10 C11 C12 121.47(15)
C11 C12 C7 118.87(14)
C11 C12 C13 119.02(14)
C7 C12 C13 122.11(14)
N1 C13 C12 110.23(12)
N1 C13 C14 101.88(11)
C12 C13 C14 112.82(12)
C4 C14 C15 116.72(13)
C4 C14 C13 100.91(12)
C15 C14 C13 113.47(12)
C14 C15 C16 111.74(13)
C7 C16 C15 113.41(13)
O1 C17 N1 121.38(14)
O1 C17 C18 120.69(14)
N1 C17 C18 117.93(13)
C17 N1 C5 124.05(13)
C17 N1 C13 127.92(12)
C5 N1 C13 106.92(12)
loop_
_geom_bond_atom_site_label_1
_geom_bond_atom_site_label_2
_geom_bond_distance
C1 C2 1.387(2)
C1 C6 1.395(2)
C2 C3 1.396(2)
C2 Br1 1.8964(15)
C3 C4 1.380(2)
C4 C5 1.394(2)
C4 C14 1.513(2)
C5 C6 1.387(2)
C5 N1 1.4205(19)
C7 C12 1.399(2)
C7 C8 1.400(2)
C7 C16 1.510(2)
C8 C9 1.381(2)
C9 C10 1.384(2)
C10 C11 1.388(2)
C11 C12 1.394(2)
C12 C13 1.523(2)
C13 N1 1.4938(18)
C13 C14 1.538(2)
C14 C15 1.519(2)
C15 C16 1.519(2)
C17 O1 1.2262(19)
C17 N1 1.364(2)
C17 C18 1.508(2)
