#------------------------------------------------------------------------------
#$Date: 2018-08-14 15:13:30 +0300 (Tue, 14 Aug 2018) $
#$Revision: 209676 $
#$URL: file:///home/coder/svn-repositories/cod/cif/7/11/87/7118717.cif $
#------------------------------------------------------------------------------
#
# This file is available in the Crystallography Open Database (COD),
# http://www.crystallography.net/
#
# All data on this site have been placed in the public domain by the
# contributors.
#
data_7118717
loop_
_publ_author_name
'Bushuyev, Oleksandr S.'
'Tomberg, Anna'
'Vinden, Joanna R.'
'Moitessier, Nicolas'
'Barrett, Christopher J.'
'Fri\<s\<ci\'c, Tomislav'
_publ_section_title
;
 Azo&#x22EF;phenyl stacking: a persistent self-assembly motif guides the
 assembly of fluorinated cis-azobenzenes into photo-mechanical needle crystals
;
_journal_coden_ASTM              CHCOFS
_journal_issue                   10
_journal_name_full
;
 Chemical Communications (Cambridge, United Kingdom)
;
_journal_page_first              2103
_journal_page_last               2106
_journal_paper_doi               10.1039/c5cc08590j
_journal_volume                  52
_journal_year                    2016
_chemical_formula_sum            'C6 H Br F3 N'
_chemical_formula_weight         223.99
_space_group_crystal_system      monoclinic
_space_group_IT_number           14
_space_group_name_Hall           '-P 2ybc'
_space_group_name_H-M_alt        'P 1 21/c 1'
_symmetry_space_group_name_Hall  '-P 2ybc'
_symmetry_space_group_name_H-M   'P 1 21/c 1'
_atom_sites_solution_hydrogens   geom
_audit_creation_method           SHELXL-2014
_audit_update_record
;
2015-10-13 deposited with the CCDC.
2015-12-04 downloaded from the CCDC.
;
_cell_angle_alpha                90
_cell_angle_beta                 91.628(3)
_cell_angle_gamma                90
_cell_formula_units_Z            4
_cell_length_a                   4.4460(10)
_cell_length_b                   15.197(3)
_cell_length_c                   9.650(2)
_cell_measurement_reflns_used    1522
_cell_measurement_temperature    150(2)
_cell_measurement_theta_max      24.89
_cell_measurement_theta_min      2.50
_cell_volume                     651.7(2)
_computing_cell_refinement       'Bruker SAINT'
_computing_data_collection       'Bruker APEX2'
_computing_data_reduction        'Bruker SAINT'
_computing_molecular_graphics    'Bruker SHELXTL'
_computing_publication_material  'Bruker SHELXTL'
_computing_structure_refinement  'SHELXL-2014 (Sheldrick, 2014)'
_computing_structure_solution    'SHELXS-97 (Sheldrick 2008)'
_diffrn_ambient_temperature      150(2)
_diffrn_measured_fraction_theta_full 1.000
_diffrn_measured_fraction_theta_max 0.999
_diffrn_measurement_device_type  'Bruker APEX-II CCD'
_diffrn_measurement_method       '\f and \w scans'
_diffrn_radiation_type           MoK\a
_diffrn_radiation_wavelength     0.71073
_diffrn_reflns_av_R_equivalents  0.0520
_diffrn_reflns_av_unetI/netI     0.0501
_diffrn_reflns_Laue_measured_fraction_full 1.000
_diffrn_reflns_Laue_measured_fraction_max 0.999
_diffrn_reflns_limit_h_max       5
_diffrn_reflns_limit_h_min       -5
_diffrn_reflns_limit_k_max       19
_diffrn_reflns_limit_k_min       -19
_diffrn_reflns_limit_l_max       12
_diffrn_reflns_limit_l_min       -12
_diffrn_reflns_number            5449
_diffrn_reflns_point_group_measured_fraction_full 1.000
_diffrn_reflns_point_group_measured_fraction_max 0.999
_diffrn_reflns_theta_full        25.242
_diffrn_reflns_theta_max         27.101
_diffrn_reflns_theta_min         2.501
_exptl_absorpt_coefficient_mu    6.287
_exptl_absorpt_correction_T_max  0.7456
_exptl_absorpt_correction_T_min  0.4185
_exptl_absorpt_correction_type   multi-scan
_exptl_absorpt_process_details   SADABS
_exptl_crystal_colour            orange
_exptl_crystal_density_diffrn    2.283
_exptl_crystal_description       needle
_exptl_crystal_F_000             424
_exptl_crystal_size_max          0.386
_exptl_crystal_size_mid          0.098
_exptl_crystal_size_min          0.091
_refine_diff_density_max         0.442
_refine_diff_density_min         -0.474
_refine_diff_density_rms         0.105
_refine_ls_extinction_coef       .
_refine_ls_extinction_method     none
_refine_ls_goodness_of_fit_ref   1.021
_refine_ls_hydrogen_treatment    constr
_refine_ls_matrix_type           full
_refine_ls_number_parameters     100
_refine_ls_number_reflns         1444
_refine_ls_number_restraints     0
_refine_ls_restrained_S_all      1.021
_refine_ls_R_factor_all          0.0511
_refine_ls_R_factor_gt           0.0336
_refine_ls_shift/su_max          0.011
_refine_ls_shift/su_mean         0.002
_refine_ls_structure_factor_coef Fsqd
_refine_ls_weighting_details
'w=1/[\s^2^(Fo^2^)+(0.0346P)^2^] where P=(Fo^2^+2Fc^2^)/3'
_refine_ls_weighting_scheme      calc
_refine_ls_wR_factor_gt          0.0710
_refine_ls_wR_factor_ref         0.0771
_reflns_Friedel_coverage         0.000
_reflns_Friedel_fraction_full    .
_reflns_Friedel_fraction_max     .
_reflns_number_gt                1133
_reflns_number_total             1444
_reflns_threshold_expression     'I > 2\s(I)'
_cod_duplicate_entry             7118651
_cod_data_source_file            c5cc08590j2.cif
_cod_data_source_block           mo_Bushuyev8_0m
_cod_database_code               7118717
#BEGIN Tags that were not found in dictionaries:
_shelx_space_group_comment
; 
The symmetry employed for this shelxl refinement is uniquely defined 
by the following loop, which should always be used as a source of 
symmetry information in preference to the above space-group names. 
They are only intended as comments. 
;
_shelxl_version_number           2014-3
_shelx_res_file
; 
TITL mo_Bushuyev8_0m in P2(1)/c 
CELL 0.71073 4.4460 15.1970 9.6498 90.000 91.628 90.000 
ZERR 4.00 0.0010 0.0033 0.0021 0.000 0.003 0.000 
LATT 1 
SYMM -x, y+1/2, -z+1/2 
SFAC C H N F BR 
UNIT 24 4 4 12 4 
TEMP -123.160 
ACTA 
L.S. 1 
FMAP 2 
PLAN -1 0 0.00 
HTAB 
BOND $H 
CONF 
WGHT    0.034600 
FVAR       0.12134 
BR1   5    0.686787    0.770923    0.963748    11.00000    0.03830    0.01883 = 
         0.03720    0.00534    0.00797    0.00191 
F1    4    1.346940    0.893261    0.575171    11.00000    0.03625    0.04621 = 
         0.03088   -0.00639    0.01864    0.00689 
F2    4    1.179042    1.060557    0.617423    11.00000    0.03921    0.03458 = 
         0.03322    0.00561    0.01594   -0.00588 
F3    4    0.794608    1.101436    0.814240    11.00000    0.04418    0.01865 = 
         0.04026    0.00153    0.01846    0.00248 
N1    3    0.554553    0.963958    0.994346    11.00000    0.03791    0.02309 = 
         0.03307    0.00331    0.02136    0.00476 
C1    1    1.149307    0.910558    0.675446    11.00000    0.02122    0.03297 = 
         0.02162   -0.00700    0.00521    0.00180 
C2    1    1.064136    0.996355    0.695274    11.00000    0.02328    0.02533 = 
         0.01873    0.00180    0.00333   -0.00188 
C3    1    0.864538    1.016106    0.797440    11.00000    0.02263    0.01703 = 
         0.02460   -0.00376    0.00093    0.00085 
C4    1    0.749545    0.950216    0.881878    11.00000    0.02194    0.01987 = 
         0.01997   -0.00152    0.00321    0.00088 
C5    1    0.841590    0.863672    0.857146    11.00000    0.02100    0.02180 = 
         0.02339   -0.00203    0.00192    0.00031 
C6    1    1.041029    0.843070    0.754002    11.00000    0.02736    0.02211 = 
         0.02621   -0.00406    0.00185    0.00602 
AFIX  43 
H1    2    1.100750    0.783967    0.738294    11.00000   -1.20000 
AFIX   0 
HKLF 4 1 1 0 0 0 1 0 0 0 1 
  
REM  mo_Bushuyev8_0m in P2(1)/c 
REM R1 =  0.0336 for    1133 Fo > 4sig(Fo)  and  0.0511 for all    1444 data 
REM    100 parameters refined using      0 restraints 
  
END 
  
WGHT      0.0346      0.0000 
  
REM No hydrogen bonds found for HTAB generation 
  
REM Highest difference peak  0.442,  deepest hole -0.474,  1-sigma level  0.105 
Q1    1   0.6097  0.7696  1.0492  11.00000  0.05    0.44 
;
_shelx_res_checksum              57703
_shelx_hkl_file
; 
  -1   0   0    1.33    0.17 
  -1   0   0    1.36    0.18 
  -2   0   0  128.48    6.28 
  -2   0   0  122.64    6.28 
  -3   0   0   17.71    1.07 
  -3   0   0   14.81    1.07 
  -4   0   0    1.31    0.46 
  -4   0   0    1.65    0.43 
  -5   0   0    5.79    0.85 
  -5   0   0    4.57    0.78 
   0  -1   0   -0.03    0.03 
   0   1   0   -0.03    0.02 
  -1  -1   0  126.35    6.02 
  -1  -1   0  118.59    6.05 
  -1  -1   0  122.28    6.04 
  -1   1   0  118.39    6.06 
  -1   1   0  125.68    6.04 
  -2  -1   0   49.23    2.57 
  -2  -1   0   50.02    2.58 
  -2   1   0   49.79    2.59 
  -2   1   0   49.23    2.57 
  -3  -1   0   11.60    0.86 
  -3  -1   0   10.46    0.82 
  -3   1   0   11.99    0.86 
  -3   1   0   11.63    0.83 
  -4  -1   0   16.40    1.25 
  -4  -1   0   16.03    1.22 
  -4   1   0   18.87    1.26 
  -4   1   0   17.34    1.29 
  -5  -1   0    2.20    0.65 
  -5  -1   0    2.12    0.67 
  -5   1   0    2.00    0.64 
  -5   1   0    0.74    0.49 
   0  -2   0    2.13    0.17 
   0   2   0    2.13    0.17 
  -1  -2   0   46.43    2.31 
  -1  -2   0   46.26    2.29 
  -1  -2   0   45.83    2.30 
  -1   2   0   45.06    2.30 
  -1   2   0   44.39    2.33 
  -2  -2   0   29.93    1.59 
  -2  -2   0   29.26    1.60 
  -2  -2   0   29.58    1.53 
  -2   2   0   28.51    1.63 
  -2   2   0   29.36    1.59 
  -3  -2   0   80.30    4.24 
  -3  -2   0   81.03    4.25 
  -3   2   0   81.12    4.24 
  -3   2   0   85.28    4.29 
  -4  -2   0   -0.15    0.31 
  -4  -2   0   -0.09    0.36 
  -4   2   0   -0.47    0.33 
  -4   2   0    0.15    0.33 
  -5  -2   0    7.55    0.99 
  -5  -2   0    9.37    1.10 
  -5   2   0    6.76    0.99 
  -5   2   0    7.75    0.98 
   0  -3   0   -0.21    0.08 
   0   3   0   -0.22    0.08 
  -1  -3   0  198.96    9.20 
  -1  -3   0  192.56    9.21 
  -1  -3   0  185.06    9.22 
  -1   3   0  187.70    9.20 
  -1   3   0  169.41    9.24 
  -2  -3   0   57.32    2.91 
  -2  -3   0   57.35    2.97 
  -2  -3   0   56.64    2.96 
  -2   3   0   57.32    3.02 
  -2   3   0   58.58    2.96 
  -3  -3   0    4.46    0.53 
  -3  -3   0    4.31    0.53 
   3   3   0    4.26    0.41 
  -3   3   0    4.77    0.54 
  -3   3   0    4.72    0.57 
  -4  -3   0   29.89    1.83 
  -4  -3   0   28.09    1.82 
  -4   3   0   28.43    1.85 
  -4   3   0   30.38    1.82 
  -5  -3   0    5.24    0.84 
  -5   3   0    3.82    0.72 
  -5   3   0    3.57    0.81 
   0  -4   0   72.62    3.51 
   0   4   0   67.52    3.52 
  -1  -4   0   25.69    1.31 
  -1  -4   0   24.13    1.25 
  -1  -4   0   24.07    1.29 
  -1   4   0   23.25    1.25 
  -1   4   0   23.45    1.33 
  -2  -4   0    9.12    0.63 
  -2  -4   0    8.31    0.59 
  -2  -4   0    8.67    0.60 
  -2   4   0    8.54    0.59 
  -2   4   0    8.92    0.69 
  -3  -4   0   32.59    1.84 
  -3  -4   0   32.96    1.83 
  -3   4   0   31.32    1.81 
  -3   4   0   31.14    1.90 
  -4  -4   0    0.13    0.36 
  -4  -4   0   -0.32    0.33 
  -4   4   0   -0.34    0.30 
  -4   4   0   -0.09    0.41 
  -5  -4   0   11.48    1.17 
  -5   4   0    8.75    1.15 
  -5   4   0    9.90    1.10 
   0  -5   0   -0.04    0.12 
   0   5   0   -0.07    0.11 
   1  -5   0  158.39    7.82 
  -1  -5   0  157.89    7.87 
  -1  -5   0  159.62    7.82 
   1   5   0  148.19    7.87 
  -1   5   0  155.33    7.91 
  -1   5   0  172.00    7.82 
  -2  -5   0   44.18    2.33 
  -2  -5   0   45.32    2.37 
  -2  -5   0   45.42    2.34 
  -2   5   0   43.81    2.33 
  -2   5   0   44.40    2.44 
  -3  -5   0    6.91    0.67 
  -3  -5   0    6.10    0.57 
  -3  -5   0    6.89    0.65 
  -3   5   0    6.80    0.61 
  -3   5   0    4.00    0.63 
  -4  -5   0   12.62    1.11 
  -4  -5   0   13.01    1.09 
  -4   5   0   15.80    1.12 
  -4   5   0   13.35    1.21 
  -5  -5   0    0.81    0.53 
  -5   5   0   -0.43    0.41 
  -5   5   0    0.08    0.52 
   0  -6   0  138.47    6.90 
   0   6   0  139.45    6.93 
   1  -6   0   34.69    1.66 
  -1  -6   0   32.37    1.70 
  -1  -6   0   31.98    1.63 
  -1   6   0   30.87    1.62 
   1   6   0   30.56    1.70 
  -1   6   0   29.88    1.74 
  -2  -6   0   82.59    4.14 
  -2  -6   0   78.03    4.09 
  -2  -6   0   80.95    4.11 
  -2   6   0   82.02    4.21 
  -2   6   0   79.81    4.09 
  -3  -6   0    9.51    0.81 
  -3  -6   0   11.10    0.85 
  -3  -6   0   10.15    0.77 
  -3   6   0   11.01    0.80 
  -3   6   0   10.73    0.98 
  -4  -6   0   -0.28    0.36 
  -4  -6   0    0.03    0.38 
  -4   6   0    0.15    0.36 
  -4   6   0   -0.18    0.42 
  -5  -6   0    1.19    0.64 
  -5   6   0    2.32    0.63 
  -5   6   0    1.34    0.67 
   0  -7   0   -0.10    0.14 
   0   7   0    0.06    0.14 
  -1  -7   0    0.58    0.14 
  -1  -7   0    0.69    0.22 
   1  -7   0    0.48    0.17 
   1   7   0    0.21    0.16 
  -1   7   0    0.49    0.25 
  -2  -7   0    7.20    0.58 
  -2  -7   0    6.32    0.52 
   2   7   0    7.49    0.58 
  -2   7   0    5.08    0.62 
  -2   7   0    5.84    0.49 
  -3  -7   0    0.24    0.29 
  -3  -7   0   -0.27    0.27 
  -3  -7   0    0.16    0.27 
  -3   7   0    0.13    0.38 
  -3   7   0    0.47    0.25 
  -4  -7   0   15.53    1.23 
  -4  -7   0   14.51    1.21 
  -4   7   0   14.67    1.36 
  -4   7   0   17.41    1.22 
  -5  -7   0    0.24    0.58 
  -5   7   0   -0.57    0.60 
   0  -8   0   45.15    2.57 
   0   8   0   54.34    2.63 
  -1  -8   0    1.11    0.27 
   1  -8   0    0.80    0.21 
  -1   8   0    1.03    0.28 
   1   8   0    1.21    0.27 
  -2  -8   0    4.04    0.48 
  -2  -8   0    4.58    0.44 
  -2   8   0    3.86    0.41 
  -2   8   0    4.23    0.57 
   2   8   0    4.42    0.50 
  -3  -8   0   12.34    1.02 
  -3  -8   0   13.70    0.97 
  -3  -8   0   11.97    0.96 
  -3   8   0   14.87    1.21 
  -3   8   0   13.52    0.94 
  -4  -8   0    1.81    0.53 
  -4   8   0    1.78    0.48 
  -4   8   0    1.99    0.64 
   5  -8   0    2.95    0.73 
  -5   8   0    2.12    0.77 
   0  -9   0    0.13    0.19 
   0   9   0   -0.10    0.18 
   1  -9   0   34.69    1.78 
  -1  -9   0   31.42    1.81 
  -1   9   0   27.63    1.84 
   1   9   0   36.55    1.84 
  -2  -9   0    6.83    0.66 
  -2  -9   0    5.99    0.54 
  -2   9   0    6.97    0.75 
   2   9   0    7.68    0.64 
  -2   9   0    6.82    0.52 
  -3  -9   0    1.17    0.38 
  -3  -9   0    0.81    0.37 
  -3   9   0    0.49    0.47 
  -3   9   0    1.02    0.32 
   3   9   0    1.06    0.40 
  -4  -9   0   -0.18    0.40 
  -4   9   0    0.19    0.56 
  -4   9   0   -0.19    0.36 
  -5   9   0    1.41    0.79 
   5   9   0    0.19    0.53 
   0 -10   0    2.63    0.39 
   0  10   0    1.91    0.36 
   1 -10   0    1.50    0.31 
  -1 -10   0    1.70    0.34 
   1  10   0    2.07    0.35 
  -1  10   0    1.59    0.38 
  -2 -10   0    0.37    0.30 
  -2  10   0    1.06    0.45 
   2  10   0    0.51    0.29 
  -3 -10   0    0.88    0.42 
   3  10   0    0.58    0.38 
  -3  10   0    1.69    0.58 
  -4  10   0    0.89    0.65 
   0 -11   0    0.02    0.24 
   0  11   0    0.04    0.22 
  -1 -11   0   18.31    1.20 
   1 -11   0   18.68    1.16 
   1  11   0   19.29    1.22 
  -1  11   0   18.47    1.26 
  -2 -11   0    0.15    0.33 
  -2  11   0   -0.58    0.33 
   2  11   0    0.20    0.30 
  -3 -11   0    0.66    0.44 
  -3  11   0    0.29    0.50 
   3  11   0    0.47    0.36 
  -4  11   0    0.77    0.63 
   0 -12   0   -0.22    0.24 
   0  12   0   -0.14    0.24 
  -1 -12   0    4.64    0.55 
   1 -12   0    4.45    0.53 
  -1  12   0    3.54    0.56 
   1  12   0    3.18    0.48 
  -2 -12   0    1.10    0.40 
   2  12   0    1.33    0.38 
  -2  12   0    0.88    0.43 
  -3 -12   0    0.26    0.45 
  -3  12   0   -0.02    0.47 
   3  12   0   -0.17    0.34 
   4  12   0   -0.06    0.73 
  -4  12   0    0.30    0.67 
   0 -13   0    0.63    0.32 
   0  13   0   -0.33    0.25 
   1 -13   0   29.36    1.61 
  -1 -13   0   24.75    1.61 
  -1  13   0   27.09    1.72 
   1  13   0   24.32    1.64 
  -2 -13   0    2.66    0.54 
   2  13   0    3.11    0.54 
  -2  13   0    3.31    0.67 
  -3  13   0    1.02    0.61 
   4  13   0   -0.51    0.52 
  -4  13   0   -0.71    0.64 
   0 -14   0    0.72    0.38 
   0  14   0    1.05    0.39 
   1 -14   0    2.53    0.47 
  -1 -14   0    1.83    0.46 
  -1  14   0    2.08    0.51 
   1  14   0    1.94    0.46 
  -2 -14   0    0.30    0.42 
  -2  14   0    0.92    0.48 
   2  14   0    0.32    0.38 
  -3  14   0    0.08    0.57 
   0 -15   0    0.26    0.38 
   0  15   0   -0.18    0.32 
   1 -15   0    1.09    0.42 
  -1 -15   0    0.90    0.43 
  -1  15   0    1.29    0.47 
   1  15   0    0.87    0.39 
  -2 -15   0    6.27    0.80 
  -2  15   0    6.96    0.95 
   2  15   0    5.29    0.77 
  -3  15   0    0.62    0.66 
   3  15   0    0.70    0.55 
   0 -16   0   12.64    1.09 
   0  16   0   12.39    1.12 
  -1 -16   0    1.98    0.54 
   1  16   0    2.39    0.56 
  -1  16   0    2.45    0.60 
  -2 -16   0    2.08    0.63 
   2  16   0    1.37    0.53 
  -2  16   0    3.03    0.72 
  -3  16   0    3.21    0.88 
   3  16   0    3.19    0.76 
   0 -17   0   -0.39    0.41 
   0  17   0    0.06    0.40 
  -1 -17   0    4.29    0.74 
   1  17   0    5.19    0.75 
  -1  17   0    3.86    0.62 
  -1  17   0    5.47    0.84 
  -2  17   0    3.84    0.84 
   0  18   0   18.79    1.50 
  -1  18   0    0.98    0.52 
  -1  18   0    0.58    0.52 
   1  18   0    0.31    0.47 
   2  18   0    3.59    0.73 
  -2  18   0    4.81    0.93 
   0  19   0   -0.19    0.42 
   0  19   0   -0.42    0.46 
   1  19   0    5.11    0.82 
   1  19   0    7.63    0.97 
  -1  19   0    7.09    1.01 
   5   0  -1   -0.25    0.49 
  -5   0   1    0.34    0.57 
  -4   0   1   -0.10    0.30 
  -4   0   1   -0.06    0.36 
  -3   0   1    0.05    0.22 
  -3   0   1    0.45    0.28 
  -2   0   1    0.08    0.17 
  -2   0   1   -0.26    0.14 
  -1   0   1   -0.06    0.11 
   1   0  -1   -0.19    0.08 
   0   0  -1    0.14    0.12 
   0   0   1    0.01    0.04 
   0   0   1   -0.10    0.04 
  -1   0  -1   -0.11    0.09 
  -1   0  -1   -0.01    0.08 
  -2   0  -1    0.04    0.15 
  -2   0  -1    0.07    0.14 
  -3   0  -1    0.09    0.22 
  -3   0  -1    0.01    0.21 
  -4   0  -1   -0.01    0.30 
  -4   0  -1   -0.49    0.29 
  -5   0  -1   -0.63    0.40 
   5  -1  -1    0.17    0.50 
  -5  -1   1    0.29    0.55 
   5   1  -1    0.23    0.52 
  -5   1   1    0.47    0.57 
  -4  -1   1   -0.49    0.29 
  -4  -1   1   -0.11    0.35 
  -4   1   1    0.19    0.32 
  -4   1   1   -0.03    0.36 
  -3  -1   1    6.32    0.63 
  -3  -1   1    6.43    0.68 
  -3   1   1    7.92    0.75 
  -3   1   1    6.98    0.63 
  -2  -1   1    0.16    0.17 
  -2  -1   1    0.19    0.17 
  -2   1   1    0.09    0.16 
  -2   1   1    0.16    0.18 
   1  -1  -1    2.07    0.24 
  -1  -1   1    2.30    0.20 
  -1  -1   1    1.97    0.24 
  -1   1   1    2.02    0.24 
   1   1  -1    1.88    0.23 
   0  -1  -1    5.56    0.44 
   0  -1   1    6.77    0.38 
   0   1   1    6.95    0.36 
   0   1   1    7.50    0.39 
   0   1  -1    4.90    0.43 
   0   1  -1    6.54    0.38 
  -1  -1  -1   14.88    0.85 
  -1  -1  -1   15.56    0.82 
   1   1   1   15.48    0.82 
  -1   1  -1   16.18    0.85 
  -1   1  -1   15.94    0.86 
  -2  -1  -1    0.01    0.15 
  -2  -1  -1    0.12    0.14 
  -2   1  -1   -0.07    0.14 
  -2   1  -1    0.15    0.17 
  -3  -1  -1    2.89    0.41 
  -3  -1  -1    2.84    0.42 
  -3   1  -1    2.34    0.40 
  -3   1  -1    3.91    0.47 
  -4  -1  -1    3.17    0.55 
  -4  -1  -1    3.43    0.58 
  -4   1  -1    2.94    0.56 
  -4   1  -1    3.33    0.55 
  -5  -1  -1    0.25    0.48 
  -5   1  -1    0.24    0.46 
   5  -2  -1    0.25    0.55 
  -5  -2   1    0.00    0.49 
  -5   2   1   -0.06    0.57 
   5   2  -1   -0.04    0.49 
  -4  -2   1    5.57    0.70 
  -4  -2   1    5.66    0.75 
  -4   2   1    6.77    0.76 
  -4   2   1    6.58    0.83 
  -3  -2   1    3.70    0.47 
  -3  -2   1    4.42    0.54 
  -3   2   1    3.35    0.47 
  -3   2   1    3.36    0.48 
  -2  -2   1   41.67    2.20 
  -2  -2   1   39.29    2.17 
  -2  -2   1   42.19    2.11 
  -2   2   1   42.04    2.22 
  -2   2   1   40.52    2.17 
  -1  -2   1   26.61    1.38 
  -1  -2   1   26.02    1.42 
   1  -2  -1   27.68    1.40 
   1   2  -1   27.21    1.40 
  -1   2   1   25.97    1.43 
   0  -2   1   19.79    1.04 
   0  -2  -1   17.88    1.08 
   0   2   1   20.16    1.03 
   0   2  -1   21.33    1.06 
   0   2   1   20.57    1.04 
  -1  -2  -1   45.70    2.30 
  -1  -2  -1   46.87    2.28 
   1   2   1   44.08    2.29 
  -1   2  -1   44.99    2.30 
  -1   2  -1   45.57    2.33 
  -2  -2  -1    8.17    0.60 
  -2  -2  -1    8.16    0.57 
  -2   2  -1    7.68    0.59 
  -2   2  -1   11.21    0.72 
   2   2   1    8.74    0.54 
  -3  -2  -1    4.02    0.53 
  -3  -2  -1    4.53    0.50 
  -3   2  -1    4.45    0.52 
  -3   2  -1    4.86    0.55 
  -4  -2  -1    1.74    0.46 
  -4  -2  -1    1.22    0.41 
  -4   2  -1    1.47    0.47 
  -4   2  -1    1.39    0.45 
  -5  -2  -1    1.11    0.58 
  -5   2  -1    0.70    0.55 
  -5   2  -1    0.96    0.55 
  -5  -3   1    1.28    0.59 
   5  -3  -1    0.75    0.61 
  -5   3   1    0.79    0.62 
   5   3  -1    1.15    0.57 
  -4  -3   1    0.27    0.41 
  -4  -3   1   -0.39    0.33 
  -4   3   1    0.56    0.43 
  -4   3   1    0.19    0.33 
  -3  -3   1    1.30    0.33 
  -3  -3   1    0.97    0.33 
  -3   3   1    1.33    0.36 
  -3   3   1    0.86    0.30 
  -2  -3   1    9.35    0.60 
  -2  -3   1    8.95    0.64 
  -2  -3   1    9.35    0.67 
  -2   3   1    9.81    0.72 
  -2   3   1   10.02    0.65 
  -1  -3   1    9.96    0.60 
  -1  -3   1   10.95    0.64 
   1  -3  -1    9.93    0.59 
   1   3  -1   10.44    0.59 
  -1   3   1    9.49    0.64 
   0  -3   1   16.32    0.84 
   0  -3  -1   13.92    0.85 
   0   3   1   16.28    0.84 
   0   3  -1   16.19    0.87 
   0   3  -1   14.32    0.86 
   0   3   1   15.95    0.83 
  -1  -3  -1    0.59    0.13 
  -1  -3  -1    0.47    0.13 
  -1   3  -1    0.49    0.12 
  -1   3  -1    0.54    0.17 
   1   3   1    0.55    0.14 
  -2  -3  -1   12.21    0.79 
  -2  -3  -1   13.13    0.77 
   2   3   1   12.76    0.77 
  -2   3  -1   12.85    0.87 
  -2   3  -1   12.34    0.79 
  -3  -3  -1    5.43    0.54 
  -3  -3  -1    4.86    0.55 
  -3   3  -1    4.85    0.59 
  -3   3  -1    5.01    0.56 
   3   3   1    4.86    0.44 
  -4  -3  -1   -0.11    0.33 
  -4  -3  -1   -0.26    0.35 
  -4   3  -1   -0.11    0.37 
  -4   3  -1    0.20    0.34 
  -5  -3  -1    0.54    0.53 
  -5   3  -1   -0.07    0.43 
  -5   3  -1    0.79    0.62 
   5  -4  -1    1.69    0.64 
  -5  -4   1    2.15    0.69 
   5   4  -1    0.51    0.52 
  -5   4   1    1.71    0.70 
  -4  -4   1    3.34    0.61 
  -4  -4   1    3.82    0.61 
  -4   4   1    3.79    0.68 
  -4   4   1    3.07    0.56 
  -3  -4   1    2.49    0.41 
  -3  -4   1    2.79    0.45 
  -3  -4   1    2.62    0.34 
  -3   4   1    2.62    0.40 
  -3   4   1    2.48    0.48 
  -2  -4   1    0.10    0.16 
  -2  -4   1    0.75    0.24 
  -2  -4   1    0.39    0.19 
  -2   4   1    0.33    0.17 
  -2   4   1    0.12    0.21 
   1  -4  -1   11.29    0.65 
  -1  -4   1   10.00    0.70 
  -1  -4   1   10.88    0.67 
   1   4  -1   11.00    0.65 
  -1   4   1   12.03    0.63 
  -1   4   1   12.60    0.73 
   0  -4   1   25.94    1.47 
   0   4   1   26.05    1.47 
   0   4   1   33.51    1.49 
   0   4  -1   28.82    1.51 
  -1  -4  -1   63.41    3.28 
   1  -4   1   66.50    3.26 
  -1   4  -1   64.53    3.28 
  -1   4  -1   70.04    3.36 
   1   4   1   63.86    3.30 
   1   4   1   64.68    3.28 
  -2  -4  -1    2.39    0.31 
  -2  -4  -1    2.67    0.31 
   2   4   1    1.61    0.27 
  -2   4  -1    2.00    0.36 
  -2   4  -1    2.28    0.30 
  -3  -4  -1    5.84    0.58 
  -3  -4  -1    6.24    0.63 
  -3   4  -1    6.02    0.68 
   3   4   1    6.19    0.56 
  -3   4  -1    5.66    0.61 
  -4  -4  -1    2.91    0.56 
  -4  -4  -1    4.25    0.64 
  -4   4  -1    3.14    0.55 
  -4   4  -1    3.33    0.64 
  -5  -4  -1    0.66    0.60 
  -5   4  -1    0.54    0.56 
  -5   4  -1    0.15    0.46 
   5  -5  -1    9.75    1.16 
  -5  -5   1   10.41    1.17 
   5   5  -1   11.59    1.20 
  -5   5   1    8.83    1.16 
  -4  -5   1   -0.03    0.38 
  -4  -5   1   -0.44    0.35 
  -4   5   1    0.01    0.45 
  -3  -5   1   24.61    1.39 
  -3  -5   1   22.27    1.48 
  -3  -5   1   24.01    1.45 
  -3   5   1   25.79    1.57 
  -3   5   1   24.26    1.44 
  -2  -5   1   36.49    2.01 
  -2  -5   1   35.72    1.96 
  -2  -5   1   36.20    1.97 
  -2   5   1   37.71    1.97 
  -2   5   1   38.37    2.07 
   1  -5  -1   14.55    0.80 
  -1  -5   1   13.93    0.84 
   1   5  -1   15.05    0.88 
  -1   5   1   14.46    0.90 
  -1   5   1   14.18    0.80 
   1   5  -1   14.80    0.81 
   0  -5   1  134.73    6.45 
   0   5  -1  127.62    6.49 
   0   5   1  127.73    6.46 
   1  -5   1   41.09    2.05 
  -1  -5  -1   40.31    2.10 
  -1  -5  -1   40.66    2.05 
  -1   5  -1   43.71    2.05 
   1   5   1   34.85    2.06 
  -1   5  -1   40.34    2.14 
  -2  -5  -1    5.55    0.47 
  -2  -5  -1    5.63    0.47 
  -2   5  -1    5.77    0.46 
  -2   5  -1    5.98    0.60 
   2   5   1    5.38    0.48 
  -3  -5  -1   16.75    1.14 
  -3  -5  -1   18.44    1.12 
  -3   5  -1   15.47    1.22 
   3   5   1   18.88    1.11 
  -3   5  -1   17.50    1.13 
  -4  -5  -1    1.28    0.48 
  -4   5  -1    1.38    0.55 
  -4   5  -1    1.90    0.48 
  -5  -5  -1    0.31    0.52 
  -5   5  -1    0.04    0.56 
  -5   5  -1   -0.31    0.42 
   5  -6  -1    1.07    0.62 
   5   6  -1    0.29    0.50 
  -5   6   1    1.11    0.67 
  -4  -6   1    3.36    0.65 
   4  -6  -1    3.75    0.64 
  -4   6   1    4.14    0.75 
  -3  -6   1   12.25    0.95 
  -3  -6   1   12.04    0.90 
  -3  -6   1   11.03    0.83 
  -3   6   1   11.68    1.03 
  -2  -6   1   14.55    1.00 
   2  -6  -1   15.66    0.94 
  -2  -6   1   16.83    0.99 
  -2   6   1   15.63    1.07 
   1  -6  -1   62.37    3.19 
  -1  -6   1   62.84    3.25 
   1   6  -1   64.45    3.20 
   1   6  -1   67.38    3.29 
  -1   6   1   60.17    3.20 
  -1   6   1   64.99    3.30 
   0  -6  -1    0.02    0.15 
   0  -6   1   -0.17    0.12 
   0   6   1    0.17    0.13 
   0   6  -1    0.21    0.16 
   1  -6   1   16.75    0.94 
  -1  -6  -1   16.05    0.92 
  -1  -6  -1   17.33    1.00 
  -1   6  -1   18.08    1.05 
   1   6   1   15.59    0.96 
  -1   6  -1   18.63    0.92 
  -2  -6  -1   47.43    2.53 
  -2  -6  -1   49.48    2.55 
  -2   6  -1   47.15    2.64 
   2   6   1   50.16    2.55 
  -2   6  -1   47.62    2.52 
  -3  -6  -1    0.28    0.29 
  -3  -6  -1    0.05    0.25 
   3   6   1    0.32    0.28 
  -3   6  -1   -0.15    0.33 
  -3   6  -1    0.25    0.24 
  -4  -6  -1   15.58    1.26 
  -4   6  -1   16.50    1.39 
  -4   6  -1   17.90    1.26 
  -5  -6  -1   -0.17    0.53 
  -5   6  -1   -0.07    0.46 
  -5   6  -1   -0.36    0.59 
   5  -7  -1    0.73    0.58 
  -5   7   1    0.56    0.67 
   5   7  -1    0.64    0.53 
  -4  -7   1   12.12    1.10 
   4  -7  -1   12.57    1.04 
  -4   7   1    9.93    1.15 
   4   7  -1   10.44    1.01 
  -3  -7   1   33.45    1.87 
   3  -7  -1   31.78    1.87 
  -3  -7   1   32.85    1.96 
  -3   7   1   33.98    2.05 
  -2  -7   1   48.62    2.65 
   2  -7  -1   46.99    2.55 
  -2  -7   1   47.55    2.59 
   2   7  -1   48.75    2.56 
  -2   7   1   53.81    2.71 
  -1  -7   1   18.17    1.11 
   1  -7  -1   18.57    1.03 
  -1   7   1   20.40    1.07 
  -1   7   1   19.96    1.17 
   1   7  -1   18.00    1.14 
   1   7  -1   19.86    1.04 
   0  -7  -1   48.17    2.61 
   0  -7   1   49.06    2.61 
   0   7   1   52.37    2.63 
   0   7  -1   52.80    2.67 
  -1  -7  -1   18.98    1.03 
   1  -7   1   18.73    1.08 
  -1  -7  -1   20.04    1.14 
  -1   7  -1   21.05    1.03 
   1   7   1   17.93    1.10 
  -1   7  -1   19.24    1.18 
  -2  -7  -1    2.34    0.32 
  -2   7  -1    2.52    0.32 
  -2   7  -1    2.53    0.44 
   2   7   1    1.99    0.33 
  -3  -7  -1   39.63    2.22 
  -3  -7  -1   40.07    2.24 
  -3   7  -1   39.82    2.39 
  -3   7  -1   40.03    2.22 
   3   7   1   40.97    2.24 
  -4  -7  -1    3.42    0.62 
  -4   7  -1    3.46    0.73 
  -4   7  -1    1.70    0.49 
  -5  -7  -1   14.13    1.41 
  -5   7  -1   15.07    1.37 
  -5   7  -1   14.35    1.54 
   5  -8  -1    0.52    0.55 
   5   8  -1    0.67    0.56 
  -5   8   1    0.10    0.68 
  -4  -8   1   34.18    2.10 
   4  -8  -1   32.86    2.03 
   4   8  -1   32.38    2.03 
  -4   8   1   34.08    2.24 
  -3  -8   1    8.56    0.77 
  -3  -8   1    8.48    0.85 
   3  -8  -1    7.37    0.69 
  -3   8   1    7.94    0.91 
   3   8  -1    7.28    0.71 
  -2  -8   1   20.85    1.29 
   2  -8  -1   22.56    1.22 
   2   8  -1   21.37    1.23 
  -2   8   1   22.16    1.41 
   2   8  -1   19.83    1.32 
  -1  -8   1   89.47    4.59 
  -1   8   1   91.81    4.55 
   1   8  -1   92.28    4.63 
   1   8  -1   92.78    4.50 
  -1   8   1   84.58    4.63 
   0  -8  -1    0.43    0.19 
   0  -8   1    0.04    0.17 
   0   8  -1    0.10    0.18 
   0   8   1    0.16    0.16 
   1  -8   1   35.66    1.76 
  -1  -8  -1   31.45    1.68 
  -1  -8  -1   30.86    1.79 
  -1   8  -1   33.21    1.86 
   1   8   1   32.89    1.78 
  -2  -8  -1   36.07    1.93 
  -2   8  -1   36.13    2.12 
  -2   8  -1   35.98    1.92 
   2   8   1   35.78    1.98 
  -3  -8  -1    1.02    0.37 
   3   8   1    0.45    0.32 
  -3   8  -1    1.03    0.32 
   3   8   1    1.08    0.37 
  -3   8  -1    1.71    0.54 
  -4  -8  -1    9.51    0.96 
  -4   8  -1    8.02    1.07 
  -4   8  -1    8.55    0.92 
  -5  -8  -1    5.85    0.94 
  -5   8  -1    6.82    0.95 
  -5   8  -1    6.10    1.07 
   5   9  -1    4.54    0.80 
  -5   9   1    4.31    1.00 
   4  -9  -1    0.01    0.36 
  -4  -9   1    0.53    0.48 
  -4   9   1   -0.02    0.53 
   4   9  -1    0.09    0.35 
   3  -9  -1    6.42    0.65 
  -3  -9   1    5.58    0.66 
  -3   9   1    6.68    0.87 
   3   9  -1    6.36    0.74 
   3   9  -1    6.38    0.66 
  -2  -9   1   25.09    1.49 
   2  -9  -1   25.55    1.39 
   2   9  -1   25.64    1.40 
   2   9  -1   23.19    1.50 
  -2   9   1   23.36    1.56 
  -1  -9   1    3.18    0.41 
  -1   9   1    4.06    0.41 
   1   9  -1    2.95    0.43 
  -1   9   1    2.96    0.43 
   0  -9  -1   63.84    3.32 
   0  -9   1   60.91    3.31 
   0   9  -1   70.80    3.41 
   0   9   1   61.51    3.33 
   1  -9   1   21.05    1.21 
  -1  -9  -1   22.72    1.27 
   1   9   1   19.89    1.22 
  -1   9  -1   19.56    1.29 
  -2  -9  -1   39.10    2.07 
  -2   9  -1   37.79    2.05 
  -2   9  -1   39.30    2.28 
   2   9   1   39.34    2.14 
  -3  -9  -1   17.01    1.17 
  -3   9  -1   17.18    1.13 
   3   9   1   17.69    1.25 
   3   9   1   19.12    1.29 
  -3   9  -1   16.55    1.41 
  -4  -9  -1    0.09    0.43 
  -4   9  -1   -0.05    0.53 
  -4   9  -1   -0.21    0.34 
  -5  -9  -1    1.93    0.71 
  -5   9  -1    1.29    0.80 
   4  10  -1    8.59    1.01 
  -4  10   1   11.98    1.29 
  -3 -10   1    7.55    0.80 
  -3  10   1    8.98    1.02 
   3  10  -1    9.91    0.91 
  -2 -10   1   15.41    1.07 
   2  10  -1   15.13    1.10 
  -2  10   1   14.59    1.15 
  -1 -10   1  100.79    5.08 
  -1  10   1  103.88    5.13 
   1  10  -1   96.38    5.10 
  -1  10   1   95.59    5.01 
   0 -10  -1    5.67    0.55 
   0 -10   1    4.56    0.50 
   0  10   1    5.60    0.55 
   0  10  -1    4.32    0.54 
   1 -10   1   48.83    2.82 
  -1 -10  -1   56.53    2.89 
   1  10   1   56.64    2.87 
  -1  10  -1   54.33    2.95 
  -2  10  -1   50.24    3.03 
   2  10   1   57.40    2.93 
   3  10   1   -0.02    0.38 
  -3  10  -1    0.17    0.48 
  -4  10  -1   12.59    1.41 
  -4  11   1    2.21    0.76 
  -3 -11   1   23.38    1.56 
   3  11  -1   25.17    1.63 
  -3  11   1   21.88    1.69 
  -2 -11   1   28.61    1.73 
  -2  11   1   27.80    1.84 
   2  11  -1   29.35    1.76 
  -1 -11   1    4.01    0.51 
  -1  11   1    4.06    0.53 
  -1  11   1    5.45    0.51 
   1  11  -1    3.35    0.50 
   0 -11   1  105.23    5.45 
   0 -11  -1   99.89    5.45 
   0  11  -1  104.54    5.51 
   0  11   1  118.09    5.50 
   1 -11   1   29.21    1.72 
  -1 -11  -1   33.00    1.80 
   1  11   1   31.30    1.78 
  -1  11  -1   29.11    1.83 
   2  11   1   12.17    0.89 
  -2  11  -1    9.79    1.05 
  -3  11  -1   19.64    1.57 
   3  11   1   18.04    1.37 
  -4  11  -1    2.42    0.79 
  -4  12   1    8.18    1.17 
  -3 -12   1    7.93    0.85 
   3  12  -1    6.01    0.84 
  -3  12   1    7.72    1.03 
  -2 -12   1    3.95    0.58 
  -2  12   1    4.01    0.64 
   2  12  -1    5.64    0.67 
  -1 -12   1   35.71    2.02 
  -1  12   1   32.85    2.05 
   1  12  -1   37.08    2.08 
   0 -12   1    9.85    0.81 
   0  12  -1    9.59    0.86 
   0  12   1   10.95    0.84 
   1 -12   1   43.20    2.40 
  -1 -12  -1   42.96    2.45 
   1  12   1   43.43    2.45 
  -1  12  -1   46.87    2.54 
   2  12   1   23.52    1.53 
  -2  12  -1   25.86    1.72 
   2  12   1   24.50    1.57 
  -3  12  -1    3.43    0.76 
   3  12   1    2.09    0.60 
  -4  12  -1   10.39    1.38 
   4  12   1   13.26    1.61 
  -4  13   1   -0.06    0.65 
  -3 -13   1   16.66    1.35 
  -3  13   1   17.42    1.52 
   3  13  -1   16.34    1.35 
  -2 -13   1   38.43    2.24 
  -2  13   1   38.23    2.34 
   2  13  -1   36.70    2.27 
  -1 -13   1    4.01    0.58 
  -1  13   1    4.94    0.64 
   1  13  -1    4.16    0.60 
  -1  13   1    4.52    0.55 
   0 -13   1   36.58    2.06 
   0  13   1   35.84    2.09 
   0  13  -1   34.55    2.12 
   1 -13   1    8.07    0.77 
  -1  13  -1    8.71    0.94 
   1  13   1   10.45    0.82 
  -2  13  -1    4.82    0.78 
   2  13   1    4.70    0.62 
   2  13   1    3.51    0.59 
  -3  13  -1   26.40    2.02 
   3  13   1   28.74    1.86 
   4  13   1    0.01    0.55 
  -4  13  -1    0.25    0.74 
  -3 -14   1    6.27    0.86 
   3  14  -1    6.49    0.87 
  -3  14   1    5.75    0.95 
  -2 -14   1   11.86    1.15 
   2  14  -1   14.06    1.18 
  -2  14   1   16.68    1.30 
  -1 -14   1   27.57    1.71 
  -1  14   1   24.38    1.63 
   1  14  -1   28.04    1.76 
  -1  14   1   30.03    1.79 
   0 -14   1    1.49    0.42 
   0  14   1    2.09    0.46 
   0  14   1    1.85    0.42 
   0  14  -1    1.47    0.45 
   1 -14   1   29.26    1.75 
  -1  14  -1   31.20    1.91 
   1  14   1   26.58    1.77 
  -2  14  -1   12.50    1.20 
   2  14   1   11.96    1.08 
  -3  14  -1   -0.17    0.54 
   3  14   1   -0.66    0.45 
  -3 -15   1    4.58    0.79 
  -3  15   1    4.85    0.90 
   3  15  -1    4.25    0.81 
  -2 -15   1   10.00    1.04 
   2  15  -1   10.56    1.10 
  -2  15   1   15.91    1.39 
  -1 -15   1   -0.54    0.34 
  -1  15   1   -0.24    0.32 
  -1  15   1    0.34    0.41 
   1  15  -1    0.47    0.39 
   0 -15   1   36.28    2.19 
   0  15   1   40.00    2.26 
   0  15  -1   40.13    2.30 
   0  15   1   33.90    2.15 
   1 -15   1   16.18    1.15 
   1  15   1   14.74    1.15 
   1  15   1   15.06    1.15 
  -1  15  -1   12.69    1.24 
  -2  15  -1    5.99    0.89 
   2  15   1    5.46    0.76 
   3  15   1   11.36    1.23 
  -3  15  -1   12.41    1.42 
  -3 -16   1    5.43    0.87 
  -3  16   1    6.78    1.08 
  -2 -16   1   10.54    1.04 
  -2  16   1   11.29    1.21 
   2  16  -1    8.01    0.99 
  -1 -16   1   26.59    1.74 
  -1  16   1   23.15    1.78 
   1  16  -1   28.65    1.83 
  -1  16   1   27.32    1.70 
   0 -16   1    1.13    0.48 
   0  16  -1    1.75    0.48 
   0  16   1    1.65    0.45 
   0  16   1    0.46    0.41 
   1 -16   1   13.29    1.09 
   1  16   1   13.57    1.11 
   1  16   1   10.86    1.06 
  -1  16  -1   13.17    1.25 
  -2  16  -1   16.97    1.50 
   2  16   1   15.48    1.35 
   3  16   1   -0.41    0.53 
  -3  16  -1    0.18    0.68 
  -2 -17   1    9.03    1.04 
   2  17  -1   10.23    1.10 
  -2  17   1    9.50    1.16 
  -1 -17   1    1.22    0.51 
  -1  17   1    0.26    0.48 
  -1  17   1    0.73    0.43 
   1  17  -1    0.79    0.44 
   0 -17   1   11.64    1.05 
   0  17   1    6.77    0.87 
   0  17   1    7.59    0.93 
   0  17  -1    9.78    1.05 
   1 -17   1    5.31    0.70 
   1  17   1    2.64    0.63 
   1  17   1    3.85    0.65 
  -1  17  -1    3.63    0.74 
  -2  17  -1    2.37    0.73 
   2  17   1    2.61    0.68 
  -2 -18   1    0.92    0.62 
  -2  18   1    0.88    0.61 
   2  18  -1    1.63    0.63 
  -1 -18   1    7.67    0.94 
  -1  18   1   11.57    1.18 
   1  18  -1    6.16    0.92 
  -1  18   1   11.38    1.34 
   0 -18   1   -0.05    0.44 
   0  18  -1   -0.01    0.43 
   0  18   1   -0.14    0.43 
   0  18   1    0.56    0.47 
   1 -18   1    2.80    0.75 
  -1  18  -1    2.52    0.70 
   1  18   1    3.18    0.67 
   2  18   1    5.69    0.91 
  -2  18  -1    7.14    1.10 
  -1 -19   1    0.82    0.55 
  -1  19   1    0.40    0.52 
   1  19  -1    1.19    0.56 
   0 -19   1    7.42    0.93 
   0  19   1    9.72    1.09 
   0  19   1    7.15    0.94 
   0  19  -1    6.05    0.95 
  -1  19  -1    1.80    0.68 
   1  19   1    2.09    0.67 
  -5   0   2   17.97    1.64 
   5   0  -2   19.81    1.57 
  -4   0   2    0.71    0.47 
   4   0  -2    0.65    0.38 
  -3   0   2   35.76    2.10 
   3   0  -2   37.82    2.08 
   2   0  -2   23.20    1.36 
  -2   0   2   25.30    1.40 
   1   0  -2   28.67    1.49 
  -1   0   2   28.10    1.44 
  -1   0   2   27.08    1.50 
   0   0   2   67.18    3.20 
   0   0   2   65.44    3.22 
   0   0  -2   60.17    3.34 
   1   0   2 1000.00   48.02 
  -1   0  -2  949.46   48.04 
  -1   0  -2  995.82   47.99 
  -2   0  -2   48.11    2.51 
  -2   0  -2   49.31    2.56 
  -3   0  -2   74.15    3.78 
  -3   0  -2   71.96    3.83 
  -4   0  -2    0.99    0.40 
  -4   0  -2    0.55    0.34 
  -5   0  -2    1.31    0.56 
  -5  -1   2    0.88    0.59 
   5  -1  -2    0.39    0.53 
   5   1  -2    0.02    0.52 
  -5   1   2    0.05    0.57 
   4  -1  -2   18.63    1.26 
  -4  -1   2   16.26    1.31 
  -4   1   2   14.78    1.29 
   4   1  -2   16.21    1.23 
   3  -1  -2   18.46    1.16 
  -3  -1   2   17.59    1.20 
   3   1  -2   17.71    1.15 
  -3   1   2   16.85    1.20 
  -2  -1   2    2.06    0.24 
  -2  -1   2    2.54    0.37 
   2  -1  -2    2.05    0.31 
   2   1  -2    2.00    0.31 
  -2   1   2    1.81    0.32 
   1  -1  -2  185.21    9.01 
  -1  -1   2  184.66    9.02 
  -1  -1   2  181.23    8.97 
   1   1  -2  184.78    9.01 
  -1   1   2  175.38    9.01 
  -1   1   2  181.67    8.96 
   0  -1   2   30.62    1.62 
   0  -1  -2   28.62    1.73 
   0  -1   2   32.06    1.62 
   0   1   2   34.15    1.63 
   0   1  -2   27.64    1.73 
   0   1   2   34.24    1.59 
  -1  -1  -2  123.84    6.02 
   1  -1   2  124.83    5.98 
  -1  -1  -2  121.34    5.95 
  -1   1  -2  116.83    6.01 
   1   1   2  119.98    6.01 
  -1   1  -2  119.78    5.99 
  -2  -1  -2   47.59    2.54 
  -2  -1  -2   48.14    2.48 
  -2   1  -2   49.79    2.52 
  -2   1  -2   48.93    2.54 
   2   1   2   47.32    2.48 
  -3  -1  -2   -0.11    0.19 
  -3  -1  -2   -0.03    0.25 
  -3   1  -2    0.24    0.25 
  -3   1  -2    0.07    0.22 
  -4  -1  -2   17.05    1.26 
  -4   1  -2   17.35    1.24 
  -4   1  -2   17.30    1.23 
  -5  -1  -2    3.09    0.72 
  -5   1  -2    2.71    0.68 
  -5  -2   2   11.77    1.25 
   5  -2  -2   10.58    1.21 
   5   2  -2   10.79    1.18 
  -5   2   2   11.81    1.32 
   4  -2  -2    4.16    0.62 
  -4  -2   2    4.27    0.68 
   4   2  -2    3.53    0.61 
  -4   2   2    3.21    0.64 
  -3  -2   2   18.54    1.26 
   3  -2  -2   20.11    1.23 
   3   2  -2   17.48    1.21 
  -3   2   2   20.42    1.28 
  -2  -2   2  180.49    8.97 
  -2  -2   2  184.59    8.87 
   2  -2  -2  170.60    8.94 
  -2   2   2  177.55    8.98 
   2   2  -2  184.49    8.95 
  -1  -2   2    2.75    0.31 
   1  -2  -2    3.11    0.29 
  -1  -2   2    3.39    0.29 
  -1   2   2    3.64    0.33 
  -1   2   2    2.89    0.26 
   1   2  -2    2.78    0.30 
   0  -2  -2  162.59    8.22 
   0  -2   2  161.53    8.12 
   0   2   2  159.31    8.09 
   0   2  -2  167.59    8.14 
   0   2   2  172.53    8.13 
  -1  -2  -2    1.82    0.22 
   1  -2   2    1.36    0.17 
  -1  -2  -2    1.61    0.13 
  -1   2  -2    1.12    0.19 
   1   2   2    1.37    0.20 
  -1   2  -2    1.46    0.21 
  -2  -2  -2    2.54    0.33 
  -2  -2  -2    2.56    0.27 
  -2   2  -2    2.07    0.32 
   2   2   2    2.66    0.29 
  -2   2  -2    1.77    0.30 
  -3  -2  -2   33.80    1.98 
  -3  -2  -2   37.21    1.94 
  -3   2  -2   34.58    1.99 
  -3   2  -2   35.10    1.99 
  -4  -2  -2    9.54    0.92 
  -4   2  -2    9.62    0.89 
  -4   2  -2    9.26    0.91 
  -5  -2  -2    4.99    0.82 
  -5   2  -2    3.10    0.67 
  -5  -3   2   -0.24    0.52 
   5  -3  -2    0.37    0.58 
  -5   3   2    0.61    0.59 
   5   3  -2    0.39    0.52 
  -4  -3   2   36.93    2.39 
   4  -3  -2   41.39    2.37 
   4   3  -2   43.58    2.40 
  -4   3   2   38.75    2.43 
   3  -3  -2   40.53    2.20 
  -3  -3   2   39.07    2.08 
  -3  -3   2   37.66    2.24 
  -3   3   2   38.39    2.25 
   3   3  -2   40.88    2.21 
  -2  -3   2   36.83    1.95 
   2  -3  -2   36.74    1.99 
  -2  -3   2   38.14    2.04 
   2   3  -2   35.75    2.00 
  -2   3   2   38.39    2.05 
   1  -3  -2  116.70    5.67 
  -1  -3   2  116.42    5.70 
  -1  -3   2  110.00    5.65 
   1   3  -2  119.92    5.67 
  -1   3   2  105.82    5.64 
   0  -3   2   46.21    2.31 
   0  -3  -2   45.07    2.40 
   0   3  -2   48.28    2.35 
   0   3  -2   39.20    2.39 
   0   3   2   48.12    2.29 
   0   3   2   45.40    2.32 
   1  -3   2   15.40    0.83 
  -1  -3  -2   15.81    0.86 
   1   3   2   14.90    0.79 
  -1   3  -2   15.33    0.89 
  -1   3  -2   14.14    0.84 
   1   3   2   15.76    0.87 
  -2  -3  -2   99.39    5.08 
  -2  -3  -2  101.88    5.01 
  -2   3  -2  100.54    5.11 
  -2   3  -2  101.28    5.08 
   2   3   2   98.72    5.03 
  -3  -3  -2    2.82    0.45 
  -3  -3  -2    2.77    0.38 
   3   3   2    3.10    0.37 
  -3   3  -2    2.71    0.41 
  -3   3  -2    3.05    0.47 
  -4  -3  -2   15.07    1.19 
  -4   3  -2   16.00    1.20 
  -4   3  -2   15.20    1.17 
  -5  -3  -2    5.29    0.88 
  -5   3  -2    4.95    0.78 
   5  -4  -2    1.45    0.63 
  -5  -4   2    0.80    0.62 
  -5   4   2    0.94    0.67 
   5   4  -2    0.59    0.53 
   4  -4  -2   11.67    1.03 
  -4  -4   2   10.33    1.07 
   4   4  -2   10.97    1.00 
  -4   4   2   11.83    1.12 
   3  -4  -2   10.28    0.82 
  -3  -4   2   11.28    0.74 
  -3  -4   2   10.76    0.91 
  -3   4   2   10.28    0.91 
   3   4  -2   10.06    0.81 
   2  -4  -2   60.38    3.05 
  -2  -4   2   56.17    3.09 
  -2  -4   2   57.05    3.01 
   2   4  -2   60.12    3.06 
  -2   4   2   59.89    3.11 
  -1  -4   2   11.56    0.76 
   1  -4  -2   11.99    0.70 
  -1  -4   2   11.09    0.70 
   1   4  -2   10.74    0.69 
  -1   4   2   13.12    0.69 
  -1   4   2   10.88    0.73 
   0  -4  -2  130.00    6.33 
   0  -4   2  130.21    6.28 
   0   4   2  131.14    6.26 
   0   4  -2  119.91    6.32 
   0   4   2  128.35    6.29 
   0   4  -2  119.17    6.33 
   1  -4   2   20.20    1.08 
  -1  -4  -2   19.46    1.10 
  -1   4  -2   21.62    1.10 
   1   4   2   20.27    1.11 
  -1   4  -2   20.25    1.16 
   1   4   2   19.43    1.05 
  -2  -4  -2    8.00    0.61 
  -2  -4  -2    8.31    0.54 
  -2   4  -2    8.45    0.60 
   2   4   2    7.74    0.59 
  -2   4  -2    8.46    0.71 
  -3  -4  -2   17.62    1.17 
  -3  -4  -2   18.71    1.12 
  -3   4  -2   18.40    1.26 
  -3   4  -2   18.71    1.18 
   3   4   2   17.91    1.11 
  -4  -4  -2    4.13    0.67 
  -4   4  -2    2.96    0.55 
  -4   4  -2    4.09    0.67 
  -5  -4  -2    2.56    0.73 
  -5   4  -2    3.10    0.67 
  -5  -5   2   -0.75    0.50 
   5  -5  -2    0.02    0.52 
  -5   5   2    0.03    0.61 
   5   5  -2    0.18    0.49 
  -4  -5   2    2.24    0.61 
   4  -5  -2    2.48    0.52 
  -4   5   2    2.94    0.66 
   4   5  -2    2.64    0.57 
   3  -5  -2   14.06    0.97 
  -3  -5   2   13.87    0.90 
  -3  -5   2   14.42    1.08 
  -3   5   2   12.38    1.06 
   3   5  -2   13.42    0.97 
  -2  -5   2    1.00    0.27 
   2  -5  -2    0.62    0.21 
  -2  -5   2    0.17    0.19 
   2   5  -2    0.79    0.23 
  -2   5   2    0.22    0.24 
   1  -5  -2  145.74    6.95 
  -1  -5   2  136.48    6.96 
   1   5  -2  139.78    6.95 
   1   5  -2  140.98    7.02 
  -1   5   2  139.66    7.00 
  -1   5   2  136.66    6.94 
   0  -5  -2   48.99    2.66 
   0  -5   2   52.74    2.65 
   0   5   2   56.19    2.66 
   0   5   2   52.10    2.64 
   0   5  -2   51.46    2.70 
   0   5  -2   49.64    2.66 
   1  -5   2   45.74    2.29 
  -1  -5  -2   44.19    2.30 
  -1   5  -2   45.74    2.39 
  -1   5  -2   45.43    2.29 
   1   5   2   43.34    2.27 
   1   5   2   44.52    2.33 
  -2  -5  -2   74.04    3.96 
  -2  -5  -2   77.92    3.93 
  -2   5  -2   79.63    4.06 
  -2   5  -2   79.53    3.97 
   2   5   2   77.68    3.97 
  -3  -5  -2    0.87    0.29 
  -3  -5  -2    0.98    0.33 
  -3   5  -2    0.99    0.41 
   3   5   2    0.93    0.30 
  -3   5  -2    1.36    0.32 
  -4  -5  -2    8.97    0.96 
  -4   5  -2   10.68    0.93 
  -4   5  -2    9.25    1.02 
  -5  -5  -2    3.14    0.73 
  -5   5  -2    3.30    0.69 
  -5  -6   2    6.56    0.97 
   5  -6  -2    6.62    0.98 
   5   6  -2    7.79    0.99 
  -5   6   2    8.26    1.19 
  -4  -6   2   -0.57    0.42 
   4  -6  -2   -0.21    0.35 
  -4   6   2    0.31    0.48 
   4   6  -2    0.16    0.36 
   3  -6  -2   12.73    0.95 
  -3  -6   2   15.73    1.08 
  -3  -6   2   14.16    0.94 
  -3   6   2   12.05    1.06 
   3   6  -2   12.75    0.95 
  -2  -6   2   16.73    1.00 
  -2  -6   2   16.56    1.08 
   2  -6  -2   15.77    0.99 
   2   6  -2   16.77    1.00 
  -2   6   2   15.32    1.09 
  -1  -6   2   40.61    2.10 
   1  -6  -2   36.36    2.06 
  -1   6   2   40.00    2.15 
  -1   6   2   42.80    2.08 
   1   6  -2   38.92    2.06 
   1   6  -2   39.62    2.15 
   0  -6  -2   84.72    4.29 
   0  -6   2   85.78    4.30 
   0   6   2   83.56    4.30 
   0   6  -2   85.07    4.28 
   0   6   2   84.78    4.31 
   0   6  -2   89.46    4.37 
  -1  -6  -2   56.73    2.82 
   1  -6   2   57.81    2.83 
   1   6   2   55.14    2.88 
  -1   6  -2   51.26    2.80 
   1   6   2   54.76    2.82 
  -1   6  -2   57.90    2.95 
  -2  -6  -2    0.05    0.18 
  -2   6  -2   -0.13    0.24 
   2   6   2    0.00    0.20 
   2   6   2    0.24    0.17 
  -2   6  -2   -0.13    0.15 
  -3  -6  -2   43.49    2.44 
  -3   6  -2   38.40    2.52 
   3   6   2   48.25    2.41 
  -3   6  -2   45.18    2.43 
  -4  -6  -2    0.24    0.42 
  -4   6  -2    0.71    0.48 
  -4   6  -2    1.27    0.43 
  -5  -6  -2    0.55    0.58 
  -5   6  -2    0.74    0.63 
  -5   6  -2    0.74    0.55 
  -5  -7   2    0.05    0.53 
   5  -7  -2   -0.01    0.52 
   5   7  -2    0.08    0.51 
  -5   7   2    0.54    0.65 
  -4  -7   2    3.97    0.70 
   4  -7  -2    4.35    0.66 
   4   7  -2    4.96    0.70 
  -4   7   2    6.02    0.88 
   3  -7  -2   22.08    1.39 
  -3  -7   2   20.92    1.49 
  -3  -7   2   22.56    1.40 
  -3   7   2   23.53    1.56 
   3   7  -2   23.69    1.41 
   2  -7  -2    7.43    0.59 
  -2  -7   2    7.42    0.72 
  -2  -7   2    7.60    0.65 
   2   7  -2    8.00    0.61 
  -2   7   2    9.34    0.76 
  -1  -7   2   28.37    1.52 
   1  -7  -2   28.27    1.46 
   1   7  -2   26.98    1.56 
  -1   7   2   29.61    1.57 
   1   7  -2   28.32    1.46 
  -1   7   2   22.05    1.45 
   0  -7  -2    7.24    0.47 
   0  -7   2    6.51    0.52 
   0   7   2    6.05    0.56 
   0   7  -2    6.35    0.61 
   0   7   2    6.86    0.54 
  -1  -7  -2   12.91    0.78 
   1  -7   2   13.89    0.82 
  -1   7  -2   13.20    0.94 
   1   7   2   14.20    0.87 
   1   7   2   12.98    0.79 
  -1   7  -2   14.01    0.77 
  -2  -7  -2    0.69    0.24 
   2   7   2    1.27    0.30 
  -2   7  -2    1.08    0.24 
   2   7   2    0.97    0.23 
  -2   7  -2    1.45    0.38 
  -3  -7  -2    0.69    0.33 
  -3   7  -2    0.67    0.31 
  -3   7  -2    0.31    0.45 
   3   7   2    0.96    0.34 
  -4  -7  -2    2.26    0.59 
  -4   7  -2    2.14    0.67 
  -4   7  -2    1.66    0.48 
  -5  -7  -2    4.27    0.80 
  -5   7  -2    1.53    0.74 
  -5   7  -2    3.22    0.71 
   5  -8  -2    2.85    0.75 
  -5  -8   2    2.48    0.76 
  -5   8   2    2.49    0.80 
   5   8  -2    1.45    0.62 
  -4  -8   2    2.63    0.65 
   4  -8  -2    3.37    0.60 
   4   8  -2    1.93    0.52 
  -4   8   2    3.58    0.75 
  -3  -8   2   19.09    1.25 
   3  -8  -2   18.95    1.23 
  -3  -8   2   18.33    1.34 
   3   8  -2   18.22    1.23 
  -3   8   2   19.70    1.42 
   2  -8  -2   20.53    1.19 
  -2  -8   2   22.48    1.28 
   2   8  -2   18.88    1.29 
   2   8  -2   19.86    1.20 
  -2   8   2   19.31    1.33 
  -1  -8   2    1.32    0.28 
   1  -8  -2    1.34    0.23 
   1   8  -2    1.26    0.22 
   1   8  -2    1.41    0.32 
  -1   8   2    1.92    0.35 
  -1   8   2    1.06    0.23 
   0  -8   2    5.16    0.49 
   0   8   2    5.99    0.51 
   0   8   2    5.69    0.49 
   0   8  -2    4.98    0.55 
   1  -8   2   24.50    1.37 
  -1  -8  -2   24.82    1.32 
  -1   8  -2   24.60    1.49 
  -1   8  -2   26.06    1.31 
   1   8   2   24.97    1.43 
   1   8   2   22.79    1.36 
  -2  -8  -2    0.74    0.25 
   2   8   2    1.32    0.26 
   2   8   2    0.87    0.30 
  -2   8  -2    0.48    0.33 
  -2   8  -2    1.15    0.26 
  -3  -8  -2    5.58    0.65 
  -3   8  -2    7.04    0.68 
  -3   8  -2    5.66    0.80 
   3   8   2    6.01    0.69 
  -4  -8  -2    2.79    0.62 
  -4   8  -2    2.47    0.72 
  -4   8  -2    2.20    0.53 
  -5  -8  -2   -0.04    0.60 
  -5   8  -2    0.60    0.52 
  -5   8  -2   -0.35    0.57 
  -4  -9   2    3.41    0.72 
   4  -9  -2    2.96    0.56 
   4   9  -2    3.10    0.60 
  -4   9   2    3.41    0.77 
   3  -9  -2    0.20    0.29 
  -3  -9   2    0.24    0.35 
  -3  -9   2   -0.22    0.38 
  -3   9   2    0.62    0.45 
   3   9  -2   -0.06    0.28 
   3   9  -2    0.71    0.38 
  -2  -9   2    0.79    0.31 
   2  -9  -2    0.42    0.22 
   2   9  -2    0.40    0.29 
  -2   9   2    0.56    0.23 
   2   9  -2    0.56    0.23 
  -2   9   2    0.31    0.31 
  -1  -9   2   10.73    0.77 
  -1   9   2   11.04    0.82 
  -1   9   2   10.87    0.73 
   1   9  -2   11.11    0.69 
   1   9  -2    9.07    0.79 
   0  -9   2   16.36    0.99 
   0   9  -2   16.59    1.06 
   0   9   2   16.71    0.99 
   0   9   2   13.51    0.95 
   1  -9   2    5.76    0.51 
  -1  -9  -2    4.61    0.38 
   1   9   2    4.87    0.52 
   1   9   2    4.70    0.45 
  -1   9  -2    6.38    0.63 
  -1   9  -2    4.53    0.36 
  -2  -9  -2   19.63    1.12 
   2  -9   2   16.99    1.19 
   2   9   2   18.54    1.14 
  -2   9  -2   19.24    1.11 
  -2   9  -2   17.06    1.33 
   2   9   2   20.23    1.23 
  -3  -9  -2    1.01    0.38 
  -3   9  -2    1.77    0.64 
  -3   9  -2    1.00    0.33 
   3   9   2    0.35    0.38 
  -4  -9  -2    1.62    0.54 
  -4   9  -2    2.08    0.54 
  -4   9  -2    1.14    0.68 
   4  10  -2    0.03    0.48 
  -4  10   2   -0.18    0.55 
  -3 -10   2    3.23    0.55 
  -3  10   2    4.11    0.72 
   3  10  -2    2.88    0.60 
  -2 -10   2    4.11    0.54 
   2  10  -2    5.07    0.63 
  -2  10   2    3.54    0.59 
  -1 -10   2    0.11    0.26 
  -1  10   2    0.19    0.24 
  -1  10   2    0.16    0.20 
   1  10  -2   -0.16    0.22 
   0 -10   2   14.58    0.96 
   0  10   2   13.50    0.95 
   0  10  -2   15.55    1.04 
   0  10   2   14.46    0.95 
   1 -10   2    1.15    0.30 
  -1  10  -2    0.48    0.31 
   1  10   2    1.01    0.30 
   1  10   2    1.30    0.27 
  -2  10  -2    1.10    0.47 
   2  10   2    0.72    0.28 
   2  10   2    1.61    0.40 
  -3  10  -2    0.43    0.53 
   3  10   2    0.77    0.44 
  -4  10  -2   -0.84    0.57 
   4  11  -2    3.03    0.69 
  -4  11   2    3.63    0.86 
  -3 -11   2    0.04    0.39 
   3  11  -2   -0.36    0.35 
  -3  11   2   -0.20    0.44 
  -2 -11   2   -0.11    0.33 
   2  11  -2    0.24    0.33 
  -2  11   2    0.03    0.36 
  -1 -11   2    0.28    0.27 
  -1  11   2    0.19    0.30 
   1  11  -2   -0.17    0.23 
  -1  11   2    0.07    0.20 
   0 -11   2   15.19    1.10 
   0  11   2   18.86    1.13 
   0  11   2   16.43    1.11 
   0  11  -2   18.47    1.21 
   1 -11   2    0.41    0.26 
   1  11   2    0.45    0.23 
  -1  11  -2    0.42    0.34 
   1  11   2    0.35    0.28 
  -2  11  -2    9.90    1.01 
   2  11   2    6.79    0.74 
  -3  11  -2   -0.02    0.49 
   3  11   2   -0.02    0.40 
  -4  11  -2    0.28    0.67 
   4  12  -2    0.21    0.53 
  -4  12   2   -0.19    0.57 
  -3 -12   2    0.75    0.48 
   3  12  -2    0.66    0.43 
  -3  12   2   -0.30    0.46 
  -2 -12   2   -0.04    0.36 
   2  12  -2   -0.07    0.33 
  -2  12   2    0.85    0.47 
  -1 -12   2    0.54    0.34 
  -1  12   2    0.58    0.27 
   1  12  -2    0.42    0.30 
  -1  12   2    0.79    0.35 
   0 -12   2    8.23    0.78 
   0  12  -2    8.13    0.83 
   0  12   2    7.64    0.71 
   0  12   2    7.68    0.77 
   1 -12   2   -0.08    0.26 
  -1  12  -2    0.00    0.34 
   1  12   2   -0.11    0.30 
   1  12   2    0.14    0.24 
  -2  12  -2    1.32    0.60 
   2  12   2    0.40    0.37 
   3  12   2    0.29    0.45 
  -3  12  -2    1.21    0.65 
   4  12   2    0.53    0.77 
  -4  12  -2    0.79    0.75 
  -4 -13   2    1.98    0.68 
  -4  13   2    1.75    0.75 
   4  13  -2    1.74    0.68 
  -3 -13   2    0.52    0.51 
   3  13  -2    1.66    0.55 
  -3  13   2    0.18    0.54 
  -2 -13   2   -0.03    0.39 
  -2  13   2    0.48    0.43 
   2  13  -2    0.40    0.41 
  -1 -13   2    1.14    0.41 
  -1  13   2    1.85    0.46 
   1  13  -2    1.49    0.44 
  -1  13   2    1.68    0.40 
   0 -13   2   16.39    1.20 
   0  13  -2   19.21    1.30 
   0  13   2   16.02    1.18 
   0  13   2   18.72    1.22 
   1 -13   2    0.06    0.30 
   1  13   2    1.46    0.42 
  -1  13  -2    1.21    0.45 
   1  13   2    0.46    0.29 
  -2  13  -2   14.71    1.38 
   2  13   2   12.20    1.09 
  -3  13  -2    4.93    0.99 
   3  13   2    3.34    0.70 
   4  13   2    0.19    0.52 
  -4  13  -2    0.13    0.75 
  -3 -14   2    0.47    0.55 
  -3  14   2    1.32    0.63 
   3  14  -2    0.38    0.49 
  -2 -14   2    1.35    0.51 
   2  14  -2    1.31    0.48 
  -2  14   2    2.03    0.56 
  -1 -14   2    0.08    0.36 
  -1  14   2   -0.35    0.28 
   1  14  -2    0.36    0.37 
  -1  14   2    0.43    0.38 
   0 -14   2    0.33    0.35 
   0  14  -2    0.17    0.36 
   0  14   2   -0.02    0.30 
   0  14   2    0.30    0.33 
   1 -14   2   -0.11    0.31 
   1  14   2    0.10    0.36 
  -1  14  -2    0.36    0.43 
   1  14   2    0.20    0.28 
   2  14   2    8.67    0.95 
  -2  14  -2    8.27    1.04 
   3  14   2    1.00    0.57 
  -3  14  -2    0.09    0.64 
  -3 -15   2    1.31    0.60 
  -3  15   2    1.66    0.71 
   3  15  -2    1.14    0.55 
  -2 -15   2    0.06    0.45 
  -2  15   2    0.49    0.50 
   2  15  -2    0.59    0.47 
  -1 -15   2   11.09    0.99 
   1  15  -2   12.42    1.08 
  -1  15   2    9.59    0.95 
  -1  15   2    8.91    0.98 
   0 -15   2   -0.04    0.36 
   0  15   2    0.05    0.34 
   0  15   2    0.19    0.34 
   0  15  -2    0.26    0.40 
   1 -15   2    3.25    0.56 
   1  15   2    2.22    0.55 
  -1  15  -2    3.44    0.65 
  -2  15  -2    0.85    0.65 
   2  15   2    0.50    0.48 
  -3  15  -2    1.00    0.77 
   3  15   2    0.41    0.56 
  -3 -16   2    0.32    0.59 
   3  16  -2    0.71    0.56 
  -3  16   2    1.11    0.70 
  -2 -16   2    3.61    0.74 
  -2  16   2    5.59    0.88 
   2  16  -2    3.62    0.72 
  -1 -16   2    0.74    0.49 
   1  16  -2    1.46    0.54 
  -1  16   2    0.71    0.42 
  -1  16   2    1.24    0.50 
   0 -16   2    5.74    0.73 
   0  16   2    4.21    0.65 
   0  16   2    5.78    0.75 
   0  16  -2    5.12    0.79 
   1 -16   2    5.27    0.73 
  -1  16  -2    5.94    0.88 
   1  16   2    5.71    0.79 
  -2  16  -2   -0.25    0.57 
   2  16   2    0.06    0.44 
   3  16   2    4.10    0.83 
  -3  16  -2    3.42    0.96 
  -2 -17   2    0.84    0.58 
  -2  17   2    0.79    0.58 
   2  17  -2    0.39    0.53 
  -1 -17   2   10.19    1.06 
   1  17  -2    9.29    1.06 
  -1  17   2   11.16    1.14 
  -1  17   2   11.84    1.06 
   0 -17   2    0.21    0.47 
   0  17   2    0.83    0.47 
   0  17   2    0.01    0.40 
   0  17  -2    0.41    0.44 
   1 -17   2    4.82    0.71 
   1  17   2    5.22    0.79 
  -1  17  -2    6.18    0.94 
   2  17   2    3.39    0.74 
  -2  17  -2    3.62    0.88 
  -2 -18   2   10.57    1.37 
   2  18  -2   12.27    1.29 
  -2  18   2   12.55    1.37 
  -1 -18   2   -0.04    0.49 
  -1  18   2    0.36    0.55 
  -1  18   2    0.11    0.56 
   1  18  -2    0.96    0.51 
   0 -18   2    6.80    0.87 
   0  18   2    7.80    0.95 
   0  18   2    5.27    0.80 
   0  18  -2    6.31    0.91 
   1 -18   2    6.78    1.27 
   1  18   2    6.67    0.92 
  -1  18  -2    6.78    1.06 
   0 -19   2    2.96    0.69 
   0  19   2    1.10    0.59 
   0  19  -2    0.88    0.59 
   5   0  -3    0.27    0.55 
  -5   0   3   -0.03    0.60 
  -4   0   3   -0.30    0.39 
   4   0  -3    0.05    0.36 
   3   0  -3    0.00    0.24 
  -3   0   3   -0.12    0.28 
  -2   0   3    0.16    0.22 
  -2   0   3   -0.17    0.13 
   2   0  -3   -0.20    0.15 
  -1   0   3    0.00    0.12 
  -1   0   3    0.02    0.15 
   1   0  -3   -0.17    0.13 
   0   0   3    0.05    0.13 
   0   0  -3    0.32    0.27 
   0   0   3    0.03    0.10 
  -1   0  -3    0.05    0.13 
  -1   0  -3    0.13    0.10 
   1   0   3   -0.14    0.12 
  -2   0  -3   -0.04    0.16 
   2   0   3   -0.23    0.16 
  -2   0  -3   -0.13    0.13 
  -3   0  -3   -0.16    0.23 
  -3   0  -3   -0.15    0.18 
  -4   0  -3    0.50    0.34 
  -5   0  -3   -0.69    0.43 
   5  -1  -3    1.34    0.61 
  -5  -1   3    0.87    0.63 
   5   1  -3    0.58    0.58 
  -5   1   3   -0.35    0.54 
  -4  -1   3    0.80    0.48 
   4  -1  -3    0.83    0.43 
  -4   1   3    0.16    0.44 
   4   1  -3    0.81    0.42 
   3  -1  -3    0.23    0.28 
  -3  -1   3    0.03    0.30 
  -3   1   3    0.20    0.29 
   3   1  -3   -0.01    0.24 
  -2  -1   3    9.19    0.68 
  -2  -1   3    8.11    0.54 
   2  -1  -3    7.20    0.61 
  -2   1   3    7.74    0.65 
  -2   1   3    8.10    0.52 
   2   1  -3    7.47    0.62 
  -1  -1   3   13.67    0.83 
   1  -1  -3   13.39    0.83 
  -1  -1   3   13.78    0.79 
  -1   1   3   12.41    0.78 
   1   1  -3   13.41    0.83 
  -1   1   3   14.49    0.83 
   0  -1   3    4.59    0.35 
   0  -1  -3    4.58    0.56 
   0  -1   3    4.45    0.35 
   0   1   3    3.68    0.30 
   0   1   3    4.94    0.37 
   0   1  -3    4.74    0.57 
  -1  -1  -3    0.33    0.17 
   1  -1   3    0.37    0.15 
  -1   1  -3    0.26    0.13 
  -1   1  -3    0.48    0.17 
   1   1   3    0.47    0.17 
   2  -1   3    4.53    0.44 
  -2  -1  -3    5.32    0.38 
  -2  -1  -3    5.11    0.48 
  -2   1  -3    5.67    0.46 
   2   1   3    5.42    0.48 
  -2   1  -3    5.80    0.49 
  -3  -1  -3    0.76    0.24 
  -3  -1  -3    0.34    0.27 
  -3   1  -3    0.86    0.31 
  -3   1  -3    0.69    0.26 
  -4  -1  -3    1.31    0.44 
  -4   1  -3    1.80    0.44 
  -5  -1  -3    2.13    0.66 
  -5   1  -3    1.48    0.56 
  -5  -2   3    1.33    0.67 
   5  -2  -3    1.63    0.64 
  -5   2   3    1.15    0.70 
   5   2  -3   -0.11    0.49 
   4  -2  -3    1.02    0.48 
  -4  -2   3    1.04    0.52 
   4   2  -3    1.09    0.45 
  -4   2   3    1.21    0.52 
  -3  -2   3   11.42    0.71 
   3  -2  -3    9.57    0.83 
  -3  -2   3   10.86    0.92 
  -3   2   3    9.83    0.90 
   3   2  -3    9.64    0.83 
  -2  -2   3    1.62    0.34 
  -2  -2   3    1.53    0.25 
   2  -2  -3    1.55    0.31 
  -2   2   3    2.83    0.39 
   2   2  -3    1.43    0.31 
  -1  -2   3   61.59    3.20 
   1  -2  -3   60.26    3.19 
  -1  -2   3   62.42    3.15 
  -1   2   3   61.57    3.17 
   1   2  -3   62.81    3.20 
  -1   2   3   64.08    3.15 
   0  -2  -3   19.58    1.25 
   0  -2   3   20.55    1.10 
   0   2  -3   18.83    1.27 
   0   2   3   19.27    1.12 
   0   2   3   20.87    1.05 
   0   2  -3   20.36    1.11 
  -1  -2  -3    0.43    0.17 
   1  -2   3    0.08    0.14 
  -1   2  -3    0.32    0.16 
   1   2   3    0.06    0.15 
  -1   2  -3    0.06    0.14 
  -2  -2  -3   25.94    1.35 
  -2  -2  -3   24.91    1.46 
  -2   2  -3   25.62    1.45 
  -2   2  -3   25.74    1.46 
   2   2   3   26.64    1.44 
  -3  -2  -3   -0.07    0.26 
  -3   2  -3    0.34    0.27 
  -3   2  -3    0.68    0.29 
   3   2   3    0.33    0.23 
  -4  -2  -3    0.08    0.36 
  -4   2  -3    0.76    0.37 
  -5  -2  -3    0.78    0.52 
  -5   2  -3   -0.16    0.38 
  -5  -3   3    3.33    0.81 
   5  -3  -3    3.55    0.81 
  -5   3   3    2.99    0.85 
   5   3  -3    4.03    0.82 
   4  -3  -3    0.60    0.42 
  -4  -3   3   -0.24    0.42 
  -4   3   3   -0.38    0.44 
   4   3  -3    0.00    0.36 
   3  -3  -3    7.08    0.73 
  -3  -3   3    7.94    0.61 
  -3  -3   3    7.71    0.79 
  -3   3   3    7.54    0.79 
   3   3  -3    7.32    0.70 
  -2  -3   3    3.77    0.46 
   2  -3  -3    3.31    0.42 
  -2  -3   3    3.58    0.38 
  -2   3   3    3.87    0.48 
   2   3  -3    4.04    0.46 
   1  -3  -3    1.61    0.26 
  -1  -3   3    1.85    0.29 
  -1  -3   3    1.34    0.24 
   1   3  -3    1.38    0.25 
  -1   3   3    1.39    0.22 
  -1   3   3    1.78    0.26 
   0  -3  -3    0.41    0.25 
   0  -3   3    0.62    0.17 
   0   3   3    0.28    0.11 
   0   3  -3    0.76    0.20 
   0   3   3    0.37    0.15 
   0   3  -3    0.41    0.27 
  -1  -3  -3   17.18    0.95 
   1  -3   3   15.78    0.89 
  -1   3  -3   15.29    0.92 
   1   3   3   15.79    0.93 
  -1   3  -3   15.18    0.94 
   2  -3   3   11.81    0.73 
  -2  -3  -3   12.71    0.70 
  -2  -3  -3   12.18    0.82 
  -2   3  -3   12.16    0.84 
  -2   3  -3   12.30    0.81 
   2   3   3   13.05    0.81 
  -3  -3  -3    4.47    0.55 
  -3   3  -3    4.23    0.55 
  -3   3  -3    4.28    0.53 
   3   3   3    4.14    0.45 
  -4  -3  -3    0.28    0.40 
  -4   3  -3    0.36    0.34 
  -5  -3  -3   -0.54    0.49 
  -5   3  -3    0.56    0.48 
   5  -4  -3   -0.03    0.51 
  -5  -4   3    0.32    0.57 
   5   4  -3   -0.96    0.44 
  -5   4   3   -0.11    0.59 
  -4  -4   3   12.40    1.26 
   4  -4  -3   12.65    1.11 
  -4   4   3   13.82    1.25 
   4   4  -3   14.91    1.14 
  -3  -4   3    2.50    0.50 
  -3  -4   3    2.97    0.40 
   3  -4  -3    1.52    0.39 
   3   4  -3    2.90    0.50 
  -3   4   3    2.75    0.48 
   2  -4  -3    0.17    0.19 
  -2  -4   3    0.07    0.24 
  -2  -4   3    0.22    0.19 
  -2   4   3    0.30    0.23 
   2   4  -3    0.61    0.23 
   1  -4  -3    7.19    0.53 
  -1  -4   3    7.59    0.54 
  -1  -4   3    7.27    0.57 
   1   4  -3    7.01    0.53 
  -1   4   3    7.20    0.53 
  -1   4   3    6.74    0.54 
   0  -4  -3    2.09    0.35 
   0  -4   3    2.34    0.28 
   0   4   3    2.29    0.29 
   0   4  -3    1.70    0.36 
   0   4  -3    2.32    0.31 
   0   4   3    2.07    0.22 
  -1  -4  -3    1.50    0.25 
   1  -4   3    1.50    0.22 
  -1   4  -3    1.41    0.28 
   1   4   3    1.47    0.26 
  -1   4  -3    1.30    0.22 
   2  -4   3   23.89    1.27 
  -2  -4  -3   24.21    1.36 
  -2  -4  -3   24.57    1.25 
  -2   4  -3   21.36    1.39 
   2   4   3   23.03    1.35 
  -2   4  -3   23.36    1.35 
  -3  -4  -3    1.40    0.38 
   3   4   3    1.12    0.31 
  -3   4  -3    0.32    0.35 
  -3   4  -3    0.60    0.29 
  -4  -4  -3    4.02    0.65 
  -4   4  -3    3.78    0.65 
  -4   4  -3    4.73    0.68 
  -5  -4  -3    0.71    0.60 
  -5   4  -3    0.82    0.52 
  -5  -5   3    2.52    0.78 
   5  -5  -3    1.84    0.66 
   5   5  -3    1.49    0.62 
  -5   5   3    0.63    0.69 
   4  -5  -3   10.22    0.98 
  -4  -5   3   10.98    1.11 
  -4   5   3   11.72    1.17 
   4   5  -3    8.06    0.93 
  -3  -5   3    6.97    0.64 
  -3  -5   3    8.81    0.84 
   3  -5  -3    6.51    0.71 
  -3   5   3    7.35    0.80 
   3   5  -3    8.38    0.81 
  -2  -5   3   49.69    2.62 
  -2  -5   3   51.93    2.71 
   2  -5  -3   51.57    2.65 
   2   5  -3   48.50    2.64 
  -2   5   3   46.85    2.69 
  -1  -5   3   15.71    0.96 
   1  -5  -3   16.86    0.97 
  -1  -5   3   16.33    1.03 
  -1   5   3   14.89    0.97 
  -1   5   3   16.49    1.00 
   1   5  -3   16.19    0.98 
   0  -5   3   65.92    3.32 
   0  -5  -3   66.34    3.39 
   0   5   3   65.28    3.28 
   0   5   3   61.40    3.33 
   0   5  -3   65.55    3.40 
   0   5  -3   66.38    3.39 
  -1  -5  -3   68.85    3.53 
   1  -5   3   70.50    3.51 
  -1   5  -3   65.66    3.51 
   1   5   3   68.36    3.44 
   1   5   3   70.35    3.56 
  -1   5  -3   71.92    3.61 
  -2  -5  -3    0.14    0.21 
   2   5   3    0.13    0.13 
  -2   5  -3    0.29    0.20 
  -2   5  -3    0.05    0.25 
   2   5   3   -0.11    0.19 
  -3  -5  -3   15.41    1.04 
   3   5   3   14.43    0.99 
  -3   5  -3   12.67    1.09 
  -3   5  -3   13.54    0.98 
  -4  -5  -3    1.70    0.52 
  -4   5  -3    1.10    0.50 
  -4   5  -3    1.57    0.48 
  -5  -5  -3    0.69    0.58 
  -5   5  -3    2.00    0.59 
  -5  -6   3    0.16    0.62 
   5  -6  -3   -0.67    0.50 
  -5   6   3   -0.49    0.60 
   5   6  -3    0.03    0.51 
   4  -6  -3    0.75    0.44 
  -4  -6   3    0.80    0.53 
   4   6  -3    0.18    0.38 
  -4   6   3    0.01    0.44 
  -3  -6   3    7.56    0.65 
   3  -6  -3    5.60    0.65 
  -3  -6   3    4.97    0.68 
   3   6  -3    5.38    0.65 
  -3   6   3    7.60    0.82 
  -2  -6   3    1.97    0.35 
  -2  -6   3    1.64    0.39 
   2  -6  -3    2.33    0.36 
   2   6  -3    2.31    0.35 
  -2   6   3    2.44    0.42 
  -1  -6   3   52.75    2.71 
   1  -6  -3   50.91    2.71 
   1   6  -3   54.15    2.72 
  -1   6   3   51.93    2.73 
  -1   6   3   45.05    2.68 
   1   6  -3   57.94    2.79 
   0  -6   3    5.88    0.49 
   0  -6  -3    5.74    0.54 
   0   6  -3    6.54    0.58 
   0   6   3    6.20    0.52 
   0   6   3    5.92    0.55 
   0   6  -3    6.31    0.61 
  -1  -6  -3   19.16    1.05 
   1  -6   3   16.40    1.02 
  -1   6  -3   17.43    1.15 
   1   6   3   17.36    0.97 
   1   6   3   17.89    1.08 
  -1   6  -3   19.25    1.02 
  -2  -6  -3   14.79    0.98 
  -2   6  -3   15.12    1.11 
   2   6   3   15.17    1.00 
  -2   6  -3   16.25    0.97 
  -3  -6  -3    7.35    0.74 
  -3   6  -3    6.64    0.69 
  -3   6  -3    6.18    0.80 
   3   6   3    6.93    0.68 
  -4  -6  -3    4.40    0.74 
  -4   6  -3    4.26    0.67 
  -4   6  -3    4.37    0.75 
  -5  -6  -3    6.09    0.94 
  -5   6  -3    4.53    0.81 
  -5  -7   3    3.97    0.88 
   5  -7  -3    4.10    0.80 
   5   7  -3    3.60    0.79 
  -5   7   3    3.22    0.86 
  -4  -7   3    1.51    0.59 
   4  -7  -3    0.83    0.45 
   4   7  -3    2.12    0.56 
  -4   7   3    1.84    0.65 
  -3  -7   3   -0.07    0.37 
  -3  -7   3   -0.02    0.29 
   3  -7  -3   -0.19    0.26 
   3   7  -3    0.33    0.30 
  -3   7   3   -0.21    0.32 
  -2  -7   3   78.87    4.05 
  -2  -7   3   77.98    3.96 
   2  -7  -3   76.85    3.95 
  -2   7   3   75.01    4.04 
   2   7  -3   73.58    3.95 
   1  -7  -3    3.99    0.42 
  -1  -7   3    3.37    0.41 
  -1   7   3    3.37    0.42 
   1   7  -3    3.24    0.45 
  -1   7   3    3.90    0.41 
   1   7  -3    3.37    0.41 
   0  -7   3   65.91    3.48 
   0  -7  -3   68.85    3.50 
   0   7   3   66.22    3.49 
   0   7  -3   69.45    3.57 
   0   7   3   67.68    3.47 
   0   7  -3   69.47    3.49 
   1  -7   3   19.20    1.12 
  -1  -7  -3   19.13    1.11 
   1   7   3   19.38    1.17 
  -1   7  -3   19.85    1.25 
  -1   7  -3   20.38    1.09 
   1   7   3   18.83    1.06 
   2  -7   3    0.14    0.20 
  -2  -7  -3    0.04    0.21 
  -2   7  -3   -0.10    0.31 
   2   7   3   -0.04    0.25 
  -2   7  -3    0.02    0.18 
  -3  -7  -3   11.36    0.90 
   3   7   3   11.10    0.88 
  -3   7  -3    8.54    0.81 
  -3   7  -3   10.10    1.05 
  -4  -7  -3    7.30    0.90 
  -4   7  -3    7.67    0.89 
  -4   7  -3    8.31    1.04 
  -5  -7  -3    0.14    0.60 
  -5   7  -3    0.44    0.51 
  -5  -8   3    0.19    0.64 
   5  -8  -3   -0.44    0.50 
  -5   8   3   -0.42    0.62 
   5   8  -3    0.65    0.56 
   4  -8  -3   10.45    0.98 
  -4  -8   3    8.25    1.06 
   4   8  -3    9.55    1.02 
  -4   8   3   10.53    1.19 
  -3  -8   3   53.60    3.02 
  -3  -8   3   53.59    2.90 
   3  -8  -3   52.85    2.89 
   3   8  -3   50.89    2.90 
  -3   8   3   55.25    3.04 
  -2  -8   3    0.17    0.27 
   2  -8  -3    0.55    0.23 
  -2   8   3    0.61    0.23 
  -2   8   3    0.43    0.32 
   2   8  -3    0.82    0.34 
   2   8  -3    0.53    0.24 
  -1  -8   3   77.82    3.97 
   1  -8  -3   76.13    3.94 
  -1   8   3   68.24    3.96 
   1   8  -3   78.43    3.95 
   1   8  -3   79.41    4.03 
  -1   8   3   80.31    3.94 
   0  -8  -3   45.00    2.45 
   0  -8   3   46.55    2.48 
   0   8   3   49.66    2.51 
   0   8   3   50.98    2.48 
   0   8  -3   47.42    2.58 
   0   8  -3   42.80    2.43 
   1  -8   3   23.68    1.29 
  -1  -8  -3   24.45    1.26 
  -1   8  -3   19.14    1.21 
   1   8   3   20.81    1.31 
   1   8   3   23.21    1.24 
  -1   8  -3   23.39    1.43 
  -2  -8  -3   31.87    1.77 
   2  -8   3   32.53    1.73 
  -2   8  -3   31.69    1.95 
   2   8   3   30.83    1.81 
  -2   8  -3   31.22    1.75 
  -3  -8  -3    1.98    0.45 
  -3   8  -3    1.14    0.57 
  -3   8  -3    1.62    0.38 
   3   8   3    1.78    0.45 
  -4  -8  -3    7.59    0.90 
  -4   8  -3    6.65    1.03 
  -4   8  -3    7.76    0.90 
  -4  -9   3    3.35    0.74 
   4  -9  -3    2.31    0.58 
   4   9  -3    3.62    0.66 
  -4   9   3    2.72    0.73 
  -3  -9   3   15.51    1.34 
   3  -9  -3   15.85    1.14 
  -3  -9   3   16.92    1.20 
  -3   9   3   16.44    1.32 
   3   9  -3   17.88    1.16 
  -2  -9   3   16.53    1.12 
   2  -9  -3   16.02    1.06 
   2   9  -3   16.51    1.19 
   2   9  -3   16.02    1.05 
  -2   9   3   16.20    1.10 
  -2   9   3   17.36    1.20 
   1  -9  -3    1.63    0.32 
  -1  -9   3    1.82    0.36 
  -1   9   3    1.55    0.36 
   1   9  -3    0.88    0.29 
   1   9  -3    1.16    0.33 
  -1   9   3    1.35    0.29 
   0  -9   3   18.89    1.23 
   0  -9  -3   20.44    1.17 
   0   9  -3   21.91    1.34 
   0   9  -3   19.04    1.13 
   0   9   3   22.76    1.25 
   0   9   3   21.44    1.22 
  -1  -9  -3   26.23    1.34 
   1  -9   3   23.27    1.39 
  -1   9  -3   24.72    1.55 
  -1   9  -3   23.37    1.30 
   1   9   3   22.05    1.42 
   1   9   3   24.64    1.35 
  -2  -9  -3    0.90    0.29 
   2  -9   3    1.13    0.30 
  -2   9  -3    0.52    0.24 
   2   9   3    1.36    0.36 
  -2   9  -3    1.60    0.48 
  -3  -9  -3   32.20    1.86 
  -3   9  -3   29.00    2.09 
   3   9   3   30.19    1.89 
  -3   9  -3   31.77    1.82 
  -4  -9  -3    1.88    0.58 
  -4   9  -3    0.79    0.69 
  -4   9  -3    1.53    0.52 
  -4 -10   3    8.03    1.05 
  -4  10   3    7.69    1.04 
  -3 -10   3   13.91    1.14 
  -3  10   3   14.37    1.25 
   3  10  -3   14.40    1.24 
  -2 -10   3    0.39    0.35 
  -2  10   3    1.26    0.44 
   2  10  -3    1.05    0.39 
  -1 -10   3   44.87    2.44 
   1  10  -3   43.39    2.50 
  -1  10   3   43.39    2.39 
  -1  10   3   46.13    2.47 
   0 -10   3   51.33    2.83 
   0  10  -3   52.05    2.92 
   0  10   3   52.75    2.82 
   0  10   3   56.56    2.85 
   1 -10   3   17.80    1.18 
   1  10   3   19.06    1.23 
   1  10   3   19.41    1.13 
  -1  10  -3   20.59    1.36 
   2  10   3   40.80    2.41 
  -2  10  -3   46.12    2.63 
  -3  10  -3    2.05    0.68 
   3  10   3    2.20    0.51 
  -4  10  -3    3.40    0.88 
  -4  11   3    6.61    1.02 
   4  11  -3    7.41    1.01 
  -3 -11   3    3.01    0.62 
   3  11  -3    3.13    0.66 
  -3  11   3    4.99    0.79 
  -2 -11   3   45.36    2.54 
  -2  11   3   46.12    2.61 
   2  11  -3   42.90    2.60 
  -1 -11   3    3.78    0.49 
  -1  11   3    3.40    0.48 
   1  11  -3    2.59    0.49 
  -1  11   3    2.59    0.48 
   0 -11   3   35.28    2.03 
   0  11   3   31.17    2.01 
   0  11   3   38.94    2.04 
   0  11  -3   40.97    2.17 
   1 -11   3   82.54    3.93 
   1  11   3   76.43    3.97 
  -1  11  -3   72.10    4.06 
   1  11   3   69.42    3.87 
   2  11   3    0.12    0.34 
  -2  11  -3    0.36    0.46 
  -3  11  -3   19.15    1.71 
   3  11   3   22.93    1.52 
  -4  11  -3    3.48    0.94 
   4  12  -3    5.10    0.93 
  -4  12   3    6.33    1.06 
  -3 -12   3   16.46    1.34 
   3  12  -3   15.77    1.41 
  -3  12   3   17.65    1.46 
  -2 -12   3    1.53    0.46 
  -2  12   3    1.80    0.48 
   2  12  -3    1.23    0.45 
  -1 -12   3   31.89    1.84 
  -1  12   3   30.61    1.86 
   1  12  -3   28.34    1.86 
  -1  12   3   31.37    1.79 
   0 -12   3    5.67    0.61 
   0  12   3    5.47    0.59 
   0  12   3    3.73    0.53 
   0  12  -3    3.41    0.56 
   1 -12   3    1.38    0.36 
   1  12   3    1.69    0.42 
  -1  12  -3    2.52    0.56 
  -2  12  -3   32.90    2.18 
   2  12   3   32.00    1.98 
   3  12   3    2.20    0.55 
  -3  12  -3    2.35    0.77 
  -4  12  -3    6.84    1.27 
  -4 -13   3    5.53    0.91 
   4  13  -3    6.19    0.99 
  -4  13   3    9.22    1.20 
  -3 -13   3    7.23    0.89 
   3  13  -3    6.86    0.96 
  -3  13   3    7.00    0.98 
  -2 -13   3   36.85    2.26 
  -2  13   3   40.79    2.35 
   2  13  -3   36.10    2.33 
  -1 -13   3   11.15    0.96 
  -1  13   3    8.65    0.87 
  -1  13   3   13.28    1.04 
   1  13  -3   12.68    1.06 
   0 -13   3   32.42    1.93 
   0  13  -3   31.76    2.04 
   0  13   3   32.66    1.93 
   0  13   3   33.39    1.91 
   1 -13   3   24.16    1.47 
   1  13   3   22.12    1.50 
  -1  13  -3   21.92    1.63 
   2  13   3    0.72    0.46 
  -2  13  -3    0.68    0.56 
   3  13   3    9.43    1.03 
  -3  13  -3   11.44    1.39 
  -3 -14   3    6.36    0.88 
  -3  14   3    6.78    1.01 
   3  14  -3    6.75    0.94 
  -2 -14   3   -0.43    0.46 
  -2  14   3    0.15    0.42 
   2  14  -3    0.02    0.41 
  -1 -14   3   39.37    2.22 
  -1  14   3   36.15    2.24 
   1  14  -3   36.31    2.29 
  -1  14   3   36.65    2.16 
   0 -14   3   11.72    1.01 
   0  14   3   13.11    1.03 
   0  14  -3   12.36    1.14 
   0  14   3   13.82    1.05 
   1 -14   3    8.56    0.85 
   1  14   3    7.71    0.88 
  -1  14  -3   10.59    1.07 
  -2  14  -3   23.35    1.83 
   2  14   3   24.30    1.65 
   3  14   3    0.73    0.51 
  -3  14  -3    0.32    0.66 
  -3 -15   3    1.48    0.65 
   3  15  -3    0.96    0.59 
  -3  15   3    0.77    0.65 
  -2 -15   3   12.85    1.19 
  -2  15   3   13.77    1.29 
   2  15  -3    9.50    1.10 
  -1 -15   3    0.10    0.44 
  -1  15   3   -0.07    0.34 
   1  15  -3    0.65    0.44 
  -1  15   3    0.33    0.40 
   0 -15   3   11.36    1.04 
   0  15   3   13.39    1.05 
   0  15  -3   10.88    1.11 
   0  15   3   10.50    1.00 
   1 -15   3   22.58    1.56 
   1  15   3   21.49    1.57 
  -1  15  -3   26.25    1.79 
  -2  15  -3    0.16    0.57 
   2  15   3    0.27    0.44 
   3  15   3    7.11    0.96 
  -3  15  -3    8.48    1.31 
  -2 -16   3   -0.04    0.52 
   2  16  -3   -0.75    0.43 
  -2  16   3   -0.58    0.43 
  -1 -16   3   27.06    1.74 
   1  16  -3   23.39    1.80 
  -1  16   3   21.37    1.63 
  -1  16   3   31.17    1.85 
   0 -16   3    9.69    0.97 
   0  16  -3    9.62    1.07 
   0  16   3    8.45    0.93 
   1 -16   3    4.02    0.66 
   1  16   3    2.94    0.65 
  -1  16  -3    3.16    0.76 
   2  16   3   13.24    1.23 
  -2  16  -3   12.31    1.44 
  -2 -17   3    9.09    1.08 
   2  17  -3    9.12    1.11 
  -2  17   3   11.05    1.19 
  -1 -17   3    2.47    0.65 
   1  17  -3    3.29    0.73 
  -1  17   3    2.61    0.68 
  -1  17   3    2.90    0.64 
   0 -17   3    7.29    0.91 
   0  17  -3    8.01    1.01 
   0  17   3    8.03    0.92 
   1 -17   3    4.50    0.73 
  -1  17  -3    5.56    0.93 
   1  17   3    6.34    0.87 
  -2  17  -3    0.31    0.70 
   2  17   3   -0.19    0.50 
  -1 -18   3    4.73    0.81 
  -1  18   3    4.78    0.83 
   1  18  -3    5.09    0.88 
   0 -18   3    3.93    0.71 
   0  18  -3    3.32    0.77 
   0  18   3    2.87    0.66 
   1  18   3    2.03    0.62 
  -1  18  -3    1.93    0.75 
  -5   0   4    7.03    1.11 
   5   0  -4    9.67    1.17 
   4   0  -4   29.28    1.92 
  -4   0   4   29.94    2.01 
  -3   0   4    9.29    0.89 
   3   0  -4   10.72    0.86 
   2   0  -4  100.22    5.12 
  -2   0   4   98.50    5.02 
  -2   0   4  100.92    5.14 
  -1   0   4    2.45    0.31 
  -1   0   4    2.22    0.31 
   1   0  -4    2.34    0.36 
   0   0  -4   20.25    1.31 
   0   0   4   19.27    1.10 
   0   0   4   18.97    1.06 
   1   0   4   64.18    3.13 
  -1   0  -4   63.32    3.20 
  -1   0  -4   55.82    3.05 
   2   0   4  102.94    5.25 
  -2   0  -4  104.03    5.19 
  -2   0  -4  106.05    5.32 
  -3   0  -4   44.43    2.48 
  -4   0  -4   12.56    1.08 
  -5   0  -4    1.06    0.58 
  -5  -1   4   -0.17    0.63 
   5  -1  -4    0.92    0.58 
   5   1  -4    0.67    0.58 
  -5   1   4    0.46    0.67 
   4  -1  -4    7.91    0.87 
  -4  -1   4    6.76    0.91 
   4   1  -4    8.06    0.93 
  -4   1   4    7.18    0.96 
   3  -1  -4   22.06    1.42 
  -3  -1   4   22.34    1.34 
  -3  -1   4   22.73    1.49 
  -3   1   4   22.10    1.47 
   3   1  -4   20.87    1.40 
   2  -1  -4    0.18    0.22 
  -2  -1   4    0.17    0.25 
  -2  -1   4    0.30    0.19 
  -2   1   4    0.22    0.24 
   2   1  -4    0.41    0.23 
  -2   1   4   -0.55    0.18 
  -1  -1   4   35.98    1.98 
   1  -1  -4   36.80    2.01 
  -1  -1   4   38.85    1.96 
  -1   1   4   37.21    1.97 
  -1   1   4   34.74    1.96 
   1   1  -4   36.52    2.01 
   0  -1   4   92.99    4.86 
   0  -1  -4  103.67    5.08 
   0  -1   4   97.44    4.87 
   0   1   4   93.03    4.82 
   0   1   4   95.01    4.88 
   0   1  -4  102.33    5.09 
   1  -1   4    6.14    0.52 
  -1  -1  -4    6.20    0.55 
  -1   1  -4    4.79    0.52 
   1   1   4    5.12    0.51 
  -1   1  -4    4.70    0.47 
   2  -1   4  100.02    5.03 
  -2  -1  -4   99.20    4.95 
  -2  -1  -4   98.26    5.11 
  -2   1  -4   95.99    5.10 
  -2   1  -4  103.70    5.02 
   2   1   4  102.29    5.06 
  -3  -1  -4    2.60    0.45 
   3   1   4    1.81    0.46 
  -3   1  -4    2.57    0.45 
  -4  -1  -4    5.54    0.73 
  -4   1  -4    6.19    0.76 
  -5  -1  -4    4.86    0.85 
  -5   1  -4    4.18    0.76 
   5  -2  -4    4.91    0.92 
  -5  -2   4    4.29    0.90 
  -5   2   4    6.10    1.02 
   5   2  -4    5.02    0.90 
  -4  -2   4   18.16    1.45 
   4  -2  -4   19.39    1.41 
  -4   2   4   18.62    1.49 
   4   2  -4   17.27    1.37 
  -3  -2   4    6.22    0.57 
  -3  -2   4    6.75    0.76 
   3  -2  -4    7.29    0.76 
   3   2  -4    6.31    0.72 
  -3   2   4    6.01    0.73 
  -2  -2   4   73.22    3.65 
  -2  -2   4   74.67    3.75 
   2  -2  -4   69.70    3.72 
  -2   2   4   75.11    3.74 
   2   2  -4   66.45    3.71 
  -2   2   4   68.33    3.61 
   1  -2  -4   81.01    4.13 
  -1  -2   4   79.39    4.05 
  -1  -2   4   77.55    4.09 
   1   2  -4   79.87    4.13 
  -1   2   4   79.20    4.07 
  -1   2   4   82.65    4.08 
   0  -2  -4   74.55    3.79 
   0  -2   4   70.90    3.60 
   0   2  -4   72.64    3.81 
   0   2   4   68.51    3.62 
   0   2   4   68.36    3.54 
   0   2  -4   71.43    3.61 
   1  -2   4   76.02    3.88 
  -1  -2  -4   78.99    3.97 
  -1   2  -4   77.13    3.95 
   1   2   4   78.66    3.94 
  -1   2  -4   72.54    3.90 
   2  -2   4   10.30    0.67 
  -2  -2  -4    9.41    0.74 
   2   2   4   10.45    0.75 
  -2   2  -4    8.82    0.67 
  -2   2  -4    9.51    0.72 
  -3  -2  -4   13.60    1.03 
   3   2   4   14.72    0.95 
  -3   2  -4   12.80    0.99 
  -4  -2  -4    6.83    0.85 
  -4   2  -4    7.72    0.88 
  -5  -2  -4    0.03    0.53 
  -5   2  -4    0.37    0.51 
   5  -3  -4    1.78    0.70 
  -5  -3   4    2.43    0.80 
   5   3  -4    2.80    0.74 
  -5   3   4    1.39    0.79 
  -4  -3   4    7.75    0.97 
   4  -3  -4    6.98    0.88 
  -4   3   4    6.64    0.91 
   4   3  -4    6.63    0.84 
  -3  -3   4  100.51    5.08 
  -3  -3   4  100.71    5.27 
   3  -3  -4  102.83    5.22 
  -3   3   4   93.46    5.24 
   3   3  -4  103.42    5.23 
  -2  -3   4    5.87    0.63 
  -2  -3   4    5.79    0.53 
   2  -3  -4    6.31    0.58 
   2   3  -4    5.50    0.59 
  -2   3   4    5.74    0.60 
  -2   3   4    5.29    0.50 
  -1  -3   4  196.76    9.38 
  -1  -3   4  170.37    9.41 
   1  -3  -4  197.17    9.44 
  -1   3   4  197.35    9.38 
   1   3  -4  182.25    9.43 
   0  -3   4   30.73    1.69 
   0  -3  -4   33.68    1.88 
   0   3  -4   30.39    1.88 
   0   3  -4   31.51    1.73 
   0   3   4   30.74    1.73 
   0   3   4   32.56    1.63 
   1  -3   4    4.49    0.41 
  -1  -3  -4    3.61    0.45 
   1   3   4    4.19    0.45 
  -1   3  -4    4.04    0.44 
  -1   3  -4    3.81    0.45 
  -2  -3  -4   14.94    0.99 
   2  -3   4   15.62    0.91 
   2   3   4   15.07    0.97 
  -2   3  -4   14.41    0.97 
  -2   3  -4   15.09    0.98 
  -3  -3  -4   13.35    1.03 
   3   3   4   14.13    0.97 
  -3   3  -4   15.08    1.02 
  -3   3  -4   12.20    0.98 
  -4  -3  -4    1.93    0.55 
  -4   3  -4    2.29    0.55 
  -5  -3  -4    4.26    0.85 
  -5   3  -4    4.25    0.81 
  -5  -4   4    4.49    0.93 
   5  -4  -4    4.32    0.88 
   5   4  -4    4.58    0.87 
  -5   4   4    4.66    1.01 
   4  -4  -4    0.19    0.39 
  -4  -4   4    0.48    0.49 
  -4   4   4    0.31    0.47 
   4   4  -4   -0.11    0.39 
  -3  -4   4    1.92    0.37 
  -3  -4   4    1.67    0.48 
   3  -4  -4    2.38    0.46 
   3   4  -4    2.01    0.42 
  -3   4   4    1.73    0.47 
  -2  -4   4   31.44    1.77 
  -2  -4   4   33.03    1.86 
   2  -4  -4   32.30    1.82 
  -2   4   4   31.62    1.84 
   2   4  -4   31.69    1.82 
  -2   4   4   32.44    1.74 
  -1  -4   4   14.19    0.89 
   1  -4  -4   14.39    0.92 
  -1  -4   4   15.40    0.94 
  -1   4   4   13.04    0.87 
  -1   4   4   12.50    0.85 
   1   4  -4   14.47    0.93 
   0  -4  -4   75.84    3.63 
   0  -4   4   67.18    3.44 
   0   4   4   64.72    3.37 
   0   4  -4   64.06    3.62 
   0   4   4   65.59    3.48 
   0   4  -4   67.72    3.49 
   1  -4   4   72.02    3.77 
  -1  -4  -4   74.55    3.84 
  -1   4  -4   75.08    3.85 
  -1   4  -4   76.52    3.83 
   1   4   4   73.26    3.81 
  -2  -4  -4    0.19    0.23 
   2  -4   4    0.07    0.17 
  -2   4  -4   -0.03    0.18 
  -2   4  -4    0.27    0.27 
   2   4   4    0.39    0.24 
  -3  -4  -4   20.79    1.34 
  -3   4  -4   20.38    1.35 
  -3   4  -4   18.39    1.28 
   3   4   4   19.48    1.25 
  -4  -4  -4    4.08    0.72 
  -4   4  -4    4.57    0.67 
  -5  -4  -4   -0.23    0.57 
  -5   4  -4   -0.27    0.43 
   5  -5  -4    1.79    0.67 
  -5  -5   4    0.22    0.64 
   5   5  -4    1.17    0.62 
  -5   5   4    1.14    0.71 
  -4  -5   4    7.20    0.96 
   4  -5  -4    7.89    0.89 
   4   5  -4    6.18    0.84 
  -4   5   4    6.72    0.92 
  -3  -5   4    5.46    0.57 
   3  -5  -4    5.20    0.63 
  -3  -5   4    4.03    0.65 
  -3   5   4    3.89    0.62 
   3   5  -4    4.27    0.58 
   2  -5  -4    0.29    0.23 
  -2  -5   4    0.24    0.31 
  -2  -5   4    0.53    0.25 
  -2   5   4    0.84    0.29 
  -2   5   4    0.30    0.22 
   2   5  -4    0.67    0.26 
   1  -5  -4   15.69    1.05 
  -1  -5   4   15.58    1.02 
  -1  -5   4   16.47    1.09 
  -1   5   4   18.62    1.04 
  -1   5   4   16.89    1.05 
   1   5  -4   17.21    1.09 
   0  -5   4   86.69    4.54 
   0  -5  -4   90.82    4.65 
   0   5   4   87.91    4.48 
   0   5   4   96.47    4.57 
   0   5  -4   84.83    4.66 
   0   5  -4   91.05    4.61 
  -1  -5  -4    0.52    0.24 
   1  -5   4    0.64    0.23 
  -1   5  -4    1.37    0.33 
   1   5   4    0.98    0.28 
  -1   5  -4    0.72    0.22 
  -2  -5  -4   41.51    2.27 
   2  -5   4   41.98    2.18 
  -2   5  -4   41.75    2.24 
   2   5   4   42.42    2.27 
  -2   5  -4   38.89    2.32 
  -3  -5  -4   10.17    0.92 
  -3   5  -4   11.10    0.99 
  -3   5  -4   11.80    0.89 
   3   5   4   10.22    0.88 
  -4  -5  -4    2.07    0.58 
  -4   5  -4    2.25    0.52 
  -5  -5  -4    3.05    0.80 
  -5   5  -4    1.58    0.58 
   5  -6  -4    4.75    0.85 
  -5  -6   4    4.45    0.93 
  -5   6   4    3.31    0.92 
   5   6  -4    3.31    0.76 
   4  -6  -4   12.11    1.12 
  -4  -6   4   12.21    1.26 
   4   6  -4   13.06    1.14 
  -4   6   4   14.71    1.29 
  -3  -6   4    7.71    0.86 
  -3  -6   4    8.33    0.76 
   3  -6  -4    6.71    0.76 
   3   6  -4    6.99    0.78 
  -3   6   4    8.73    0.91 
  -2  -6   4   39.43    2.27 
   2  -6  -4   35.06    2.18 
  -2  -6   4   42.70    2.18 
  -2   6   4   39.69    2.24 
   2   6  -4   43.26    2.23 
  -2   6   4   38.32    2.13 
   1  -6  -4    3.88    0.48 
  -1  -6   4    4.40    0.47 
  -1   6   4    4.46    0.48 
  -1   6   4    3.49    0.41 
   1   6  -4    4.29    0.51 
   1   6  -4    3.30    0.46 
   0  -6  -4    0.38    0.28 
   0  -6   4    0.23    0.21 
   0   6  -4    0.44    0.26 
   0   6   4    0.18    0.15 
   0   6   4   -0.23    0.18 
   0   6  -4    0.06    0.26 
  -1  -6  -4   53.91    2.82 
   1  -6   4   50.57    2.77 
   1   6   4   53.26    2.67 
  -1   6  -4   49.52    2.77 
   1   6   4   57.28    2.84 
  -1   6  -4   56.49    2.91 
  -2  -6  -4    1.89    0.36 
   2  -6   4    1.69    0.30 
   2   6   4    1.98    0.37 
  -2   6  -4    1.76    0.42 
  -2   6  -4    1.91    0.34 
  -3  -6  -4    5.00    0.65 
   3   6   4    3.92    0.55 
  -3   6  -4    4.71    0.60 
  -3   6  -4    4.54    0.69 
  -4  -6  -4    7.53    0.95 
  -4   6  -4   10.65    0.96 
  -5  -6  -4   -0.50    0.59 
  -5   6  -4    0.20    0.47 
   5  -7  -4    1.32    0.61 
  -5  -7   4    0.85    0.70 
  -5   7   4   -0.99    0.59 
   5   7  -4   -0.05    0.51 
   4  -7  -4    2.50    0.54 
  -4  -7   4    1.75    0.64 
  -4   7   4    2.09    0.63 
   4   7  -4    1.35    0.51 
  -3  -7   4    7.21    0.75 
  -3  -7   4    8.35    0.94 
   3  -7  -4    7.87    0.81 
   3   7  -4    8.11    0.83 
  -3   7   4    7.46    0.86 
   2  -7  -4    7.19    0.70 
  -2  -7   4    7.07    0.67 
  -2  -7   4    6.63    0.74 
  -2   7   4    7.05    0.69 
   2   7  -4    5.52    0.63 
  -2   7   4    6.41    0.61 
  -1  -7   4   27.17    1.50 
   1  -7  -4   26.64    1.54 
  -1   7   4   24.34    1.48 
  -1   7   4   24.90    1.47 
   1   7  -4   25.88    1.56 
   1   7  -4   26.28    1.55 
   0  -7   4   16.83    1.03 
   0  -7  -4   16.23    1.07 
   0   7  -4   15.47    1.06 
   0   7  -4   17.15    1.12 
   0   7   4   16.71    1.03 
   0   7   4   16.05    0.96 
   1  -7   4   15.66    0.97 
  -1  -7  -4   16.11    0.99 
  -1   7  -4   14.24    0.93 
   1   7   4   16.43    1.03 
  -1   7  -4   15.39    1.11 
  -2  -7  -4   13.85    0.96 
   2  -7   4   14.85    0.91 
  -2   7  -4   14.28    0.92 
  -2   7  -4   13.67    1.13 
   2   7   4   12.13    0.98 
  -3  -7  -4    0.00    0.34 
   3   7   4    0.22    0.31 
  -3   7  -4    1.18    0.60 
  -3   7  -4    0.07    0.27 
  -4  -7  -4    3.79    0.70 
  -4   7  -4    4.32    0.69 
   4  -8  -4    4.55    0.73 
  -4  -8   4    5.66    0.90 
  -4   8   4    5.67    0.91 
   4   8  -4    4.49    0.74 
  -3  -8   4    0.26    0.43 
  -3  -8   4    0.04    0.36 
   3  -8  -4    0.41    0.35 
   3   8  -4   -0.16    0.32 
  -3   8   4    0.56    0.40 
   2  -8  -4   48.49    2.60 
  -2  -8   4   47.39    2.60 
  -2   8   4   45.78    2.57 
   2   8  -4   46.34    2.68 
  -2   8   4   49.45    2.66 
   2   8  -4   47.15    2.59 
  -1  -8   4    4.60    0.51 
   1  -8  -4    4.24    0.56 
   1   8  -4    4.80    0.59 
  -1   8   4    4.43    0.52 
   1   8  -4    5.82    0.64 
  -1   8   4    4.69    0.53 
   0  -8  -4   14.62    0.98 
   0  -8   4   15.59    0.96 
   0   8  -4   14.86    1.05 
   0   8  -4   14.35    0.95 
   0   8   4   14.46    0.89 
   0   8   4   13.75    0.97 
   1  -8   4    3.09    0.40 
  -1  -8  -4    4.19    0.46 
   1   8   4    3.36    0.46 
  -1   8  -4    3.78    0.56 
  -1   8  -4    2.64    0.35 
  -2  -8  -4    3.32    0.46 
   2  -8   4    2.24    0.35 
   2   8   4    3.25    0.50 
  -2   8  -4    3.23    0.42 
  -2   8  -4    2.98    0.61 
  -3  -8  -4    4.07    0.61 
  -3   8  -4    2.76    0.73 
  -3   8  -4    3.61    0.52 
   3   8   4    2.60    0.57 
  -4  -8  -4    1.65    0.58 
  -4   8  -4    1.36    0.47 
  -4   8  -4    0.87    0.65 
   4  -9  -4    0.02    0.43 
  -4  -9   4    0.83    0.59 
  -4   9   4    0.13    0.53 
   4   9  -4    1.02    0.49 
  -3  -9   4    5.99    0.85 
   3  -9  -4    6.72    0.76 
  -3  -9   4    7.06    0.78 
   3   9  -4    5.72    0.71 
  -3   9   4    7.47    0.93 
  -2  -9   4    3.54    0.52 
   2  -9  -4    4.03    0.52 
   2   9  -4    2.24    0.52 
  -2   9   4    3.47    0.50 
   2   9  -4    3.60    0.51 
  -2   9   4    1.75    0.47 
   1  -9  -4    5.72    0.66 
  -1  -9   4    5.34    0.61 
   1   9  -4    4.99    0.64 
   1   9  -4    5.02    0.63 
  -1   9   4    6.98    0.60 
  -1   9   4    6.93    0.66 
   0  -9   4    3.64    0.47 
   0  -9  -4    4.95    0.54 
   0   9  -4    5.32    0.67 
   0   9   4    5.95    0.58 
   0   9   4    4.72    0.47 
   0   9  -4    4.88    0.50 
  -1  -9  -4    1.31    0.30 
   1  -9   4    1.22    0.31 
  -1   9  -4    1.32    0.25 
   1   9   4    0.95    0.34 
  -1   9  -4    1.17    0.44 
   2  -9   4    8.71    0.71 
  -2  -9  -4    8.41    0.74 
  -2   9  -4    8.77    0.69 
   2   9   4    6.66    0.78 
  -2   9  -4    9.45    1.03 
  -3  -9  -4    3.91    0.60 
   3   9   4    4.13    0.64 
  -3   9  -4    2.44    0.71 
  -3   9  -4    4.13    0.56 
  -4  -9  -4    0.18    0.53 
  -4   9  -4   -0.08    0.63 
  -4 -10   4   -0.81    0.54 
  -4  10   4   -0.20    0.50 
  -3 -10   4    1.69    0.53 
  -3  10   4    2.04    0.57 
   3  10  -4    1.82    0.59 
  -2 -10   4    7.85    0.79 
   2  10  -4    8.17    0.90 
  -2  10   4    7.67    0.83 
  -1 -10   4    4.34    0.57 
  -1  10   4    6.00    0.64 
  -1  10   4    6.02    0.63 
   1  10  -4    2.76    0.51 
   0 -10   4   -0.13    0.26 
   0  10   4    0.32    0.26 
   0  10   4    0.13    0.22 
   0  10  -4    0.39    0.32 
   1 -10   4   17.82    1.13 
  -1  10  -4   16.84    1.32 
   1  10   4   16.70    1.16 
   2  10   4    0.38    0.36 
  -2  10  -4    0.27    0.45 
  -3  10  -4    2.83    0.75 
   3  10   4    2.64    0.59 
  -4  10  -4   -0.71    0.63 
  -4  11   4    0.11    0.56 
   4  11  -4   -0.06    0.54 
  -3 -11   4    3.05    0.63 
  -3  11   4    3.53    0.71 
   3  11  -4    3.51    0.70 
  -2 -11   4   -0.44    0.35 
   2  11  -4    0.01    0.36 
  -2  11   4   -0.20    0.34 
  -1 -11   4    0.07    0.31 
   1  11  -4   -0.17    0.28 
  -1  11   4   -0.27    0.29 
  -1  11   4   -0.53    0.28 
   0 -11   4    0.08    0.29 
   0  11   4    0.21    0.27 
   0  11   4   -0.07    0.22 
   0  11  -4    0.57    0.35 
   1 -11   4    6.40    0.63 
   1  11   4    5.59    0.67 
  -1  11  -4    5.59    0.79 
  -2  11  -4    1.05    0.58 
   2  11   4    0.25    0.38 
   3  11   4    1.74    0.53 
  -3  11  -4    1.52    0.76 
  -4  11  -4   -0.71    0.75 
  -4  12   4    0.33    0.63 
   4  12  -4    0.56    0.64 
  -3 -12   4    0.24    0.51 
  -3  12   4    0.22    0.52 
   3  12  -4   -0.01    0.47 
  -2 -12   4    1.99    0.54 
   2  12  -4    1.15    0.49 
  -2  12   4    1.63    0.53 
  -1 -12   4    0.49    0.35 
  -1  12   4    0.05    0.30 
   1  12  -4    0.24    0.36 
  -1  12   4    0.19    0.31 
   0 -12   4    0.52    0.36 
   0  12   4    0.24    0.27 
   0  12   4    0.38    0.30 
   0  12  -4   -0.15    0.35 
   1 -12   4    4.20    0.56 
   1  12   4    4.46    0.64 
  -1  12  -4    4.21    0.75 
   2  12   4    0.38    0.41 
  -2  12  -4    1.35    0.62 
  -3  12  -4    0.53    0.71 
   3  12   4    0.33    0.47 
  -4  12  -4    1.03    0.87 
  -3 -13   4    1.72    0.69 
   3  13  -4    2.93    0.71 
  -3  13   4    2.40    0.68 
  -2 -13   4    1.85    0.56 
   2  13  -4    1.57    0.55 
  -2  13   4    2.09    0.55 
  -1 -13   4    0.69    0.39 
  -1  13   4    0.59    0.36 
  -1  13   4    0.28    0.35 
   1  13  -4    0.64    0.43 
   0 -13   4    0.84    0.39 
   0  13   4    0.98    0.40 
   0  13  -4    1.38    0.53 
   1 -13   4    3.68    0.55 
   1  13   4    3.85    0.63 
  -1  13  -4    4.66    0.80 
   2  13   4    0.59    0.44 
  -2  13  -4    1.21    0.65 
   3  13   4    2.61    0.65 
  -3  13  -4    3.26    0.95 
  -3 -14   4   -0.29    0.57 
  -3  14   4    0.24    0.58 
   3  14  -4    0.27    0.52 
  -2 -14   4    1.27    0.53 
   2  14  -4    1.36    0.54 
  -2  14   4    1.33    0.54 
  -1 -14   4    0.45    0.44 
  -1  14   4    0.78    0.39 
  -1  14   4    0.57    0.40 
   1  14  -4    0.69    0.50 
   0 -14   4    0.73    0.41 
   0  14   4    0.02    0.35 
   0  14  -4    0.98    0.50 
   1 -14   4    1.12    0.45 
  -1  14  -4    1.06    0.56 
   1  14   4    0.40    0.42 
  -2  14  -4   -0.28    0.58 
   2  14   4    0.42    0.48 
  -3  14  -4    7.16    1.26 
   3  14   4    5.76    0.89 
  -3 -15   4    4.09    0.80 
  -3  15   4    3.59    0.85 
   3  15  -4    3.35    0.78 
  -2 -15   4    0.11    0.52 
  -2  15   4    0.24    0.48 
   2  15  -4    0.11    0.51 
  -1 -15   4    3.71    0.63 
   1  15  -4    3.10    0.66 
  -1  15   4    4.04    0.66 
  -1  15   4    3.78    0.65 
   0 -15   4    2.96    0.59 
   0  15  -4    4.66    0.78 
   0  15   4    3.22    0.60 
   1 -15   4    2.05    0.54 
  -1  15  -4    2.76    0.72 
   1  15   4    2.54    0.61 
   2  15   4    3.03    0.67 
  -2  15  -4    3.10    0.87 
  -3  15  -4   -0.12    0.77 
   3  15   4    0.03    0.56 
  -2 -16   4    6.03    0.93 
  -2  16   4    4.65    0.82 
   2  16  -4    5.26    0.89 
  -1 -16   4    0.61    0.49 
  -1  16   4   -0.36    0.39 
  -1  16   4    0.53    0.45 
   1  16  -4   -0.20    0.46 
   0 -16   4   10.47    1.07 
   0  16  -4   10.11    1.20 
   0  16   4   11.96    1.08 
   1 -16   4    2.10    0.54 
  -1  16  -4    1.32    0.68 
   1  16   4    1.79    0.59 
  -2  16  -4   -0.31    0.73 
   2  16   4    0.26    0.51 
  -2 -17   4    1.06    0.62 
  -2  17   4    1.02    0.61 
   2  17  -4    0.50    0.61 
  -1 -17   4    6.14    0.89 
   1  17  -4    5.92    0.95 
  -1  17   4    6.95    0.90 
   0 -17   4    2.36    0.66 
   0  17  -4    4.11    0.81 
   0  17   4    3.96    0.72 
   1 -17   4    0.87    0.55 
  -1  17  -4    0.65    0.64 
   1  17   4    1.29    0.58 
   2  17   4    5.02    0.88 
  -2  17  -4    5.98    1.13 
  -1 -18   4    5.24    0.87 
   1  18  -4    4.50    0.88 
   0 -18   4    1.59    0.59 
   0  18   4    2.34    0.66 
   0  18  -4    2.21    0.72 
   1  18   4    4.97    0.85 
  -1  18  -4    5.49    1.04 
   5   0  -5    0.22    0.57 
  -5   0   5    0.85    0.70 
   4   0  -5    0.62    0.43 
  -4   0   5   -0.67    0.44 
   3   0  -5   -0.18    0.29 
  -3   0   5    0.03    0.35 
  -2   0   5   -0.20    0.24 
   2   0  -5   -0.21    0.21 
  -2   0   5   -0.23    0.20 
  -1   0   5    0.07    0.19 
   1   0  -5   -0.18    0.23 
  -1   0   5    0.18    0.23 
   0   0   5   -0.20    0.14 
   0   0  -5    0.18    0.32 
   0   0   5   -0.04    0.19 
  -1   0  -5    0.20    0.15 
   1   0   5   -0.02    0.23 
  -1   0  -5   -0.07    0.26 
   2   0   5   -0.07    0.23 
  -2   0  -5    0.41    0.27 
  -3   0  -5    0.06    0.30 
  -4   0  -5    0.11    0.40 
  -5   0  -5    0.32    0.48 
  -5  -1   5    1.39    0.72 
   5  -1  -5    0.77    0.58 
  -5   1   5    0.10    0.64 
   5   1  -5    1.16    0.61 
   4  -1  -5    0.84    0.50 
  -4  -1   5    0.40    0.53 
  -4   1   5    0.41    0.51 
   4   1  -5   -0.06    0.41 
   3  -1  -5    1.72    0.45 
  -3  -1   5    0.54    0.41 
  -3  -1   5    0.58    0.28 
  -3   1   5    0.35    0.37 
   3   1  -5    0.94    0.39 
   2  -1  -5    1.21    0.33 
  -2  -1   5    1.19    0.28 
  -2  -1   5    1.11    0.35 
   2   1  -5    1.20    0.34 
  -2   1   5    1.46    0.35 
  -2   1   5    0.91    0.26 
  -1  -1   5    5.87    0.55 
   1  -1  -5    6.12    0.67 
  -1  -1   5    6.05    0.56 
  -1   1   5    6.51    0.59 
  -1   1   5    6.31    0.53 
   1   1  -5    6.21    0.67 
   0  -1  -5   24.48    1.58 
   0  -1   5   24.54    1.38 
   0  -1   5   23.43    1.36 
   0   1  -5   26.10    1.63 
   0   1   5   24.23    1.39 
   0   1   5   23.77    1.31 
   1  -1   5    2.36    0.35 
  -1  -1  -5    1.92    0.42 
  -1   1  -5    1.66    0.38 
   1   1   5    1.87    0.34 
  -1   1  -5    1.43    0.26 
  -2  -1  -5    1.18    0.35 
   2  -1   5    1.76    0.32 
  -2   1  -5    2.00    0.39 
   2   1   5    1.29    0.32 
  -3  -1  -5    0.91    0.37 
  -3   1  -5    0.71    0.34 
   3   1   5    0.50    0.32 
  -4  -1  -5    0.74    0.48 
  -4   1  -5    0.61    0.43 
  -5  -1  -5    1.04    0.60 
  -5   1  -5    0.49    0.49 
   5  -2  -5    0.61    0.59 
  -5  -2   5   -0.93    0.58 
   5   2  -5    0.48    0.53 
  -5   2   5   -0.24    0.65 
  -4  -2   5    0.98    0.55 
   4  -2  -5    0.01    0.39 
  -4   2   5    0.39    0.50 
   4   2  -5    0.43    0.45 
  -3  -2   5    4.49    0.66 
   3  -2  -5    4.72    0.65 
  -3  -2   5    4.75    0.53 
   3   2  -5    4.47    0.65 
  -3   2   5    4.65    0.69 
  -2  -2   5    3.13    0.41 
   2  -2  -5    2.48    0.43 
  -2  -2   5    2.41    0.45 
  -2   2   5    3.08    0.39 
  -2   2   5    3.28    0.47 
   2   2  -5    2.67    0.44 
  -1  -2   5    0.22    0.21 
   1  -2  -5    0.12    0.25 
  -1  -2   5    0.22    0.21 
  -1   2   5   -0.04    0.17 
  -1   2   5    0.19    0.22 
   1   2  -5   -0.02    0.25 
   0  -2   5   19.38    1.14 
   0  -2  -5   21.85    1.36 
   0   2   5   19.23    1.15 
   0   2   5   18.31    1.05 
   0   2  -5   19.73    1.36 
   0   2  -5   18.58    1.14 
  -1  -2  -5    3.25    0.51 
   1  -2   5    3.71    0.42 
  -1   2  -5    2.96    0.49 
  -1   2  -5    3.35    0.40 
   1   2   5    3.56    0.44 
   2  -2   5    0.35    0.24 
  -2  -2  -5    0.26    0.26 
  -2   2  -5    0.25    0.23 
  -2   2  -5    0.27    0.24 
   2   2   5    0.84    0.29 
  -3  -2  -5    9.24    0.94 
   3   2   5    7.83    0.76 
  -3   2  -5    8.98    0.82 
  -4  -2  -5    0.12    0.41 
  -4   2  -5    0.13    0.40 
  -5  -2  -5    0.54    0.57 
  -5   2  -5   -0.27    0.44 
  -5  -3   5    0.48    0.72 
   5  -3  -5    0.45    0.57 
  -5   3   5    1.15    0.74 
   5   3  -5    1.47    0.62 
   4  -3  -5    5.27    0.80 
  -4  -3   5    4.23    0.82 
  -4   3   5    6.10    0.91 
   4   3  -5    5.08    0.83 
   3  -3  -5    1.11    0.41 
  -3  -3   5    1.58    0.37 
  -3  -3   5    1.33    0.47 
   3   3  -5    1.54    0.43 
  -3   3   5    2.26    0.51 
  -2  -3   5   18.28    1.23 
   2  -3  -5   20.29    1.24 
  -2  -3   5   18.64    1.16 
  -2   3   5   16.10    1.19 
  -2   3   5   19.09    1.14 
   2   3  -5   19.06    1.23 
  -1  -3   5    1.41    0.31 
  -1  -3   5    1.26    0.28 
   1  -3  -5    0.82    0.31 
  -1   3   5    0.91    0.28 
   1   3  -5    0.79    0.32 
  -1   3   5    1.24    0.26 
   0  -3  -5    3.52    0.59 
   0  -3   5    2.49    0.36 
   0   3  -5    3.82    0.45 
   0   3   5    2.75    0.41 
   0   3   5    2.92    0.30 
   0   3  -5    2.93    0.55 
  -1  -3  -5    1.12    0.34 
   1  -3   5    0.39    0.23 
   1   3   5    1.16    0.28 
  -1   3  -5    0.76    0.30 
  -1   3  -5    1.09    0.30 
  -2  -3  -5    2.69    0.46 
   2  -3   5    2.67    0.37 
  -2   3  -5    2.39    0.40 
   2   3   5    2.73    0.45 
  -2   3  -5    2.93    0.45 
  -3  -3  -5   13.09    1.08 
  -3   3  -5   13.48    1.02 
   3   3   5   13.84    1.00 
  -4  -3  -5    0.09    0.45 
  -4   3  -5   -0.29    0.34 
  -5  -3  -5    0.08    0.58 
  -5   3  -5    0.19    0.46 
   5  -4  -5    1.52    0.69 
  -5  -4   5    0.20    0.68 
  -5   4   5    1.62    0.79 
   5   4  -5    0.84    0.61 
   4  -4  -5    2.70    0.63 
  -4  -4   5    1.94    0.66 
   4   4  -5    2.09    0.55 
  -4   4   5    2.59    0.68 
   3  -4  -5   23.12    1.50 
  -3  -4   5   21.29    1.53 
  -3  -4   5   19.90    1.34 
  -3   4   5   22.74    1.53 
   3   4  -5   24.29    1.51 
   2  -4  -5    0.60    0.30 
  -2  -4   5   -0.33    0.21 
  -2  -4   5    0.53    0.32 
  -2   4   5    0.35    0.28 
  -2   4   5    0.74    0.27 
   2   4  -5    0.64    0.30 
  -1  -4   5    6.96    0.65 
  -1  -4   5    6.91    0.61 
   1  -4  -5    7.44    0.76 
  -1   4   5    7.76    0.62 
   1   4  -5    6.73    0.74 
  -1   4   5    6.37    0.56 
   0  -4  -5   13.32    1.02 
   0  -4   5   12.09    0.85 
   0   4  -5   13.44    0.92 
   0   4   5   12.77    0.76 
   0   4   5   13.36    0.91 
   0   4  -5   14.32    1.06 
  -1  -4  -5    2.76    0.46 
   1  -4   5    2.52    0.35 
   1   4   5    1.85    0.38 
  -1   4  -5    2.40    0.43 
  -1   4  -5    2.38    0.42 
   2  -4   5    9.83    0.72 
  -2  -4  -5    9.60    0.82 
  -2   4  -5    9.39    0.82 
   2   4   5   11.07    0.83 
  -2   4  -5    9.25    0.76 
  -3  -4  -5    1.28    0.44 
  -3   4  -5    1.17    0.38 
   3   4   5    1.44    0.41 
  -4  -4  -5    2.63    0.64 
  -4   4  -5    2.39    0.53 
  -5  -4  -5    1.04    0.63 
  -5   4  -5    0.68    0.56 
   5  -5  -5    2.11    0.71 
  -5  -5   5    2.63    0.82 
   5   5  -5    2.17    0.69 
  -5   5   5    2.63    0.84 
   4  -5  -5    5.41    0.84 
  -4  -5   5    4.52    0.84 
   4   5  -5    3.43    0.68 
  -4   5   5    4.87    0.82 
   3  -5  -5    0.46    0.37 
  -3  -5   5    1.05    0.47 
  -3  -5   5    1.23    0.36 
   3   5  -5    1.23    0.43 
  -3   5   5    0.30    0.37 
  -2  -5   5   17.77    1.29 
   2  -5  -5   17.88    1.23 
  -2  -5   5   17.82    1.19 
  -2   5   5   18.09    1.17 
  -2   5   5   21.31    1.25 
   2   5  -5   19.97    1.25 
  -1  -5   5   20.90    1.29 
   1  -5  -5   19.43    1.29 
  -1  -5   5   19.31    1.21 
   1   5  -5   19.75    1.32 
  -1   5   5   21.48    1.23 
   1   5  -5   19.51    1.26 
  -1   5   5   18.52    1.17 
   0  -5  -5    0.39    0.31 
   0  -5   5    0.39    0.24 
   0   5   5    0.15    0.13 
   0   5   5    0.37    0.24 
   0   5  -5    0.27    0.33 
   0   5  -5    0.17    0.24 
   1  -5   5   38.64    2.05 
  -1  -5  -5   35.85    2.13 
   1   5   5   37.13    2.09 
  -1   5  -5   39.09    2.12 
  -1   5  -5   37.57    2.16 
  -2  -5  -5    7.53    0.75 
   2  -5   5    7.77    0.65 
   2   5   5    7.51    0.71 
  -2   5  -5    6.75    0.73 
  -2   5  -5    7.81    0.68 
  -3  -5  -5    1.76    0.49 
   3   5   5    2.23    0.48 
  -3   5  -5    1.66    0.43 
  -4  -5  -5    5.30    0.79 
  -4   5  -5    5.65    0.80 
   4  -6  -5    0.60    0.49 
  -4  -6   5    0.56    0.54 
  -4   6   5    0.84    0.56 
   4   6  -5   -0.20    0.44 
   3  -6  -5    3.05    0.58 
  -3  -6   5    3.41    0.66 
  -3  -6   5    5.36    0.63 
   3   6  -5    4.20    0.62 
  -3   6   5    3.14    0.59 
  -2  -6   5    0.71    0.33 
  -2  -6   5    0.55    0.36 
   2  -6  -5    0.22    0.30 
  -2   6   5    0.53    0.33 
   2   6  -5    0.50    0.30 
  -2   6   5    0.82    0.33 
   1  -6  -5   33.79    2.09 
  -1  -6   5   35.47    2.01 
  -1   6   5   38.15    2.04 
   1   6  -5   37.78    2.15 
  -1   6   5   36.15    1.98 
   1   6  -5   36.47    2.08 
   0  -6   5   25.27    1.46 
   0  -6  -5   26.88    1.57 
   0   6   5   24.40    1.47 
   0   6   5   23.47    1.35 
   0   6  -5   25.91    1.56 
   0   6  -5   24.99    1.58 
   1  -6   5    6.46    0.60 
  -1  -6  -5    6.13    0.67 
   1   6   5    7.03    0.64 
  -1   6  -5    6.43    0.61 
  -1   6  -5    6.41    0.71 
   2  -6   5   19.06    1.18 
  -2  -6  -5   21.09    1.30 
  -2   6  -5   19.76    1.23 
  -2   6  -5   17.50    1.39 
   2   6   5   18.72    1.26 
  -3  -6  -5    1.91    0.51 
  -3   6  -5    2.02    0.57 
   3   6   5    2.30    0.47 
  -3   6  -5    1.87    0.44 
  -4  -6  -5    0.66    0.51 
  -4   6  -5   -0.16    0.36 
   4  -7  -5    6.38    0.89 
  -4  -7   5    5.25    0.91 
   4   7  -5    6.63    0.90 
  -4   7   5    5.75    0.90 
   3  -7  -5    0.65    0.41 
  -3  -7   5   -0.08    0.36 
  -3  -7   5    0.43    0.49 
   3   7  -5    0.42    0.35 
  -3   7   5   -0.20    0.36 
   2  -7  -5   13.27    0.99 
  -2  -7   5   11.24    1.04 
  -2  -7   5   12.68    0.97 
  -2   7   5   12.45    1.00 
   2   7  -5   10.97    0.95 
  -2   7   5   15.07    0.97 
   1  -7  -5   33.65    2.05 
  -1  -7   5   36.87    1.98 
   1   7  -5   31.95    2.07 
   1   7  -5   36.63    2.05 
  -1   7   5   34.12    1.93 
  -1   7   5   36.01    1.99 
   0  -7   5   15.75    1.01 
   0  -7  -5   15.38    1.10 
   0   7  -5   15.06    1.10 
   0   7   5   15.57    1.02 
   0   7  -5   15.23    1.10 
   0   7   5   14.57    0.90 
   1  -7   5   41.73    2.23 
  -1  -7  -5   44.75    2.31 
   1   7   5   39.75    2.27 
  -1   7  -5   39.52    2.24 
  -1   7  -5   39.28    2.37 
   2  -7   5    0.03    0.24 
  -2  -7  -5    0.14    0.32 
  -2   7  -5    0.00    0.41 
   2   7   5    0.11    0.30 
  -2   7  -5    0.20    0.24 
  -3  -7  -5    5.36    0.74 
  -3   7  -5    6.02    0.71 
   3   7   5    5.31    0.68 
  -3   7  -5    4.72    0.78 
  -4  -7  -5    3.45    0.72 
  -4   7  -5    2.32    0.57 
   4  -8  -5    3.82    0.74 
  -4  -8   5    3.96    0.81 
  -4   8   5    3.54    0.78 
   4   8  -5    4.12    0.76 
  -3  -8   5   20.67    1.41 
   3  -8  -5   20.91    1.45 
  -3  -8   5   18.62    1.53 
  -3   8   5   19.44    1.49 
   3   8  -5   20.80    1.44 
  -2  -8   5   20.17    1.40 
   2  -8  -5   21.94    1.44 
   2   8  -5   20.16    1.48 
  -2   8   5   26.16    1.44 
   2   8  -5   21.73    1.44 
  -2   8   5   22.74    1.48 
   1  -8  -5   19.46    1.45 
  -1  -8   5   22.05    1.39 
   1   8  -5   23.65    1.48 
  -1   8   5   24.18    1.41 
  -1   8   5   24.64    1.38 
   1   8  -5   20.72    1.49 
   0  -8  -5   50.39    2.54 
   0  -8   5   45.85    2.47 
   0   8   5   44.34    2.48 
   0   8  -5   44.43    2.52 
   0   8   5   42.66    2.37 
   0   8  -5   45.07    2.57 
  -1  -8  -5    1.14    0.36 
   1  -8   5    0.53    0.29 
  -1   8  -5    0.54    0.25 
  -1   8  -5    1.05    0.44 
   1   8   5    0.93    0.33 
  -2  -8  -5   22.78    1.38 
   2  -8   5   21.24    1.29 
  -2   8  -5   20.13    1.28 
  -2   8  -5   18.58    1.54 
   2   8   5   20.72    1.38 
  -3  -8  -5    5.84    0.75 
  -3   8  -5    2.99    0.70 
  -3   8  -5    3.82    0.57 
   3   8   5    4.47    0.67 
  -4  -8  -5    0.02    0.52 
  -4   8  -5    1.63    0.50 
   4  -9  -5   13.43    1.61 
  -4  -9   5   11.15    1.32 
  -4   9   5   10.78    1.27 
   4   9  -5   15.20    1.28 
  -3  -9   5    0.67    0.46 
   3  -9  -5    0.91    0.45 
  -3  -9   5    0.91    0.58 
   3   9  -5    0.65    0.49 
   3   9  -5    1.25    0.45 
  -3   9   5    0.48    0.46 
  -2  -9   5   45.56    2.55 
   2  -9  -5   47.87    2.57 
  -2   9   5   37.56    2.52 
   2   9  -5   48.58    2.57 
  -2   9   5   45.62    2.57 
  -1  -9   5    4.77    0.59 
   1  -9  -5    5.88    0.73 
   1   9  -5    4.83    0.65 
  -1   9   5    6.69    0.64 
  -1   9   5    5.95    0.67 
   1   9  -5    4.47    0.68 
   0  -9  -5   14.98    0.97 
   0  -9   5   10.57    0.85 
   0   9   5    9.20    0.85 
   0   9  -5   11.02    0.86 
   0   9  -5    9.79    0.96 
   1  -9   5   35.77    2.05 
  -1  -9  -5   37.72    2.08 
  -1   9  -5   36.98    2.01 
   1   9   5   35.00    2.10 
  -1   9  -5   38.17    2.28 
   2  -9   5    0.07    0.28 
  -2  -9  -5    0.02    0.35 
   2   9   5    0.35    0.35 
  -2   9  -5   -0.15    0.21 
  -2   9  -5    1.16    0.58 
  -3  -9  -5    7.29    0.82 
  -3   9  -5    5.40    0.98 
   3   9   5    7.40    0.86 
  -3   9  -5    8.60    0.79 
  -4  -9  -5    6.19    0.90 
  -4 -10   5    2.09    0.75 
   4  10  -5    0.72    0.64 
  -4  10   5    1.76    0.75 
  -3 -10   5   20.31    1.48 
  -3  10   5   19.19    1.54 
   3  10  -5   23.36    1.67 
  -2 -10   5    0.19    0.39 
   2  10  -5   -0.08    0.35 
  -2  10   5    0.35    0.37 
  -1 -10   5   22.04    1.38 
  -1  10   5   23.22    1.37 
  -1  10   5   17.88    1.33 
   1  10  -5   20.74    1.44 
   0 -10   5   26.75    1.64 
   0  10   5   27.70    1.67 
   0  10  -5   28.56    1.81 
   1 -10   5    2.57    0.45 
  -1  10  -5    1.89    0.62 
   1  10   5    1.80    0.44 
  -2  10  -5   32.40    2.22 
   2  10   5   31.38    1.96 
  -3  10  -5    4.85    0.99 
   3  10   5    7.62    0.87 
   4  11  -5    5.68    0.99 
  -4  11   5    7.35    1.10 
  -3 -11   5   -0.21    0.46 
  -3  11   5    0.10    0.48 
   3  11  -5   -0.28    0.47 
  -2 -11   5   21.90    1.55 
  -2  11   5   22.51    1.57 
   2  11  -5   24.30    1.64 
  -1 -11   5   15.04    1.10 
   1  11  -5   14.24    1.17 
  -1  11   5   14.02    1.05 
  -1  11   5   12.61    1.05 
   0 -11   5    7.00    0.74 
   0  11  -5    7.28    0.87 
   0  11   5    8.15    0.85 
   1 -11   5   27.21    1.66 
  -1  11  -5   28.19    1.93 
   1  11   5   26.63    1.72 
  -2  11  -5   14.13    1.45 
   2  11   5   14.52    1.18 
  -3  11  -5    5.43    1.09 
   3  11   5    6.40    0.87 
  -3 -12   5   17.29    1.50 
  -3  12   5   18.91    1.55 
   3  12  -5   21.23    1.65 
  -2 -12   5    2.99    0.61 
  -2  12   5    3.01    0.62 
   2  12  -5    2.81    0.62 
  -1 -12   5   27.04    1.70 
  -1  12   5   23.80    1.65 
   1  12  -5   28.27    1.82 
  -1  12   5   26.92    1.66 
   0 -12   5   23.51    1.55 
   0  12  -5   23.27    1.67 
   0  12   5   24.90    1.58 
   1 -12   5    4.28    0.60 
   1  12   5    5.12    0.69 
  -1  12  -5    3.46    0.74 
  -2  12  -5    9.73    1.23 
   2  12   5    8.06    0.94 
  -3  12  -5    5.16    1.12 
   3  12   5    5.17    0.84 
  -3 -13   5   -0.66    0.50 
   3  13  -5    0.72    0.57 
  -3  13   5   -0.15    0.48 
  -2 -13   5   25.26    1.69 
   2  13  -5   24.21    1.78 
  -2  13   5   23.00    1.70 
  -1 -13   5   21.71    1.52 
  -1  13   5   23.29    1.52 
   1  13  -5   23.75    1.66 
  -1  13   5   20.89    1.50 
   0 -13   5    0.73    0.39 
   0  13  -5    0.84    0.53 
   0  13   5    1.02    0.47 
   1 -13   5   30.17    1.92 
  -1  13  -5   35.12    2.24 
   1  13   5   31.70    2.00 
  -2  13  -5    0.90    0.70 
   2  13   5    2.12    0.59 
   3  13   5    6.09    0.89 
  -3  13  -5    4.13    1.13 
  -3 -14   5   18.09    1.46 
   3  14  -5   13.14    1.41 
  -3  14   5   13.81    1.42 
  -2 -14   5    0.67    0.54 
   2  14  -5    0.82    0.54 
  -2  14   5    0.38    0.51 
  -1 -14   5    6.69    0.84 
  -1  14   5   10.08    1.01 
   1  14  -5    8.65    1.05 
   0 -14   5   21.86    1.57 
   0  14   5   23.13    1.61 
   0  14  -5   27.24    1.85 
   1 -14   5    0.19    0.40 
   1  14   5   -0.18    0.39 
  -1  14  -5    0.50    0.57 
   2  14   5   15.77    1.33 
  -2  14  -5   15.18    1.65 
  -3  14  -5    5.40    1.24 
   3  14   5    4.80    0.87 
  -2 -15   5    8.41    0.98 
  -2  15   5    9.65    1.05 
   2  15  -5    5.38    0.94 
  -1 -15   5    5.55    0.78 
   1  15  -5    5.04    0.87 
  -1  15   5    5.81    0.84 
   0 -15   5    9.04    0.92 
   0  15   5    9.29    1.01 
   0  15  -5    7.50    1.03 
   1 -15   5   16.09    1.21 
   1  15   5   14.19    1.25 
  -1  15  -5   12.34    1.43 
   2  15   5    1.68    0.62 
  -2  15  -5    1.86    0.90 
  -2 -16   5    3.15    0.75 
   2  16  -5    2.87    0.76 
  -2  16   5    3.32    0.75 
  -1 -16   5    2.62    0.65 
   1  16  -5    3.11    0.73 
  -1  16   5    2.47    0.60 
   0 -16   5   20.19    1.53 
   0  16  -5   19.74    1.71 
   0  16   5   21.79    1.57 
   1 -16   5    0.17    0.47 
  -1  16  -5    0.10    0.57 
   1  16   5    0.40    0.48 
  -2  16  -5    8.73    1.35 
   2  16   5    5.46    0.93 
  -1 -17   5    6.42    0.87 
  -1  17   5    3.31    0.78 
   1  17  -5    4.54    0.88 
   0 -17   5    0.29    0.51 
   0  17   5    0.55    0.52 
   0  17  -5    0.94    0.66 
   1 -17   5    7.27    0.87 
  -1  17  -5    7.68    1.18 
   1  17   5    4.39    0.83 
  -5   0   6    0.98    0.79 
   5   0  -6    0.86    0.65 
  -4   0   6   23.25    1.75 
   4   0  -6   21.24    1.64 
   3   0  -6    7.73    0.90 
  -3   0   6    8.06    0.91 
   2   0  -6   41.93    2.38 
  -2   0   6   39.03    2.24 
  -2   0   6   42.72    2.35 
  -1   0   6   48.63    2.63 
   1   0  -6   46.79    2.76 
  -1   0   6   51.26    2.64 
   0   0   6    7.72    0.62 
   0   0  -6   10.35    0.93 
   0   0   6    8.31    0.71 
   1   0   6   42.21    2.22 
  -1   0  -6   37.59    2.37 
   2   0   6    8.98    0.79 
  -2   0  -6    9.32    0.86 
  -3   0  -6    0.90    0.40 
  -4   0  -6   15.83    1.32 
   5  -1  -6    6.87    1.10 
  -5  -1   6    5.05    1.02 
  -5   1   6    5.00    1.02 
   5   1  -6    5.43    0.99 
   4  -1  -6    2.37    0.69 
  -4  -1   6    2.07    0.68 
  -4   1   6    2.10    0.70 
   4   1  -6    0.83    0.51 
   3  -1  -6   30.83    1.99 
  -3  -1   6   33.56    2.03 
  -3  -1   6   30.30    1.88 
   3   1  -6   30.62    1.98 
  -3   1   6   33.17    2.03 
   2  -1  -6    1.68    0.43 
  -2  -1   6    1.14    0.38 
  -2  -1   6    1.34    0.35 
  -2   1   6    1.54    0.38 
  -2   1   6    1.63    0.39 
   2   1  -6    1.22    0.39 
   1  -1  -6   31.46    1.88 
  -1  -1   6   28.38    1.71 
  -1  -1   6   30.10    1.73 
   1   1  -6   27.45    1.84 
  -1   1   6   32.78    1.72 
  -1   1   6   30.59    1.73 
   0  -1   6   31.36    1.76 
   0  -1  -6   32.61    1.97 
   0   1  -6   30.96    1.73 
   0   1   6   32.37    1.69 
   0   1  -6   30.60    1.98 
   0   1   6   29.27    1.76 
   1  -1   6    3.67    0.48 
  -1  -1  -6    3.39    0.59 
  -1   1  -6    2.94    0.38 
  -1   1  -6    2.96    0.57 
   1   1   6    3.23    0.45 
  -2  -1  -6   19.62    1.35 
   2  -1   6   20.65    1.27 
   2   1   6   18.53    1.24 
  -2   1  -6   19.15    1.32 
  -3  -1  -6   28.16    1.69 
  -3   1  -6   25.07    1.64 
   3   1   6   22.57    1.57 
  -4  -1  -6    2.15    0.58 
  -4   1  -6    0.99    0.48 
  -5  -2   6    0.98    0.74 
   5  -2  -6    1.26    0.71 
   5   2  -6    2.37    0.81 
  -5   2   6    1.27    0.84 
   4  -2  -6    9.58    1.11 
  -4  -2   6    8.55    1.10 
   4   2  -6    9.67    1.11 
  -4   2   6   12.09    1.25 
  -3  -2   6    3.94    0.67 
   3  -2  -6    3.41    0.65 
  -3  -2   6    4.21    0.54 
   3   2  -6    5.04    0.73 
  -3   2   6    3.11    0.62 
  -2  -2   6   55.39    3.03 
  -2  -2   6   57.60    3.13 
   2  -2  -6   56.85    3.15 
  -2   2   6   60.52    3.04 
   2   2  -6   55.42    3.13 
  -2   2   6   55.68    3.09 
  -1  -2   6   40.07    2.20 
  -1  -2   6   39.12    2.16 
   1  -2  -6   36.45    2.30 
  -1   2   6   41.40    2.19 
   1   2  -6   38.86    2.33 
  -1   2   6   40.18    2.16 
   0  -2  -6    0.25    0.34 
   0  -2   6   -0.03    0.22 
   0   2  -6   -0.20    0.31 
   0   2   6    0.19    0.17 
   0   2   6   -0.08    0.23 
   0   2  -6    0.13    0.23 
  -1  -2  -6   47.49    2.93 
   1  -2   6   55.15    2.79 
  -1   2  -6   52.94    2.97 
   1   2   6   56.41    2.82 
  -1   2  -6   48.66    2.78 
   2  -2   6    8.19    0.75 
  -2  -2  -6    7.65    0.85 
  -2   2  -6    8.85    0.82 
   2   2   6    9.23    0.78 
  -3  -2  -6   15.81    1.18 
  -3   2  -6   14.03    1.10 
   3   2   6   12.03    1.02 
  -4  -2  -6    6.00    0.89 
  -4   2  -6    4.85    0.76 
   4  -3  -6   -0.31    0.43 
  -4  -3   6   -0.39    0.52 
   4   3  -6    0.47    0.48 
  -4   3   6   -0.36    0.46 
  -3  -3   6   22.82    1.57 
   3  -3  -6   21.89    1.52 
  -3  -3   6   20.22    1.34 
   3   3  -6   20.10    1.49 
  -3   3   6   20.54    1.51 
  -2  -3   6   82.25    4.17 
   2  -3  -6   80.28    4.27 
  -2  -3   6   79.75    4.25 
   2   3  -6   74.43    4.25 
  -2   3   6   80.58    4.22 
  -2   3   6   82.14    4.16 
  -1  -3   6   12.61    0.91 
   1  -3  -6   11.52    1.00 
  -1  -3   6   12.52    0.88 
   1   3  -6   13.45    1.05 
  -1   3   6   10.50    0.87 
  -1   3   6   11.24    0.82 
   0  -3  -6  164.23    7.91 
   0  -3   6  149.59    7.71 
   0   3   6  150.07    7.61 
   0   3  -6  144.47    7.73 
   0   3  -6  161.82    7.95 
  -1  -3  -6    0.52    0.41 
   1  -3   6    0.32    0.27 
  -1   3  -6    0.21    0.30 
  -1   3  -6    0.07    0.32 
   1   3   6   -0.03    0.29 
  -2  -3  -6   20.42    1.37 
   2  -3   6   18.77    1.23 
  -2   3  -6   20.32    1.33 
   2   3   6   18.49    1.27 
  -3  -3  -6    2.46    0.58 
   3   3   6    1.86    0.46 
  -3   3  -6    2.68    0.53 
  -4  -3  -6   -0.11    0.46 
  -4   3  -6   -0.14    0.37 
  -4  -4   6   10.09    1.21 
   4  -4  -6   12.46    1.28 
   4   4  -6   10.85    1.23 
  -4   4   6   11.46    1.26 
  -3  -4   6    5.85    0.67 
  -3  -4   6    6.63    0.84 
   3  -4  -6    6.49    0.83 
  -3   4   6    6.07    0.82 
   3   4  -6    6.71    0.84 
  -2  -4   6    3.72    0.58 
   2  -4  -6    4.47    0.64 
  -2  -4   6    5.14    0.58 
  -2   4   6    4.36    0.56 
   2   4  -6    3.76    0.60 
  -2   4   6    2.99    0.48 
  -1  -4   6   18.07    1.13 
   1  -4  -6   16.18    1.24 
  -1  -4   6   17.53    1.18 
  -1   4   6   17.82    1.15 
  -1   4   6   16.53    1.07 
   1   4  -6   17.32    1.29 
   0  -4  -6    6.24    0.77 
   0  -4   6    5.73    0.57 
   0   4  -6    6.28    0.67 
   0   4   6    5.24    0.45 
   0   4  -6    6.03    0.79 
   0   4   6    4.59    0.58 
   1  -4   6   48.90    2.48 
  -1  -4  -6   44.29    2.63 
  -1   4  -6   50.05    2.66 
  -1   4  -6   40.72    2.55 
   1   4   6   45.55    2.52 
   2  -4   6    8.97    0.75 
  -2  -4  -6    9.03    0.93 
   2   4   6    8.11    0.81 
  -2   4  -6    9.73    0.83 
  -3  -4  -6    4.80    0.74 
   3   4   6    4.75    0.64 
  -3   4  -6    4.73    0.64 
  -4  -4  -6    8.33    1.04 
  -4   4  -6    6.59    0.86 
   4  -5  -6    0.19    0.50 
  -4  -5   6    0.31    0.54 
   4   5  -6   -0.13    0.46 
  -4   5   6   -0.23    0.53 
  -3  -5   6   20.01    1.56 
   3  -5  -6   23.56    1.59 
  -3  -5   6   21.74    1.42 
   3   5  -6   20.53    1.52 
  -3   5   6   22.59    1.56 
   2  -5  -6    0.08    0.31 
  -2  -5   6   -0.34    0.31 
  -2  -5   6    0.00    0.30 
  -2   5   6    0.35    0.32 
  -2   5   6    0.33    0.30 
   2   5  -6    0.51    0.35 
   1  -5  -6    8.99    0.94 
  -1  -5   6    9.39    0.76 
   1   5  -6    7.48    0.73 
  -1   5   6    7.52    0.65 
  -1   5   6    7.43    0.72 
   1   5  -6    7.10    0.88 
   0  -5  -6   17.05    1.20 
   0  -5   6   16.06    1.04 
   0   5   6   14.64    1.06 
   0   5  -6   14.50    1.20 
   0   5  -6   15.17    1.08 
  -1  -5  -6   11.29    1.00 
   1  -5   6   11.15    0.84 
  -1   5  -6   10.88    0.98 
   1   5   6   10.81    0.89 
  -1   5  -6   11.36    0.95 
  -2  -5  -6   15.20    1.16 
   2  -5   6   15.65    1.02 
   2   5   6   14.12    1.09 
  -2   5  -6   13.67    1.05 
  -2   5  -6   13.15    1.15 
  -3  -5  -6    8.98    0.98 
   3   5   6    9.76    0.94 
  -3   5  -6    8.51    0.90 
  -4  -5  -6    0.31    0.56 
  -4   5  -6    1.24    0.48 
  -4  -6   6    6.86    0.99 
   4  -6  -6    9.12    1.09 
   4   6  -6    7.55    0.98 
  -4   6   6    6.82    1.02 
  -3  -6   6    5.97    0.86 
   3  -6  -6    4.61    0.76 
  -3  -6   6    4.40    0.61 
   3   6  -6    5.04    0.75 
  -3   6   6    5.28    0.77 
  -2  -6   6   22.58    1.50 
   2  -6  -6   24.01    1.59 
  -2  -6   6   23.74    1.60 
  -2   6   6   26.73    1.54 
   2   6  -6   24.15    1.58 
  -2   6   6   22.85    1.50 
  -1  -6   6   30.13    1.65 
   1  -6  -6   24.07    1.73 
   1   6  -6   27.03    1.68 
  -1   6   6   27.92    1.56 
   1   6  -6   27.70    1.81 
  -1   6   6   25.64    1.63 
   0  -6  -6    1.56    0.46 
   0  -6   6    0.93    0.33 
   0   6  -6    0.87    0.38 
   0   6   6    1.17    0.36 
   0   6  -6    1.36    0.44 
  -1  -6  -6    7.41    0.85 
   1  -6   6    8.99    0.76 
  -1   6  -6   10.61    0.85 
  -1   6  -6    7.74    0.88 
   1   6   6    8.85    0.80 
   2  -6   6    8.75    0.79 
  -2  -6  -6   11.18    0.97 
   2   6   6   10.66    0.91 
  -2   6  -6    7.76    0.93 
  -2   6  -6    9.56    0.84 
  -3  -6  -6    2.96    0.63 
  -3   6  -6    1.79    0.47 
   3   6   6    2.35    0.56 
  -4  -6  -6    1.67    0.68 
  -4   6  -6    1.85    0.55 
  -4  -7   6    1.65    0.74 
   4  -7  -6    1.27    0.62 
  -4   7   6    0.86    0.60 
   4   7  -6    1.65    0.60 
   3  -7  -6   11.68    1.12 
  -3  -7   6    6.36    0.92 
  -3  -7   6    8.83    0.88 
   3   7  -6    7.40    0.92 
  -3   7   6    9.69    0.98 
  -2  -7   6    1.90    0.52 
  -2  -7   6    1.32    0.45 
   2  -7  -6    2.19    0.53 
  -2   7   6    2.10    0.45 
  -2   7   6    2.44    0.47 
   2   7  -6    2.26    0.49 
   1  -7  -6    2.15    0.55 
  -1  -7   6    1.45    0.40 
   1   7  -6    2.34    0.55 
   1   7  -6    3.35    0.53 
  -1   7   6    1.79    0.49 
  -1   7   6    2.29    0.38 
   0  -7   6   17.42    1.18 
   0  -7  -6   18.09    1.29 
   0   7  -6   16.28    1.29 
   0   7  -6   18.14    1.31 
   0   7   6   19.09    1.23 
   1  -7   6    0.50    0.33 
  -1  -7  -6   -0.34    0.33 
   1   7   6    0.52    0.32 
  -1   7  -6    0.57    0.47 
  -1   7  -6    0.54    0.30 
  -2  -7  -6   12.39    1.06 
   2  -7   6   12.47    0.93 
   2   7   6   12.74    1.01 
  -2   7  -6   10.10    1.12 
  -2   7  -6   12.18    0.94 
  -3  -7  -6    3.39    0.68 
   3   7   6    3.84    0.63 
  -3   7  -6    1.51    0.45 
  -4  -7  -6    0.92    0.59 
  -4   7  -6    1.02    0.47 
   4  -8  -6    1.55    0.65 
  -4  -8   6    3.97    0.87 
  -4   8   6    3.38    0.80 
   4   8  -6    2.86    0.71 
  -3  -8   6    3.07    0.73 
   3  -8  -6    3.03    0.66 
  -3  -8   6    2.47    0.59 
  -3   8   6    2.58    0.58 
   3   8  -6    2.63    0.59 
   2  -8  -6    1.17    0.52 
  -2  -8   6    1.83    0.48 
   2   8  -6    2.30    0.53 
  -2   8   6    2.00    0.45 
   2   8  -6    1.96    0.53 
  -2   8   6    1.97    0.55 
  -1  -8   6   38.98    2.20 
   1  -8  -6   36.03    2.31 
   1   8  -6   37.65    2.36 
  -1   8   6   33.59    2.19 
  -1   8   6   42.76    2.15 
   1   8  -6   39.80    2.28 
   0  -8   6    0.82    0.34 
   0  -8  -6    1.81    0.48 
   0   8  -6    1.03    0.42 
   0   8  -6    1.32    0.44 
   0   8   6    0.48    0.34 
  -1  -8  -6   12.66    1.05 
   1  -8   6   12.22    0.96 
  -1   8  -6   14.27    0.99 
  -1   8  -6   13.80    1.24 
   1   8   6   12.64    1.01 
   2  -8   6    0.37    0.32 
  -2  -8  -6    0.60    0.44 
  -2   8  -6   -0.67    0.57 
   2   8   6   -0.08    0.35 
  -2   8  -6   -0.25    0.25 
  -3  -8  -6    0.19    0.46 
  -3   8  -6   -0.05    0.33 
   3   8   6    0.50    0.42 
  -4  -8  -6    1.46    0.66 
  -4   8  -6    1.53    0.53 
  -4  -9   6    0.93    0.71 
   4   9  -6    0.63    0.52 
  -4   9   6    0.93    0.62 
   3  -9  -6    2.29    0.62 
  -3  -9   6    2.32    0.59 
  -3   9   6    2.80    0.63 
   3   9  -6    2.01    0.56 
   3   9  -6    2.40    0.67 
  -2  -9   6    5.17    0.68 
   2  -9  -6    6.40    0.83 
   2   9  -6    5.57    0.82 
   2   9  -6    5.15    0.74 
  -2   9   6    4.92    0.66 
  -2   9   6    5.36    0.74 
   1  -9  -6    9.16    1.01 
  -1  -9   6    8.33    0.81 
  -1   9   6    9.21    0.93 
  -1   9   6    7.95    0.75 
   1   9  -6    8.97    0.95 
   1   9  -6    9.18    1.05 
   0  -9   6    6.24    0.69 
   0  -9  -6    7.08    0.79 
   0   9   6    4.84    0.69 
   0   9  -6    4.99    0.67 
   0   9  -6    6.07    0.79 
   1  -9   6   -0.26    0.28 
  -1  -9  -6    0.17    0.35 
  -1   9  -6   -0.05    0.42 
   1   9   6    0.08    0.32 
  -1   9  -6    0.54    0.31 
   2  -9   6    0.25    0.34 
  -2  -9  -6    0.15    0.39 
  -2   9  -6    0.25    0.30 
  -2   9  -6    0.89    0.61 
   2   9   6    0.20    0.38 
  -3  -9  -6    5.00    0.79 
  -3   9  -6    2.46    0.56 
   3   9   6    4.30    0.70 
  -4  -9  -6   -0.38    0.55 
  -4  10   6    0.93    0.64 
   4  10  -6    0.44    0.67 
  -3 -10   6   -0.06    0.49 
   3  10  -6    0.48    0.55 
  -3  10   6   -0.05    0.45 
  -2 -10   6    4.95    0.70 
  -2  10   6    5.58    0.68 
   2  10  -6    3.20    0.66 
  -1 -10   6   10.22    0.97 
  -1  10   6   11.71    1.05 
   1  10  -6   12.25    1.06 
  -1  10   6   12.43    1.05 
   0 -10   6    1.26    0.43 
   0  10  -6    2.61    0.60 
   0  10   6    1.55    0.43 
   1 -10   6    0.34    0.35 
  -1  10  -6    0.22    0.56 
   1  10   6   -0.38    0.35 
   2  10   6    5.99    0.80 
  -2  10  -6    6.79    1.05 
   3  10   6    0.21    0.44 
  -3 -11   6    0.06    0.53 
  -3  11   6    0.66    0.48 
   3  11  -6    0.71    0.60 
  -2 -11   6    2.58    0.60 
   2  11  -6    2.86    0.66 
  -2  11   6    2.43    0.56 
  -1 -11   6    1.23    0.45 
  -1  11   6    0.54    0.42 
   1  11  -6    0.14    0.44 
   0 -11   6    1.75    0.49 
   0  11   6    1.69    0.50 
   0  11  -6    1.91    0.60 
   1 -11   6    0.30    0.37 
   1  11   6    0.10    0.38 
  -1  11  -6   -0.07    0.57 
   2  11   6    1.85    0.54 
  -2  11  -6    1.21    0.70 
   3  11   6    0.10    0.51 
  -3  11  -6   -0.07    0.74 
  -3 -12   6    0.47    0.55 
  -3  12   6    0.10    0.47 
   3  12  -6    0.66    0.59 
  -2 -12   6    0.33    0.50 
   2  12  -6   -0.12    0.47 
  -2  12   6   -0.02    0.41 
  -1 -12   6    3.49    0.61 
  -1  12   6    2.25    0.56 
   1  12  -6    4.33    0.74 
   0 -12   6    0.74    0.41 
   0  12  -6    0.80    0.52 
   0  12   6    0.39    0.41 
   1 -12   6   -0.34    0.36 
   1  12   6   -0.03    0.40 
  -1  12  -6    0.83    0.60 
   2  12   6    1.03    0.51 
  -2  12  -6    0.61    0.76 
  -3  12  -6   -0.88    0.88 
   3  12   6    0.16    0.52 
  -3 -13   6   -0.31    0.58 
  -3  13   6    0.46    0.55 
   3  13  -6    0.37    0.60 
  -2 -13   6    0.35    0.51 
  -2  13   6    0.57    0.46 
   2  13  -6    1.11    0.58 
  -1 -13   6    0.74    0.48 
   1  13  -6    1.63    0.59 
  -1  13   6    1.62    0.52 
   0 -13   6    0.42    0.43 
   0  13   6    0.33    0.42 
   0  13  -6    0.12    0.52 
   1 -13   6    1.64    0.49 
  -1  13  -6    1.05    0.66 
   1  13   6    0.93    0.46 
   2  13   6    0.41    0.51 
  -2  13  -6    0.46    0.75 
   3  13   6    0.03    0.53 
  -3  13  -6   -0.67    0.83 
  -2 -14   6    3.14    0.69 
   2  14  -6    1.51    0.65 
  -1 -14   6    0.65    0.49 
   1  14  -6   -0.07    0.55 
  -1  14   6   -0.18    0.41 
   0 -14   6    0.45    0.46 
   0  14   6    0.32    0.44 
   0  14  -6    0.29    0.59 
   1 -14   6    0.33    0.45 
  -1  14  -6   -0.45    0.55 
   1  14   6    0.63    0.49 
  -2  14  -6    1.00    0.83 
   2  14   6    0.20    0.50 
  -2 -15   6    1.27    0.64 
   2  15  -6    1.50    0.67 
  -1 -15   6    1.80    0.60 
   1  15  -6    0.84    0.63 
  -1  15   6    1.35    0.55 
   0 -15   6    2.21    0.58 
   0  15   6    1.99    0.61 
   0  15  -6    1.53    0.63 
   1 -15   6   -0.19    0.45 
  -1  15  -6   -0.37    0.60 
   1  15   6    0.01    0.45 
   2  15   6    2.06    0.67 
  -2  15  -6    2.46    1.03 
  -1 -16   6    2.47    0.66 
   1  16  -6    2.76    0.78 
  -1  16   6    4.14    0.80 
   0 -16   6    0.84    0.54 
   0  16   6    1.71    0.65 
   0  16  -6    0.88    0.68 
   1 -16   6    9.66    1.02 
   1  16   6    8.51    1.08 
  -1  16  -6    9.16    1.28 
   0 -17   6    3.36    0.75 
   0  17  -6    3.24    0.85 
   0  17   6    5.67    0.89 
  -4   0   7    0.12    0.57 
   4   0  -7   -0.23    0.50 
   3   0  -7    0.08    0.41 
  -3   0   7   -0.06    0.40 
  -2   0   7    0.53    0.33 
   2   0  -7   -0.32    0.31 
  -2   0   7    0.10    0.32 
  -1   0   7    0.31    0.27 
   1   0  -7    0.12    0.36 
  -1   0   7    0.06    0.29 
   0   0   7    0.20    0.28 
   0   0  -7    0.03    0.39 
  -1   0  -7   -0.39    0.34 
   1   0   7    0.05    0.30 
  -2   0  -7   -0.10    0.37 
   2   0   7    0.02    0.32 
  -3   0  -7    0.19    0.40 
  -4   0  -7   -0.83    0.50 
  -4  -1   7    0.60    0.62 
   4  -1  -7    0.98    0.57 
   4   1  -7    0.48    0.54 
  -4   1   7   -0.14    0.55 
  -3  -1   7    0.87    0.43 
  -3  -1   7    0.80    0.46 
   3  -1  -7    0.74    0.51 
  -3   1   7    0.29    0.43 
   3   1  -7    0.13    0.44 
  -2  -1   7    0.91    0.41 
  -2  -1   7    1.19    0.38 
   2  -1  -7    0.52    0.40 
   2   1  -7    0.46    0.38 
  -2   1   7    0.55    0.36 
  -2   1   7    0.91    0.39 
  -1  -1   7    0.07    0.29 
   1  -1  -7    0.32    0.39 
  -1  -1   7    0.81    0.29 
   1   1  -7    0.03    0.35 
  -1   1   7    0.31    0.31 
  -1   1   7    0.50    0.27 
   0  -1   7    2.53    0.43 
   0  -1  -7    2.50    0.59 
   0   1   7    2.50    0.49 
   0   1  -7    3.61    0.45 
   0   1  -7    3.79    0.66 
   0   1   7    3.24    0.49 
  -1  -1  -7    6.38    0.89 
   1  -1   7    8.96    0.76 
   1   1   7    7.97    0.76 
  -1   1  -7    6.31    0.91 
  -2  -1  -7    0.49    0.42 
   2  -1   7    0.72    0.36 
   2   1   7   -0.33    0.32 
  -2   1  -7    0.21    0.38 
  -3  -1  -7    1.13    0.49 
   3   1   7    0.39    0.45 
  -3   1  -7    0.72    0.43 
  -4  -1  -7    0.33    0.54 
  -4   1  -7    0.45    0.51 
   4  -2  -7    0.43    0.52 
  -4  -2   7   -0.66    0.53 
  -4   2   7    1.05    0.62 
   4   2  -7   -0.01    0.48 
   3  -2  -7    0.25    0.48 
  -3  -2   7    0.56    0.39 
  -3  -2   7   -0.04    0.45 
   3   2  -7   -0.07    0.41 
  -3   2   7   -0.09    0.42 
  -2  -2   7    7.59    0.74 
   2  -2  -7    7.97    0.93 
  -2  -2   7    5.56    0.72 
   2   2  -7    6.13    0.79 
  -2   2   7    6.38    0.70 
  -2   2   7    5.60    0.70 
  -1  -2   7    1.06    0.35 
  -1  -2   7    1.12    0.34 
   1  -2  -7    0.39    0.40 
   1   2  -7    0.71    0.42 
  -1   2   7    0.97    0.38 
  -1   2   7    1.03    0.31 
   0  -2  -7    1.17    0.46 
   0  -2   7    0.60    0.31 
   0   2   7    0.89    0.34 
   0   2  -7    1.20    0.33 
   0   2  -7    0.78    0.45 
  -1  -2  -7    0.51    0.43 
   1  -2   7    0.26    0.32 
  -1   2  -7   -0.05    0.40 
   1   2   7    0.03    0.30 
   2  -2   7    0.00    0.31 
  -2  -2  -7   -0.11    0.43 
  -2   2  -7    0.18    0.40 
   2   2   7   -0.24    0.31 
  -3  -2  -7    0.20    0.43 
   3   2   7    0.24    0.36 
  -3   2  -7    0.24    0.39 
  -4  -2  -7    0.77    0.64 
  -4   2  -7    1.63    0.61 
   4  -3  -7    1.70    0.69 
  -4  -3   7    1.71    0.70 
  -4   3   7    1.44    0.69 
   4   3  -7    1.60    0.66 
  -3  -3   7    0.27    0.38 
  -3  -3   7    1.22    0.56 
   3  -3  -7    0.84    0.55 
   3   3  -7    0.61    0.46 
  -3   3   7    0.09    0.45 
  -2  -3   7    8.40    0.82 
  -2  -3   7    9.25    0.90 
   2  -3  -7    9.26    0.99 
  -2   3   7    8.37    0.82 
  -2   3   7    9.21    0.89 
   2   3  -7    7.93    0.95 
  -1  -3   7   11.32    0.92 
  -1  -3   7   10.40    0.89 
   1  -3  -7   11.45    1.17 
  -1   3   7   11.71    0.85 
   1   3  -7   10.45    1.14 
  -1   3   7   10.84    0.95 
   0  -3  -7    0.99    0.48 
   0  -3   7    0.14    0.29 
   0   3  -7    0.82    0.44 
   0   3   7    0.30    0.30 
   0   3  -7    0.35    0.29 
   1  -3   7    4.62    0.59 
  -1  -3  -7    3.42    0.68 
   1   3   7    5.07    0.61 
  -1   3  -7    5.43    0.80 
   2  -3   7    0.34    0.34 
  -2  -3  -7   -0.25    0.42 
   2   3   7    0.51    0.35 
  -2   3  -7   -0.19    0.34 
  -3  -3  -7   -0.03    0.48 
   3   3   7    0.11    0.36 
  -3   3  -7    0.09    0.38 
  -4  -3  -7    5.10    0.91 
  -4   3  -7    3.65    0.75 
  -4  -4   7    0.70    0.65 
   4  -4  -7    0.42    0.54 
  -4   4   7    0.45    0.56 
   4   4  -7    0.50    0.52 
   3  -4  -7    8.49    1.03 
  -3  -4   7    7.66    0.83 
  -3  -4   7    9.23    1.01 
   3   4  -7    8.10    0.98 
  -3   4   7    8.03    0.96 
  -2  -4   7    8.11    0.83 
   2  -4  -7   10.46    1.08 
  -2  -4   7    8.54    0.91 
  -2   4   7    8.62    0.84 
  -2   4   7    8.77    0.87 
   2   4  -7   10.37    1.05 
   1  -4  -7    5.87    0.90 
  -1  -4   7    6.17    0.72 
  -1  -4   7    6.81    0.72 
  -1   4   7    7.58    0.78 
   1   4  -7    7.94    0.96 
  -1   4   7    7.08    0.65 
   0  -4  -7    7.25    0.87 
   0  -4   7    4.50    0.57 
   0   4   7    5.29    0.62 
   0   4  -7    6.63    0.87 
   0   4  -7    6.08    0.70 
  -1  -4  -7    2.39    0.62 
   1  -4   7    2.94    0.46 
   1   4   7    3.36    0.54 
  -1   4  -7    3.47    0.67 
  -1   4  -7    2.76    0.54 
  -2  -4  -7    6.15    0.83 
   2  -4   7    6.02    0.62 
   2   4   7    5.57    0.72 
  -2   4  -7    5.15    0.74 
  -3  -4  -7    4.06    0.77 
  -3   4  -7    3.66    0.65 
   3   4   7    3.59    0.61 
  -4  -4  -7   -0.05    0.60 
  -4   4  -7    0.46    0.46 
  -4  -5   7    7.18    1.04 
   4  -5  -7    9.37    1.19 
   4   5  -7    8.42    1.12 
  -4   5   7    7.55    1.08 
  -3  -5   7    2.27    0.64 
  -3  -5   7    1.47    0.47 
   3  -5  -7    1.61    0.57 
  -3   5   7    1.71    0.56 
   3   5  -7    1.93    0.61 
   2  -5  -7    5.96    0.83 
  -2  -5   7    3.57    0.64 
  -2  -5   7    4.64    0.64 
  -2   5   7    5.53    0.68 
   2   5  -7    5.34    0.77 
  -2   5   7    5.11    0.65 
   1  -5  -7    9.65    1.11 
  -1  -5   7   10.89    0.92 
   1   5  -7   10.80    0.95 
   1   5  -7   12.26    1.26 
  -1   5   7   11.24    0.96 
  -1   5   7   10.90    0.83 
   0  -5  -7    1.05    0.47 
   0  -5   7    0.11    0.30 
   0   5   7    0.21    0.40 
   0   5  -7    0.27    0.43 
   0   5  -7    0.11    0.33 
  -1  -5  -7    6.00    0.81 
   1  -5   7    6.34    0.67 
   1   5   7    5.44    0.67 
  -1   5  -7    5.05    0.74 
  -1   5  -7    4.92    0.77 
   2  -5   7    5.90    0.64 
  -2  -5  -7    5.38    0.78 
  -2   5  -7    4.30    0.68 
   2   5   7    6.49    0.77 
  -3  -5  -7    0.91    0.56 
  -3   5  -7   -0.38    0.34 
   3   5   7    0.38    0.41 
  -4  -5  -7    0.69    0.61 
  -4   5  -7    0.26    0.44 
   4  -6  -7    0.56    0.62 
  -4  -6   7    0.08    0.61 
  -4   6   7   -0.39    0.51 
   4   6  -7    0.26    0.53 
   3  -6  -7    4.43    0.82 
  -3  -6   7    3.94    0.78 
  -3  -6   7    3.83    0.63 
  -3   6   7    4.01    0.70 
   3   6  -7    2.79    0.69 
  -2  -6   7    1.28    0.50 
  -2  -6   7    1.46    0.46 
   2  -6  -7    1.44    0.60 
  -2   6   7    1.36    0.42 
  -2   6   7    2.37    0.57 
   2   6  -7    1.60    0.53 
  -1  -6   7    4.94    0.63 
   1  -6  -7    3.97    0.77 
   1   6  -7    3.91    0.75 
   1   6  -7    3.26    0.58 
  -1   6   7    4.28    0.51 
  -1   6   7    4.33    0.62 
   0  -6  -7   37.09    2.11 
   0  -6   7   32.07    1.94 
   0   6   7   33.12    1.97 
   0   6  -7   33.92    2.05 
   0   6  -7   30.72    2.10 
   1  -6   7    0.37    0.34 
  -1  -6  -7    0.71    0.49 
  -1   6  -7    0.70    0.43 
  -1   6  -7    0.51    0.47 
   1   6   7    0.71    0.40 
  -2  -6  -7   13.61    1.18 
   2  -6   7   11.86    0.96 
   2   6   7   11.49    1.04 
  -2   6  -7   10.71    1.01 
  -3  -6  -7    4.48    0.82 
   3   6   7    4.43    0.71 
  -3   6  -7    5.14    0.72 
  -4  -6  -7    0.30    0.61 
  -4   6  -7    0.15    0.43 
  -4  -7   7    5.64    1.00 
   4  -7  -7    6.59    1.04 
  -4   7   7    4.79    0.93 
   4   7  -7    6.57    0.98 
  -3  -7   7    1.10    0.56 
  -3  -7   7    0.63    0.47 
   3  -7  -7    1.19    0.61 
   3   7  -7    1.91    0.57 
  -3   7   7    0.56    0.48 
   2  -7  -7    8.08    1.00 
  -2  -7   7    7.40    0.83 
   2   7  -7    6.21    0.87 
  -2   7   7    9.19    0.85 
  -2   7   7    5.33    0.74 
   2   7  -7    7.73    0.91 
   1  -7  -7   15.42    1.30 
  -1  -7   7   14.68    1.12 
   1   7  -7   16.24    1.34 
  -1   7   7   13.95    1.15 
   1   7  -7   14.39    1.17 
   0  -7  -7    0.75    0.46 
   0  -7   7    0.96    0.38 
   0   7   7    1.13    0.45 
   0   7  -7    0.68    0.47 
   0   7  -7    0.94    0.46 
  -1  -7  -7   20.88    1.54 
   1  -7   7   20.43    1.39 
   1   7   7   22.41    1.47 
  -1   7  -7   20.31    1.59 
  -1   7  -7   22.36    1.50 
   2  -7   7    6.16    0.68 
  -2  -7  -7    5.75    0.82 
   2   7   7    6.41    0.80 
  -2   7  -7    5.82    0.73 
  -3  -7  -7    1.19    0.63 
  -3   7  -7    1.27    0.50 
   3   7   7    1.51    0.55 
  -4  -7  -7    2.15    0.76 
  -4   7  -7    1.83    0.56 
   4  -8  -7    0.59    0.65 
  -4  -8   7   -0.33    0.60 
  -4   8   7    0.55    0.57 
   4   8  -7    0.70    0.58 
  -3  -8   7   20.00    1.51 
  -3  -8   7   22.22    1.72 
   3  -8  -7   21.15    1.65 
  -3   8   7   21.51    1.57 
   3   8  -7   17.89    1.55 
   2  -8  -7    9.57    1.13 
  -2  -8   7   10.47    0.98 
  -2   8   7   10.39    0.93 
   2   8  -7    8.47    1.01 
  -2   8   7    9.19    0.95 
   2   8  -7   11.14    1.16 
   1  -8  -7    0.18    0.53 
  -1  -8   7   -0.04    0.36 
   1   8  -7    0.30    0.39 
  -1   8   7   -0.62    0.39 
   1   8  -7    0.41    0.44 
   0  -8   7   27.84    1.80 
   0  -8  -7   32.22    1.95 
   0   8  -7   27.98    1.92 
   0   8  -7   31.23    1.96 
   0   8   7   30.96    1.89 
   1  -8   7    3.56    0.56 
  -1  -8  -7    3.08    0.64 
   1   8   7    3.50    0.64 
  -1   8  -7    4.42    0.63 
  -1   8  -7    3.77    0.79 
  -2  -8  -7    5.82    0.84 
   2  -8   7    3.83    0.58 
  -2   8  -7    5.03    0.67 
   2   8   7    3.71    0.68 
  -3  -8  -7    4.07    0.81 
  -3   8  -7    3.84    0.67 
   3   8   7    2.91    0.68 
  -3  -9   7    3.60    0.71 
   3  -9  -7    3.83    0.79 
  -3   9   7    1.74    0.59 
   3   9  -7    2.46    0.62 
   3   9  -7    3.05    0.73 
   2  -9  -7   14.97    1.44 
  -2  -9   7   15.04    1.22 
  -2   9   7   16.16    1.17 
   2   9  -7   13.34    1.29 
   2   9  -7   12.51    1.33 
  -2   9   7   13.21    1.42 
  -1  -9   7   27.86    1.71 
   1  -9  -7   27.32    1.85 
   1   9  -7   25.60    1.78 
   1   9  -7   26.95    1.87 
  -1   9   7   24.67    1.71 
   0  -9   7    0.49    0.39 
   0  -9  -7    0.74    0.47 
   0   9  -7    0.41    0.39 
   0   9  -7    0.39    0.50 
   0   9   7   -0.90    0.40 
   1  -9   7   22.06    1.39 
  -1  -9  -7   21.60    1.48 
  -1   9  -7   18.73    1.36 
  -1   9  -7   19.67    1.65 
   1   9   7   18.38    1.41 
  -2  -9  -7   11.23    1.12 
   2  -9   7    9.81    1.08 
   2   9   7   11.17    1.05 
  -2   9  -7   10.65    0.94 
  -2   9  -7    9.85    1.23 
  -3  -9  -7    7.06    0.96 
   3   9   7    4.21    0.75 
  -3 -10   7   13.17    1.29 
  -3  10   7   16.63    1.36 
   3  10  -7   13.87    1.41 
  -2 -10   7    9.55    0.96 
  -2  10   7    8.86    0.93 
   2  10  -7    8.86    1.05 
  -1 -10   7    8.18    0.88 
   1  10  -7    8.70    1.01 
  -1  10   7    9.21    0.99 
   0 -10   7   20.33    1.40 
   0  10  -7   19.18    1.57 
   0  10   7   20.00    1.46 
   1 -10   7    1.55    0.49 
   1  10   7    2.17    0.54 
  -1  10  -7    2.60    0.72 
   2  10   7    2.30    0.59 
  -2  10  -7    2.83    0.80 
   3  10   7   12.91    1.28 
  -3 -11   7    2.66    0.72 
  -3  11   7    1.18    0.56 
   3  11  -7    1.51    0.71 
  -2 -11   7    7.61    0.91 
   2  11  -7    7.27    0.99 
  -1 -11   7   19.29    1.39 
   1  11  -7   19.55    1.55 
  -1  11   7   17.87    1.43 
   0 -11   7    0.58    0.44 
   0  11  -7    1.03    0.54 
   0  11   7    1.67    0.51 
   1 -11   7   15.29    1.19 
   1  11   7   14.79    1.25 
  -1  11  -7   16.96    1.56 
  -2  11  -7    1.69    0.83 
   2  11   7    2.60    0.62 
   3  11   7    0.36    0.53 
  -3 -12   7    3.08    0.80 
  -3  12   7    5.27    0.86 
   3  12  -7    5.96    1.04 
  -2 -12   7    7.05    0.92 
   2  12  -7    7.80    1.01 
  -1 -12   7    3.30    0.64 
   1  12  -7    2.30    0.66 
  -1  12   7    2.14    0.60 
   0  12   7   29.94    1.96 
   0  12  -7   30.40    2.14 
   1 -12   7    3.19    0.61 
   1  12   7    3.23    0.70 
  -1  12  -7    2.75    0.79 
  -2  12  -7   10.03    1.37 
   2  12   7   10.75    1.11 
   3  12   7    4.11    0.78 
  -2 -13   7    6.44    0.92 
   2  13  -7    6.80    1.01 
  -1 -13   7   21.29    1.56 
  -1  13   7   20.71    1.57 
   1  13  -7   19.78    1.67 
   0 -13   7    1.27    0.52 
   0  13   7    0.57    0.51 
   0  13  -7    1.13    0.61 
   1 -13   7    6.68    0.82 
   1  13   7    8.39    1.00 
  -1  13  -7    9.98    1.23 
  -2  13  -7    3.44    1.07 
   2  13   7    6.59    0.91 
  -2 -14   7    9.37    1.09 
   2  14  -7    9.70    1.23 
  -1 -14   7    4.16    0.76 
  -1  14   7    4.57    0.80 
   1  14  -7    2.85    0.78 
   0 -14   7   13.19    1.19 
   0  14  -7   10.35    1.32 
   0  14   7   12.07    1.27 
   1 -14   7    3.68    0.67 
   1  14   7    3.13    0.70 
  -1  14  -7    1.91    0.83 
   2  14   7    3.46    0.78 
  -2  14  -7    2.53    1.09 
  -1 -15   7    6.21    0.90 
   1  15  -7    4.66    0.92 
  -1  15   7    5.26    0.89 
   0 -15   7    0.27    0.51 
   0  15  -7    1.06    0.71 
   0  15   7   -0.71    0.46 
   1 -15   7   10.88    1.08 
   1  15   7   10.81    1.21 
  -1  15  -7   12.61    1.49 
   0 -16   7    4.36    0.80 
   0  16   7    5.65    0.91 
   0  16  -7    5.65    1.02 
  -4   0   8   14.90    1.51 
   4   0  -8   12.48    1.50 
  -3   0   8   11.83    1.24 
   3   0  -8   11.90    1.32 
  -2   0   8    3.44    0.59 
  -2   0   8    4.21    0.68 
   2   0  -8    3.49    0.73 
   1   0  -8   20.59    1.66 
  -1   0   8   22.00    1.40 
  -1   0   8   22.73    1.49 
   0   0  -8    2.83    0.63 
   0   0   8    1.90    0.47 
  -1   0  -8   12.35    1.32 
   1   0   8   14.24    1.09 
   2   0   8   11.20    1.02 
  -2   0  -8   10.13    1.17 
  -3   0  -8    0.47    0.54 
  -4   0  -8    1.03    0.67 
  -4  -1   8    1.74    0.75 
   4  -1  -8    1.99    0.77 
   4   1  -8    2.72    0.78 
  -4   1   8    2.07    0.73 
   3  -1  -8   18.91    1.56 
  -3  -1   8   18.44    1.49 
  -3   1   8   14.76    1.41 
   3   1  -8   18.51    1.52 
   2  -1  -8   25.39    1.82 
  -2  -1   8   25.81    1.66 
  -2  -1   8   25.61    1.63 
   2   1  -8   23.57    1.77 
  -2   1   8   24.66    1.64 
  -2   1   8   23.56    1.63 
  -1  -1   8   10.96    0.99 
   1  -1  -8   11.25    1.23 
  -1  -1   8   10.99    0.93 
  -1   1   8   10.54    0.99 
  -1   1   8   11.62    0.89 
   1   1  -8    9.34    1.19 
   0  -1   8   36.72    2.26 
   0  -1  -8   44.17    2.51 
   0   1  -8   42.36    2.50 
   0   1   8   37.51    2.29 
  -1  -1  -8    3.28    0.73 
   1  -1   8    2.44    0.50 
   1   1   8    3.21    0.58 
  -1   1  -8    1.93    0.63 
  -2  -1  -8    3.65    0.73 
   2  -1   8    2.81    0.55 
   2   1   8    3.76    0.62 
  -2   1  -8    1.46    0.60 
  -3  -1  -8    9.00    1.18 
  -3   1  -8    7.28    1.07 
  -4  -1  -8    1.52    0.71 
  -4   1  -8    1.55    0.70 
  -4  -2   8    4.58    0.96 
   4  -2  -8    5.65    1.05 
   4   2  -8    6.07    0.98 
  -4   2   8    4.62    0.92 
  -3  -2   8    3.60    0.64 
  -3  -2   8    3.40    0.75 
   3  -2  -8    4.20    0.85 
  -3   2   8    5.30    0.82 
   3   2  -8    3.27    0.75 
  -2  -2   8    2.36    0.56 
  -2  -2   8    1.98    0.52 
   2  -2  -8    2.29    0.66 
  -2   2   8    1.99    0.53 
   2   2  -8    2.08    0.61 
  -2   2   8    2.44    0.52 
   1  -2  -8   56.89    3.59 
  -1  -2   8   66.31    3.41 
  -1  -2   8   67.98    3.43 
  -1   2   8   62.53    3.35 
   1   2  -8   58.58    3.62 
  -1   2   8   61.54    3.42 
   0  -2  -8    1.17    0.52 
   0  -2   8    0.46    0.37 
   0   2   8    1.68    0.45 
   0   2  -8    2.33    0.60 
  -1  -2  -8   10.72    1.21 
   1  -2   8   11.35    0.96 
   1   2   8   11.64    0.99 
  -1   2  -8   10.75    1.22 
   2  -2   8   13.55    1.07 
  -2  -2  -8   12.88    1.36 
  -2   2  -8   13.63    1.29 
   2   2   8   10.83    1.06 
  -3  -2  -8    0.51    0.57 
  -3   2  -8    0.64    0.53 
   3   2   8   -0.18    0.41 
  -4  -2  -8    5.16    0.98 
  -4   2  -8    5.03    0.92 
  -4  -3   8   -0.14    0.60 
   4  -3  -8    0.21    0.61 
  -4   3   8   -0.37    0.56 
   4   3  -8    1.07    0.64 
  -3  -3   8    4.05    0.65 
   3  -3  -8    4.78    0.89 
  -3  -3   8    4.57    0.82 
  -3   3   8    4.96    0.79 
   3   3  -8    6.36    0.94 
  -2  -3   8   11.06    1.08 
   2  -3  -8   13.48    1.27 
  -2  -3   8   12.75    1.14 
  -2   3   8   13.25    1.05 
   2   3  -8   12.88    1.35 
  -2   3   8   12.40    1.12 
   1  -3  -8   12.45    1.35 
  -1  -3   8   15.59    1.17 
  -1  -3   8   15.45    1.14 
   1   3  -8   13.94    1.46 
  -1   3   8   14.85    1.19 
   0  -3   8   26.15    1.63 
   0  -3  -8   26.22    1.84 
   0   3  -8   27.62    1.64 
   0   3   8   22.82    1.64 
   0   3  -8   27.91    1.86 
  -1  -3  -8   30.59    2.05 
   1  -3   8   29.42    1.80 
  -1   3  -8   28.23    2.06 
   1   3   8   29.48    1.81 
  -2  -3  -8    8.22    1.09 
   2  -3   8    7.32    0.78 
  -2   3  -8    8.00    1.03 
   2   3   8    7.60    0.86 
  -3  -3  -8    6.21    0.96 
  -3   3  -8    7.25    0.93 
   3   3   8    4.89    0.73 
  -4  -3  -8    0.23    0.66 
  -4   3  -8    0.26    0.55 
  -4  -4   8    8.88    1.21 
   4  -4  -8   11.40    1.42 
   4   4  -8   12.66    1.44 
  -4   4   8   10.49    1.28 
   3  -4  -8    6.74    1.01 
  -3  -4   8    6.09    0.92 
  -3  -4   8    5.91    0.80 
  -3   4   8    6.65    0.90 
   3   4  -8    6.72    0.93 
  -2  -4   8   29.56    1.81 
   2  -4  -8   29.89    2.02 
  -2  -4   8   28.53    1.87 
  -2   4   8   23.98    1.73 
  -2   4   8   27.91    1.81 
   2   4  -8   28.05    1.96 
   1  -4  -8    6.87    1.01 
  -1  -4   8    6.11    0.74 
   1   4  -8    8.28    1.07 
  -1   4   8    7.19    0.81 
   1   4  -8    7.13    0.80 
   0  -4   8    1.14    0.40 
   0  -4  -8    0.13    0.46 
   0   4   8    0.70    0.40 
   0   4  -8    0.38    0.37 
   0   4  -8    0.87    0.52 
   1  -4   8   17.43    1.24 
  -1  -4  -8   21.40    1.57 
  -1   4  -8   16.80    1.48 
   1   4   8   16.79    1.27 
   2  -4   8   11.60    0.97 
  -2  -4  -8    9.43    1.19 
  -2   4  -8   10.55    1.15 
   2   4   8   10.91    1.01 
  -3  -4  -8    0.91    0.62 
   3   4   8    0.28    0.43 
  -3   4  -8    0.72    0.50 
  -4  -4  -8    1.96    0.79 
  -4   4  -8    1.97    0.69 
  -4  -5   8    1.16    0.75 
   4  -5  -8    1.42    0.74 
   4   5  -8    1.81    0.72 
  -4   5   8    0.24    0.61 
  -3  -5   8    7.01    0.98 
   3  -5  -8    8.83    1.16 
  -3  -5   8    5.62    0.81 
   3   5  -8    8.60    1.11 
  -3   5   8    7.92    0.96 
  -2  -5   8   10.98    1.12 
  -2  -5   8   10.76    1.04 
   2  -5  -8    9.64    1.25 
  -2   5   8   12.52    1.02 
   2   5  -8   11.21    1.29 
  -2   5   8   10.45    1.03 
   1  -5  -8    6.00    0.95 
  -1  -5   8    4.88    0.67 
  -1   5   8    4.75    0.72 
   1   5  -8    5.71    0.71 
   1   5  -8    6.87    1.01 
   0  -5  -8   13.69    1.18 
   0  -5   8    9.75    0.96 
   0   5  -8   11.94    1.05 
   0   5  -8   14.23    1.23 
   0   5   8    9.91    0.98 
   1  -5   8    2.23    0.49 
  -1  -5  -8    1.73    0.60 
   1   5   8    1.52    0.51 
  -1   5  -8    1.53    0.60 
  -2  -5  -8    0.04    0.52 
   2  -5   8    0.22    0.37 
  -2   5  -8   -0.12    0.41 
   2   5   8   -0.32    0.39 
  -3  -5  -8    8.98    1.16 
   3   5   8    6.78    0.86 
  -3   5  -8    7.67    0.98 
   4  -6  -8    4.77    1.01 
  -4  -6   8    2.04    0.85 
  -4   6   8    4.06    0.90 
   4   6  -8    3.64    0.88 
  -3  -6   8    2.63    0.74 
  -3  -6   8    3.04    0.66 
   3  -6  -8    2.31    0.75 
  -3   6   8    3.56    0.71 
   3   6  -8    2.67    0.72 
  -2  -6   8    0.49    0.45 
   2  -6  -8    0.26    0.59 
  -2  -6   8    0.28    0.50 
  -2   6   8    0.35    0.38 
   2   6  -8   -0.44    0.42 
  -2   6   8    0.59    0.45 
  -1  -6   8   16.51    1.29 
   1  -6  -8   15.19    1.49 
   1   6  -8   15.98    1.31 
   1   6  -8   19.80    1.56 
  -1   6   8   18.92    1.37 
   0  -6  -8    4.77    0.80 
   0  -6   8    2.98    0.55 
   0   6  -8    4.24    0.78 
   0   6  -8    4.36    0.67 
   0   6   8    3.20    0.61 
  -1  -6  -8    6.77    0.92 
   1  -6   8    4.56    0.64 
   1   6   8    5.27    0.75 
  -1   6  -8    5.10    0.87 
  -2  -6  -8    2.93    0.73 
   2  -6   8    3.46    0.58 
   2   6   8    3.42    0.61 
  -2   6  -8    2.84    0.64 
  -3  -6  -8    0.37    0.63 
  -3   6  -8    0.36    0.45 
   3   6   8    0.61    0.53 
   3  -7  -8    6.63    1.07 
  -3  -7   8    7.40    1.03 
  -3  -7   8    5.72    0.84 
  -3   7   8    6.85    0.92 
   3   7  -8    7.34    1.06 
  -2  -7   8   10.96    1.01 
   2  -7  -8    7.84    1.15 
   2   7  -8    7.90    1.08 
   2   7  -8   11.28    1.11 
  -2   7   8    8.55    0.92 
  -2   7   8    8.86    0.97 
   1  -7  -8    1.21    0.62 
  -1  -7   8    0.47    0.43 
   1   7  -8    1.64    0.50 
   1   7  -8    2.17    0.67 
  -1   7   8    0.50    0.47 
   0  -7  -8   13.02    1.20 
   0  -7   8   10.46    1.00 
   0   7  -8   10.28    1.16 
   0   7  -8   11.26    1.14 
   0   7   8   11.65    1.12 
   1  -7   8    3.27    0.58 
  -1  -7  -8    4.66    0.80 
  -1   7  -8    2.66    0.66 
   1   7   8    2.71    0.60 
  -2  -7  -8    1.62    0.63 
   2  -7   8    1.35    0.46 
   2   7   8    1.46    0.51 
  -2   7  -8    0.70    0.47 
  -3  -7  -8    3.67    0.83 
  -3   7  -8    4.40    0.74 
   3   7   8    4.07    0.72 
  -3  -8   8    1.37    0.59 
  -3  -8   8    2.41    0.77 
   3  -8  -8    1.94    0.77 
   3   8  -8    1.67    0.70 
   3   8  -8    2.43    0.75 
  -3   8   8    2.04    0.64 
  -2  -8   8   -0.48    0.46 
   2  -8  -8    0.30    0.55 
   2   8  -8   -0.13    0.47 
   2   8  -8   -0.17    0.46 
  -2   8   8   -0.34    0.44 
  -1  -8   8    4.07    0.65 
   1  -8  -8    3.85    0.76 
   1   8  -8    5.26    0.89 
  -1   8   8    4.40    0.71 
   1   8  -8    3.87    0.71 
   0  -8   8   11.33    1.08 
   0  -8  -8   15.29    1.34 
   0   8  -8   11.35    1.18 
   0   8  -8   10.71    1.16 
   0   8   8   11.02    1.12 
   1  -8   8    3.78    0.62 
  -1  -8  -8    6.63    0.89 
   1   8   8    4.90    0.73 
  -1   8  -8    4.80    0.84 
  -1   8  -8    3.94    0.72 
   2  -8   8    2.98    0.59 
  -2  -8  -8    3.33    0.76 
  -2   8  -8    3.74    0.67 
   2   8   8    2.92    0.64 
  -3  -8  -8    0.26    0.61 
  -3   8  -8   -0.27    0.43 
   3   8   8    0.56    0.52 
  -3  -9   8    0.00    0.55 
   3  -9  -8    0.06    0.86 
   3   9  -8   -0.06    0.59 
  -3   9   8    0.01    0.49 
   3   9  -8    0.89    0.62 
  -2  -9   8    1.77    0.57 
   2  -9  -8    2.28    0.74 
   2   9  -8    1.84    0.60 
   2   9  -8    1.42    0.60 
  -1  -9   8    1.10    0.52 
   1  -9  -8    1.50    0.60 
  -1   9   8    0.67    0.49 
   1   9  -8    0.97    0.53 
   1   9  -8    1.13    0.55 
   0  -9  -8    8.76    1.00 
   0  -9   8    7.88    0.86 
   0   9  -8    6.00    0.91 
   0   9   8    6.42    0.84 
   0   9  -8    6.87    0.92 
  -1  -9  -8    1.70    0.58 
   1  -9   8    0.73    0.46 
   1   9   8    1.33    0.56 
  -1   9  -8    0.73    0.60 
  -1   9  -8    0.37    0.39 
  -2  -9  -8   -0.18    0.52 
  -2   9  -8    0.56    0.44 
   2   9   8   -0.30    0.48 
  -3  -9  -8    0.64    0.67 
   3   9   8    0.19    0.54 
  -3 -10   8    1.15    0.67 
  -3  10   8   -0.44    0.48 
   3  10  -8    0.25    0.61 
  -2 -10   8    1.35    0.58 
   2  10  -8    2.52    0.69 
  -1 -10   8    5.26    0.78 
  -1  10   8    5.53    0.81 
   1  10  -8    4.76    0.84 
   0 -10   8    7.90    0.91 
   0  10  -8    8.88    1.09 
   0  10   8   10.74    1.08 
   1 -10   8    0.49    0.45 
   1  10   8   -0.69    0.44 
  -1  10  -8    0.83    0.63 
   2  10   8   -0.39    0.49 
   3  10   8    1.24    0.67 
  -3 -11   8    0.52    0.65 
   3  11  -8    1.22    0.75 
  -2 -11   8    0.61    0.53 
   2  11  -8    0.50    0.57 
  -1 -11   8    0.09    0.47 
   1  11  -8    0.17    0.54 
  -1  11   8    0.59    0.53 
   0 -11   8    0.26    0.47 
   0  11  -8    0.34    0.55 
   0  11   8    0.02    0.51 
   1 -11   8    1.30    0.54 
   1  11   8    2.30    0.66 
  -1  11  -8    2.81    0.87 
   2  11   8   -0.69    0.48 
  -2 -12   8    0.93    0.62 
   2  12  -8    0.15    0.58 
  -1 -12   8   -0.21    0.46 
  -1  12   8   -0.01    0.49 
   1  12  -8   -0.01    0.54 
   0 -12   8    3.60    0.70 
   0  12  -8    2.80    0.75 
   0  12   8    2.26    0.70 
   1 -12   8   -0.35    0.43 
  -1  12  -8    0.23    0.68 
   1  12   8    0.26    0.50 
   2  12   8    1.11    0.60 
  -2 -13   8   -0.77    0.53 
   2  13  -8    0.30    0.63 
  -1 -13   8    0.05    0.50 
   1  13  -8    0.34    0.58 
  -1  13   8   -0.56    0.52 
   0 -13   8    0.69    0.51 
   0  13  -8    0.28    0.62 
   0  13   8   -0.08    0.57 
   1 -13   8    0.88    0.50 
   1  13   8    0.28    0.57 
  -1  13  -8    0.69    0.76 
   2  13   8    0.77    0.62 
  -1 -14   8    1.39    0.62 
   1  14  -8    2.06    0.74 
  -1  14   8    1.16    0.74 
   0 -14   8    0.06    0.54 
   0  14  -8    0.05    0.66 
   0  14   8    0.82    0.60 
   1 -14   8    0.00    0.53 
   1  14   8    1.21    0.66 
  -1  14  -8    0.60    0.82 
   4   0  -9   -0.29    0.66 
  -4   0   9   -0.15    0.64 
  -3   0   9    1.00    0.58 
   3   0  -9    0.48    0.58 
  -2   0   9    0.17    0.44 
  -2   0   9    0.16    0.40 
   2   0  -9   -0.25    0.52 
  -1   0   9    0.59    0.46 
   1   0  -9    0.08    0.51 
   0   0   9    1.00    0.50 
   0   0  -9    0.32    0.50 
   1   0   9   -0.33    0.37 
  -1   0  -9   -0.20    0.49 
  -2   0  -9    1.04    0.64 
   2   0   9    0.03    0.44 
  -3   0  -9    0.01    0.63 
  -4  -1   9   -0.17    0.68 
   4  -1  -9    1.38    0.81 
   4   1  -9    1.91    0.89 
  -4   1   9    1.46    0.73 
   3  -1  -9    0.32    0.60 
  -3  -1   9    0.70    0.58 
  -3   1   9    0.35    0.52 
   3   1  -9    0.59    0.60 
   2  -1  -9    0.70    0.58 
  -2  -1   9    0.26    0.46 
  -2  -1   9    0.53    0.45 
   2   1  -9    0.32    0.48 
  -2   1   9    0.17    0.43 
  -2   1   9   -0.13    0.45 
   1  -1  -9   -0.43    0.49 
  -1  -1   9    0.31    0.44 
  -1  -1   9   -0.16    0.49 
  -1   1   9    0.09    0.42 
   1   1  -9   -0.29    0.45 
   0  -1   9    1.52    0.51 
   0  -1  -9    0.93    0.57 
   0   1   9    1.89    0.53 
   0   1  -9    0.16    0.51 
  -1  -1  -9    1.86    0.71 
   1  -1   9    1.43    0.51 
  -1   1  -9    1.82    0.67 
   1   1   9    1.54    0.52 
   2  -1   9    0.38    0.47 
  -2  -1  -9   -0.71    0.48 
  -2   1  -9    0.71    0.60 
   2   1   9    0.10    0.46 
  -3  -1  -9   -0.35    0.63 
  -3   1  -9    0.02    0.60 
   3  -2  -9   -0.03    0.61 
  -3  -2   9   -0.42    0.47 
  -3  -2   9    0.09    0.54 
  -3   2   9    0.23    0.49 
   3   2  -9    0.20    0.54 
  -2  -2   9    1.27    0.52 
  -2  -2   9    0.68    0.50 
   2  -2  -9    0.08    0.60 
  -2   2   9   -0.13    0.39 
  -2   2   9    0.28    0.49 
   2   2  -9    0.54    0.53 
  -1  -2   9    3.90    0.63 
   1  -2  -9    3.36    0.84 
  -1  -2   9    3.15    0.59 
  -1   2   9    2.72    0.62 
   1   2  -9    4.49    0.85 
   0  -2   9    2.63    0.58 
   0  -2  -9    4.32    0.78 
   0   2   9    4.18    0.70 
   0   2  -9    4.17    0.82 
  -1  -2  -9    0.04    0.50 
   1  -2   9    0.86    0.47 
  -1   2  -9    0.28    0.53 
   1   2   9    1.01    0.47 
   2  -2   9    0.66    0.46 
  -2  -2  -9    0.53    0.64 
  -2   2  -9    0.96    0.63 
   2   2   9    0.86    0.46 
  -3  -2  -9   -0.22    0.69 
  -3   2  -9   -0.40    0.51 
   3   2   9   -0.45    0.44 
  -3  -3   9    1.36    0.59 
   3  -3  -9    2.18    0.79 
  -3  -3   9    0.93    0.59 
   3   3  -9    0.57    0.62 
  -3   3   9    1.03    0.61 
  -2  -3   9    0.42    0.49 
  -2  -3   9    0.75    0.49 
   2  -3  -9    0.36    0.63 
   2   3  -9    0.57    0.54 
  -2   3   9    0.94    0.44 
  -2   3   9    0.05    0.48 
  -1  -3   9    7.79    0.88 
   1  -3  -9    7.98    1.15 
   1   3  -9    6.66    0.80 
   1   3  -9    6.78    1.04 
  -1   3   9    7.94    0.92 
   0  -3  -9    1.87    0.60 
   0  -3   9    1.69    0.50 
   0   3  -9    1.75    0.64 
   0   3   9    1.56    0.50 
   1  -3   9    2.35    0.55 
  -1  -3  -9    0.58    0.60 
  -1   3  -9    1.75    0.68 
   1   3   9    2.28    0.59 
  -2  -3  -9    1.24    0.72 
   2  -3   9    2.27    0.57 
   2   3   9    1.47    0.55 
  -2   3  -9    1.29    0.66 
  -3  -3  -9   -0.60    0.62 
   3   3   9   -0.16    0.44 
  -3   3  -9    0.00    0.55 
   3  -4  -9    3.35    0.88 
  -3  -4   9    3.58    0.76 
  -3  -4   9    3.00    0.67 
   3   4  -9    1.92    0.72 
  -3   4   9    1.44    0.61 
  -2  -4   9    7.37    0.93 
  -2  -4   9    6.78    0.87 
   2  -4  -9    5.78    1.05 
  -2   4   9    7.05    0.90 
   2   4  -9    5.96    1.00 
  -1  -4   9   -0.11    0.41 
   1  -4  -9   -0.01    0.55 
   1   4  -9    0.45    0.57 
  -1   4   9   -0.17    0.43 
   1   4  -9    0.17    0.38 
   0  -4   9    6.36    0.81 
   0  -4  -9    7.66    1.03 
   0   4  -9    6.43    0.96 
   0   4   9    7.99    0.92 
   1  -4   9    0.73    0.43 
  -1  -4  -9    0.23    0.60 
   1   4   9    0.15    0.43 
  -1   4  -9    0.50    0.57 
  -2  -4  -9    0.54    0.71 
   2  -4   9    0.25    0.42 
  -2   4  -9    0.06    0.53 
   2   4   9    0.06    0.42 
  -3  -4  -9    2.15    0.84 
  -3   4  -9    2.74    0.77 
   3   4   9    2.21    0.61 
   3  -5  -9    8.97    1.28 
  -3  -5   9    6.13    0.90 
  -3  -5   9    5.77    0.97 
   3   5  -9    6.79    1.15 
  -3   5   9    6.57    0.95 
  -2  -5   9   -0.02    0.52 
   2  -5  -9    1.27    0.66 
  -2  -5   9    0.18    0.49 
   2   5  -9    0.23    0.56 
  -2   5   9    0.83    0.52 
   1  -5  -9    8.91    1.15 
  -1  -5   9    7.23    0.88 
  -1   5   9    6.82    0.88 
   1   5  -9    6.02    0.81 
   1   5  -9    5.65    0.97 
   0  -5   9    0.50    0.44 
   0  -5  -9    0.82    0.59 
   0   5  -9    0.55    0.55 
   0   5   9    0.87    0.50 
   1  -5   9    2.09    0.53 
  -1  -5  -9    2.02    0.74 
   1   5   9    1.84    0.55 
  -1   5  -9    1.51    0.68 
  -2  -5  -9    3.43    0.85 
   2  -5   9    2.26    0.54 
  -2   5  -9    2.13    0.70 
   2   5   9    2.29    0.61 
  -3  -5  -9   -0.39    0.64 
   3   5   9   -0.53    0.43 
  -3   5  -9    0.49    0.53 
   3  -6  -9    5.80    1.11 
  -3  -6   9    5.53    0.84 
  -3  -6   9    5.39    0.92 
  -3   6   9    4.31    0.81 
   3   6  -9    1.66    0.75 
   2  -6  -9    1.26    0.73 
  -2  -6   9    1.51    0.56 
  -2   6   9    2.81    0.68 
   2   6  -9    0.97    0.66 
   2   6  -9    1.43    0.57 
  -1  -6   9    1.40    0.55 
   1  -6  -9    1.92    0.69 
   1   6  -9    0.76    0.48 
  -1   6   9    1.10    0.55 
   1   6  -9    0.83    0.60 
   0  -6   9    7.12    0.88 
   0  -6  -9    9.98    1.17 
   0   6   9    7.26    0.91 
   0   6  -9   11.09    1.23 
  -1  -6  -9    6.04    0.99 
   1  -6   9    5.06    0.72 
  -1   6  -9    5.48    0.90 
   1   6   9    5.65    0.78 
   2  -6   9    1.13    0.52 
  -2  -6  -9    1.42    0.73 
  -2   6  -9    2.06    0.69 
   2   6   9    1.62    0.58 
  -3  -6  -9    4.30    0.92 
  -3   6  -9    2.87    0.74 
   3   6   9    2.45    0.65 
   3  -7  -9    1.83    0.89 
  -3  -7   9    3.08    0.73 
  -3  -7   9    1.07    0.71 
   3   7  -9    3.56    0.90 
  -3   7   9    1.55    0.62 
  -2  -7   9    1.75    0.61 
   2  -7  -9    3.24    0.93 
  -2   7   9    2.60    0.69 
   2   7  -9    3.00    0.69 
   2   7  -9    3.47    0.81 
   1  -7  -9    9.78    1.16 
  -1  -7   9    6.20    0.86 
  -1   7   9    7.10    0.91 
   1   7  -9    8.73    1.00 
   1   7  -9    7.44    1.08 
   0  -7  -9    2.38    0.68 
   0  -7   9    2.13    0.57 
   0   7  -9    2.60    0.66 
   0   7   9    2.20    0.58 
   0   7  -9    1.56    0.61 
   1  -7   9    2.15    0.57 
  -1  -7  -9    3.53    0.79 
  -1   7  -9    3.71    0.79 
   1   7   9    3.64    0.67 
  -2  -7  -9    6.10    0.98 
   2  -7   9    4.86    0.71 
   2   7   9    4.68    0.80 
  -2   7  -9    5.35    0.91 
  -3  -7  -9    0.14    0.64 
  -3   7  -9    0.36    0.50 
   3   7   9   -0.38    0.50 
  -3  -8   9    3.61    0.79 
   3  -8  -9    6.09    1.22 
   3   8  -9    2.15    0.82 
   3   8  -9    2.72    0.75 
   2  -8  -9   20.31    1.94 
  -2   8   9   15.07    1.45 
   2   8  -9   14.33    1.61 
   2   8  -9   17.72    1.51 
   1  -8  -9    0.67    0.56 
  -1  -8   9    0.20    0.49 
   1   8  -9    0.37    0.52 
   1   8  -9    0.67    0.53 
  -1   8   9    0.51    0.54 
   0  -8  -9    6.29    0.94 
   0  -8   9    3.74    0.71 
   0   8   9    4.16    0.73 
   0   8  -9    3.63    0.77 
   0   8  -9    4.01    0.77 
  -1  -8  -9    9.01    1.11 
   1  -8   9    8.95    0.94 
   1   8   9    9.53    1.06 
  -1   8  -9    9.84    1.16 
   2  -8   9   -0.08    0.47 
  -2  -8  -9    0.23    0.61 
  -2   8  -9    1.25    0.60 
   2   8   9    0.72    0.54 
  -3  -8  -9    2.06    0.79 
   3   8   9    2.60    0.72 
  -3   8  -9    4.03    0.79 
  -3  -9   9    2.23    0.70 
   3   9  -9    1.21    0.72 
   2  -9  -9    2.50    0.90 
  -2  -9   9    1.93    0.67 
   2   9  -9    1.04    0.70 
   2   9  -9    1.97    0.66 
  -1  -9   9   14.13    1.33 
   1  -9  -9   14.80    1.44 
   1   9  -9   16.70    1.43 
   1   9  -9   16.06    1.44 
  -1   9   9   16.48    1.40 
   0  -9  -9    2.81    0.72 
   0  -9   9    1.64    0.58 
   0   9  -9    1.62    0.61 
   0   9  -9    1.92    0.67 
   0   9   9    1.89    0.62 
   1  -9   9    3.85    0.70 
  -1  -9  -9    6.46    0.95 
   1   9   9    6.29    0.89 
  -1   9  -9    3.22    0.73 
  -2  -9  -9    5.90    1.01 
   2   9   9    4.86    0.85 
  -2 -10   9   12.20    1.22 
   2  10  -9   10.70    1.23 
  -1 -10   9   -0.58    0.49 
   1  10  -9    1.47    0.63 
  -1  10   9    0.36    0.53 
   0 -10   9   15.19    1.26 
   0  10   9   11.87    1.24 
   0  10  -9   13.12    1.37 
   1 -10   9    3.54    0.65 
   1  10   9    0.98    0.57 
   2  10   9    0.85    0.60 
  -2 -11   9    0.17    0.56 
   2  11  -9    0.47    0.61 
  -1 -11   9   10.73    1.12 
   1  11  -9   10.33    1.26 
  -1  11   9   12.94    1.30 
   0 -11   9    2.94    0.66 
   0  11   9    2.85    0.73 
   0  11  -9    3.15    0.80 
   1 -11   9    6.32    0.85 
   1  11   9    7.10    0.96 
   2  11   9    4.33    0.85 
  -1 -12   9    0.60    0.54 
  -1  12   9    0.40    0.67 
   1  12  -9    0.71    0.62 
   0 -12   9    7.78    0.98 
   0  12  -9   11.93    1.34 
   0  12   9    9.54    1.15 
   1 -12   9    4.22    0.74 
   1  12   9    5.39    0.95 
  -1 -13   9    9.30    1.14 
   1  13  -9    9.35    1.24 
  -1  13   9    9.76    1.19 
   0 -13   9    2.12    0.66 
   0  13   9    3.45    0.83 
   0  13  -9    3.88    0.91 
  -3   0  10   17.58    1.60 
   3   0 -10   16.50    1.86 
  -2   0  10    0.36    0.53 
   2   0 -10    0.33    0.63 
  -1   0  10   11.28    1.16 
   1   0 -10   13.07    1.48 
   0   0  10    1.78    0.58 
   0   0 -10    2.54    0.74 
   1   0  10    1.02    0.56 
  -1   0 -10    3.94    0.85 
  -2   0 -10    2.37    0.83 
   2   0  10    4.46    0.73 
  -3   0 -10   -0.59    0.67 
  -3  -1  10    0.86    0.63 
   3  -1 -10    0.03    0.73 
  -3   1  10    1.56    0.66 
   3   1 -10    2.02    0.87 
  -2  -1  10   17.86    1.50 
   2  -1 -10   17.73    1.89 
  -2  -1  10   18.70    1.48 
  -2   1  10   17.12    1.50 
   2   1 -10   16.58    1.87 
   1  -1 -10    3.07    0.76 
  -1  -1  10    2.48    0.66 
  -1   1  10    2.56    0.66 
   1   1 -10    3.03    0.80 
   0  -1  10   19.91    1.54 
   0  -1 -10   22.63    1.73 
   0   1  10   19.14    1.53 
   0   1 -10   21.11    1.70 
  -1  -1 -10   11.27    1.31 
   1  -1  10    9.92    1.04 
  -1   1 -10    8.96    1.23 
   1   1  10    8.33    1.01 
  -2  -1 -10    0.90    0.78 
   2  -1  10    0.45    0.52 
  -2   1 -10    1.51    0.75 
   2   1  10    1.40    0.55 
  -3  -1 -10    0.61    0.83 
  -3   1 -10    2.90    0.91 
  -3  -2  10    3.30    0.77 
   3  -2 -10    1.58    0.86 
  -3   2  10    2.15    0.73 
   3   2 -10    2.72    0.87 
  -2  -2  10    0.19    0.54 
   2  -2 -10    0.54    0.69 
  -2  -2  10    0.90    0.55 
  -2   2  10   -0.23    0.53 
   2   2 -10   -0.20    0.55 
   1  -2 -10    8.07    1.18 
  -1  -2  10    8.65    0.98 
  -1   2  10    6.17    0.89 
   1   2 -10    6.76    1.04 
   0  -2 -10   21.47    1.71 
   0  -2  10   20.40    1.55 
   0   2  10   19.68    1.57 
   0   2 -10   24.32    1.77 
   1  -2  10    2.79    0.65 
  -1  -2 -10    5.06    0.97 
   1   2  10    2.69    0.66 
  -1   2 -10    6.48    1.08 
  -2  -2 -10    6.86    1.14 
   2  -2  10    5.23    0.81 
  -2   2 -10    2.95    0.88 
   2   2  10    5.70    0.84 
  -3  -2 -10    0.69    0.89 
  -3   2 -10    0.26    0.68 
  -3  -3  10    4.74    0.88 
   3  -3 -10    4.54    1.12 
  -3  -3  10    4.25    0.86 
   3   3 -10    4.64    1.10 
  -3   3  10    5.41    0.89 
  -2  -3  10    5.71    0.89 
  -2  -3  10    7.73    0.95 
   2  -3 -10    5.92    1.16 
  -2   3  10    6.45    0.93 
   2   3 -10    5.07    1.05 
   1  -3 -10   -0.12    0.58 
  -1  -3  10    0.74    0.57 
  -1   3  10    1.36    0.58 
   1   3 -10    0.58    0.58 
   0  -3  10   -0.18    0.43 
   0  -3 -10   -0.14    0.53 
   0   3 -10   -0.25    0.49 
   0   3  10   -0.10    0.50 
   1  -3  10    8.90    0.99 
  -1  -3 -10   11.55    1.36 
   1   3  10    6.96    0.92 
  -1   3 -10    8.34    1.24 
   2  -3  10    0.88    0.56 
  -2  -3 -10    0.53    0.73 
  -2   3 -10    0.86    0.66 
   2   3  10    0.67    0.52 
  -3  -3 -10    3.57    1.05 
   3   3  10    2.66    0.72 
  -3   3 -10    2.92    0.95 
   3  -4 -10    8.54    1.45 
  -3  -4  10    7.90    0.99 
  -3  -4  10    6.03    1.02 
   3   4 -10    6.82    1.29 
   2  -4 -10   -0.10    0.64 
  -2  -4  10   -0.05    0.54 
  -2  -4  10    0.00    0.55 
   2   4 -10    0.09    0.56 
  -2   4  10    0.47    0.57 
  -1  -4  10   26.87    1.84 
   1  -4 -10   26.54    2.00 
  -1   4  10   25.58    1.85 
   1   4 -10   25.20    1.98 
   0  -4  10   -0.06    0.44 
   0  -4 -10    0.41    0.58 
   0   4 -10    0.26    0.52 
   0   4  10    0.22    0.51 
   1  -4  10    1.04    0.53 
  -1  -4 -10    0.88    0.70 
  -1   4 -10    1.27    0.69 
   1   4  10    1.04    0.56 
  -2  -4 -10    7.37    1.20 
   2  -4  10    6.52    0.86 
  -2   4 -10    6.53    1.06 
   2   4  10    8.70    1.03 
  -3  -4 -10    0.18    0.84 
   3   4  10   -0.10    0.51 
  -3   4 -10    0.33    0.71 
  -3  -5  10    1.13    0.68 
  -3  -5  10    0.55    0.62 
   3  -5 -10    0.65    0.90 
   3   5 -10   -0.25    0.68 
  -2  -5  10    7.90    1.03 
   2  -5 -10    7.87    1.31 
   2   5 -10   10.11    1.12 
  -2   5  10   10.16    1.11 
   2   5 -10    6.55    1.16 
   1  -5 -10    1.01    0.64 
  -1  -5  10    1.09    0.56 
   1   5 -10    0.66    0.59 
  -1   5  10   -0.16    0.54 
   0  -5  10    6.46    0.87 
   0  -5 -10    6.88    1.05 
   0   5 -10   10.17    1.24 
   0   5  10    8.85    1.00 
   1  -5  10    2.71    0.66 
  -1  -5 -10    4.45    0.93 
   1   5  10    3.21    0.73 
  -1   5 -10    3.51    0.85 
  -2  -5 -10    0.60    0.75 
   2  -5  10    0.71    0.54 
   2   5  10    0.67    0.52 
  -2   5 -10    0.11    0.61 
   2  -6 -10   -0.69    0.66 
  -2  -6  10    0.47    0.59 
   2   6 -10    0.26    0.51 
  -2   6  10    0.46    0.60 
   2   6 -10   -0.11    0.60 
  -1  -6  10    3.33    0.73 
   1  -6 -10    4.69    0.98 
  -1   6  10    3.97    0.77 
   1   6 -10    4.84    0.79 
   1   6 -10    4.45    0.91 
   0  -6  10    3.08    0.68 
   0  -6 -10    4.31    0.90 
   0   6  10    2.46    0.70 
   0   6 -10    3.55    0.86 
  -1  -6 -10    0.60    0.64 
   1  -6  10   -0.73    0.46 
  -1   6 -10    0.60    0.60 
   1   6  10    0.17    0.51 
   2  -6  10    1.89    0.61 
  -2  -6 -10    3.03    0.92 
  -2   6 -10    2.58    0.83 
   2   6  10    1.83    0.62 
  -2  -7  10    5.22    0.90 
   2  -7 -10    6.23    1.23 
   2   7 -10    5.88    0.92 
   2   7 -10    5.67    1.05 
  -2   7  10    7.27    1.00 
   1  -7 -10    1.98    0.73 
  -1  -7  10    0.82    0.60 
  -1   7  10    3.50    0.76 
   1   7 -10    2.72    0.68 
   1   7 -10    2.56    0.75 
   0  -7 -10    5.16    0.90 
   0  -7  10    4.38    0.80 
   0   7  10    3.50    0.73 
   0   7 -10    4.00    0.85 
  -1  -7 -10    4.13    0.93 
   1  -7  10    4.78    0.76 
  -1   7 -10    3.42    0.85 
   1   7  10    5.96    0.83 
  -2  -7 -10    0.69    0.69 
   2  -7  10   -0.58    0.47 
   2   7  10   -0.54    0.48 
  -2   7 -10    0.36    0.62 
   2  -8 -10    0.03    0.78 
  -2  -8  10   -0.20    0.59 
   2   8 -10   -0.30    0.55 
   2   8 -10   -0.26    0.56 
  -1  -8  10    1.39    0.65 
   1  -8 -10    0.33    0.66 
   1   8 -10    1.28    0.68 
  -1   8  10    0.49    0.60 
   1   8 -10    0.51    0.58 
   0  -8  10    1.24    0.58 
   0  -8 -10    2.15    0.71 
   0   8  10    0.95    0.56 
   0   8 -10    0.43    0.58 
  -1  -8 -10    0.89    0.64 
   1  -8  10    0.32    0.51 
   1   8  10    0.53    0.56 
  -1   8 -10    0.58    0.60 
  -2  -8 -10    2.82    0.83 
   2   8  10    2.83    0.74 
  -2   8 -10    1.49    0.69 
  -2  -9  10    0.54    0.62 
   2   9 -10    0.89    0.60 
  -1  -9  10    0.09    0.57 
   1  -9 -10    1.10    0.68 
   1   9 -10    0.26    0.77 
   1   9 -10    1.67    0.67 
  -1   9  10    0.45    0.62 
   0  -9  10    0.39    0.55 
   0  -9 -10    0.93    0.66 
   0   9  10    0.12    0.54 
   0   9 -10    0.45    0.83 
   1  -9  10    2.25    0.66 
  -1  -9 -10    4.00    0.85 
   1   9  10    1.80    0.69 
  -1 -10  10    1.16    0.67 
  -1  10  10    1.75    0.74 
   1  10 -10    2.56    0.77 
   0 -10  10    2.84    0.69 
   0  10  10    1.13    0.71 
   1 -10  10    5.89    0.84 
   1  10  10    3.13    0.81 
  -1 -11  10    0.01    0.69 
   1  11 -10    0.89    0.68 
  -1  11  10    0.29    0.62 
   0 -11  10    0.31    0.61 
   0  11  10   -0.05    0.64 
  -2   0  11    0.66    0.62 
   2   0 -11    0.94    0.79 
   1   0 -11    0.32    0.57 
  -1   0  11    0.42    0.60 
   0   0  11    0.32    0.56 
   0   0 -11    0.22    0.53 
   1   0  11    0.48    0.54 
  -1   0 -11    0.40    0.65 
   2   0  11   -0.17    0.53 
  -2   0 -11    0.77    0.72 
   2  -1 -11    0.78    0.80 
  -2  -1  11    0.72    0.66 
  -2   1  11    0.80    0.63 
   2   1 -11    0.14    0.72 
   1  -1 -11    0.19    0.57 
  -1  -1  11    0.80    0.57 
  -1   1  11    0.68    0.63 
   1   1 -11   -0.30    0.50 
   0  -1  11    1.07    0.60 
   0  -1 -11    1.50    0.66 
   0   1  11    0.90    0.60 
   0   1 -11    0.30    0.55 
   1  -1  11    0.83    0.60 
  -1  -1 -11    2.09    0.80 
  -1   1 -11    2.40    0.84 
   1   1  11    2.07    0.66 
   2  -1  11   -0.37    0.54 
  -2  -1 -11    0.31    0.71 
  -2   1 -11    0.51    0.71 
   2   1  11    0.58    0.58 
  -2  -2  11    0.62    0.64 
   2  -2 -11   -0.27    0.75 
   2   2 -11    0.41    0.71 
  -2   2  11    0.67    0.66 
  -1  -2  11    0.77    0.59 
   1  -2 -11    0.12    0.57 
   1   2 -11    0.68    0.59 
  -1   2  11    0.03    0.57 
   0  -2  11    0.43    0.57 
   0  -2 -11    0.11    0.60 
   0   2  11    0.77    0.58 
   0   2 -11    1.35    0.65 
   1  -2  11    1.17    0.63 
  -1  -2 -11    2.76    0.83 
  -1   2 -11    2.60    0.79 
   1   2  11    2.29    0.67 
   2  -2  11   -0.22    0.53 
  -2  -2 -11    1.12    0.81 
   2   2  11    1.79    0.66 
  -2   2 -11    0.51    0.68 
   2  -3 -11    0.22    0.80 
  -2  -3  11    0.02    0.60 
   2   3 -11   -0.15    0.64 
  -2   3  11    0.67    0.66 
  -1  -3  11    2.12    0.71 
   1  -3 -11    1.64    0.70 
  -1   3  11    2.04    0.74 
   1   3 -11    1.89    0.72 
   0  -3  11    0.30    0.55 
   0  -3 -11    3.29    0.83 
   0   3 -11    1.46    0.67 
   0   3  11    2.71    0.71 
   1  -3  11   -0.01    0.51 
  -1  -3 -11    1.24    0.69 
  -1   3 -11    0.38    0.60 
   1   3  11    0.59    0.58 
  -2  -3 -11    1.30    0.86 
   2  -3  11    1.44    0.58 
  -2   3 -11    0.52    0.71 
   2   3  11    0.47    0.62 
  -2  -4  11    1.48    0.73 
   2  -4 -11    4.05    1.16 
  -2   4  11    7.34    0.99 
   2   4 -11    3.13    0.94 
   1  -4 -11   -0.04    0.66 
  -1  -4  11    0.55    0.60 
  -1   4  11    0.97    0.65 
   1   4 -11    0.82    0.62 
   0  -4 -11    2.61    0.77 
   0  -4  11    1.01    0.60 
   0   4  11    1.43    0.69 
   0   4 -11    1.61    0.67 
   1  -4  11    2.23    0.67 
  -1  -4 -11    2.00    0.76 
   1   4  11    2.07    0.68 
  -1   4 -11    1.57    0.75 
  -2  -4 -11    0.61    0.80 
   2  -4  11    0.53    0.56 
  -2   4 -11    0.16    0.67 
   2   4  11    0.38    0.60 
   2  -5 -11    0.90    0.90 
  -2  -5  11    0.47    0.65 
  -2   5  11    1.44    0.71 
   2   5 -11    0.25    0.71 
   1  -5 -11    0.26    0.69 
  -1  -5  11    1.22    0.65 
   1   5 -11    0.54    0.58 
  -1   5  11    1.77    0.68 
   0  -5  11    1.41    0.65 
   0  -5 -11    2.49    0.77 
   0   5 -11    0.75    0.60 
   0   5  11    1.42    0.67 
   1  -5  11   -0.52    0.48 
  -1  -5 -11    0.99    0.71 
  -1   5 -11    0.88    0.69 
   1   5  11   -0.23    0.57 
   2  -5  11    0.52    0.59 
  -2  -5 -11    0.16    0.77 
  -2   5 -11    0.58    0.77 
   2   5  11    0.94    0.64 
  -2  -6  11    4.15    0.88 
   2  -6 -11    6.17    1.21 
   2   6 -11    3.40    0.82 
   2   6 -11    4.45    1.03 
  -2   6  11    6.61    1.00 
   1  -6 -11    0.36    0.67 
  -1  -6  11   -0.20    0.61 
  -1   6  11    0.52    0.74 
   1   6 -11   -0.80    0.52 
   0  -6 -11    5.49    1.02 
   0  -6  11    3.28    0.77 
   0   6  11    4.18    0.86 
   0   6 -11    5.61    1.02 
  -1  -6 -11    3.80    0.93 
   1  -6  11    2.30    0.69 
  -1   6 -11    1.62    0.74 
   1   6  11    3.06    0.82 
  -1  -7  11    4.72    0.90 
   1  -7 -11    6.64    1.09 
   1   7 -11    5.00    0.92 
  -1   7  11    6.13    1.01 
   0  -7 -11    2.19    0.79 
   0  -7  11    1.33    0.66 
   0   7  11    1.74    0.75 
   0   7 -11    1.17    0.66 
   1  -7  11   -0.31    0.56 
  -1  -7 -11    0.05    0.63 
  -1   7 -11    0.48    0.66 
   1   7  11    0.26    0.63 
   1  -8 -11    3.06    0.87 
  -1  -8  11    2.46    0.75 
   1   8 -11    1.93    0.73 
  -1   8  11    2.94    0.80 
   0  -8 -11    2.18    0.81 
   0  -8  11    1.40    0.66 
   0   8 -11    1.78    0.79 
   0   8  11    1.82    0.78 
   1  -8  11    0.52    0.60 
  -1  -8 -11    2.31    0.79 
   1   8  11    1.61    0.81 
  -1   8 -11    0.37    0.62 
   1   0 -12    4.71    0.98 
  -1   0  12    4.42    0.92 
   0   0 -12    7.02    1.13 
   0   0  12    6.40    1.02 
  -1   0 -12    1.95    0.78 
   1   0  12    1.77    0.71 
   1  -1 -12    4.82    0.99 
  -1  -1  12    3.26    0.81 
  -1   1  12    2.53    0.85 
   1   1 -12    4.46    1.00 
   0  -1  12    0.52    0.65 
   0  -1 -12    0.20    0.64 
   0   1  12    0.50    0.62 
   0   1 -12    1.64    0.71 
   1  -1  12    8.38    1.10 
  -1  -1 -12   10.42    1.35 
   1   1  12    7.92    1.07 
  -1   1 -12    8.59    1.25 
   1  -2 -12    3.41    0.89 
  -1  -2  12    3.25    0.84 
  -1   2  12    3.81    0.88 
   1   2 -12    2.20    0.78 
   0  -2 -12    2.94    0.87 
   0  -2  12    2.25    0.72 
   0   2  12    3.11    0.82 
   0   2 -12    2.69    0.76 
   1  -2  12    1.76    0.73 
  -1  -2 -12    1.48    0.80 
  -1   2 -12    2.43    0.83 
   1   2  12    1.29    0.70 
   1  -3 -12    1.07    0.69 
  -1  -3  12    1.39    0.73 
  -1   3  12    1.14    0.70 
   1   3 -12    1.80    0.73 
   0  -3 -12    1.58    0.76 
   0  -3  12    0.63    0.63 
   0   3 -12    1.87    0.76 
   0   3  12    1.71    0.75 
   0  -4 -12    9.01    1.26 
   0  -4  12    8.40    1.14 
   0   4  12    8.66    1.14 
   0   4 -12    8.62    1.18 
   0   0   0    0.00    0.00 
;
_shelx_hkl_checksum              83223
#END Tags that were not found in dictionaries
loop_
_space_group_symop_operation_xyz
'x, y, z'
'-x, y+1/2, -z+1/2'
'-x, -y, -z'
'x, -y-1/2, z-1/2'
loop_
_atom_site_label
_atom_site_type_symbol
_atom_site_fract_x
_atom_site_fract_y
_atom_site_fract_z
_atom_site_U_iso_or_equiv
_atom_site_adp_type
_atom_site_occupancy
_atom_site_site_symmetry_order
_atom_site_calc_flag
_atom_site_refinement_flags_posn
_atom_site_refinement_flags_adp
_atom_site_refinement_flags_occupancy
_atom_site_disorder_assembly
_atom_site_disorder_group
Br1 Br 0.68679(8) 0.77092(2) 0.96375(4) 0.03131(15) Uani 1 1 d . . . . .
F1 F 1.3469(5) 0.89326(15) 0.5752(2) 0.0374(6) Uani 1 1 d . . . . .
F2 F 1.1790(5) 1.06056(15) 0.6174(2) 0.0354(5) Uani 1 1 d . . . . .
F3 F 0.7946(5) 1.10144(13) 0.8142(2) 0.0340(5) Uani 1 1 d . . . . .
N1 N 0.5546(7) 0.96396(19) 0.9943(3) 0.0310(7) Uani 1 1 d . . . . .
C1 C 1.1493(7) 0.9106(2) 0.6754(3) 0.0252(8) Uani 1 1 d . . . . .
C2 C 1.0641(7) 0.9964(2) 0.6953(3) 0.0224(7) Uani 1 1 d . . . . .
C3 C 0.8645(7) 1.0161(2) 0.7974(3) 0.0214(7) Uani 1 1 d . . . . .
C4 C 0.7495(7) 0.9502(2) 0.8819(3) 0.0205(7) Uani 1 1 d . . . . .
C5 C 0.8416(7) 0.8637(2) 0.8571(3) 0.0220(7) Uani 1 1 d . . . . .
C6 C 1.0410(7) 0.8431(2) 0.7540(3) 0.0252(8) Uani 1 1 d . . . . .
H1 H 1.1008 0.7840 0.7383 0.030 Uiso 1 1 calc R U . . .
loop_
_atom_site_aniso_label
_atom_site_aniso_U_11
_atom_site_aniso_U_22
_atom_site_aniso_U_33
_atom_site_aniso_U_23
_atom_site_aniso_U_13
_atom_site_aniso_U_12
Br1 0.0383(2) 0.0188(2) 0.0372(2) 0.00534(15) 0.00797(16) 0.00191(16)
F1 0.0362(12) 0.0462(14) 0.0309(11) -0.0064(10) 0.0186(9) 0.0069(10)
F2 0.0392(12) 0.0346(13) 0.0332(12) 0.0056(10) 0.0159(9) -0.0059(10)
F3 0.0442(13) 0.0186(11) 0.0403(13) 0.0015(9) 0.0185(10) 0.0025(9)
N1 0.0379(18) 0.0231(16) 0.0331(17) 0.0033(14) 0.0214(13) 0.0048(14)
C1 0.0212(18) 0.033(2) 0.0216(18) -0.0070(15) 0.0052(14) 0.0018(15)
C2 0.0233(18) 0.0253(18) 0.0187(17) 0.0018(14) 0.0033(13) -0.0019(14)
C3 0.0226(18) 0.0170(16) 0.0246(17) -0.0038(14) 0.0009(13) 0.0009(14)
C4 0.0219(17) 0.0199(17) 0.0200(17) -0.0015(13) 0.0032(13) 0.0009(14)
C5 0.0210(17) 0.0218(18) 0.0234(17) -0.0020(14) 0.0019(13) 0.0003(14)
C6 0.0274(19) 0.0221(18) 0.0262(18) -0.0041(14) 0.0018(15) 0.0060(15)
loop_
_atom_type_symbol
_atom_type_description
_atom_type_scat_dispersion_real
_atom_type_scat_dispersion_imag
_atom_type_scat_source
C C 0.0033 0.0016 'International Tables Vol C Tables 4.2.6.8 and 6.1.1.4'
H H 0.0000 0.0000 'International Tables Vol C Tables 4.2.6.8 and 6.1.1.4'
N N 0.0061 0.0033 'International Tables Vol C Tables 4.2.6.8 and 6.1.1.4'
F F 0.0171 0.0103 'International Tables Vol C Tables 4.2.6.8 and 6.1.1.4'
Br Br -0.2901 2.4595 'International Tables Vol C Tables 4.2.6.8 and 6.1.1.4'
loop_
_geom_angle_atom_site_label_1
_geom_angle_atom_site_label_2
_geom_angle_atom_site_label_3
_geom_angle
_geom_angle_site_symmetry_1
_geom_angle_site_symmetry_3
N1 N1 C4 117.3(4) 3_677 .
F1 C1 C6 119.7(3) . .
F1 C1 C2 118.2(3) . .
C6 C1 C2 122.1(3) . .
F2 C2 C1 120.1(3) . .
F2 C2 C3 120.4(3) . .
C1 C2 C3 119.5(3) . .
F3 C3 C2 116.9(3) . .
F3 C3 C4 122.1(3) . .
C2 C3 C4 121.0(3) . .
C3 C4 C5 117.4(3) . .
C3 C4 N1 125.5(3) . .
C5 C4 N1 117.1(3) . .
C6 C5 C4 122.0(3) . .
C6 C5 Br1 118.2(3) . .
C4 C5 Br1 119.7(2) . .
C1 C6 C5 118.0(3) . .
C1 C6 H1 121.0 . .
C5 C6 H1 121.0 . .
loop_
_geom_bond_atom_site_label_1
_geom_bond_atom_site_label_2
_geom_bond_distance
_geom_bond_site_symmetry_2
Br1 C5 1.886(3) .
F1 C1 1.351(4) .
F2 C2 1.341(4) .
F3 C3 1.344(4) .
N1 N1 1.204(5) 3_677
N1 C4 1.424(4) .
C1 C6 1.371(5) .
C1 C2 1.373(5) .
C2 C3 1.378(4) .
C3 C4 1.397(4) .
C4 C5 1.400(5) .
C5 C6 1.387(4) .
C6 H1 0.9500 .
loop_
_geom_torsion_atom_site_label_1
_geom_torsion_atom_site_label_2
_geom_torsion_atom_site_label_3
_geom_torsion_atom_site_label_4
_geom_torsion
_geom_torsion_site_symmetry_1
_geom_torsion_site_symmetry_2
_geom_torsion_site_symmetry_3
_geom_torsion_site_symmetry_4
F1 C1 C2 F2 -0.8(5) . . . .
C6 C1 C2 F2 179.0(3) . . . .
F1 C1 C2 C3 -179.5(3) . . . .
C6 C1 C2 C3 0.3(5) . . . .
F2 C2 C3 F3 -0.2(5) . . . .
C1 C2 C3 F3 178.5(3) . . . .
F2 C2 C3 C4 -178.2(3) . . . .
C1 C2 C3 C4 0.5(5) . . . .
F3 C3 C4 C5 -178.8(3) . . . .
C2 C3 C4 C5 -0.9(5) . . . .
F3 C3 C4 N1 -1.1(5) . . . .
C2 C3 C4 N1 176.7(3) . . . .
N1 N1 C4 C3 11.2(6) 3_677 . . .
N1 N1 C4 C5 -171.1(4) 3_677 . . .
C3 C4 C5 C6 0.5(5) . . . .
N1 C4 C5 C6 -177.3(3) . . . .
C3 C4 C5 Br1 -178.3(2) . . . .
N1 C4 C5 Br1 3.9(4) . . . .
F1 C1 C6 C5 179.2(3) . . . .
C2 C1 C6 C5 -0.6(5) . . . .
C4 C5 C6 C1 0.2(5) . . . .
Br1 C5 C6 C1 179.0(3) . . . .
