#------------------------------------------------------------------------------
#$Date: 2016-05-06 03:19:51 +0300 (Fri, 06 May 2016) $
#$Revision: 182609 $
#$URL: svn://www.crystallography.net/cod/cif/7/11/89/7118913.cif $
#------------------------------------------------------------------------------
#
# This file is available in the Crystallography Open Database (COD),
# http://www.crystallography.net/
#
# All data on this site have been placed in the public domain by the
# contributors.
#
data_7118913
loop_
_publ_author_name
'Ivanov, Daniil M.'
'Novikov, Alexander S.'
'Ananyev, Ivan V.'
'Kirina, Yulia V.'
'Kukushkin, Vadim Yu'
_publ_section_title
;
 Halogen bonding between metal centers and halocarbons.
;
_journal_issue                   32
_journal_name_full
'Chemical communications (Cambridge, England)'
_journal_page_first              5565
_journal_page_last               5568
_journal_paper_doi               10.1039/c6cc01107a
_journal_volume                  52
_journal_year                    2016
_chemical_formula_moiety         'C12 H20 Cl2 N4 Pt, 2(C H I3)'
_chemical_formula_sum            'C14 H22 Cl2 I6 N4 Pt'
_chemical_formula_weight         1273.74
_space_group_crystal_system      triclinic
_space_group_IT_number           2
_space_group_name_Hall           '-P 1'
_space_group_name_H-M_alt        'P -1'
_symmetry_space_group_name_Hall  '-P 1'
_symmetry_space_group_name_H-M   'P -1'
_atom_sites_solution_hydrogens   geom
_audit_creation_method           SHELXL-2014/6
_audit_update_record
;
2016-01-11 deposited with the CCDC.
2016-03-16 downloaded from the CCDC.
;
_cell_angle_alpha                114.480(2)
_cell_angle_beta                 99.652(2)
_cell_angle_gamma                108.236(2)
_cell_formula_units_Z            1
_cell_length_a                   9.1743(13)
_cell_length_b                   9.2939(12)
_cell_length_c                   10.2287(14)
_cell_measurement_reflns_used    323
_cell_measurement_temperature    250(2)
_cell_measurement_theta_max      25
_cell_measurement_theta_min      3
_cell_volume                     707.88(17)
_computing_cell_refinement       'Bruker SAINT'
_computing_data_collection       'Bruker APEX II'
_computing_data_reduction        'Bruker SAINT'
_computing_molecular_graphics    'Bruker SHELXTL'
_computing_publication_material  'Bruker SHELXTL'
_computing_structure_refinement  'SHELXL-97 (Sheldrick, 1997)'
_computing_structure_solution    'SHELXS-97 (Sheldrick, 1997)'
_diffrn_ambient_temperature      250(2)
_diffrn_measured_fraction_theta_full 1.000
_diffrn_measured_fraction_theta_max 0.999
_diffrn_measurement_device_type  'Bruker APEX II CCD area detector''
_diffrn_measurement_method       'omega scans'
_diffrn_radiation_type           MoK\a
_diffrn_radiation_wavelength     0.71073
_diffrn_reflns_av_R_equivalents  0.0279
_diffrn_reflns_av_unetI/netI     0.0414
_diffrn_reflns_Laue_measured_fraction_full 1.000
_diffrn_reflns_Laue_measured_fraction_max 0.999
_diffrn_reflns_limit_h_max       12
_diffrn_reflns_limit_h_min       -12
_diffrn_reflns_limit_k_max       12
_diffrn_reflns_limit_k_min       -12
_diffrn_reflns_limit_l_max       13
_diffrn_reflns_limit_l_min       -13
_diffrn_reflns_number            7400
_diffrn_reflns_point_group_measured_fraction_full 1.000
_diffrn_reflns_point_group_measured_fraction_max 0.999
_diffrn_reflns_theta_full        25.242
_diffrn_reflns_theta_max         27.991
_diffrn_reflns_theta_min         2.330
_exptl_absorpt_coefficient_mu    11.695
_exptl_absorpt_correction_T_max  0.267
_exptl_absorpt_correction_T_min  0.181
_exptl_absorpt_correction_type   multi-scan
_exptl_absorpt_process_details   SADABS
_exptl_crystal_colour            yellow
_exptl_crystal_density_diffrn    2.988
_exptl_crystal_description       prism
_exptl_crystal_F_000             564
_exptl_crystal_size_max          0.210
_exptl_crystal_size_mid          0.190
_exptl_crystal_size_min          0.160
_refine_diff_density_max         1.525
_refine_diff_density_min         -1.016
_refine_diff_density_rms         0.169
_refine_ls_extinction_method     none
_refine_ls_goodness_of_fit_ref   1.024
_refine_ls_hydrogen_treatment    constr
_refine_ls_matrix_type           full
_refine_ls_number_parameters     124
_refine_ls_number_reflns         3410
_refine_ls_number_restraints     0
_refine_ls_restrained_S_all      1.024
_refine_ls_R_factor_all          0.0551
_refine_ls_R_factor_gt           0.0344
_refine_ls_shift/su_max          0.000
_refine_ls_shift/su_mean         0.000
_refine_ls_structure_factor_coef Fsqd
_refine_ls_weighting_details
'w=1/[\s^2^(Fo^2^)+(0.0369P)^2^] where P=(Fo^2^+2Fc^2^)/3'
_refine_ls_weighting_scheme      calc
_refine_ls_wR_factor_gt          0.0724
_refine_ls_wR_factor_ref         0.0785
_reflns_Friedel_coverage         0.000
_reflns_number_gt                2510
_reflns_number_total             3410
_reflns_threshold_expression     I>2\s(I)
_cod_data_source_file            c6cc01107a2.cif
_cod_data_source_block           250
_cod_depositor_comments
'Adding full bibliography for 7118900--7118914.cif.'
_cod_database_code               7118913
_shelx_space_group_comment
;
The symmetry employed for this shelxl refinement is uniquely defined
by the following loop, which should always be used as a source of
symmetry information in preference to the above space-group names.
They are only intended as comments.
;
_shelx_estimated_absorpt_t_min   0.193
_shelx_estimated_absorpt_t_max   0.256
_shelxl_version_number           2014/6
_shelx_res_file
;
TITL 250 in P-1
CELL 0.71073   9.1743   9.2939  10.2287 114.480  99.652 108.236
ZERR    1.00   0.0013   0.0012   0.0014   0.002   0.002   0.002
LATT  1
SFAC C H N CL I PT
UNIT 14 22 4 2 6 1
size 0.21 0.19 0.16
L.S. 20
PLAN  20
temp -23.00
BOND $H
fmap 2
conf
htab
omit -4 56
acta

WGHT    0.036900
FVAR       0.10709
PT1   6    0.000000    0.000000    0.000000    10.50000    0.03007    0.02387 =
         0.04615    0.00650    0.01964    0.00795
CL1   4    0.062551   -0.011765    0.223095    11.00000    0.03650    0.04951 =
         0.05142    0.01964    0.02064    0.01339
C3    1    0.710007    0.336419   -0.042270    11.00000    0.06158    0.06708 =
         0.06403    0.02921    0.04346    0.03157
AFIX  23
H3A   2    0.781092    0.292145   -0.092143    11.00000   -1.20000
H3B   2    0.634269    0.344918   -0.115604    11.00000   -1.20000
AFIX   0
C1    1    0.368027    0.197276    0.062392    11.00000    0.04465    0.02905 =
         0.03555    0.01120    0.02205    0.01377
N1    3    0.234032    0.120552    0.037314    11.00000    0.03380    0.03463 =
         0.04776    0.00754    0.02156    0.00286
C6    1    0.621739    0.459666    0.228724    11.00000    0.04228    0.05079 =
         0.05834   -0.00470    0.02153   -0.00783
AFIX  23
H6A   2    0.698127    0.449815    0.300391    11.00000   -1.20000
H6B   2    0.550331    0.502112    0.279480    11.00000   -1.20000
AFIX   0
N2    3    0.522880    0.287250    0.090574    11.00000    0.03552    0.03405 =
         0.05318    0.00424    0.02492    0.00158
C2    1    0.614887    0.211295    0.001857    11.00000    0.04830    0.03982 =
         0.07067    0.01412    0.03318    0.01552
AFIX  23
H2A   2    0.539700    0.100052   -0.090198    11.00000   -1.20000
H2B   2    0.689655    0.188699    0.062958    11.00000   -1.20000
AFIX   0
C5    1    0.714034    0.584904    0.185154    11.00000    0.04889    0.03457 =
         0.07191    0.01431    0.01145    0.00622
AFIX  23
H5A   2    0.786494    0.696941    0.277613    11.00000   -1.20000
H5B   2    0.637368    0.605119    0.123455    11.00000   -1.20000
AFIX   0
C4    1    0.812709    0.515533    0.096173    11.00000    0.05540    0.05174 =
         0.08873    0.03683    0.04053    0.01258
AFIX  23
H4A   2    0.866473    0.596355    0.062849    11.00000   -1.20000
H4B   2    0.898092    0.509355    0.162586    11.00000   -1.20000
AFIX   0
I1S   5    0.451384    0.161417    0.421146    11.00000    0.04257    0.03701 =
         0.04897    0.01864    0.02056    0.01549
I3S   5    0.817404    0.538706    0.668316    11.00000    0.05095    0.03360 =
         0.07022    0.01582    0.01769    0.01284
I2S   5    0.833142    0.144944    0.414431    11.00000    0.05224    0.04998 =
         0.05908    0.02479    0.03249    0.02581
C1S   1    0.702263    0.258447    0.549920    11.00000    0.04410    0.03300 =
         0.03940    0.01725    0.01812    0.01386
AFIX  13
H1SA  2    0.704640    0.223393    0.629117    11.00000   -1.20000

AFIX   0
HKLF 4

REM  250 in P-1
REM R1 =  0.0344 for    2510 Fo > 4sig(Fo)  and  0.0551 for all    3410 data
REM    124 parameters refined using      0 restraints

END

WGHT      0.0398      0.0000

REM Instructions for potential hydrogen bonds
EQIV $1 -x+1, -y, -z
HTAB C2 I1S_$1
EQIV $2 -x+1, -y, -z+1
HTAB C1S I1S_$2

REM Highest difference peak  1.525,  deepest hole -1.016,  1-sigma level  0.169
Q1    1   0.0603 -0.0345  0.0593  11.00000  0.05    1.53
Q2    1   0.0875  0.0830  0.0409  11.00000  0.05    1.52
Q3    1   0.5047  0.1367  0.4970  11.00000  0.05    1.23
Q4    1   0.5568  0.2546  0.4805  11.00000  0.05    1.01
Q5    1   0.8495  0.4790  0.6241  11.00000  0.05    1.00
Q6    1   0.8326  0.5194  0.7494  11.00000  0.05    0.97
Q7    1   0.0645  0.0722 -0.0392  11.00000  0.05    0.91
Q8    1   0.0254 -0.0799 -0.0464  11.00000  0.05    0.91
Q9    1   0.7923  0.2020  0.3627  11.00000  0.05    0.91
Q10   1   0.7201  0.4574  0.6287  11.00000  0.05    0.88
Q11   1   0.8983  0.2412  0.4223  11.00000  0.05    0.86
Q12   1   0.3791  0.1996  0.3618  11.00000  0.05    0.84
Q13   1   0.8939  0.1023  0.4776  11.00000  0.05    0.79
Q14   1   0.4650  0.2167  0.3612  11.00000  0.05    0.76
Q15   1   0.0725 -0.0092  0.1651  11.00000  0.05    0.73
Q16   1   0.3875  0.0750  0.4654  11.00000  0.05    0.67
Q17   1   0.7496  0.5793  0.6076  11.00000  0.05    0.66
Q18   1   0.7287  0.0563  0.3649  11.00000  0.05    0.64
Q19   1   0.1419  0.0377  0.2387  11.00000  0.05    0.61
Q20   1   0.0135 -0.0165 -0.0755  11.00000  0.05    0.61
;
_shelx_res_checksum              37219
_shelx_hkl_file
;
   0   1   0  110.54    1.87
   0   1   0  107.17    2.24
   0   1   0  106.60    1.99
   0  -1   0  106.68    1.99
   0   2   0  120.27    2.69
   0   2   0  120.47    2.21
   0  -2   0  119.08    2.30
   0   3   0  207.72    4.50
   0   3   0  201.92    3.71
   0  -3   0  204.18    3.89
   0   4   0   10.10    0.94
   0   4   0   10.71    0.76
   0   5   0   22.97    0.95
   0  -5   0   22.17    0.86
   0   6   0  143.87    3.15
   0  -6   0  143.11    3.04
   0   7   0   93.92    2.49
   0   8   0    9.30    1.02
   0   9   0    1.92    0.79
   0  10   0    0.64    0.87
  -1  11   0    4.20    1.11
  -1  10   0    0.19    0.80
  -1   9   0   26.26    1.48
  -1   8   0    1.10    0.63
   1  -7   0   52.17    1.62
  -1   7   0   55.77    1.85
   1  -6   0    0.07    0.50
  -1   6   0   -0.13    0.42
   1  -5   0  102.20    2.28
  -1   5   0  101.89    2.27
   1  -4   0   18.81    0.79
  -1   4   0   18.08    0.79
   1  -3   0  250.03    4.74
  -1   3   0  253.99    4.44
   1  -2   0  123.54    2.45
  -1   2   0  125.33    2.26
   1  -1   0    5.39    0.29
  -1   1   0    4.47    0.25
   1   0   0   39.54    0.88
   1   0   0   39.73    0.82
   1   0   0   39.12    0.87
   1   1   0   70.20    1.67
   1   1   0   69.32    1.44
   1   1   0   69.51    1.35
   1   2   0  610.05   12.03
   1   2   0  626.69   10.29
  -1  -2   0  593.20   11.05
   1   3   0   31.33    1.39
   1   3   0   33.29    1.03
  -1  -3   0   31.99    0.91
   1   4   0  175.71    4.32
   1   4   0  181.42    3.52
  -1  -4   0  180.93    3.58
   1   5   0   10.48    1.18
   1   5   0   11.43    0.83
  -1  -5   0   11.25    0.64
   1   6   0   20.79    1.11
  -1  -6   0   19.85    0.92
   1   7   0    0.06    0.61
   1   8   0   41.63    1.77
   1   9   0   15.50    1.41
   1  10   0    9.12    1.30
  -2  11   0    9.16    1.35
  -2  10   0    4.09    0.98
  -2   9   0   -0.15    0.68
  -2   8   0   14.40    1.13
   2  -7   0   26.55    1.22
  -2   7   0   25.58    1.20
   2  -6   0   34.63    1.26
  -2   6   0   36.27    1.29
   2  -5   0  490.67    9.15
  -2   5   0  488.57    8.51
   2  -4   0   39.40    1.19
  -2   4   0   38.91    1.12
   2  -3   0  109.61    2.36
  -2   3   0  112.93    2.21
   2  -2   0  258.67    4.87
  -2   2   0  252.27    4.46
   2  -1   0  112.02    2.31
  -2   1   0  108.87    2.09
   2   0   0    9.88    0.57
   2   0   0    8.91    0.47
   2   0   0   10.22    0.58
   2   1   0  536.95   10.46
   2   1   0  522.23    8.85
   2   1   0  531.56    9.72
   2   2   0  208.79    4.58
   2   2   0  203.63    3.79
   2   2   0  210.22    4.07
   2   3   0   54.48    1.45
   2   3   0   57.72    1.94
  -2  -3   0   54.64    1.40
   2   4   0    9.59    1.03
   2   4   0    9.30    0.76
  -2  -4   0    8.48    0.59
   2   5   0    1.79    0.62
   2   5   0    3.74    0.93
  -2  -5   0    3.43    0.50
   2   6   0   47.18    1.74
  -2  -6   0   49.10    1.47
   2   7   0    8.57    1.01
   2   8   0   33.49    1.68
   2   9   0   -0.24    0.88
  -3  11   0    0.87    0.89
  -3  10   0   21.77    1.48
  -3   9   0   11.18    1.14
   3  -8   0   34.24    1.42
  -3   8   0   37.41    1.53
   3  -7   0    1.24    0.59
  -3   7   0    1.08    0.55
   3  -6   0    2.69    0.58
  -3   6   0    2.00    0.53
   3  -5   0    5.81    0.66
  -3   5   0    5.31    0.61
   3  -4   0   69.97    1.82
  -3   4   0   70.73    1.70
   3  -3   0  457.94    8.62
  -3   3   0  460.38    7.87
   3  -2   0  106.49    2.40
  -3   2   0  106.85    2.18
   3  -1   0  143.65    3.04
  -3   1   0  139.49    2.73
   3   0   0  147.01    3.09
   3   0   0  137.28    2.86
   3   0   0  144.98    3.09
   3   1   0    9.64    0.79
   3   1   0   10.53    0.80
   3   1   0   10.17    0.71
   3   2   0    2.19    0.57
   3   2   0    2.70    0.52
   3   2   0    1.84    0.45
   3   3   0  348.74    6.82
   3   3   0  355.85    7.72
   3   3   0  355.12    6.42
   3   4   0   74.76    2.62
   3   4   0   77.59    2.08
  -3  -4   0   78.47    1.99
   3   5   0   97.92    2.53
   3   5   0   97.64    3.30
  -3  -5   0   94.70    2.38
   3   6   0    1.16    0.70
   3   7   0    1.01    0.82
   3   8   0    1.71    0.94
   3   9   0    6.23    1.25
  -4  11   0    4.51    1.08
  -4  10   0   22.95    1.52
  -4   9   0   -0.12    0.64
   4  -8   0   18.78    1.30
  -4   8   0   19.13    1.24
   4  -7   0   10.43    1.02
  -4   7   0   10.38    0.99
   4  -6   0   35.46    1.40
  -4   6   0   35.92    1.31
   4  -5   0    0.55    0.51
  -4   5   0    0.62    0.40
   4  -4   0  138.24    3.12
  -4   4   0  132.60    2.85
   4  -3   0   32.13    1.27
  -4   3   0   31.22    1.08
   4  -2   0   49.75    1.61
  -4   2   0   49.95    1.38
   4  -1   0   10.36    0.93
  -4   1   0   10.82    0.67
   4   0   0   20.32    0.94
   4   0   0   19.93    1.13
   4   0   0   17.69    1.12
   4   1   0   76.31    2.11
   4   1   0   72.26    2.09
   4   1   0   73.59    1.94
   4   2   0    3.79    0.71
   4   2   0    6.08    0.73
   4   2   0    5.94    0.75
   4   3   0   64.30    1.90
   4   3   0   65.07    1.97
   4   3   0   63.12    2.28
   4   4   0    1.21    0.85
   4   4   0   -0.18    0.62
  -4  -4   0    0.53    0.50
   4   5   0   31.78    1.56
  -4  -5   0   31.34    1.29
   4   6   0    1.18    0.85
   4   7   0   32.02    1.84
   4   8   0    2.43    1.09
  -5  11   0    0.90    0.93
  -5  10   0    0.11    0.76
   5  -9   0   22.08    1.51
  -5   9   0   22.43    1.39
   5  -8   0   69.55    2.33
  -5   8   0   67.19    2.19
   5  -7   0   25.56    1.42
  -5   7   0   24.79    1.30
   5  -6   0   12.57    1.14
  -5   6   0   12.35    0.99
   5  -5   0   87.65    2.44
  -5   5   0   90.97    2.31
   5  -4   0    1.24    0.62
  -5   4   0    0.51    0.42
   5  -3   0    4.16    0.76
  -5   3   0    4.70    0.61
   5  -2   0  449.39    8.71
  -5   2   0  434.52    7.87
   5  -1   0   96.72    2.58
   5  -1   0   97.91    2.27
  -5   1   0   96.05    2.29
   5   0   0  120.51    3.06
   5   0   0  122.53    2.92
  -5   0   0  117.26    2.65
   5   1   0   25.53    1.38
   5   1   0   23.90    1.26
   5   1   0   23.80    1.24
   5   2   0    2.47    0.76
   5   2   0    2.76    0.77
   5   2   0    1.03    0.81
   5   3   0    2.71    0.83
   5   3   0    3.76    0.94
   5   3   0    3.30    0.91
   5   4   0   35.37    1.71
   5   4   0   34.74    2.11
  -5  -4   0   34.52    1.49
   5   5   0   53.22    2.10
  -5  -5   0   46.55    1.77
   5   7   0    3.90    1.18
  -6  11   0    7.54    1.25
  -6  10   0    0.06    0.80
   6  -9   0   10.63    1.28
  -6   9   0   10.62    1.26
   6  -8   0    0.84    0.89
  -6   8   0    1.04    0.68
   6  -7   0   19.77    1.50
  -6   7   0   22.96    1.34
   6  -6   0   11.18    1.18
   6  -6   0    9.80    0.68
  -6   6   0    9.83    0.98
   6  -5   0   41.88    1.71
  -6   5   0   38.65    1.49
   6  -4   0   20.21    1.29
  -6   4   0   20.95    1.07
   6  -3   0    5.46    0.91
  -6   3   0    4.98    0.68
   6  -2   0    1.42    0.68
  -6   2   0    0.33    0.41
   6  -1   0    1.72    0.75
  -6   1   0    1.17    0.45
   6   0   0   87.91    2.37
   6   0   0   88.86    2.63
  -6   0   0   85.06    2.20
   6   1   0   14.98    1.33
   6   1   0   11.52    1.26
   6   1   0   13.14    1.33
   6   2   0   72.16    2.49
   6   2   0   72.78    2.36
   6   2   0   70.96    2.54
   6   3   0   -0.25    0.85
   6   3   0   -0.16    0.84
   6   3   0   -0.34    0.87
   6   4   0    2.01    0.96
   6   5   0    2.13    1.07
   6   6   0   11.38    1.50
   6   7   0    3.70    1.33
  -7  11   0   -0.17    0.92
   7 -10   0    2.04    1.47
  -7  10   0    4.27    1.08
   7  -9   0   -0.71    0.87
  -7   9   0   -0.45    0.72
   7  -8   0   -0.40    0.82
  -7   8   0    0.05    0.69
   7  -7   0   81.52    2.55
   7  -7   0   78.28    2.66
  -7   7   0   74.54    2.43
   7  -6   0   15.11    1.46
  -7   6   0   15.79    1.20
   7  -5   0   40.56    1.84
  -7   5   0   39.48    1.62
   7  -4   0   21.74    1.51
  -7   4   0   24.16    1.26
   7  -3   0    1.53    0.77
  -7   3   0    1.03    0.52
   7  -2   0    1.78    0.81
  -7   2   0    2.06    0.56
   7  -1   0   30.39    1.76
   7  -1   0   32.01    1.28
  -7   1   0   32.92    1.35
   7   0   0   26.14    1.75
   7   0   0   26.84    1.37
  -7   0   0   24.34    1.19
   7   1   0   11.32    1.40
   7   1   0   11.88    1.20
  -7  -1   0   11.37    0.97
   7   2   0    2.59    0.98
   7   2   0    4.18    1.07
   7   2   0    4.20    1.11
   7   3   0   -0.18    1.00
   7   3   0    0.68    1.01
   7   4   0    7.47    1.34
  -7  -4   0    8.53    1.13
   7   5   0    1.68    1.16
   7   6   0   10.62    1.65
  -8  11   0    3.44    1.21
   8 -10   0   18.27    1.82
  -8  10   0   16.48    1.71
   8  -9   0    0.37    1.00
  -8   9   0    0.40    0.80
   8  -8   0    0.30    0.94
  -8   8   0   -0.62    0.72
   8  -7   0    2.44    1.05
  -8   7   0    1.95    0.78
   8  -6   0   -0.01    0.86
  -8   6   0    0.27    0.66
   8  -5   0   59.58    2.40
  -8   5   0   59.86    2.14
   8  -4   0   32.68    1.80
  -8   4   0   34.22    1.54
   8  -3   0   47.10    2.09
  -8   3   0   47.31    1.77
   8  -2   0   13.63    1.45
  -8   2   0   14.05    1.07
   8  -1   0   -1.12    0.85
  -8   1   0    0.23    0.51
   8   0   0   11.32    1.43
   8   0   0    9.23    1.08
  -8   0   0    9.95    0.96
   8   1   0   24.90    1.80
  -8  -1   0   25.39    1.36
   8   2   0   14.84    1.65
   8   3   0   22.63    2.02
   8   3   0   21.64    1.91
   8   4   0    0.86    1.19
   8   5   0   -0.46    1.29
  -9  11   0    3.07    1.23
   9 -10   0    4.75    1.39
  -9  10   0    6.06    1.29
   9  -9   0   -0.90    1.02
  -9   9   0    0.22    0.89
   9  -8   0    7.11    1.41
  -9   8   0    6.91    1.14
   9  -7   0    0.39    1.01
  -9   7   0    0.70    0.83
   9  -6   0   13.34    1.49
  -9   6   0   10.59    1.17
   9  -5   0    0.14    0.84
  -9   5   0    0.94    0.66
   9  -4   0    3.61    1.05
  -9   4   0    4.72    0.87
   9  -3   0    1.99    0.99
  -9   3   0    2.77    0.71
   9  -2   0    3.84    1.15
  -9   2   0    4.07    0.76
   9  -1   0   11.17    1.46
  -9   1   0   13.49    1.13
   9   0   0    2.10    1.13
  -9   0   0    0.25    0.57
   9   1   0    6.02    1.39
  -9  -1   0    5.73    0.88
   9   2   0   -1.34    1.07
  -9  -2   0    2.00    0.76
   9   3   0    2.16    1.39
  -9  -3   0    3.87    0.91
  10 -10   0   10.21    1.64
 -10  10   0    8.71    1.49
  10  -9   0   10.31    1.58
 -10   9   0   13.67    1.73
  10  -8   0   11.04    1.58
 -10   8   0   10.38    1.39
  10  -7   0    2.24    1.10
 -10   7   0    1.55    0.87
  10  -6   0    1.79    1.02
 -10   6   0    0.82    0.73
  10  -5   0    2.83    1.12
 -10   5   0    2.82    0.80
  10  -4   0   26.82    1.92
 -10   4   0   24.06    1.55
  10  -3   0   12.68    1.59
 -10   3   0   14.14    1.25
  10  -2   0   21.07    1.85
 -10   2   0   25.77    1.50
  10  -1   0    0.45    1.03
 -10   1   0    0.53    0.58
  10   0   0   -0.08    1.07
 -10   0   0    0.27    0.63
  10   1   0    0.70    1.27
 -10  -1   0    0.88    0.73
  10   2   0    0.97    1.26
 -10  -2   0    2.52    0.84
  11  -9   0    1.43    1.21
 -11   9   0    2.37    1.11
  11  -8   0    1.89    1.18
 -11   8   0    1.08    0.99
  11  -7   0    8.57    1.52
 -11   7   0   10.00    1.33
  11  -6   0    6.32    1.40
 -11   6   0    7.39    1.14
  11  -5   0    0.58    1.09
 -11   5   0    1.84    0.81
  11  -4   0   -1.16    1.00
 -11   4   0    0.99    0.66
  11  -3   0    0.57    1.05
 -11   3   0    1.09    0.73
  11  -2   0    4.31    1.33
 -11   2   0    4.35    0.89
  11  -1   0    1.91    1.26
 -11   1   0    3.12    0.87
  11   0   0   14.65    1.92
 -11   0   0   17.39    1.36
  11   1   0   -2.07    1.24
 -11  -1   0    1.51    0.79
  12  -8   0    3.36    1.39
 -12   8   0    3.50    1.21
  12  -7   0    6.29    1.52
 -12   7   0    6.99    1.20
  12  -6   0   -0.97    1.11
 -12   6   0    1.52    0.85
  12  -5   0    0.39    1.14
 -12   5   0    0.86    0.79
  12  -4   0    1.31    1.14
 -12   4   0    0.71    0.74
  12  -3   0    2.49    1.23
 -12   3   0    1.84    0.75
  12  -2   0    2.87    1.43
 -12   2   0    4.76    1.00
 -12   1   1    0.61    0.76
  12  -1  -1    0.22    1.22
 -12   2   1    3.41    0.90
  12  -2  -1    2.17    1.28
 -12   3   1    0.85    0.75
  12  -3  -1    0.33    1.26
 -12   4   1    3.53    0.95
  12  -4  -1    3.74    1.42
 -12   5   1    1.26    0.80
  12  -5  -1    1.90    1.28
 -12   6   1    5.58    1.10
  12  -6  -1    4.08    1.35
 -12   7   1    1.29    0.92
  12  -7  -1    0.05    1.21
 -12   8   1    0.20    1.01
  12  -8  -1   -1.36    1.15
 -11  -1   1    3.99    0.92
  11   1  -1    2.61    1.40
 -11   0   1    1.98    0.79
  11   0  -1   -0.52    1.21
 -11   1   1    1.17    0.70
  11  -1  -1   -0.73    1.11
 -11   2   1    1.06    0.73
  11  -2  -1   -0.96    1.13
 -11   3   1    2.89    0.83
  11  -3  -1    4.69    1.38
 -11   4   1   14.92    1.35
  11  -4  -1   14.38    1.70
 -11   5   1    4.57    0.98
  11  -5  -1    3.47    1.21
 -11   6   1    4.33    1.01
  11  -6  -1    3.23    1.25
 -11   7   1    1.29    0.87
  11  -7  -1    1.06    1.16
 -11   8   1    1.61    1.00
  11  -8  -1    0.41    1.20
 -11   9   1   -0.23    1.04
  11  -9  -1   -1.07    1.10
 -10  -3   1    0.21    0.80
  10   3  -1   -0.77    1.29
 -10  -2   1    0.86    0.73
  10   2  -1    0.30    1.16
 -10  -1   1    9.24    1.16
  10   1  -1    9.07    1.54
 -10   0   1    8.66    1.11
  10   0  -1    8.68    1.49
 -10   1   1   22.82    1.40
  10  -1  -1   22.34    1.86
 -10   2   1   -0.57    0.59
  10  -2  -1    0.38    1.07
 -10   3   1   -0.17    0.57
  10  -3  -1   -0.76    0.95
 -10   4   1    3.80    0.88
  10  -4  -1    4.18    1.10
 -10   5   1    4.56    0.92
  10  -5  -1    4.18    1.15
 -10   6   1   20.87    1.56
  10  -6  -1   17.97    1.80
 -10   7   1   20.19    1.62
  10  -7  -1   18.08    1.96
 -10   8   1    5.85    1.20
  10  -8  -1    4.31    1.34
 -10   9   1    1.09    1.08
  10  -9  -1    0.25    1.22
 -10  10   1   -1.01    0.98
  10 -10  -1    0.36    1.26
   9   4  -1   -0.04    1.37
   9   3  -1    1.46    1.19
  -9  -2   1    8.46    1.08
   9   2  -1    6.23    1.37
  -9  -1   1   11.73    1.12
   9   1  -1   12.70    1.62
  -9   0   1    2.02    0.70
   9   0  -1    0.88    1.01
  -9   1   1    8.74    0.99
   9  -1  -1    9.07    1.42
  -9   2   1    0.65    0.54
   9  -2  -1    0.13    0.91
  -9   3   1   13.91    1.17
   9  -3  -1   17.33    1.50
  -9   4   1    0.42    0.60
   9  -4  -1   -0.65    0.86
  -9   5   1   10.94    1.16
   9  -5  -1    9.93    1.35
  -9   6   1   -0.36    0.60
   9  -6  -1    0.06    0.87
  -9   7   1    9.35    1.25
   9  -7  -1   12.00    1.54
  -9   8   1    0.44    0.81
   9  -8  -1    0.73    1.09
  -9   9   1    6.36    1.29
   9  -9  -1    6.91    1.40
  -9  10   1    3.48    1.22
   9 -10  -1    2.15    1.17
   8   5  -1    7.85    1.58
   8   4  -1   20.10    1.88
   8   4  -1   22.53    1.94
   8   3  -1    0.90    1.03
   8   3  -1    0.50    1.09
   8   2  -1   -0.80    0.89
  -8  -1   1    4.72    0.78
   8   1  -1    3.90    1.13
  -8   0   1   38.20    1.58
   8   0  -1   39.12    2.14
  -8   1   1   47.70    1.76
   8  -1  -1   50.38    2.20
  -8   2   1   63.35    2.03
   8  -2  -1   59.32    2.29
  -8   3   1    7.89    0.93
   8  -3  -1    7.96    1.23
  -8   4   1    3.07    0.72
   8  -4  -1    5.59    1.10
  -8   5   1    3.10    0.77
   8  -5  -1    2.81    0.96
  -8   6   1    0.93    0.70
   8  -6  -1   -0.46    0.81
  -8   7   1   38.36    1.84
   8  -7  -1   38.14    2.06
  -8   8   1   18.74    1.53
   8  -8  -1   15.47    1.63
  -8   9   1   23.68    1.69
   8  -9  -1   20.41    1.79
  -8  10   1    0.05    0.99
   8 -10  -1   -1.11    0.98
  -8  11   1    3.13    1.18
   7   6  -1    1.10    1.28
   7   5  -1    1.94    1.18
   7   4  -1   11.11    1.39
   7   4  -1   11.18    1.44
   7   3  -1   15.48    1.50
   7   3  -1   14.14    1.46
   7   2  -1   68.47    2.41
   7   2  -1   63.77    2.44
   7   1  -1    1.31    0.91
  -7   0   1    9.83    0.92
   7   0  -1    9.46    1.19
  -7   1   1   15.08    0.98
   7  -1  -1   15.73    1.30
  -7   2   1   50.11    1.68
   7  -2  -1   49.56    2.00
  -7   3   1   24.24    1.20
   7  -3  -1   25.87    1.48
  -7   4   1  119.05    2.98
   7  -4  -1  115.70    3.20
  -7   5   1   14.97    1.09
   7  -5  -1   15.78    1.42
  -7   6   1    1.98    0.68
   7  -6  -1    2.95    0.95
  -7   7   1    4.90    0.91
   7  -7  -1    6.60    1.19
  -7   8   1    0.01    0.68
   7  -8  -1    0.28    0.88
  -7   9   1   11.82    1.37
   7  -9  -1   13.66    1.50
  -7  10   1    9.90    1.38
  -7  11   1   13.72    1.66
   6   7  -1    3.18    1.32
   6   6  -1    0.26    1.07
   6   5  -1   44.72    2.11
   6   4  -1   24.82    1.64
   6   4  -1   24.94    1.62
   6   3  -1   80.32    2.57
   6   3  -1   82.52    2.59
   6   2  -1    5.28    0.97
   6   2  -1    4.80    0.97
   6   1  -1   -0.27    0.71
   6   1  -1    1.06    0.75
  -6   0   1    0.59    0.39
   6   0  -1    0.19    0.62
  -6   1   1    8.25    0.80
   6  -1  -1    9.49    1.04
  -6   2   1  130.79    2.98
   6  -2  -1  130.45    3.30
  -6   3   1   53.68    1.69
   6  -3  -1   52.77    1.89
  -6   4   1  106.02    2.60
   6  -4  -1  103.84    2.84
  -6   5   1    2.10    0.58
   6  -5  -1    3.48    0.84
  -6   6   1   15.94    1.13
   6  -6  -1   18.00    1.38
  -6   7   1   -0.64    0.54
   6  -7  -1    0.98    0.82
  -6   8   1   22.79    1.42
   6  -8  -1   24.58    1.62
  -6   9   1    1.54    0.82
   6  -9  -1    1.70    0.98
  -6  10   1    9.57    1.29
  -6  11   1    0.84    0.99
   5   8  -1   16.91    1.81
   5   7  -1   24.79    1.87
   5   6  -1    3.21    1.05
  -5  -5   1    5.14    0.73
   5   5  -1    2.95    0.97
   5   4  -1   12.96    1.30
   5   4  -1   12.25    1.30
   5   3  -1   53.77    1.94
   5   3  -1   55.75    1.94
   5   2  -1   55.51    1.90
   5   2  -1   59.84    1.89
   5   1  -1  473.67    8.48
   5   1  -1  461.95    9.13
  -5   0   1   31.48    1.16
   5   0  -1   31.27    1.36
  -5   1   1   11.62    0.80
   5  -1  -1   11.27    1.04
  -5   2   1   59.86    1.67
   5  -2  -1   58.39    1.88
  -5   3   1    0.81    0.42
   5  -3  -1    0.88    0.58
  -5   4   1  119.72    2.75
   5  -4  -1  121.87    3.00
  -5   5   1  194.33    4.00
   5  -5  -1  188.13    4.31
  -5   6   1  126.32    2.99
   5  -6  -1  126.67    3.21
  -5   7   1    0.59    0.58
   5  -7  -1   -0.28    0.73
  -5   8   1    0.55    0.65
   5  -8  -1   -0.26    0.84
  -5   9   1    5.78    0.98
   5  -9  -1    8.01    1.18
  -5  10   1   13.88    1.38
  -5  11   1    5.37    1.18
   4   9  -1    2.89    1.29
   4   8  -1   17.53    1.65
   4   7  -1    0.24    0.86
   4   6  -1   14.71    1.29
  -4  -5   1    1.73    0.54
   4   5  -1    1.42    0.81
   4   4  -1   42.02    1.50
   4   4  -1   39.75    1.63
   4   3  -1   73.23    2.01
   4   3  -1   72.06    2.02
   4   2  -1   22.23    1.11
   4   2  -1   23.84    1.16
   4   1  -1  104.92    2.54
   4   1  -1  104.28    2.44
   4   0  -1   19.19    1.11
   4   0  -1   19.34    1.06
  -4   1   1  331.35    5.92
   4  -1  -1  326.55    6.45
  -4   2   1    6.46    0.59
   4  -2  -1    7.93    0.78
  -4   3   1  171.42    3.35
   4  -3  -1  162.87    3.61
  -4   4   1   12.80    0.77
   4  -4  -1   13.04    0.93
  -4   5   1   41.68    1.37
   4  -5  -1   39.40    1.50
  -4   6   1    8.54    0.83
   4  -6  -1    8.66    0.95
  -4   7   1   74.74    2.18
   4  -7  -1   76.37    2.33
  -4   8   1   31.31    1.46
   4  -8  -1   28.50    1.54
  -4   9   1    9.98    1.12
  -4  10   1    0.16    0.82
  -4  11   1    0.12    0.94
   3   9  -1    0.69    1.00
   3   8  -1   19.45    1.50
   3   7  -1   16.62    1.30
   3   6  -1  139.01    3.35
  -3  -5   1   10.51    0.67
   3   5  -1   11.39    1.01
   3   4  -1    5.37    0.73
   3   3  -1   72.86    1.83
   3   3  -1   74.24    1.91
   3   2  -1   67.57    1.77
   3   2  -1   67.26    1.70
   3   1  -1  198.16    3.97
   3   1  -1  193.97    3.70
   3   0  -1  650.58   11.14
   3   0  -1  667.93   12.12
  -3   1   1  381.06    6.53
   3  -1  -1  372.76    7.11
  -3   2   1    1.93    0.37
   3  -2  -1    2.73    0.49
  -3   3   1    0.29    0.31
   3  -3  -1    1.18    0.50
  -3   4   1   30.12    1.04
   3  -4  -1   29.96    1.19
  -3   5   1  155.17    3.20
   3  -5  -1  158.29    3.51
  -3   6   1   48.36    1.56
   3  -6  -1   51.26    1.72
  -3   7   1  136.02    3.19
   3  -7  -1  140.09    3.36
  -3   8   1    1.06    0.64
   3  -8  -1    0.50    0.74
  -3   9   1   10.95    1.19
  -3  10   1    0.81    0.89
  -3  11   1    4.10    1.11
   2  10  -1    3.09    1.08
   2   9  -1   11.12    1.27
   2   8  -1    0.72    0.76
   2   7  -1    0.45    0.64
  -2  -6   1   12.99    0.65
   2   6  -1   11.42    1.01
  -2  -5   1   32.76    0.95
   2   5  -1   31.03    1.27
  -2  -4   1  319.07    5.96
   2   4  -1  315.90    5.81
   2   3  -1   32.32    1.10
   2   3  -1   31.87    0.93
   2   2  -1   92.80    1.96
   2   2  -1   88.49    1.92
   2   1  -1  150.29    2.80
   2   1  -1  149.03    2.98
   2   0  -1   86.03    1.86
   2   0  -1   86.02    1.79
  -2   1   1   11.58    0.56
   2  -1  -1   14.01    0.66
  -2   2   1 1000.00   17.33
  -2   2   1  986.55   19.77
   2  -2  -1  966.18   18.50
  -2   3   1  279.58    5.77
  -2   3   1  277.65    4.92
   2  -3  -1  280.18    5.43
  -2   4   1  142.03    3.40
  -2   4   1  143.07    2.86
   2  -4  -1  145.55    3.13
  -2   5   1    6.81    0.66
  -2   5   1    6.78    0.80
   2  -5  -1    8.49    0.82
  -2   6   1   12.83    0.87
   2  -6  -1   11.55    1.00
  -2   7   1   14.25    1.06
   2  -7  -1   17.17    1.22
  -2   8   1   16.73    1.16
  -2   9   1   59.82    2.07
  -2  10   1    5.50    1.10
   1  10  -1   -0.20    0.87
   1   9  -1    4.04    0.96
   1   8  -1    6.44    0.93
   1   7  -1   33.30    1.44
   1   6  -1   26.74    1.22
  -1  -5   1  160.77    3.11
   1   5  -1  159.69    3.32
  -1  -4   1   55.22    1.20
   1   4  -1   52.46    1.46
  -1  -3   1   22.58    0.60
   1   3  -1   21.27    0.83
   1   2  -1    1.93    0.22
   1   2  -1    0.77    0.27
   1   1  -1    0.78    0.20
   1   1  -1    1.28    0.21
  -1   0   1  188.79    3.88
   1   0  -1  185.33    3.72
   1   0  -1  198.39    3.40
   1   0  -1  193.04    3.56
  -1   1   1  153.62    2.61
  -1   1   1  150.60    3.09
   1  -1  -1  149.23    2.94
  -1   2   1  517.74    8.85
  -1   2   1  515.57   10.72
   1  -2  -1  509.44    9.53
  -1   3   1    2.10    0.37
  -1   3   1    1.53    0.49
   1  -3  -1    0.87    0.42
  -1   4   1  114.01    2.37
  -1   4   1  117.47    3.00
   1  -4  -1  109.92    2.54
  -1   5   1    0.43    0.40
  -1   5   1    0.81    0.58
   1  -5  -1   -0.14    0.43
  -1   6   1   70.15    2.50
  -1   6   1   68.93    1.90
   1  -6  -1   69.17    1.93
  -1   7   1    2.95    0.69
   1  -7  -1    2.86    0.73
  -1   8   1   23.30    1.35
  -1   9   1    2.44    0.83
  -1  10   1    1.98    0.96
   0  11  -1    1.40    1.01
   0  10  -1   12.58    1.36
   0   9  -1   47.06    1.92
   0   8  -1    4.83    0.81
   0   7  -1    9.43    0.94
   0   6  -1   76.40    2.01
   0   5  -1   15.53    0.79
   0   4  -1    6.81    0.63
   0   3  -1  845.17   14.76
   0   2  -1  232.07    4.00
   0  -1   1  160.18    3.13
   0  -1   1  168.07    2.88
   0   1  -1  162.24    2.87
   0   1  -1  134.35    2.65
   0   0   1   66.07    1.56
   0   0  -1   77.50    1.43
   0   1   1   59.61    1.12
   0   1   1   58.86    1.50
   0  -1  -1   60.80    1.32
   0   2   1   11.30    0.75
   0   2   1   10.98    0.47
   0  -2  -1    9.56    0.53
   0   3   1  223.88    5.09
   0   3   1  230.82    4.12
   0  -3  -1  232.78    4.49
   0   4   1  390.70    6.69
   0   4   1  370.81    8.13
   0  -4  -1  379.09    7.23
   0   5   1   23.90    1.48
   0   5   1   24.86    1.01
   0  -5  -1   24.53    1.03
   0   6   1   20.32    1.63
   0   6   1   20.38    1.11
   0  -6  -1   21.56    1.10
   0   7   1   22.10    1.23
   0  -7  -1   23.96    1.29
   0   8   1   10.21    1.15
   0   9   1    2.57    0.88
   0  10   1   28.24    1.75
  -1  11  -1   -0.93    0.89
  -1  10  -1   15.08    1.39
  -1   9  -1   -0.94    0.63
  -1   8  -1   13.41    1.02
  -1   7  -1    4.21    0.73
   1  -6   1   17.35    0.74
  -1   6  -1   16.15    0.91
   1  -5   1   34.02    0.95
  -1   5  -1   33.88    1.13
   1  -4   1    3.90    0.41
  -1   4  -1    3.85    0.47
   1  -3   1   70.80    1.50
  -1   3  -1   73.68    1.54
   1  -2   1   20.62    0.69
  -1   2  -1   21.44    0.64
   1  -1   1  386.54    7.73
   1  -1   1  387.84    7.89
  -1   1  -1  405.66    6.65
   1   0   1   11.69    0.41
   1   0   1   12.44    0.60
   1   0   1   11.51    0.52
   1   1   1  222.95    4.79
   1   1   1  230.38    3.87
  -1  -1  -1  227.26    4.35
   1   2   1   16.14    0.63
   1   2   1   16.72    1.01
  -1  -2  -1   15.33    0.69
   1   3   1   11.36    0.66
   1   3   1   11.27    1.03
  -1  -3  -1   11.54    0.66
   1   4   1    2.39    0.70
   1   4   1    2.87    0.51
  -1  -4  -1    2.55    0.48
   1   5   1   59.69    2.35
   1   5   1   61.81    1.71
  -1  -5  -1   60.37    1.69
   1   6   1   43.54    1.58
   1   6   1   48.38    2.35
  -1  -6  -1   44.23    1.50
   1   7   1   35.81    1.54
   1   8   1   11.06    1.16
   1   9   1   -0.94    0.79
  -2  11  -1    3.59    1.05
  -2  10  -1    5.03    0.94
  -2   9  -1    1.90    0.82
  -2   8  -1  122.09    2.96
   2  -7   1   12.65    0.80
  -2   7  -1   12.33    0.90
   2  -6   1   27.08    1.00
  -2   6  -1   28.33    1.12
   2  -5   1  103.66    2.28
  -2   5  -1  102.95    2.28
   2  -4   1    0.45    0.37
  -2   4  -1    0.98    0.36
   2  -3   1    5.86    0.53
  -2   3  -1    4.84    0.44
   2  -2   1  169.40    3.44
   2  -2   1  169.79    3.37
  -2   2  -1  167.14    3.03
   2  -1   1  510.43    9.74
   2  -1   1  521.87   10.05
  -2   1  -1  490.96    8.54
   2   0   1   22.96    0.90
   2   0   1   22.08    0.85
   2   0   1   21.51    0.75
   2   1   1    7.28    0.72
   2   1   1    7.35    0.57
   2   1   1    5.45    0.68
   2   2   1   88.11    1.87
   2   2   1   84.30    2.50
  -2  -2  -1   86.48    2.07
   2   3   1   50.04    1.38
   2   3   1   51.62    1.97
  -2  -3  -1   50.45    1.46
   2   4   1    8.62    0.75
   2   4   1    7.47    1.01
  -2  -4  -1    6.54    0.63
   2   5   1  124.27    3.73
   2   5   1  110.96    2.69
  -2  -5  -1  114.22    2.75
   2   6   1    2.32    1.06
   2   6   1    2.31    0.71
  -2  -6  -1    2.68    0.61
   2   7   1   13.34    1.19
   2   8   1   -0.45    0.76
   2   9   1    4.15    1.11
  -3  12  -1    1.84    1.14
  -3  11  -1   10.37    1.25
  -3  10  -1    1.53    0.76
  -3   9  -1    0.95    0.66
   3  -8   1    0.01    0.54
  -3   8  -1    0.55    0.57
   3  -7   1    2.09    0.59
  -3   7  -1    2.28    0.57
   3  -6   1  204.75    4.22
  -3   6  -1  201.66    4.07
   3  -5   1   43.39    1.37
  -3   5  -1   43.22    1.31
   3  -4   1  112.75    2.59
  -3   4  -1  116.77    2.42
   3  -3   1  168.03    3.50
   3  -3   1  162.48    3.44
  -3   3  -1  165.14    3.16
   3  -2   1    7.32    0.52
   3  -2   1    7.64    0.72
  -3   2  -1    7.24    0.54
   3  -1   1   88.25    2.08
   3  -1   1   87.14    2.17
  -3   1  -1   88.85    1.86
   3   0   1  286.70    5.67
   3   0   1  274.36    5.12
   3   0   1  294.30    5.97
   3   1   1  194.75    4.06
   3   1   1  191.19    3.65
   3   1   1  193.12    4.41
   3   2   1  141.58    3.70
   3   2   1  142.69    3.22
   3   2   1  145.92    2.92
   3   3   1    1.32    0.68
   3   3   1    0.35    0.46
  -3  -3  -1    0.30    0.42
   3   4   1   19.67    1.14
   3   4   1   16.17    1.60
  -3  -4  -1   19.12    1.01
   3   5   1    0.36    0.95
   3   5   1    1.58    0.69
  -3  -5  -1    0.77    0.51
   3   6   1    1.48    1.07
   3   6   1    0.65    0.75
   3   7   1   34.05    1.75
   3   8   1    6.51    1.21
  -4  12  -1   -1.06    0.87
  -4  11  -1    4.26    1.10
  -4  10  -1    5.50    1.01
  -4   9  -1    7.17    0.97
   4  -8   1    2.51    0.71
  -4   8  -1    1.39    0.65
   4  -7   1   60.13    1.90
  -4   7  -1   60.69    1.87
   4  -6   1   18.55    1.07
  -4   6  -1   19.03    1.00
   4  -5   1   11.93    0.92
  -4   5  -1   11.86    0.79
   4  -4   1    1.92    0.60
   4  -4   1    1.82    0.38
  -4   4  -1    2.66    0.52
   4  -3   1    8.88    0.86
   4  -3   1    6.08    0.58
  -4   3  -1    7.29    0.62
   4  -2   1   69.19    1.67
   4  -2   1   66.75    1.94
  -4   2  -1   64.39    1.65
   4  -1   1   -0.22    0.41
   4  -1   1   -0.03    0.53
  -4   1  -1    0.09    0.33
   4   0   1   94.35    2.47
   4   0   1   90.03    2.42
   4   1   1    6.85    0.75
   4   1   1    7.13    0.84
   4   1   1    7.49    0.85
   4   2   1   54.39    1.64
   4   2   1   55.41    1.86
   4   2   1   56.01    2.08
   4   3   1    0.68    0.76
   4   3   1   -0.01    0.59
  -4  -3  -1    0.29    0.53
   4   4   1   28.21    2.01
   4   4   1   29.63    1.42
  -4  -4  -1   26.50    1.34
   4   5   1    0.27    0.67
   4   5   1    0.53    0.93
  -4  -5  -1    0.99    0.59
   4   6   1    6.38    1.07
   4   7   1    1.27    0.96
   4   8   1    1.47    1.16
  -5  12  -1    3.02    1.15
  -5  11  -1   21.94    1.62
  -5  10  -1   15.62    1.37
   5  -9   1   16.58    1.31
  -5   9  -1   18.25    1.28
   5  -8   1   22.91    1.45
  -5   8  -1   25.31    1.37
   5  -7   1    1.25    0.73
  -5   7  -1    1.72    0.60
   5  -6   1   11.62    0.81
   5  -6   1   11.44    1.09
  -5   6  -1   11.90    0.96
   5  -5   1  198.49    4.25
   5  -5   1  197.54    4.44
  -5   5  -1  205.37    4.15
   5  -4   1  103.22    2.72
   5  -4   1   99.00    2.30
  -5   4  -1  101.04    2.42
   5  -3   1  138.78    3.40
  -5   3  -1  143.56    3.05
   5  -2   1   17.26    0.84
   5  -2   1   17.40    1.18
  -5   2  -1   14.88    0.85
   5  -1   1   27.91    1.40
   5  -1   1   29.90    1.20
  -5   1  -1   27.51    1.06
   5   0   1    5.95    0.76
   5   0   1    6.44    0.91
  -5   0  -1    5.69    0.62
   5   1   1   13.43    1.19
   5   1   1   12.75    1.16
   5   1   1   12.51    1.05
   5   2   1   98.81    2.84
   5   2   1  101.75    3.11
   5   2   1  102.04    2.65
   5   3   1   12.19    1.17
   5   3   1   10.65    1.35
  -5  -3  -1   11.25    1.11
   5   4   1   22.70    2.03
   5   4   1   25.51    1.49
  -5  -4  -1   24.05    1.37
   5   5   1    6.42    1.16
   5   5   1    6.99    1.46
  -5  -5  -1    8.37    1.00
   5   6   1    3.04    1.09
   5   7   1    1.59    1.19
  -6  12  -1    6.30    1.33
  -6  11  -1    0.67    0.95
  -6  10  -1    4.46    1.02
   6  -9   1    3.51    0.96
  -6   9  -1    3.82    0.89
   6  -8   1   14.19    1.06
   6  -8   1   13.29    1.32
  -6   8  -1   12.74    1.16
   6  -7   1   22.38    1.48
   6  -7   1   21.54    1.08
  -6   7  -1   20.55    1.30
   6  -6   1   -0.23    0.43
   6  -6   1    0.99    0.74
  -6   6  -1    0.74    0.57
   6  -5   1    3.64    0.87
  -6   5  -1    2.43    0.63
   6  -4   1    3.89    0.83
  -6   4  -1    3.06    0.60
   6  -3   1   77.08    2.39
  -6   3  -1   77.64    2.07
   6  -2   1   16.19    0.87
   6  -2   1   14.54    1.28
  -6   2  -1   15.35    0.92
   6  -1   1  110.33    3.12
   6  -1   1  114.14    2.84
  -6   1  -1  107.29    2.56
   6   0   1    1.25    0.89
   6   0   1   -0.53    0.64
  -6   0  -1    0.66    0.41
   6   1   1    0.51    0.86
   6   1   1    0.12    0.73
   6   1   1    1.26    0.86
   6   2   1    6.57    1.14
   6   2   1    7.40    1.07
   6   2   1    7.86    1.20
   6   3   1    3.31    1.05
   6   3   1    4.76    1.02
   6   4   1   11.84    1.58
   6   4   1   13.51    1.40
  -6  -4  -1   13.15    1.26
   6   5   1   15.56    1.58
   6   6   1   10.20    1.52
  -7  12  -1    1.37    1.13
  -7  11  -1   -1.20    0.87
   7 -10   1   28.55    2.02
  -7  10  -1   27.00    1.77
   7  -9   1   17.68    1.78
   7  -9   1   14.02    1.48
  -7   9  -1   14.27    1.44
   7  -8   1   28.48    1.87
   7  -8   1   32.10    1.42
  -7   8  -1   28.61    1.67
   7  -7   1    2.59    0.61
   7  -7   1    1.73    0.97
  -7   7  -1    2.12    0.72
   7  -6   1   -0.43    0.75
  -7   6  -1   -0.70    0.54
   7  -5   1    1.09    0.78
  -7   5  -1   -0.06    0.53
   7  -4   1   19.55    1.45
  -7   4  -1   19.82    1.21
   7  -3   1   65.65    2.37
  -7   3  -1   64.28    1.99
   7  -2   1   25.39    1.63
   7  -2   1   25.48    1.15
  -7   2  -1   25.32    1.23
   7  -1   1   13.61    1.44
   7  -1   1   11.66    1.12
  -7   1  -1   10.89    0.89
   7   0   1    7.28    1.07
   7   0   1    8.33    1.36
  -7   0  -1    7.17    0.78
   7   1   1   11.04    1.40
   7   1   1    8.74    1.16
  -7  -1  -1    9.77    0.96
   7   2   1    0.25    0.88
   7   2   1   -0.03    0.97
   7   2   1    0.36    0.96
   7   3   1   29.88    2.15
   7   3   1   26.93    1.81
  -7  -3  -1   25.71    1.67
   7   4   1    0.49    1.06
  -7  -4  -1    2.39    0.81
   7   5   1    5.17    1.37
  -8  11  -1   -0.69    0.97
   8 -10   1    0.48    0.95
  -8  10  -1   -0.67    0.86
   8  -9   1    0.01    0.92
  -8   9  -1    0.00    0.73
   8  -8   1   29.92    1.89
  -8   8  -1   26.83    1.69
   8  -7   1   20.96    1.69
  -8   7  -1   21.79    1.51
   8  -6   1   54.01    2.37
  -8   6  -1   56.48    2.12
   8  -5   1    0.61    0.84
  -8   5  -1    0.20    0.61
   8  -4   1    0.54    0.89
  -8   4  -1    0.59    0.57
   8  -3   1   19.67    1.63
  -8   3  -1   19.46    1.21
   8  -2   1   12.07    1.46
  -8   2  -1   12.09    1.07
   8  -1   1   29.84    1.96
   8  -1   1   34.32    1.63
  -8   1  -1   33.38    1.45
   8   0   1   53.83    2.51
   8   0   1   54.18    2.23
  -8   0  -1   52.67    1.88
   8   1   1    9.85    1.42
   8   1   1    8.47    1.23
  -8  -1  -1    9.50    0.97
   8   2   1   -0.32    0.95
   8   2   1    1.76    1.22
  -8  -2  -1    0.50    0.61
  -8  -3  -1    0.43    0.76
   8   4   1    1.82    1.39
  -9  11  -1    4.74    1.39
   9 -10   1   -0.33    1.01
  -9  10  -1   -0.17    0.98
   9  -9   1    6.81    1.37
  -9   9  -1    6.25    1.23
   9  -8   1    7.16    1.37
  -9   8  -1    5.71    1.12
   9  -7   1    8.95    1.37
  -9   7  -1    7.83    1.16
   9  -6   1    4.64    1.11
  -9   6  -1    6.87    1.04
   9  -5   1   -0.83    0.85
  -9   5  -1    0.82    0.68
   9  -4   1   12.72    1.51
  -9   4  -1   14.92    1.20
   9  -3   1    2.08    0.97
  -9   3  -1    3.05    0.75
   9  -2   1   16.63    1.74
  -9   2  -1   17.28    1.21
   9  -1   1    0.85    1.01
  -9   1  -1   -0.23    0.50
   9   0   1    7.64    1.42
  -9   0  -1    8.04    0.94
   9   1   1    0.79    1.19
  -9  -1  -1    0.44    0.62
   9   2   1   11.97    1.73
  -9  -2  -1    8.95    1.09
  -9  -3  -1    2.85    0.87
  -9  -3  -1    2.81    0.99
  10 -10   1   -0.70    1.13
 -10  10  -1    0.32    1.00
  10  -9   1    1.54    1.15
 -10   9  -1   -0.38    0.90
  10  -8   1    2.74    1.22
 -10   8  -1    1.06    0.95
  10  -7   1   11.43    1.60
 -10   7  -1    5.87    1.06
  10  -6   1   12.97    1.60
 -10   6  -1   16.09    1.43
  10  -5   1   33.47    2.10
 -10   5  -1   31.96    1.72
  10  -4   1    5.02    1.16
 -10   4  -1    3.79    0.85
  10  -3   1    0.30    0.98
 -10   3  -1    1.11    0.68
  10  -2   1    0.10    1.06
 -10   2  -1    0.61    0.60
  10  -1   1    0.86    1.14
 -10   1  -1    1.11    0.68
  10   0   1    8.62    1.59
 -10   0  -1   10.13    1.11
  10   1   1    3.90    1.51
 -10  -1  -1    8.06    1.06
  10   2   1    6.05    1.75
 -10  -2  -1    6.25    1.15
  11 -10   1    2.39    1.34
  11  -9   1    5.39    1.49
 -11   9  -1    6.19    1.33
  11  -8   1    2.42    1.27
 -11   8  -1    1.39    0.93
  11  -7   1    0.14    1.14
 -11   7  -1    3.52    1.00
  11  -6   1    0.57    1.16
 -11   6  -1    0.73    0.76
  11  -5   1    5.73    1.30
 -11   5  -1    5.25    0.94
  11  -4   1    1.96    1.12
 -11   4  -1    4.88    0.95
  11  -3   1   13.03    1.74
 -11   3  -1   19.38    1.40
  11  -2   1    2.14    1.27
 -11   2  -1    3.27    0.82
  11  -1   1    1.73    1.34
 -11   1  -1    3.40    0.85
  11   0   1    0.36    1.28
 -11   0  -1    2.26    0.74
  12  -8   1    0.67    1.26
 -12   8  -1    1.99    1.01
  12  -7   1   -0.20    1.16
 -12   7  -1    0.84    0.78
  12  -6   1    1.52    1.16
 -12   6  -1    3.20    0.92
  12  -5   1    2.93    1.26
 -12   5  -1    3.07    0.87
  12  -4   1    2.31    1.29
 -12   4  -1    4.46    0.96
  12  -3   1    2.12    1.34
 -12   3  -1    5.09    0.94
 -12   0   2   -0.45    0.72
  12   0  -2   -0.52    1.28
 -12   1   2    4.33    1.02
  12  -1  -2    4.20    1.41
 -12   2   2    4.88    0.99
  12  -2  -2    2.27    1.41
 -12   3   2    7.01    1.10
  12  -3  -2    5.55    1.47
 -12   4   2    3.04    0.92
  12  -4  -2    1.59    1.22
 -12   5   2    0.75    0.82
  12  -5  -2    0.38    1.19
 -12   6   2    1.67    0.94
  12  -6  -2   -0.81    1.11
 -12   7   2   -0.39    0.83
  12  -7  -2    0.31    1.25
 -11  -2   2    0.17    0.79
  11   2  -2   -0.38    1.19
 -11  -1   2    2.26    0.88
  11   1  -2    0.52    1.30
 -11   0   2    3.00    0.83
  11   0  -2    1.24    1.25
 -11   1   2   18.75    1.41
  11  -1  -2   17.81    1.98
 -11   2   2    8.08    1.09
  11  -2  -2    6.48    1.49
 -11   3   2   11.47    1.25
  11  -3  -2   11.25    1.59
 -11   4   2    0.43    0.71
  11  -4  -2    0.64    1.04
 -11   5   2    2.33    0.89
  11  -5  -2    0.86    1.12
 -11   6   2    0.26    0.77
  11  -6  -2   -0.47    1.12
 -11   7   2    5.83    1.18
  11  -7  -2    5.05    1.42
 -11   8   2    4.57    1.24
  11  -8  -2    2.00    1.29
 -11   9   2    4.27    1.31
  11  -9  -2    3.94    1.44
 -10  -3   2    7.87    1.19
  10   3  -2    4.81    1.43
 -10  -2   2   23.09    1.53
  10   2  -2   22.92    2.03
 -10  -1   2    1.31    0.70
  10   1  -2    1.33    1.13
 -10   0   2    1.10    0.72
  10   0  -2    0.75    1.15
 -10   1   2    0.94    0.61
  10  -1  -2    0.73    1.13
 -10   2   2    2.22    0.72
  10  -2  -2    3.51    1.17
 -10   3   2   32.20    1.64
  10  -3  -2   32.14    2.00
 -10   4   2   34.33    1.75
  10  -4  -2   35.32    2.08
 -10   5   2   18.87    1.45
  10  -5  -2   20.24    1.73
 -10   6   2    1.66    0.80
  10  -6  -2    1.25    1.07
 -10   7   2    1.83    0.88
  10  -7  -2   -0.91    0.99
 -10   8   2    2.51    1.08
  10  -8  -2    0.93    1.14
 -10   9   2    9.90    1.53
  10  -9  -2    7.99    1.62
   9   5  -2    2.30    1.53
   9   4  -2   14.59    1.89
   9   3  -2    5.82    1.33
  -9  -2   2   16.90    1.33
   9   2  -2   13.85    1.67
  -9  -1   2    0.36    0.54
   9   1  -2    0.70    0.98
  -9   0   2   19.02    1.24
   9   0  -2   18.91    1.73
  -9   1   2    3.16    0.71
   9  -1  -2    3.40    1.08
  -9   2   2   35.47    1.62
   9  -2  -2   35.40    1.95
  -9   3   2    0.56    0.61
   9  -3  -2    0.41    0.85
  -9   4   2   15.22    1.23
   9  -4  -2   15.77    1.52
  -9   5   2    5.07    0.87
   9  -5  -2    6.43    1.20
  -9   6   2    9.80    1.13
   9  -6  -2   11.15    1.41
  -9   7   2   11.02    1.33
   9  -7  -2   10.30    1.53
  -9   8   2    4.31    1.09
   9  -8  -2    2.64    1.17
  -9   9   2    1.79    1.02
   9  -9  -2    3.00    1.27
  -9  10   2   -0.70    0.99
   9 -10  -2   -0.86    1.10
   8   6  -2    1.48    1.34
   8   5  -2    2.01    1.32
   8   4  -2    2.36    1.24
   8   4  -2    1.41    1.08
   8   3  -2   13.09    1.54
   8   3  -2   17.53    1.65
   8   2  -2   41.12    2.12
   8   2  -2   39.02    2.06
  -8  -1   2  100.27    2.82
   8   1  -2  105.61    3.32
  -8   0   2   41.65    1.66
   8   0  -2   43.01    2.08
  -8   1   2    1.51    0.56
   8  -1  -2    1.44    0.93
  -8   2   2    1.79    0.60
   8  -2  -2    1.78    0.89
  -8   3   2    5.50    0.85
   8  -3  -2    2.79    0.92
  -8   4   2   74.89    2.33
   8  -4  -2   77.53    2.64
  -8   5   2   44.80    1.82
   8  -5  -2   44.49    2.06
  -8   6   2   81.44    2.57
   8  -6  -2   79.85    2.83
  -8   7   2    0.57    0.72
   8  -7  -2   -0.50    0.88
  -8   8   2    0.96    0.86
   8  -8  -2    0.35    1.00
  -8   9   2    0.81    0.94
   8  -9  -2    0.91    1.05
  -8  10   2    1.89    1.10
   8 -10  -2    2.69    1.28
   7   7  -2    6.24    1.57
   7   6  -2    2.37    1.32
   7   5  -2   33.93    2.15
   7   4  -2    3.92    1.06
   7   4  -2    5.49    1.23
   7   3  -2   30.68    1.75
   7   3  -2   28.86    1.79
   7   2  -2    0.66    0.86
   7   2  -2    1.13    0.95
   7   1  -2   33.23    1.74
  -7   0   2   12.12    0.91
   7   0  -2   14.41    1.29
  -7   1   2  143.76    3.33
   7  -1  -2  143.79    3.68
  -7   2   2   52.12    1.72
   7  -2  -2   51.42    1.96
  -7   3   2   16.29    1.04
   7  -3  -2   14.38    1.24
  -7   4   2    0.29    0.49
   7  -4  -2    0.40    0.75
  -7   5   2    2.09    0.63
   7  -5  -2    1.89    0.89
  -7   6   2   39.18    1.70
   7  -6  -2   38.47    1.96
  -7   7   2   28.64    1.54
   7  -7  -2   26.23    1.77
  -7   8   2   59.77    2.22
   7  -8  -2   60.23    2.50
  -7   9   2    0.95    0.87
   7  -9  -2    1.59    1.10
  -7  10   2    3.14    1.06
   6   8  -2   10.73    1.68
   6   7  -2   13.78    1.66
   6   6  -2   33.46    2.10
   6   5  -2   13.21    1.45
   6   4  -2    0.56    0.78
   6   4  -2    2.45    0.89
   6   3  -2   -0.63    0.79
   6   3  -2    0.76    0.87
   6   2  -2   -1.10    0.76
   6   2  -2    0.42    0.76
   6   1  -2  116.48    2.97
   6   1  -2  109.79    2.91
  -6   0   2   63.14    1.84
   6   0  -2   65.50    2.10
  -6   1   2  215.70    4.36
   6  -1  -2  210.80    4.70
  -6   2   2    0.86    0.42
   6  -2  -2    0.33    0.61
  -6   3   2   44.74    1.52
   6  -3  -2   44.99    1.73
  -6   4   2    0.74    0.45
   6  -4  -2    0.76    0.70
  -6   5   2   54.51    1.79
   6  -5  -2   55.17    1.99
  -6   6   2   14.94    1.13
   6  -6  -2   13.44    1.36
  -6   7   2   33.46    1.59
   6  -7  -2   34.09    1.80
  -6   8   2   10.84    1.18
   6  -8  -2   14.00    1.52
  -6   9   2    4.05    1.01
   6  -9  -2    2.31    1.13
  -6  10   2    7.23    1.25
  -6  11   2   -0.14    0.96
   5   8  -2    4.18    1.23
   5   7  -2    3.83    1.09
   5   6  -2   16.88    1.45
   5   5  -2   14.48    1.37
   5   4  -2  157.65    3.61
   5   4  -2  150.68    3.66
   5   3  -2   32.36    1.51
   5   3  -2   32.58    1.49
   5   2  -2   19.26    1.13
   5   2  -2   16.26    1.13
   5   1  -2   28.26    1.33
   5   1  -2   28.47    1.35
  -5   0   2    4.94    0.60
   5   0  -2    5.43    0.77
  -5   1   2  119.26    2.66
   5  -1  -2  115.44    2.87
  -5   2   2  301.92    5.53
   5  -2  -2  281.65    5.93
  -5   3   2  330.22    6.02
   5  -3  -2  315.60    6.53
  -5   4   2    7.62    0.72
   5  -4  -2    9.63    0.97
  -5   5   2    7.10    0.83
   5  -5  -2    7.88    1.01
  -5   6   2   42.23    1.58
   5  -6  -2   45.29    1.88
  -5   7   2   14.77    1.12
   5  -7  -2   16.14    1.41
  -5   8   2   16.91    1.27
   5  -8  -2   15.00    1.47
  -5   9   2   65.54    2.32
   5  -9  -2   63.17    2.45
  -5  10   2    8.64    1.23
  -5  11   2    2.39    1.07
   4   9  -2    2.24    1.18
   4   8  -2    5.09    1.15
   4   7  -2    4.82    1.07
   4   6  -2   34.01    1.69
   4   5  -2   -0.38    0.67
   4   4  -2   72.43    1.93
   4   4  -2   71.74    2.11
   4   3  -2    0.94    0.54
   4   3  -2    0.37    0.52
   4   2  -2  140.97    3.08
   4   2  -2  141.46    3.14
   4   1  -2    1.48    0.54
   4   1  -2    0.98    0.51
   4   0  -2  192.29    4.05
  -4   1   2    7.03    0.59
   4  -1  -2    8.85    0.78
  -4   2   2   94.00    2.10
   4  -2  -2   88.39    2.29
  -4   3   2   15.93    0.80
  -4   3   2   16.86    0.69
   4  -3  -2   15.01    1.01
  -4   4   2   78.82    1.94
  -4   4   2   77.70    2.00
   4  -4  -2   77.13    2.19
  -4   5   2   56.58    1.64
   4  -5  -2   54.46    1.87
  -4   6   2   35.57    1.38
   4  -6  -2   36.07    1.62
  -4   7   2   21.49    1.22
   4  -7  -2   23.46    1.51
  -4   8   2    1.13    0.67
   4  -8  -2    1.46    0.91
  -4   9   2    6.49    1.06
  -4  10   2   -0.03    0.82
   3  10  -2    1.32    1.15
   3   9  -2   39.30    1.99
   3   8  -2    1.47    0.88
   3   7  -2    1.95    0.78
   3   6  -2   25.17    1.40
  -3  -5   2    2.61    0.38
   3   5  -2    2.01    0.63
   3   4  -2   42.52    1.44
   3   4  -2   40.14    1.19
   3   3  -2  223.13    4.35
   3   3  -2  224.03    4.43
   3   2  -2  371.12    6.69
   3   2  -2  386.33    7.16
   3   1  -2    3.05    0.53
   3   1  -2    3.85    0.54
   3   0  -2    1.38    0.47
   3   0  -2    0.39    0.39
  -3   1   2  165.63    3.16
   3  -1  -2  166.40    3.46
  -3   2   2   45.50    1.20
  -3   2   2   46.84    1.22
   3  -2  -2   47.50    1.47
  -3   3   2   48.86    1.29
  -3   3   2   49.72    1.44
   3  -3  -2   50.03    1.58
  -3   4   2  460.64    9.34
  -3   4   2  453.96    7.97
   3  -4  -2  459.99    8.84
  -3   5   2   23.77    1.23
  -3   5   2   24.32    1.02
   3  -5  -2   24.70    1.25
  -3   6   2   16.45    1.02
  -3   6   2   16.32    1.29
   3  -6  -2   16.26    1.29
  -3   7   2    5.70    0.80
   3  -7  -2    8.48    1.10
  -3   8   2    6.28    0.94
   3  -8  -2    6.09    1.09
  -3   9   2    7.94    1.07
  -3  10   2   10.35    1.21
   2  10  -2   -0.54    0.94
   2   9  -2    3.23    0.92
   2   8  -2   -0.07    0.66
   2   7  -2   82.53    2.40
   2   6  -2    1.80    0.63
   2   5  -2   75.50    2.02
   2   4  -2   66.63    1.76
   2   3  -2   20.91    0.91
   2   3  -2   21.32    0.74
   2   2  -2   13.99    0.65
   2   2  -2   10.79    0.70
   2   1  -2  397.96    6.80
   2   1  -2  400.32    7.34
  -2   0   2  241.53    4.75
   2   0  -2  242.75    4.25
   2   0  -2  234.82    4.58
  -2   1   2  132.20    2.49
  -2   1   2  135.29    2.84
   2  -1  -2  132.48    2.80
  -2   2   2    0.34    0.35
  -2   2   2    1.18    0.28
   2  -2  -2    1.32    0.48
  -2   3   2   81.08    1.76
  -2   3   2   82.56    2.19
   2  -3  -2   82.60    2.09
  -2   4   2   14.81    1.02
  -2   4   2   14.09    0.73
   2  -4  -2   13.11    0.94
  -2   5   2   18.01    1.24
  -2   5   2   18.04    0.90
   2  -5  -2   15.63    1.03
  -2   6   2  192.42    4.84
  -2   6   2  191.19    3.88
   2  -6  -2  189.45    4.26
  -2   7   2   16.01    1.58
  -2   7   2   15.72    1.08
   2  -7  -2   15.53    1.34
  -2   8   2   24.20    1.49
  -2   9   2    4.72    0.97
  -2  10   2    1.18    0.93
   1  11  -2    2.64    1.12
   1  10  -2    4.94    1.06
   1   9  -2    7.33    1.08
   1   8  -2   39.62    1.63
   1   7  -2   24.69    1.22
   1   6  -2    3.67    0.65
   1   5  -2    0.17    0.41
   1   4  -2   50.21    1.40
   1   3  -2  103.46    2.16
   1   2  -2    4.32    0.42
   1   2  -2    3.15    0.31
  -1  -1   2  505.39   10.28
   1   1  -2  505.68    8.93
   1   1  -2  514.30    9.44
  -1   0   2   21.07    0.56
  -1   0   2   21.71    0.76
   1   0  -2   19.85    0.75
  -1   1   2  151.39    3.25
  -1   1   2  142.97    2.57
   1  -1  -2  148.17    3.02
  -1   2   2    6.79    0.66
  -1   2   2    6.01    0.39
   1  -2  -2    7.56    0.65
  -1   3   2   72.27    1.58
  -1   3   2   72.27    2.15
   1  -3  -2   71.41    1.86
  -1   4   2    3.09    0.69
  -1   4   2    3.56    0.48
   1  -4  -2    1.32    0.54
  -1   5   2   31.21    1.64
  -1   5   2   29.82    1.12
   1  -5  -2   29.57    1.29
  -1   6   2   10.28    0.93
  -1   6   2    7.99    1.16
   1  -6  -2    9.29    1.00
  -1   7   2    3.53    0.73
  -1   7   2    3.19    1.08
   1  -7  -2    3.36    0.83
  -1   8   2   12.16    1.15
  -1   9   2    1.77    0.86
  -1  10   2    8.32    1.26
   0  11  -2    0.10    0.93
   0  10  -2   10.60    1.20
   0   9  -2   16.94    1.26
   0   8  -2    2.57    0.71
   0   7  -2    0.85    0.54
   0   6  -2  211.62    4.20
   0   5  -2   93.69    2.12
   0   4  -2   89.11    1.94
   0   3  -2  138.62    2.63
   0  -2   2  285.86    5.84
   0   2  -2  290.15    5.25
   0   2  -2  292.85    4.91
   0  -1   2   10.36    0.52
   0   1  -2    8.74    0.44
   0   1  -2    9.05    0.36
   0   0   2  184.45    3.83
   0   0  -2  176.24    3.49
   0   1   2  858.28   13.95
   0   1   2  832.86   17.25
   0  -1  -2  842.47   15.76
   0   2   2    8.88    0.89
   0   2   2   10.22    0.49
   0  -2  -2   11.35    0.70
   0   3   2   68.06    1.53
   0   3   2   65.30    2.16
   0  -3  -2   64.77    1.76
   0   4   2  118.22    2.48
   0   4   2  118.82    3.38
   0  -4  -2  123.73    2.83
   0   5   2    2.13    0.54
   0   5   2    1.35    0.76
   0  -5  -2    2.36    0.62
   0   6   2   -0.33    0.82
   0   6   2    0.27    0.55
   0  -6  -2    0.08    0.63
   0   7   2   65.12    2.05
   0   7   2   67.65    3.01
   0  -7  -2   66.29    2.16
   0   8   2   12.51    1.19
   0   9   2    7.25    1.11
  -1  11  -2    0.64    0.94
  -1  10  -2    1.71    0.82
  -1   9  -2    0.85    0.68
  -1   8  -2   23.32    1.22
  -1   7  -2    0.28    0.48
  -1   6  -2   36.32    1.27
  -1   5  -2   19.13    0.87
   1  -4   2  164.28    3.14
  -1   4  -2  168.67    3.17
   1  -3   2    5.78    0.40
  -1   3  -2    5.55    0.45
   1  -2   2  424.52    8.02
   1  -2   2  424.13    8.51
  -1   2  -2  422.93    7.23
   1  -1   2  136.88    2.75
   1  -1   2  133.92    2.94
  -1   1  -2  134.96    2.30
   1   0   2    3.74    0.52
  -1   0  -2    4.50    0.44
   1   1   2   17.70    1.01
   1   1   2   17.09    0.52
  -1  -1  -2   16.97    0.77
   1   2   2   42.16    1.04
   1   2   2   40.55    1.61
  -1  -2  -2   41.04    1.28
   1   3   2   60.04    2.17
   1   3   2   60.14    1.44
  -1  -3  -2   60.17    1.68
   1   4   2   44.39    1.32
   1   4   2   46.25    2.06
  -1  -4  -2   45.90    1.52
   1   5   2   36.91    2.07
   1   5   2   34.81    1.30
  -1  -5  -2   33.22    1.34
   1   6   2    6.01    0.80
   1   6   2    6.18    1.22
  -1  -6  -2    5.99    0.86
   1   7   2    2.53    1.18
   1   7   2    4.25    0.81
   1   8   2    0.64    0.80
   1   9   2   11.76    1.31
  -2  12  -2   -0.39    0.90
  -2  10  -2   11.55    1.18
  -2   9  -2   14.98    1.25
  -2   8  -2   16.63    1.10
   2  -7   2    6.73    0.61
  -2   7  -2    8.57    0.81
   2  -6   2    1.10    0.37
  -2   6  -2    1.75    0.47
   2  -5   2   97.09    2.14
  -2   5  -2  100.69    2.20
   2  -4   2  398.65    7.49
  -2   4  -2  404.51    6.96
   2  -3   2   30.06    1.00
   2  -3   2   29.21    1.02
  -2   3  -2   28.56    0.86
   2  -2   2   20.77    0.84
   2  -2   2   20.24    0.83
  -2   2  -2   20.44    0.63
   2  -1   2  214.23    4.48
   2  -1   2  210.19    4.20
  -2   1  -2  208.37    3.64
   2   0   2    7.87    0.86
   2   0   2    9.79    0.73
   2   0   2   10.36    0.58
   2   1   2    9.18    0.58
   2   1   2    9.53    0.99
  -2  -1  -2    9.28    0.72
   2   2   2  294.26    6.54
   2   2   2  294.80    5.16
  -2  -2  -2  285.20    5.83
   2   3   2   14.71    0.79
   2   3   2   14.99    1.29
  -2  -3  -2   14.18    0.90
   2   4   2   29.23    1.86
   2   4   2   28.53    1.15
  -2  -4  -2   28.42    1.22
   2   5   2    1.10    0.98
   2   5   2    1.67    0.65
  -2  -5  -2    2.80    0.70
   2   6   2    2.36    0.71
   2   6   2    1.32    1.06
  -2  -6  -2    3.01    0.70
   2   7   2    2.55    1.33
   2   7   2    3.75    0.89
   2   8   2    3.47    0.98
  -3  12  -2    0.91    0.99
  -3  11  -2    1.46    0.84
  -3  10  -2    1.42    0.78
  -3   9  -2   51.26    1.85
   3  -8   2   12.90    0.87
  -3   8  -2   12.62    1.00
   3  -7   2   95.86    2.33
  -3   7  -2   96.37    2.42
   3  -6   2   14.28    0.83
  -3   6  -2   15.11    0.90
   3  -5   2   -0.23    0.34
   3  -5   2    0.40    0.41
  -3   5  -2    0.12    0.37
   3  -4   2   52.36    1.51
   3  -4   2   52.02    1.55
  -3   4  -2   52.16    1.39
   3  -3   2  129.56    2.95
   3  -3   2  137.44    3.02
  -3   3  -2  135.39    2.64
   3  -2   2  171.11    3.71
   3  -2   2  176.61    3.75
  -3   2  -2  167.03    3.19
   3  -1   2  230.95    4.87
   3  -1   2  224.10    4.66
  -3   1  -2  217.70    4.00
   3   0   2   26.92    1.19
   3   0   2   25.32    1.34
   3   1   2   52.89    1.71
   3   1   2   49.84    1.93
   3   1   2   52.75    1.44
   3   2   2    3.94    0.56
   3   2   2    2.79    0.77
  -3  -2  -2    4.13    0.63
   3   3   2    2.04    0.90
   3   3   2    2.16    0.64
  -3  -3  -2    2.89    0.62
   3   4   2  110.59    3.69
   3   4   2  112.08    2.67
  -3  -4  -2  107.43    2.87
   3   5   2   13.50    1.11
   3   5   2   12.41    1.57
  -3  -5  -2   14.49    1.07
   3   6   2   29.66    2.43
   3   6   2   30.29    1.56
   3   7   2    3.76    1.00
  -4  12  -2    1.21    1.04
  -4  11  -2    1.04    0.84
  -4  10  -2   14.16    1.25
  -4   9  -2   25.02    1.44
   4  -8   2   12.70    1.03
  -4   8  -2   11.72    1.03
   4  -7   2   16.78    1.06
  -4   7  -2   17.94    1.09
   4  -6   2   11.10    0.85
   4  -6   2    9.35    0.88
  -4   6  -2   10.63    0.82
   4  -5   2   35.33    1.37
   4  -5   2   35.40    1.26
  -4   5  -2   36.33    1.26
   4  -4   2   -0.22    0.50
   4  -4   2    0.49    0.41
  -4   4  -2   -0.41    0.36
   4  -3   2  159.81    3.52
   4  -3   2  159.94    3.66
  -4   3  -2  162.28    3.21
   4  -2   2    1.19    0.43
   4  -2   2    1.22    0.62
  -4   2  -2    0.69    0.35
   4  -1   2   79.68    2.31
   4  -1   2   86.05    2.30
  -4   1  -2   79.65    1.85
   4   0   2    1.96    0.67
   4   0   2    0.60    0.50
  -4   0  -2    0.73    0.31
   4   1   2   49.08    1.55
   4   1   2   50.25    1.81
   4   1   2   51.93    1.96
   4   2   2    6.73    0.89
   4   2   2    6.79    1.14
  -4  -2  -2    7.82    0.92
   4   3   2   13.87    1.52
   4   3   2   14.06    1.20
  -4  -3  -2   14.85    1.18
   4   4   2    1.61    0.96
   4   4   2    1.98    0.77
  -4  -4  -2    2.42    0.71
   4   5   2   -0.74    0.78
   4   5   2   -1.00    0.91
  -4  -5  -2    1.57    0.66
   4   6   2    5.00    1.52
   4   6   2    5.85    1.13
  -5  12  -2    8.28    1.32
  -5  11  -2    2.13    0.91
  -5  10  -2    0.89    0.77
   5  -9   2    4.51    0.86
  -5   9  -2    4.37    0.84
   5  -8   2   53.71    1.91
   5  -8   2   53.10    1.94
  -5   8  -2   53.28    1.93
   5  -7   2   65.49    2.11
   5  -7   2   64.91    1.99
  -5   7  -2   66.27    2.02
   5  -6   2  119.70    3.13
   5  -6   2  124.85    3.00
  -5   6  -2  125.65    2.95
   5  -5   2    5.53    0.84
   5  -5   2    5.46    0.62
  -5   5  -2    5.45    0.70
   5  -4   2   28.09    1.44
   5  -4   2   27.37    1.07
  -5   4  -2   27.00    1.14
   5  -3   2    3.90    0.56
   5  -3   2    4.68    0.84
  -5   3  -2    3.93    0.58
   5  -2   2    3.11    0.78
   5  -2   2    2.95    0.56
  -5   2  -2    3.60    0.53
   5  -1   2  223.34    5.00
   5  -1   2  221.00    4.97
  -5   1  -2  214.77    4.21
   5   0   2   60.19    2.10
   5   0   2   62.80    2.13
  -5   0  -2   57.26    1.57
   5   1   2   90.72    2.74
   5   1   2   88.20    2.89
   5   1   2   85.96    2.40
   5   2   2   18.34    1.77
   5   2   2   16.99    1.30
  -5  -2  -2   15.73    1.32
   5   3   2   -0.19    0.74
   5   3   2    0.02    0.81
  -5  -3  -2    0.56    0.65
   5   4   2    1.10    0.86
   5   4   2    1.81    1.08
  -5  -4  -2    0.90    0.70
   5   5   2   28.93    1.70
   5   5   2   23.34    2.39
  -5  -5  -2   25.86    1.50
   5   6   2    5.90    1.63
   6 -12   2    5.46    1.16
  -6  12  -2    2.11    1.08
   6 -11   2    5.80    1.05
  -6  11  -2    2.53    0.96
   6 -10   2   15.05    1.39
  -6  10  -2   10.74    1.29
   6  -9   2    2.05    0.65
   6  -9   2   -0.36    0.73
  -6   9  -2    0.09    0.69
   6  -8   2   15.36    1.40
   6  -8   2   15.81    1.17
  -6   8  -2   15.76    1.27
   6  -7   2    1.99    0.84
   6  -7   2    2.43    0.62
  -6   7  -2    1.94    0.71
   6  -6   2   50.40    2.01
   6  -6   2   52.84    1.68
  -6   6  -2   52.36    1.85
   6  -5   2   12.39    1.22
   6  -5   2   10.62    0.86
  -6   5  -2   12.66    0.98
   6  -4   2  126.79    2.94
   6  -4   2  124.12    3.40
  -6   4  -2  127.09    2.98
   6  -3   2    7.05    0.68
   6  -3   2    5.58    0.97
  -6   3  -2    7.17    0.78
   6  -2   2   10.00    0.99
   6  -2   2   12.39    1.26
  -6   2  -2    9.98    0.79
   6  -1   2    0.41    0.76
   6  -1   2    0.08    0.64
  -6   1  -2    0.69    0.44
   6   0   2    1.00    0.72
   6   0   2    3.07    0.98
  -6   0  -2    1.90    0.49
   6   1   2   19.86    1.74
   6   1   2   19.55    1.70
  -6  -1  -2   21.57    1.09
   6   2   2   32.83    1.70
   6   2   2   33.58    2.09
   6   3   2   32.17    1.76
   6   3   2   34.30    2.32
  -6  -3  -2   32.83    1.77
   6   4   2   -0.01    0.95
   6   4   2   -0.37    1.06
  -6  -4  -2    1.23    0.79
   6   5   2   -0.92    1.34
  -7  12  -2    3.67    1.23
  -7  11  -2    9.61    1.34
   7 -10   2    1.72    0.91
   7 -10   2   -0.76    0.83
  -7  10  -2    0.08    0.84
   7  -9   2   -0.44    0.84
   7  -9   2    0.67    0.69
  -7   9  -2    0.72    0.73
   7  -8   2   -0.69    0.78
   7  -8   2   -0.78    0.57
  -7   8  -2    0.48    0.72
   7  -7   2    8.87    1.23
   7  -7   2    7.65    0.81
  -7   7  -2    8.29    1.04
   7  -6   2   76.42    2.67
   7  -6   2   77.25    2.11
  -7   6  -2   76.24    2.41
   7  -5   2   27.92    1.72
   7  -5   2   28.48    1.16
  -7   5  -2   29.65    1.43
   7  -4   2   50.73    1.59
   7  -4   2   50.51    2.20
  -7   4  -2   51.80    1.78
   7  -3   2    4.79    0.71
   7  -3   2    3.43    0.98
  -7   3  -2    4.35    0.69
   7  -2   2    8.35    1.26
   7  -2   2    9.20    0.94
  -7   2  -2    9.14    0.89
   7  -1   2   -0.75    0.74
   7  -1   2   -0.22    0.99
  -7   1  -2    0.85    0.47
   7   0   2   50.66    2.35
   7   0   2   57.13    2.30
  -7   0  -2   51.52    1.73
   7   1   2    7.52    1.39
   7   1   2   10.65    1.29
  -7  -1  -2    9.34    0.85
   7   2   2   16.91    1.86
  -7  -2  -2   15.58    1.09
   7   3   2    1.73    1.15
   7   3   2    0.85    1.10
  -7  -3  -2    1.95    0.88
   7   4   2    0.52    1.29
  -7  -4  -2    3.46    0.91
  -8  12  -2    0.59    1.17
  -8  11  -2    7.45    1.35
   8 -10   2    7.46    1.32
  -8  10  -2    6.38    1.18
   8  -9   2   33.93    2.06
  -8   9  -2   33.28    1.86
   8  -8   2    0.57    0.99
  -8   8  -2    0.64    0.78
   8  -7   2    0.55    0.95
  -8   7  -2    2.03    0.78
   8  -6   2    6.95    1.26
  -8   6  -2    7.12    0.98
   8  -5   2    9.04    1.31
  -8   5  -2    8.51    1.03
   8  -4   2   31.75    1.91
  -8   4  -2   32.23    1.55
   8  -3   2   55.38    1.81
   8  -3   2   50.80    2.35
  -8   3  -2   51.59    1.83
   8  -2   2   34.51    1.70
   8  -2   2   34.74    2.03
  -8   2  -2   37.90    1.55
   8  -1   2    1.37    1.09
   8  -1   2   -0.53    0.79
  -8   1  -2    1.16    0.55
   8   0   2    1.06    1.06
   8   0   2   -0.25    0.84
  -8   0  -2    0.96    0.54
   8   1   2   -0.51    1.09
   8   1   2    0.25    0.97
  -8  -1  -2    0.73    0.54
   8   2   2   11.71    1.58
  -8  -2  -2   12.79    1.48
  -8  -2  -2   15.25    1.12
   8   3   2    3.35    1.48
  -8  -3  -2    6.92    1.20
  -9  11  -2    2.97    1.24
   9 -10   2    2.79    1.18
  -9  10  -2    3.08    1.11
   9  -9   2    5.41    1.32
  -9   9  -2    5.32    1.15
   9  -8   2   -0.53    1.00
  -9   8  -2    0.59    0.80
   9  -7   2    9.47    1.44
  -9   7  -2    9.17    1.22
   9  -6   2    1.18    1.01
  -9   6  -2    1.21    0.72
   9  -5   2   15.96    1.70
  -9   5  -2   17.63    1.33
   9  -4   2    0.70    0.91
  -9   4  -2    0.23    0.62
   9  -3   2   12.18    1.57
  -9   3  -2   13.09    1.11
   9  -2   2    2.58    1.14
  -9   2  -2    2.15    0.63
   9  -1   2   12.58    1.64
  -9   1  -2   14.48    1.14
   9   0   2    3.72    1.36
   9   0   2    4.83    1.91
  -9   0  -2    6.15    0.88
   9   1   2    4.10    1.28
   9   1   2    4.37    1.42
  -9  -1  -2    6.13    0.90
   9   2   2    1.05    1.28
  -9  -2  -2    2.59    1.01
  10 -11   2    0.46    1.34
 -10  11  -2   -0.31    1.08
  10 -10   2    2.81    1.30
 -10  10  -2    1.72    1.02
  10  -9   2    6.29    1.42
 -10   9  -2    6.69    1.27
  10  -8   2   20.70    2.01
 -10   8  -2   19.17    1.72
  10  -7   2    6.64    1.38
 -10   7  -2    5.16    1.05
  10  -6   2    0.08    1.00
 -10   6  -2    0.68    0.67
  10  -5   2   -0.29    0.95
 -10   5  -2    0.75    0.70
  10  -4   2    0.00    1.00
 -10   4  -2    0.74    0.65
  10  -3   2   12.32    1.62
 -10   3  -2   13.67    1.18
  10  -2   2    7.92    1.52
 -10   2  -2    8.58    1.03
  10  -1   2   23.25    2.16
 -10   1  -2   18.84    1.32
  10   0   2    0.87    1.26
 -10   0  -2    0.96    0.64
  10   1   2    1.04    1.52
  11 -10   2    0.24    1.21
  11  -9   2    2.36    1.29
 -11   9  -2    0.39    0.96
  11  -8   2    2.22    1.24
 -11   8  -2    1.26    0.92
  11  -7   2    1.98    1.22
 -11   7  -2    1.58    0.84
  11  -6   2    9.91    1.55
 -11   6  -2    8.16    1.11
  11  -5   2    1.97    1.16
 -11   5  -2    2.86    0.85
  11  -4   2    2.61    1.25
 -11   4  -2    3.50    0.87
  11  -3   2    1.66    1.26
 -11   3  -2    0.13    0.63
  11  -2   2    1.20    1.31
 -11   2  -2    0.64    0.65
  11  -1   2    0.75    1.36
 -11   1  -2    2.41    0.75
  12  -8   2    2.09    1.34
  12  -7   2    2.24    1.29
 -12   7  -2    2.02    0.90
  12  -6   2    2.27    1.25
 -12   6  -2    2.78    0.88
  12  -5   2    0.71    1.22
 -12   5  -2    1.48    0.73
  12  -4   2   -0.50    1.13
 -12   4  -2    1.39    0.75
 -12   0   3    8.96    1.25
  12   0  -3    5.84    1.55
 -12   1   3    4.25    1.01
  12  -1  -3    3.31    1.58
 -12   2   3    3.46    0.96
  12  -2  -3    0.09    1.25
 -12   3   3    1.93    0.86
  12  -3  -3    0.07    1.17
 -12   4   3    0.43    0.76
  12  -4  -3    0.06    1.17
 -12   5   3    7.66    1.24
  12  -5  -3    8.03    1.67
 -12   6   3    6.16    1.24
  12  -6  -3    5.10    1.50
 -12   7   3   12.89    1.61
  12  -7  -3    9.57    1.74
 -11  -2   3   21.58    1.63
  11   2  -3   16.31    1.95
 -11  -1   3    8.72    1.25
  11   1  -3    5.39    1.51
 -11   0   3   15.90    1.42
  11   0  -3   15.47    1.96
 -11   1   3    0.00    0.64
  11  -1  -3    0.51    1.17
 -11   2   3    1.27    0.75
  11  -2  -3   -0.01    1.14
 -11   3   3    1.15    0.69
  11  -3  -3   -0.43    1.09
 -11   4   3   15.74    1.44
  11  -4  -3   13.63    1.74
 -11   5   3   19.37    1.55
  11  -5  -3   15.60    1.75
 -11   6   3   10.03    1.36
  11  -6  -3    9.83    1.61
 -11   7   3    4.64    1.19
  11  -7  -3    2.12    1.27
 -11   8   3    1.96    1.12
  11  -8  -3   -0.27    1.17
 -10  -3   3    1.15    0.85
  10   3  -3    2.33    1.23
 -10  -2   3    1.36    0.78
  10   2  -3    0.40    1.10
 -10  -1   3    0.88    0.71
  10   1  -3    2.33    1.27
 -10   0   3   25.25    1.52
  10   0  -3   24.14    2.02
 -10   1   3   33.28    1.68
  10  -1  -3   32.26    2.02
 -10   2   3   48.91    2.01
  10  -2  -3   47.82    2.43
 -10   3   3    0.96    0.64
  10  -3  -3    1.00    0.99
 -10   4   3    0.10    0.64
  10  -4  -3    0.81    0.98
 -10   5   3    4.76    0.95
  10  -5  -3    3.60    1.12
 -10   6   3   14.65    1.49
  10  -6  -3   16.44    1.74
 -10   7   3   14.57    1.57
  10  -7  -3   16.08    1.84
 -10   8   3   27.28    1.91
  10  -8  -3   26.04    2.25
 -10   9   3    3.66    1.26
  10  -9  -3    2.82    1.31
   9   5  -3    7.14    1.73
   9   4  -3   -1.59    1.25
   9   3  -3    4.28    1.25
   9   3  -3    5.14    1.39
  -9  -2   3    4.03    0.89
   9   2  -3    2.65    1.13
  -9  -1   3   25.59    1.47
   9   1  -3   25.86    1.92
  -9   0   3    9.74    1.08
   9   0  -3   10.84    1.40
  -9   1   3   20.98    1.30
   9  -1  -3   19.84    1.68
  -9   2   3   13.68    1.13
   9  -2  -3   15.65    1.49
  -9   3   3    7.57    0.96
   9  -3  -3    8.38    1.22
  -9   4   3   16.95    1.27
   9  -4  -3   15.42    1.57
  -9   5   3    3.96    0.86
   9  -5  -3    2.83    1.00
  -9   6   3   16.83    1.36
   9  -6  -3   11.26    1.47
  -9   7   3    1.64    0.92
   9  -7  -3    0.16    1.01
  -9   8   3   13.45    1.54
   9  -8  -3   13.03    1.72
  -9   9   3    1.64    1.07
   9  -9  -3   -0.47    1.11
   8   6  -3    2.70    1.40
   8   5  -3   16.62    1.85
   8   4  -3   28.66    1.85
   8   4  -3   32.35    2.10
   8   3  -3   42.27    2.07
   8   3  -3   41.95    2.19
   8   2  -3    2.45    1.05
   8   2  -3    0.60    0.98
  -8  -1   3    1.31    0.61
   8   1  -3   -0.52    0.87
  -8   0   3    7.71    0.91
   8   0  -3    6.44    1.21
  -8   1   3   40.56    1.61
   8  -1  -3   37.96    1.91
  -8   2   3   41.00    1.64
   8  -2  -3   41.15    1.93
  -8   3   3  133.46    3.30
   8  -3  -3  132.84    3.63
  -8   4   3   10.46    1.05
   8  -4  -3    9.75    1.28
  -8   5   3    0.94    0.63
   8  -5  -3    0.79    0.90
  -8   6   3    4.25    0.87
   8  -6  -3    4.55    1.12
  -8   7   3    2.80    0.92
   8  -7  -3    2.80    1.13
  -8   8   3   22.42    1.66
   8  -8  -3   20.58    1.90
  -8   9   3   17.38    1.67
   8  -9  -3   13.01    1.71
  -8  10   3   10.09    1.47
   8 -10  -3    7.58    1.51
   7   7  -3    0.64    1.24
   7   6  -3   11.15    1.64
   7   5  -3   -0.80    1.01
   7   4  -3    7.88    1.12
   7   4  -3    5.67    1.22
   7   3  -3   11.39    1.35
   7   3  -3   12.47    1.30
   7   2  -3   48.91    2.04
   7   2  -3   47.01    2.06
   7   1  -3   39.98    1.88
  -7   0   3    4.22    0.67
   7   0  -3    4.83    0.95
  -7   1   3    5.65    0.74
   7  -1  -3    6.17    1.02
  -7   2   3    7.73    0.82
   7  -2  -3    7.43    1.02
  -7   3   3   32.76    1.43
   7  -3  -3   32.75    1.63
  -7   4   3   26.30    1.34
   7  -4  -3   27.21    1.59
  -7   5   3  133.97    3.29
   7  -5  -3  133.21    3.62
  -7   6   3   12.54    1.19
   7  -6  -3   14.31    1.49
  -7   7   3    9.53    1.16
   7  -7  -3    7.73    1.26
  -7   8   3    5.50    1.04
   7  -8  -3    5.40    1.34
  -7   9   3    1.22    0.89
   7  -9  -3    1.82    1.26
  -7  10   3    2.91    1.08
   6   8  -3    2.91    1.34
   6   7  -3   -0.24    1.04
   6   6  -3    0.25    0.98
   6   5  -3    1.46    0.96
   6   4  -3   49.12    1.94
   6   4  -3   48.30    2.06
   6   3  -3   12.69    1.26
   6   3  -3   14.46    1.30
   6   2  -3  120.41    3.11
   6   2  -3  125.79    3.15
   6   1  -3    0.78    0.67
   6   1  -3    0.84    0.71
  -6   0   3    9.30    0.77
   6   0  -3    9.91    1.05
  -6   1   3   13.13    0.89
   6  -1  -3   12.79    1.09
  -6   2   3   22.05    1.09
   6  -2  -3   22.10    1.25
  -6   3   3   48.79    1.59
   6  -3  -3   49.10    1.84
  -6   4   3   50.46    1.68
   6  -4  -3   49.54    1.92
  -6   5   3   34.91    1.46
   6  -5  -3   36.09    1.76
  -6   6   3    1.69    0.66
   6  -6  -3    1.76    0.91
  -6   7   3   14.26    1.25
   6  -7  -3   12.73    1.43
  -6   8   3    0.23    0.72
   6  -8  -3   -0.22    0.92
  -6   9   3   16.69    1.42
   6  -9  -3   14.17    1.59
  -6  10   3    2.17    1.06
   5   9  -3    2.07    1.18
   5   8  -3    1.59    1.06
   5   7  -3   35.35    1.89
   5   6  -3   19.84    1.49
   5   5  -3    6.36    1.06
   5   5  -3    6.95    0.87
   5   4  -3   10.71    1.03
   5   4  -3   10.80    1.12
   5   3  -3   35.36    1.44
   5   3  -3   34.48    1.56
   5   2  -3   25.00    1.25
   5   2  -3   23.86    1.18
   5   1  -3   84.20    2.28
   5   1  -3   83.53    2.26
  -5   0   3  430.29    7.83
   5   0  -3  441.95    8.49
  -5   1   3   14.79    0.83
   5  -1  -3   13.22    0.97
  -5   2   3    7.24    0.68
   5  -2  -3    8.68    0.94
  -5   3   3  132.18    2.92
   5  -3  -3  134.61    3.31
  -5   4   3    4.36    0.53
  -5   4   3    4.93    0.63
   5  -4  -3    4.94    0.86
  -5   5   3   19.19    1.08
  -5   5   3   18.79    1.05
   5  -5  -3   19.51    1.37
  -5   6   3  111.04    2.77
   5  -6  -3  110.19    3.16
  -5   7   3   38.73    1.60
   5  -7  -3   38.43    1.95
  -5   8   3    6.84    0.98
   5  -8  -3    6.64    1.22
  -5   9   3   -0.09    0.76
   5  -9  -3   -0.20    1.01
  -5  10   3    1.19    0.95
   4   9  -3   11.55    1.55
   4   8  -3    3.72    1.05
   4   7  -3   22.17    1.54
   4   6  -3    5.36    0.98
   4   5  -3   16.14    1.20
   4   5  -3   17.98    0.92
   4   4  -3    1.16    0.53
   4   4  -3    0.99    0.57
   4   3  -3   76.55    2.00
   4   3  -3   79.57    2.13
   4   2  -3    0.60    0.49
   4   2  -3    0.44    0.51
  -4  -1   3   17.26    0.79
   4   1  -3   17.02    0.94
   4   1  -3   18.53    1.05
  -4   0   3   17.73    0.82
   4   0  -3   16.55    0.96
  -4   1   3   11.91    0.70
   4  -1  -3   10.99    0.89
  -4   2   3  123.87    2.64
  -4   2   3  124.22    2.72
   4  -2  -3  126.72    3.01
  -4   3   3    5.90    0.61
  -4   3   3    5.03    0.56
   4  -3  -3    4.93    0.79
  -4   4   3   36.65    1.26
  -4   4   3   39.47    1.39
   4  -4  -3   39.28    1.58
  -4   5   3   18.04    1.16
  -4   5   3   17.48    1.00
   4  -5  -3   19.06    1.33
  -4   6   3   20.88    1.16
  -4   6   3   24.33    1.46
   4  -6  -3   20.96    1.52
  -4   7   3    0.52    0.59
   4  -7  -3   -0.34    0.86
  -4   8   3   35.92    1.63
   4  -8  -3   37.80    1.98
  -4   9   3    4.72    0.94
  -4  10   3    7.82    1.20
   3  10  -3    2.78    1.15
   3   9  -3    2.86    0.94
   3   8  -3    2.47    0.85
   3   7  -3    5.65    0.92
   3   6  -3   61.44    2.02
   3   5  -3  176.07    3.79
   3   4  -3    2.62    0.45
   3   4  -3    1.88    0.55
   3   3  -3    0.27    0.43
   3   3  -3    1.29    0.49
   3   2  -3  166.00    3.36
   3   2  -3  169.91    3.45
  -3  -1   3   13.57    0.70
   3   1  -3   13.38    0.79
   3   1  -3   13.83    0.81
  -3   0   3    9.13    0.58
  -3   0   3    8.33    0.57
   3   0  -3    9.13    0.73
  -3   1   3  589.98   11.42
  -3   1   3  566.82   10.01
   3  -1  -3  565.70   10.74
  -3   2   3   32.96    1.01
  -3   2   3   33.49    1.14
   3  -2  -3   31.58    1.27
  -3   3   3   12.05    0.67
  -3   3   3   12.50    0.82
   3  -3  -3   13.58    0.98
  -3   4   3   12.73    0.76
  -3   4   3   12.58    0.94
   3  -4  -3   13.37    1.04
  -3   5   3    1.70    0.49
  -3   5   3    1.58    0.60
   3  -5  -3    0.34    0.70
  -3   6   3   15.75    1.02
  -3   6   3   16.03    1.47
   3  -6  -3   17.50    1.45
  -3   7   3   12.97    1.03
  -3   7   3   13.00    1.39
   3  -7  -3   14.70    1.42
  -3   8   3   31.11    1.52
   3  -8  -3   30.81    1.84
  -3   9   3   -0.14    0.88
  -3  10   3    0.86    0.94
   2  10  -3   13.07    1.40
   2   9  -3    1.82    0.79
   2   8  -3   29.35    1.50
   2   7  -3    1.70    0.67
   2   6  -3    0.67    0.56
   2   5  -3    1.16    0.47
   2   4  -3   99.04    2.29
   2   3  -3  180.25    3.46
   2   3  -3  175.58    3.47
  -2  -2   3   38.05    1.21
   2   2  -3   40.86    1.14
   2   2  -3   39.65    1.09
  -2  -1   3   18.06    0.73
   2   1  -3   16.80    0.73
   2   1  -3   17.54    0.71
  -2   0   3  322.69    6.53
  -2   0   3  327.51    5.60
   2   0  -3  326.15    6.22
  -2   1   3    1.62    0.43
  -2   1   3    1.23    0.28
   2  -1  -3    1.60    0.54
  -2   2   3    1.02    0.43
  -2   2   3    1.44    0.30
   2  -2  -3   -0.01    0.49
  -2   3   3  453.64    7.72
  -2   3   3  447.64    9.34
   2  -3  -3  455.64    8.74
  -2   4   3   34.14    1.56
  -2   4   3   35.40    1.12
   2  -4  -3   34.62    1.42
  -2   5   3   56.61    1.59
  -2   5   3   54.37    2.15
   2  -5  -3   54.78    1.90
  -2   6   3   17.95    1.06
  -2   6   3   19.26    1.66
   2  -6  -3   18.72    1.32
  -2   7   3   -1.02    0.56
  -2   7   3   -0.20    0.86
   2  -7  -3    0.35    0.83
  -2   8   3    0.37    0.65
  -2   9   3    8.97    1.16
   1  11  -3   11.08    1.45
   1  10  -3   15.60    1.39
   1   9  -3    0.66    0.69
   1   8  -3    2.64    0.73
   1   7  -3   13.77    1.00
   1   6  -3   40.44    1.42
   1   5  -3    4.61    0.59
   1   4  -3  244.52    4.53
   1   3  -3   15.00    0.69
   1   3  -3   13.36    0.51
  -1  -2   3   34.73    1.14
   1   2  -3   36.58    0.93
   1   2  -3   35.22    0.93
  -1  -1   3   55.04    1.47
   1   1  -3   55.78    1.36
   1   1  -3   55.80    1.19
  -1   0   3   41.27    0.88
  -1   0   3   40.26    1.26
   1   0  -3   41.16    1.19
  -1   1   3   19.67    0.54
  -1   1   3   19.96    0.99
   1  -1  -3   19.25    0.91
  -1   2   3   48.37    1.08
  -1   2   3   46.17    1.68
   1  -2  -3   45.30    1.45
  -1   3   3   43.24    1.13
  -1   3   3   42.88    1.68
   1  -3  -3   43.41    1.48
  -1   4   3    1.38    0.67
  -1   4   3    0.20    0.36
   1  -4  -3    1.11    0.58
  -1   5   3   24.18    1.66
  -1   5   3   24.59    1.09
   1  -5  -3   23.84    1.29
  -1   6   3    0.98    0.91
  -1   6   3   -0.25    0.51
   1  -6  -3    0.77    0.77
  -1   7   3   32.58    2.20
  -1   7   3   27.32    1.37
   1  -7  -3   28.35    1.64
  -1   8   3    0.00    1.13
  -1   8   3    0.28    0.67
  -1   9   3    7.19    1.12
   0  11  -3    1.88    0.98
   0  10  -3    0.38    0.72
   0   9  -3   41.09    1.75
   0   8  -3   54.89    1.84
   0   7  -3   35.67    1.40
   0   6  -3    0.94    0.45
   0   5  -3   87.44    2.04
   0   4  -3    0.37    0.33
   0  -3   3    6.27    0.65
   0   3  -3    6.84    0.37
   0   3  -3    7.33    0.53
   0  -2   3  858.16   17.81
   0   2  -3  893.96   15.02
   0   2  -3  885.27   16.21
   0  -1   3  201.85    4.31
   0   1  -3  202.52    3.96
   0   1  -3  203.17    3.38
   0   0   3  188.76    4.17
   0   0  -3  189.95    3.82
   0   1   3  200.57    3.28
   0   1   3  187.38    4.40
   0  -1  -3  191.79    4.01
   0   2   3   14.46    0.57
   0   2   3   13.90    1.13
   0  -2  -3   12.68    0.83
   0   3   3    5.18    0.89
   0   3   3    6.04    0.52
   0  -3  -3    5.65    0.72
   0   4   3  112.62    3.48
   0   4   3  121.97    2.51
   0  -4  -3  116.02    2.90
   0   5   3   71.87    2.80
   0   5   3   70.55    1.89
   0  -5  -3   70.61    2.20
   0   6   3   23.59    2.03
   0   6   3   23.33    1.23
   0  -6  -3   26.07    1.46
   0   7   3    0.23    1.08
   0   7   3    0.42    0.63
   0  -7  -3    2.14    0.86
   0   8   3    2.48    0.84
   0   8   3    0.14    1.28
  -1  12  -3    0.07    0.95
  -1  11  -3   12.65    1.42
  -1  10  -3    0.14    0.72
  -1   9  -3   30.69    1.48
  -1   8  -3    0.71    0.53
  -1   7  -3   59.84    1.91
  -1   6  -3    1.75    0.48
  -1   5  -3  105.82    2.32
   1  -4   3    8.70    0.52
   1  -4   3    6.93    0.74
  -1   4  -3    8.13    0.59
   1  -3   3   27.09    1.09
  -1   3  -3   28.87    0.83
   1  -2   3   22.14    0.95
  -1   2  -3   23.78    0.64
  -1   2  -3   23.40    0.80
   1  -1   3    7.26    0.69
  -1   1  -3    7.58    0.57
   1   0   3  129.09    3.17
  -1   0  -3  128.68    2.83
   1   1   3   53.30    1.09
   1   1   3   54.79    1.91
  -1  -1  -3   53.30    1.58
   1   2   3  130.01    3.48
   1   2   3  126.92    2.41
  -1  -2  -3  128.11    3.01
   1   3   3   11.30    0.65
   1   3   3    9.55    1.10
  -1  -3  -3   12.10    0.90
   1   4   3    7.82    0.75
   1   4   3    7.85    1.18
  -1  -4  -3    8.98    0.93
   1   5   3    5.71    1.19
   1   5   3   10.07    0.87
  -1  -5  -3    6.87    0.92
   1   6   3   33.77    2.42
   1   6   3   34.37    1.46
  -1  -6  -3   37.23    1.67
   1   7   3    8.11    1.64
   1   7   3    7.75    0.98
  -2  12  -3    6.13    1.20
  -2  11  -3   -0.53    0.72
  -2  10  -3    1.85    0.75
  -2   9  -3    1.39    0.64
  -2   8  -3   16.73    1.07
  -2   7  -3  187.34    3.90
   2  -6   3   44.50    1.18
  -2   6  -3   42.68    1.39
   2  -5   3  108.48    2.76
   2  -5   3  109.31    2.36
  -2   5  -3  112.53    2.41
   2  -4   3   62.99    1.59
   2  -4   3   63.61    1.80
  -2   4  -3   61.18    1.51
   2  -3   3    2.48    0.48
   2  -3   3    2.08    0.48
  -2   3  -3    1.81    0.35
   2  -2   3    3.83    0.56
   2  -2   3    2.39    0.50
  -2   2  -3    3.45    0.33
   2  -1   3  378.25    7.86
   2  -1   3  382.49    7.33
  -2   1  -3  381.30    6.32
   2   0   3  131.87    3.38
  -2   0  -3  135.46    3.07
  -2   0  -3  137.76    2.42
   2   1   3   62.07    1.38
   2   1   3   60.35    2.17
  -2  -1  -3   59.42    1.81
   2   2   3    0.81    0.38
   2   2   3    1.29    0.69
  -2  -2  -3    1.66    0.52
   2   3   3    0.17    0.43
   2   3   3    0.38    0.73
  -2  -3  -3    0.72    0.52
   2   4   3    8.68    1.31
   2   4   3   10.79    0.91
  -2  -4  -3   10.57    1.06
   2   5   3    7.76    1.30
   2   5   3   11.26    0.97
  -2  -5  -3    8.06    1.01
   2   6   3   28.96    2.43
   2   6   3   28.79    1.43
  -2  -6  -3   30.97    1.55
   2   7   3    0.37    1.24
  -3  12  -3    8.22    1.29
  -3  11  -3    4.75    1.01
  -3  10  -3   33.64    1.67
  -3   9  -3   -0.29    0.54
   3  -8   3    1.20    0.49
  -3   8  -3    2.46    0.66
   3  -7   3    1.92    0.53
  -3   7  -3    1.94    0.62
   3  -6   3   42.81    1.37
   3  -6   3   43.13    1.56
  -3   6  -3   43.83    1.44
   3  -5   3  159.22    3.78
   3  -5   3  166.29    3.57
  -3   5  -3  170.47    3.35
   3  -4   3  145.16    3.24
   3  -4   3  139.59    3.33
  -3   4  -3  148.20    2.90
   3  -3   3  183.62    4.06
   3  -3   3  181.81    3.94
  -3   3  -3  184.12    3.41
   3  -2   3   52.38    1.64
   3  -2   3   50.80    1.62
  -3   2  -3   50.23    1.24
   3  -1   3    0.29    0.50
   3  -1   3    0.11    0.50
  -3   1  -3    0.05    0.24
   3   0   3   10.35    1.06
  -3   0  -3   10.59    0.51
   3   1   3  228.09    4.19
   3   1   3  237.68    5.49
  -3  -1  -3  213.54    4.85
   3   2   3   52.82    1.53
   3   2   3   56.59    2.31
  -3  -2  -3   55.40    1.90
   3   3   3  119.13    3.82
   3   3   3  115.03    2.63
  -3  -3  -3  113.06    3.08
   3   4   3   -0.51    0.86
   3   4   3   -0.23    0.57
  -3  -4  -3    1.03    0.67
   3   5   3    0.10    1.00
   3   5   3    0.53    0.68
  -3  -5  -3    0.33    0.68
   3   6   3    1.15    1.18
   3   7   3    0.71    1.47
  -4  12  -3   16.17    1.80
  -4  11  -3    3.96    0.97
  -4  10  -3    4.79    0.89
  -4   9  -3    1.18    0.65
   4  -8   3   21.22    1.35
   4  -8   3   20.75    1.16
  -4   8  -3   20.15    1.22
   4  -7   3    0.81    0.54
   4  -7   3    1.81    0.61
  -4   7  -3    0.61    0.54
   4  -6   3  112.47    2.81
   4  -6   3  113.11    2.88
  -4   6  -3  113.35    2.64
   4  -5   3   12.91    1.01
   4  -5   3   11.09    0.90
  -4   5  -3   13.21    0.84
   4  -4   3   71.21    2.16
   4  -4   3   74.24    2.03
  -4   4  -3   72.07    1.81
   4  -3   3    2.81    0.70
   4  -3   3    3.11    0.58
  -4   3  -3    2.46    0.47
   4  -2   3   45.99    1.71
   4  -2   3   46.89    1.60
  -4   2  -3   45.82    1.28
   4  -1   3   32.97    1.49
   4  -1   3   35.49    1.53
  -4   1  -3   32.08    0.99
   4   0   3   15.02    1.16
   4   0   3   15.98    1.31
  -4   0  -3   16.85    0.70
   4   1   3   40.25    2.00
   4   1   3   42.03    1.45
  -4  -1  -3   38.66    1.66
   4   2   3    1.78    0.96
   4   2   3    3.83    0.78
  -4  -2  -3    3.76    0.84
   4   3   3   23.96    1.92
   4   3   3   22.65    1.26
  -4  -3  -3   23.69    1.45
   4   4   3   -0.38    0.74
   4   4   3    0.27    0.89
  -4  -4  -3    1.05    0.70
   4   5   3   21.68    2.25
  -4  -5  -3   21.70    1.48
   4   6   3    1.15    1.39
   5 -12   3    4.48    1.18
  -5  12  -3    0.55    0.94
   5 -11   3   10.91    1.36
  -5  11  -3    6.50    1.09
   5 -10   3   33.42    1.85
  -5  10  -3   26.45    1.58
   5  -9   3   47.66    1.95
   5  -9   3   43.32    1.75
  -5   9  -3   40.08    1.77
   5  -8   3   13.81    1.24
   5  -8   3   12.87    1.14
  -5   8  -3   11.99    1.11
   5  -7   3   10.73    1.08
   5  -7   3   11.57    1.14
  -5   7  -3   11.40    1.03
   5  -6   3    1.26    0.72
   5  -6   3    1.26    0.56
  -5   6  -3    1.77    0.60
   5  -5   3    0.05    0.54
   5  -5   3    1.05    0.68
  -5   5  -3    1.40    0.52
   5  -4   3  215.88    4.70
   5  -4   3  210.58    4.85
  -5   4  -3  212.39    4.22
   5  -3   3   78.57    2.22
   5  -3   3   78.58    2.45
  -5   3  -3   78.45    1.96
   5  -2   3  172.98    4.19
   5  -2   3  180.00    4.31
  -5   2  -3  180.38    3.55
   5  -1   3    1.81    0.78
   5  -1   3    2.43    0.74
  -5   1  -3    2.82    0.44
   5   0   3    2.76    0.92
   5   0   3    3.46    0.96
  -5   0  -3    2.46    0.43
   5   1   3    5.12    1.11
  -5  -1  -3    5.29    0.96
   5   2   3   21.28    1.94
   5   2   3   23.01    1.37
  -5  -2  -3   22.62    1.47
   5   3   3   30.17    2.21
   5   3   3   31.08    1.56
  -5  -3  -3   32.28    1.68
   5   4   3   22.13    2.18
  -5  -4  -3   20.20    1.54
   5   5   3    4.70    1.46
  -5  -5  -3    8.08    1.50
   5   6   3    0.50    1.41
   6 -12   3    3.32    1.15
  -6  12  -3    0.04    0.95
   6 -11   3    9.76    1.27
  -6  11  -3    8.38    1.28
   6 -10   3    2.47    0.79
  -6  10  -3    0.51    0.73
   6  -9   3   11.90    1.25
   6  -9   3   11.13    1.14
  -6   9  -3   11.57    1.25
   6  -8   3    3.02    0.92
   6  -8   3    5.15    0.86
  -6   8  -3    3.76    0.82
   6  -7   3   46.89    2.04
   6  -7   3   46.85    1.77
  -6   7  -3   49.26    1.86
   6  -6   3   11.12    1.23
   6  -6   3    9.66    1.05
  -6   6  -3   10.01    1.00
   6  -5   3    8.86    0.93
   6  -5   3    8.23    1.13
  -6   5  -3    8.52    0.90
   6  -4   3    0.95    0.82
   6  -4   3    0.10    0.51
  -6   4  -3   -0.04    0.47
   6  -3   3    0.84    0.81
   6  -3   3    1.35    0.59
  -6   3  -3    1.75    0.53
   6  -2   3   37.83    1.71
   6  -2   3   38.67    1.95
  -6   2  -3   39.40    1.36
   6  -1   3   24.11    1.52
   6  -1   3   24.30    1.69
  -6   1  -3   24.26    1.06
   6   0   3   66.49    2.65
   6   0   3   73.09    2.63
  -6   0  -3   67.80    1.85
   6   1   3    0.27    0.92
  -6  -1  -3    0.71    0.44
   6   2   3    6.86    1.33
  -6  -2  -3    9.74    1.25
   6   3   3    1.31    1.09
  -6  -3  -3    2.70    0.95
   6   4   3    6.77    1.58
  -6  -4  -3    9.39    1.28
   6   5   3    2.32    1.47
  -7  12  -3    0.86    1.04
   7 -11   3    0.98    1.71
  -7  11  -3   -0.66    0.91
   7 -10   3   -0.05    0.79
   7 -10   3    0.21    0.89
  -7  10  -3    0.20    0.76
   7  -9   3   30.39    1.69
   7  -9   3   23.59    1.73
  -7   9  -3   24.84    1.65
   7  -8   3   13.71    1.34
   7  -8   3   16.32    1.55
  -7   8  -3   13.10    1.25
   7  -7   3   35.92    1.58
   7  -7   3   32.12    1.91
  -7   7  -3   32.72    1.69
   7  -6   3    1.17    0.93
   7  -6   3    1.29    0.63
  -7   6  -3    1.72    0.71
   7  -5   3    1.67    0.94
   7  -5   3    1.78    0.60
  -7   5  -3    0.74    0.62
   7  -4   3    2.13    0.99
   7  -4   3    2.02    0.64
  -7   4  -3    1.86    0.66
   7  -3   3   37.66    2.02
   7  -3   3   39.69    1.67
  -7   3  -3   36.97    1.47
   7  -2   3   17.44    1.42
   7  -2   3   20.36    1.70
  -7   2  -3   20.18    1.09
   7  -1   3   21.63    1.74
   7  -1   3   23.86    1.69
  -7   1  -3   21.36    1.11
   7   0   3    5.21    1.05
   7   0   3    3.61    1.19
  -7   0  -3    3.97    0.62
   7   1   3    1.04    0.95
  -7  -1  -3    1.19    0.51
   7   2   3    4.15    1.20
  -7  -2  -3    4.73    1.07
   7   3   3    1.10    1.19
  -7  -3  -3    3.08    1.04
   7   4   3    7.76    1.73
  -7  -4  -3    8.13    1.31
  -8  12  -3    9.11    1.52
  -8  11  -3    1.06    1.00
   8 -10   3    1.29    1.00
  -8  10  -3   -0.11    0.82
   8  -9   3    1.56    1.03
  -8   9  -3    1.29    0.84
   8  -8   3   -1.05    0.89
  -8   8  -3    0.69    0.79
   8  -7   3   12.16    1.51
  -8   7  -3   10.61    1.23
   8  -6   3   26.03    1.87
  -8   6  -3   25.57    1.53
   8  -5   3   44.17    2.25
   8  -5   3   42.30    1.96
  -8   5  -3   41.95    1.80
   8  -4   3    1.00    0.96
   8  -4   3   -0.50    0.58
  -8   4  -3    0.50    0.59
   8  -3   3   -0.29    0.65
   8  -3   3   -0.12    0.89
  -8   3  -3    0.73    0.57
   8  -2   3    5.85    1.00
   8  -2   3    5.32    1.25
  -8   2  -3    6.30    0.79
   8  -1   3   11.96    1.53
   8  -1   3   15.34    1.58
  -8   1  -3   13.80    1.04
   8   0   3    7.52    1.27
   8   0   3    4.77    1.29
  -8   0  -3    9.24    0.86
   8   1   3   30.66    2.23
  -8  -1  -3   28.93    2.02
   8   2   3    1.03    1.24
  -8  -2  -3    2.88    1.04
   8   3   3   -0.94    1.32
  -8  -3  -3    2.70    1.09
  -9  11  -3   -0.69    0.93
   9 -10   3    1.67    1.11
  -9  10  -3    0.68    0.88
   9  -9   3   -0.05    1.05
  -9   9  -3    0.21    0.78
   9  -8   3    7.06    1.38
  -9   8  -3    6.76    1.14
   9  -7   3    1.20    1.05
  -9   7  -3    0.42    0.74
   9  -6   3    2.31    1.12
  -9   6  -3    3.59    0.85
   9  -5   3   -1.39    0.86
  -9   5  -3   -0.77    0.57
   9  -4   3    3.00    1.15
  -9   4  -3    3.90    0.81
   9  -3   3    4.88    1.35
  -9   3  -3    6.04    0.85
   9  -2   3    3.30    1.18
  -9   2  -3    3.84    0.73
   9  -1   3    2.02    1.21
   9  -1   3    6.34    1.94
  -9   1  -3    5.49    0.79
   9   0   3    0.91    1.03
   9   0   3   -1.99    1.09
   9   1   3    1.95    1.25
  -9  -1  -3    2.22    0.99
  -9  -2  -3    1.48    1.01
  10 -11   3    5.64    1.55
 -10  11  -3    4.34    1.30
  10 -10   3    3.70    1.33
 -10  10  -3    4.67    1.12
  10  -9   3   -1.58    1.12
 -10   9  -3    1.35    0.97
  10  -8   3    0.65    1.21
 -10   8  -3    0.18    0.81
  10  -7   3    4.33    1.33
 -10   7  -3    3.20    0.94
  10  -6   3    3.74    1.22
 -10   6  -3    5.31    0.95
  10  -5   3    5.10    1.31
 -10   5  -3    5.56    0.97
  10  -4   3   18.39    1.94
 -10   4  -3   15.95    1.30
  10  -3   3   -0.45    1.06
 -10   3  -3    0.74    0.61
  10  -2   3    0.96    1.17
 -10   2  -3    0.65    0.56
  10  -1   3    0.54    1.24
  10   0   3    1.14    1.43
  11  -9   3    4.73    1.46
 -11   9  -3    2.59    1.04
  11  -8   3    4.18    1.41
 -11   8  -3   -0.05    0.85
  11  -7   3    1.47    1.22
 -11   7  -3    1.87    0.89
  11  -6   3    0.21    1.14
 -11   6  -3    0.72    0.71
  11  -5   3   -0.96    1.04
 -11   5  -3    1.04    0.70
  11  -4   3    0.42    1.18
 -11   4  -3    0.73    0.67
  11  -3   3   -0.45    1.19
 -11   3  -3    1.84    0.69
  11  -2   3    5.84    1.61
  12  -6   3   -0.19    1.12
 -12   6  -3    1.09    0.75
 -12   0   4    2.97    0.96
  12   0  -4    0.90    1.40
 -12   1   4    1.47    0.84
  12  -1  -4    0.14    1.28
 -12   2   4    8.71    1.21
  12  -2  -4    7.50    1.56
 -12   3   4    7.40    1.19
  12  -3  -4    6.42    1.52
 -12   4   4   13.16    1.46
  12  -4  -4   14.40    1.89
 -12   5   4    1.74    0.95
  12  -5  -4    1.36    1.29
 -12   6   4    4.21    1.19
  12  -6  -4    1.51    1.24
 -11  -2   4    1.74    0.83
  11   2  -4    2.48    1.34
 -11  -1   4    0.09    0.74
  11   1  -4   -1.81    1.25
 -11   0   4    0.70    0.75
  11   0  -4   -0.36    1.17
 -11   1   4    4.80    0.94
  11  -1  -4    2.13    1.21
 -11   2   4   19.43    1.48
  11  -2  -4   20.75    2.08
 -11   3   4   16.19    1.40
  11  -3  -4   15.67    1.77
 -11   4   4   10.32    1.26
  11  -4  -4    9.23    1.51
 -11   5   4    0.56    0.80
  11  -5  -4    0.91    1.14
 -11   6   4    1.05    0.91
  11  -6  -4    0.19    1.12
 -11   7   4    0.83    0.97
  11  -7  -4   -0.80    1.19
 -11   8   4    8.30    1.48
  11  -8  -4    7.31    1.67
 -10  -3   4    7.42    1.22
  10   3  -4    7.26    1.44
 -10  -2   4    7.14    1.13
  10   2  -4    8.91    1.54
 -10  -1   4   33.55    1.78
  10   1  -4   32.84    2.16
 -10   0   4    1.67    0.74
  10   0  -4    0.37    1.07
 -10   1   4    0.74    0.62
  10  -1  -4   -0.41    1.01
  10  -2  -4    7.08    1.36
 -10   3   4    7.34    1.02
  10  -3  -4    6.37    1.27
 -10   4   4   18.24    1.43
  10  -4  -4   18.46    1.77
 -10   5   4   38.09    1.92
  10  -5  -4   34.90    2.10
 -10   6   4   13.55    1.44
  10  -6  -4   14.79    1.71
 -10   7   4    0.28    0.91
  10  -7  -4    0.74    1.10
 -10   8   4    1.07    0.99
  10  -8  -4    0.30    1.19
   9   5  -4   -0.54    1.33
   9   4  -4    7.30    1.55
   9   3  -4    6.29    1.25
   9   3  -4    4.22    1.37
  -9  -2   4    9.27    1.15
   9   2  -4   11.76    1.53
  -9  -1   4    5.28    0.92
   9   1  -4    4.32    1.19
  -9   0   4    1.54    0.64
   9   0  -4    0.69    0.95
  -9   1   4   13.98    1.14
   9  -1  -4   14.21    1.48
  -9   2   4    1.73    0.64
   9  -2  -4    0.41    0.91
  -9   3   4   11.46    1.10
   9  -3  -4   12.97    1.43
  -9   4   4    0.00    0.59
   9  -4  -4    0.70    0.86
  -9   5   4   15.61    1.31
   9  -5  -4   15.38    1.64
  -9   6   4    1.07    0.77
   9  -6  -4    0.89    1.06
  -9   7   4   16.48    1.52
   9  -7  -4   14.04    1.70
  -9   8   4    6.70    1.28
   9  -8  -4    6.43    1.49
  -9   9   4    3.15    1.16
   9  -9  -4    1.16    1.25
   8   6  -4   19.32    2.04
   8   5  -4    0.26    1.14
   8   4  -4   -0.21    0.94
   8   4  -4    0.71    1.10
   8   3  -4   17.89    1.72
   8   3  -4   18.10    1.71
   8   2  -4   13.76    1.50
   8   2  -4   15.81    1.59
  -8  -1   4   23.53    1.31
   8   1  -4   21.00    1.63
  -8   0   4  110.03    2.92
   8   0  -4  113.28    3.27
  -8   1   4    8.45    0.93
   8  -1  -4    7.94    1.14
  -8   2   4    0.08    0.52
   8  -2  -4   -0.49    0.75
  -8   3   4    7.88    0.93
   8  -3  -4    9.96    1.23
  -8   4   4    2.29    0.73
   8  -4  -4    2.18    0.96
  -8   5   4   30.40    1.57
   8  -5  -4   31.90    1.93
  -8   6   4   26.31    1.54
   8  -6  -4   25.29    1.85
  -8   7   4   34.98    1.83
   8  -7  -4   35.33    2.23
  -8   8   4    1.19    0.92
   8  -8  -4   -0.48    1.27
  -8   9   4    1.36    1.02
   8  -9  -4    2.33    1.49
   7   6  -4    0.33    1.07
   7   5  -4   10.78    1.47
   7   4  -4   19.48    1.69
   7   4  -4   19.65    1.49
   7   3  -4   10.00    1.21
   7   3  -4    8.49    1.23
   7   2  -4    5.27    1.08
   7   2  -4    4.98    1.02
   7   1  -4   22.06    1.45
  -7   0   4    8.14    0.85
   7   0  -4    8.25    1.06
  -7   1   4    8.75    0.84
   7  -1  -4    9.74    1.09
  -7   2   4  135.04    3.20
   7  -2  -4  127.62    3.43
  -7   3   4   15.43    1.02
   7  -3  -4   13.72    1.29
  -7   4   4   10.73    1.01
   7  -4  -4   11.37    1.28
  -7   5   4   11.65    1.06
   7  -5  -4   12.75    1.43
  -7   6   4    0.25    0.60
   7  -6  -4   -0.99    0.89
  -7   7   4    6.44    1.04
   7  -7  -4    5.41    1.26
  -7   8   4   15.50    1.44
   7  -8  -4   17.95    1.81
  -7   9   4   18.25    1.64
   7  -9  -4   15.90    1.75
   6   8  -4    4.27    1.30
   6   7  -4   16.19    1.65
   6   6  -4    6.69    1.24
   6   5  -4   68.97    2.54
   6   4  -4    1.15    0.85
   6   4  -4    1.57    0.86
   6   3  -4    0.26    0.71
   6   3  -4    1.07    0.79
   6   2  -4   18.53    1.28
   6   2  -4   21.37    1.37
  -6  -1   4    2.04    0.47
   6   1  -4    2.23    0.78
   6   1  -4    3.42    0.78
  -6   0   4   27.79    1.19
   6   0  -4   30.19    1.38
  -6   1   4   44.36    1.50
   6  -1  -4   42.35    1.66
  -6   2   4   70.70    2.01
   6  -2  -4   69.15    2.22
  -6   3   4    0.80    0.47
   6  -3  -4    1.40    0.77
  -6   4   4   15.41    1.01
   6  -4  -4   14.43    1.38
  -6   5   4    5.38    0.67
  -6   5   4    5.31    0.79
   6  -5  -4    5.92    1.14
  -6   6   4   19.14    1.25
   6  -6  -4   17.89    1.67
  -6   7   4    1.34    0.73
   6  -7  -4    1.66    1.06
  -6   8   4   14.80    1.38
   6  -8  -4   16.32    1.74
  -6   9   4    0.78    0.86
   6  -9  -4   -0.38    1.11
   5   9  -4   11.55    1.54
   5   8  -4    2.08    1.07
   5   7  -4    0.29    0.81
   5   6  -4    9.01    1.18
   5   5  -4    5.72    0.82
   5   5  -4    5.52    1.00
   5   4  -4   13.34    1.18
   5   4  -4   11.54    1.04
   5   3  -4  226.81    4.76
   5   3  -4  228.09    4.80
   5   2  -4   27.71    1.26
   5   2  -4   27.54    1.32
  -5  -1   4   11.90    0.78
   5   1  -4   13.63    0.97
   5   1  -4   13.44    1.08
  -5   0   4  118.91    2.69
   5   0  -4  117.71    2.90
  -5   1   4    0.49    0.37
   5  -1  -4    1.00    0.62
  -5   2   4    5.25    0.62
   5  -2  -4    6.24    0.89
  -5   3   4  160.55    3.60
  -5   3   4  161.84    3.43
   5  -3  -4  165.33    3.94
  -5   4   4  100.53    2.61
  -5   4   4   98.03    2.43
   5  -4  -4  104.81    2.95
  -5   5   4   16.75    1.07
  -5   5   4   16.43    1.15
   5  -5  -4   15.32    1.51
  -5   6   4    1.37    0.60
  -5   6   4    2.22    0.76
   5  -6  -4    1.12    0.95
  -5   7   4   15.61    1.18
   5  -7  -4   15.24    1.62
  -5   8   4    7.11    1.00
   5  -8  -4    4.80    1.22
  -5   9   4    4.21    1.00
   4  10  -4   10.86    1.52
   4   9  -4   -0.27    0.93
   4   8  -4   12.01    1.39
   4   7  -4    0.36    0.77
   4   6  -4   19.12    1.34
   4   5  -4   10.85    1.09
   4   5  -4   12.36    0.89
   4   4  -4   15.82    0.91
   4   4  -4   15.22    1.09
   4   3  -4   30.56    1.19
   4   3  -4   31.59    1.30
  -4  -2   4    4.31    0.57
   4   2  -4    5.50    0.62
   4   2  -4    5.66    0.72
  -4  -1   4   90.59    2.24
   4   1  -4   95.18    2.34
   4   1  -4   91.64    2.27
  -4   0   4    3.14    0.43
  -4   0   4    2.43    0.45
   4   0  -4    1.92    0.59
  -4   1   4   57.34    1.51
  -4   1   4   57.99    1.55
   4  -1  -4   55.62    1.79
  -4   2   4    8.12    0.61
  -4   2   4    8.65    0.68
   4  -2  -4   10.50    1.00
  -4   3   4   27.64    1.02
  -4   3   4   25.65    1.09
   4  -3  -4   25.77    1.35
  -4   4   4    6.31    0.68
  -4   4   4    5.66    0.74
   4  -4  -4    8.42    1.04
  -4   5   4   52.45    2.00
  -4   5   4   51.60    1.61
   4  -5  -4   53.61    2.13
  -4   6   4   19.58    1.53
  -4   6   4   20.30    1.15
   4  -6  -4   21.90    1.61
  -4   7   4   22.83    1.73
  -4   7   4   23.15    1.26
   4  -7  -4   26.69    1.85
  -4   8   4    0.72    0.72
   4  -8  -4   -0.11    1.04
  -4   9   4   -0.12    0.79
   3  10  -4    4.14    1.12
   3   9  -4    9.61    1.23
   3   8  -4   65.34    2.29
   3   7  -4    5.36    0.89
   3   6  -4   18.38    1.22
   3   5  -4   61.52    1.90
   3   4  -4    7.52    0.65
   3   4  -4    7.49    0.81
   3   3  -4    7.02    0.63
   3   3  -4    8.07    0.76
  -3  -2   4  426.76    8.60
   3   2  -4  420.29    7.98
   3   2  -4  423.74    7.48
  -3  -1   4  170.12    3.75
   3   1  -4  174.42    3.41
   3   1  -4  172.10    3.63
  -3   0   4   66.11    1.77
  -3   0   4   68.26    1.59
   3   0  -4   65.81    1.83
  -3   1   4   27.31    0.91
  -3   1   4   27.66    1.12
   3  -1  -4   28.39    1.26
  -3   2   4   56.16    1.40
  -3   2   4   58.51    1.79
   3  -2  -4   57.82    1.83
  -3   3   4   14.85    0.99
  -3   3   4   14.41    0.71
   3  -3  -4   14.07    1.08
  -3   4   4   52.83    1.45
  -3   4   4   51.39    1.92
   3  -4  -4   52.62    1.94
  -3   5   4  122.18    3.48
  -3   5   4  117.13    2.66
   3  -5  -4  114.18    3.21
  -3   6   4    3.79    0.69
  -3   6   4    2.36    0.92
   3  -6  -4    3.28    0.97
  -3   7   4   10.58    1.03
  -3   7   4    9.16    1.33
   3  -7  -4    9.40    1.32
  -3   8   4    1.80    1.18
  -3   8   4    1.66    0.76
   3  -8  -4    2.21    1.11
  -3   9   4    4.41    0.97
   2  11  -4   10.54    1.45
   2  10  -4    0.35    0.83
   2   9  -4    2.26    0.80
   2   8  -4    2.10    0.77
   2   7  -4   18.93    1.18
   2   6  -4   86.75    2.30
   2   5  -4   39.80    1.40
   2   4  -4  114.72    2.33
   2   4  -4  112.96    2.55
  -2  -3   4   69.53    1.97
   2   3  -4   68.51    1.70
   2   3  -4   66.61    1.60
  -2  -2   4    6.71    0.75
   2   2  -4    8.44    0.62
   2   2  -4    6.87    0.58
  -2  -1   4    6.87    0.71
   2   1  -4    7.49    0.61
   2   1  -4    7.05    0.68
  -2   0   4  395.54    8.16
  -2   0   4  404.90    6.83
   2   0  -4  402.70    7.69
  -2   1   4  151.50    3.58
  -2   1   4  152.94    2.81
   2  -1  -4  154.49    3.42
  -2   2   4  206.05    4.74
  -2   2   4  202.91    3.67
   2  -2  -4  203.68    4.41
  -2   3   4    7.65    0.86
  -2   3   4    7.37    0.55
   2  -3  -4    7.98    0.89
  -2   4   4    8.10    0.99
  -2   4   4    8.18    0.67
   2  -4  -4    8.61    1.01
  -2   5   4    0.30    0.46
  -2   5   4   -0.35    0.72
   2  -5  -4   -0.34    0.74
  -2   6   4   14.03    0.98
  -2   6   4   17.61    1.65
   2  -6  -4   16.26    1.41
  -2   7   4   40.08    2.49
  -2   7   4   41.01    1.59
   2  -7  -4   40.41    2.04
  -2   8   4   10.99    1.15
  -2   8   4   10.51    1.71
   1  11  -4    2.35    1.02
   1  10  -4    2.71    0.88
   1   9  -4   13.21    1.16
   1   8  -4    3.07    0.73
   1   7  -4  131.28    3.06
   1   6  -4   26.06    1.15
   1   5  -4   54.15    1.55
  -1  -4   4    8.05    0.85
   1   4  -4    9.56    0.70
   1   4  -4    8.50    0.48
  -1  -3   4   10.70    0.84
   1   3  -4   12.27    0.67
   1   3  -4   10.42    0.58
  -1  -2   4   39.17    1.36
   1   2  -4   41.46    1.05
   1   2  -4   40.82    1.16
  -1  -1   4   66.04    1.86
   1   1  -4   65.40    1.39
   1   1  -4   67.08    1.70
  -1   0   4  262.72    5.62
  -1   0   4  260.06    4.40
   1   0  -4  259.05    5.22
  -1   1   4   13.92    0.49
  -1   1   4   15.16    1.06
   1  -1  -4   15.00    0.91
  -1   2   4   94.59    1.86
  -1   2   4   94.65    2.77
   1  -2  -4   95.63    2.48
  -1   3   4    2.89    0.77
  -1   3   4    1.45    0.35
   1  -3  -4    1.71    0.61
  -1   4   4   50.63    2.21
  -1   4   4   55.58    1.45
   1  -4  -4   52.90    1.92
  -1   5   4    1.59    0.90
  -1   5   4    1.59    0.56
   1  -5  -4    1.18    0.79
  -1   6   4   26.88    2.04
  -1   6   4   24.84    1.21
   1  -6  -4   26.19    1.63
  -1   7   4    0.15    0.62
  -1   7   4    0.71    1.06
   1  -7  -4    0.78    0.89
  -1   8   4    5.52    1.60
   0  12  -4    4.36    1.15
   0  11  -4   15.46    1.48
   0  10  -4   14.90    1.26
   0   9  -4   10.61    1.15
   0   8  -4   11.48    1.02
   0   7  -4    0.51    0.50
   0   6  -4   -0.13    0.40
   0  -5   4  414.26    8.78
   0   5  -4  431.53    7.47
   0  -4   4  128.07    3.20
   0   4  -4  132.83    2.63
   0   4  -4  137.57    2.69
   0  -3   4  242.01    5.24
   0   3  -4  247.60    4.31
   0   3  -4  239.98    4.65
   0  -2   4   50.68    1.59
   0   2  -4   51.37    1.10
   0   2  -4   49.44    1.33
   0  -1   4    0.14    0.42
   0   1  -4   -0.01    0.36
   0   0   4    3.34    0.64
   0   0  -4    2.29    0.50
   0   1   4  144.62    3.72
   0  -1  -4  146.30    3.32
   0   2   4  235.85    5.59
   0   2   4  238.13    4.09
   0  -2  -4  232.21    5.00
   0   3   4   87.46    2.90
   0   3   4   88.36    1.87
   0  -3  -4   83.07    2.42
   0   4   4   17.08    1.67
   0   4   4   18.54    0.90
   0  -4  -4   17.88    1.27
   0   5   4   11.59    0.91
   0   5   4   10.07    1.43
   0  -5  -4   10.96    1.20
   0   6   4    1.08    1.03
   0   6   4    3.04    0.68
   0  -6  -4    3.32    0.88
   0   7   4    0.51    1.22
   0  -7  -4    3.63    1.15
   0   8   4   24.47    2.78
  -1  12  -4   10.21    1.40
  -1  11  -4   -0.73    0.72
  -1  10  -4    8.82    1.13
  -1   9  -4    0.49    0.60
  -1   8  -4   27.95    1.28
  -1   7  -4   14.73    0.93
   1  -6   4   13.34    1.00
  -1   6  -4   11.55    0.81
   1  -5   4   13.65    0.99
  -1   5  -4   13.75    0.54
  -1   5  -4   14.22    0.80
   1  -4   4   16.44    1.05
  -1   4  -4   16.36    0.67
  -1   4  -4   17.36    0.76
   1  -3   4  262.94    5.66
  -1   3  -4  263.67    4.58
  -1   3  -4  262.08    5.12
   1  -2   4   47.41    1.58
  -1   2  -4   46.71    1.37
  -1   2  -4   48.70    1.01
   1  -1   4  236.23    5.26
  -1   1  -4  240.21    4.86
   1   0   4    4.82    0.75
  -1   0  -4    4.72    0.66
   1   1   4   55.22    2.06
  -1  -1  -4   53.61    1.71
   1   2   4   11.88    0.55
   1   2   4   11.86    1.29
  -1  -2  -4   11.37    0.94
   1   3   4   59.74    2.47
   1   3   4   61.34    1.48
  -1  -3  -4   59.35    2.02
   1   4   4   24.12    1.05
   1   4   4   24.55    1.93
  -1  -4  -4   24.73    1.46
   1   5   4   46.71    2.62
   1   5   4   48.33    1.53
  -1  -5  -4   47.59    1.96
   1   6   4    9.88    1.62
  -1  -6  -4    9.23    1.13
   1   7   4    0.25    1.34
   1   8   4   -1.64    1.57
  -2  12  -4    1.09    0.91
  -2  11  -4    1.31    0.79
  -2  10  -4   51.63    1.93
  -2   9  -4   17.44    1.33
  -2   8  -4   36.71    1.49
   2  -7   4   22.87    1.32
  -2   7  -4   24.72    1.15
   2  -6   4    1.59    0.56
   2  -6   4    3.44    0.49
  -2   6  -4    2.47    0.52
   2  -5   4    1.16    0.41
   2  -5   4    0.31    0.50
  -2   5  -4    0.62    0.39
   2  -4   4  223.78    5.03
   2  -4   4  231.31    4.61
  -2   4  -4  231.43    4.19
   2  -3   4  154.44    3.69
   2  -3   4  159.07    3.45
  -2   3  -4  164.22    2.95
   2  -2   4  171.46    4.07
  -2   2  -4  174.67    3.06
  -2   2  -4  178.20    3.83
   2  -1   4   12.30    1.05
  -2   1  -4   12.45    0.83
   2   0   4    8.12    0.95
  -2   0  -4    7.58    0.81
   2   1   4    8.74    1.05
  -2  -1  -4    8.03    0.85
   2   2   4   14.40    1.45
   2   2   4   12.53    0.71
  -2  -2  -4   13.34    1.06
   2   3   4   99.39    3.43
   2   3   4   96.88    2.16
  -2  -3  -4   93.65    2.74
   2   4   4    7.37    1.31
   2   4   4    9.13    0.84
  -2  -4  -4    6.89    1.04
   2   5   4   25.60    2.20
  -2  -5  -4   26.01    1.51
   2   6   4   -0.01    1.13
  -2  -6  -4    3.24    0.88
   2   7   4    2.89    1.61
  -3  12  -4    0.15    0.86
  -3  11  -4    0.15    0.75
  -3  10  -4   -0.60    0.57
   3  -9   4    1.36    0.76
  -3   9  -4    1.08    0.62
   3  -8   4   54.86    2.09
   3  -8   4   51.21    1.49
  -3   8  -4   52.17    1.81
   3  -7   4   46.72    1.79
   3  -7   4   47.52    1.46
  -3   7  -4   48.31    1.62
   3  -6   4  116.57    2.71
   3  -6   4  116.49    3.06
  -3   6  -4  119.07    2.65
   3  -5   4   12.35    0.88
   3  -5   4   10.43    0.99
  -3   5  -4   11.85    0.79
   3  -4   4    0.37    0.48
   3  -4   4    0.64    0.51
  -3   4  -4    0.90    0.38
   3  -3   4   34.19    1.36
   3  -3   4   32.70    1.37
  -3   3  -4   32.58    0.97
   3  -2   4  150.71    3.60
   3  -2   4  139.24    3.36
  -3   2  -4  143.46    2.67
   3  -1   4   84.52    2.53
  -3   1  -4   83.70    1.68
  -3   1  -4   84.79    2.41
   3   0   4  243.31    5.74
  -3   0  -4  243.25    4.24
  -3   0  -4  242.37    5.31
   3   1   4    5.46    1.01
   3   1   4    7.40    0.65
  -3  -1  -4    5.90    0.86
   3   2   4    0.55    0.53
   3   2   4   -0.50    0.84
  -3  -2  -4   -0.67    0.59
   3   3   4    0.96    0.62
   3   3   4    0.98    0.92
  -3  -3  -4    1.57    0.72
   3   4   4    3.10    1.12
  -3  -4  -4    2.64    0.86
   3   5   4   20.90    2.27
  -3  -5  -4   25.45    1.61
   3   6   4    6.84    1.73
   4 -12   4    5.12    1.35
  -4  12  -4    1.51    1.07
   4 -11   4    6.05    1.28
  -4  11  -4    3.57    0.92
   4 -10   4    1.45    0.88
  -4  10  -4    0.79    0.70
   4  -9   4   35.41    1.81
  -4   9  -4   33.31    1.54
   4  -8   4   14.00    1.05
   4  -8   4   12.90    1.27
  -4   8  -4   14.01    1.14
   4  -7   4   27.68    1.30
   4  -7   4   27.49    1.44
  -4   7  -4   25.19    1.27
   4  -6   4   -0.12    0.54
   4  -6   4   -0.12    0.54
  -4   6  -4   -0.53    0.42
   4  -5   4    4.01    0.77
   4  -5   4    2.81    0.65
  -4   5  -4    3.11    0.56
   4  -4   4   13.26    1.00
   4  -4   4   12.38    1.13
  -4   4  -4   12.45    0.78
   4  -3   4   11.29    1.08
   4  -3   4   13.43    1.01
  -4   3  -4   12.13    0.70
   4  -2   4   57.55    2.02
   4  -2   4   60.69    2.03
  -4   2  -4   59.64    1.44
   4  -1   4    2.28    0.72
   4  -1   4    2.17    0.77
  -4   1  -4    3.58    0.40
   4   0   4   34.22    1.90
  -4   0  -4   35.63    1.63
  -4   0  -4   35.73    1.02
   4   1   4   -0.13    0.79
  -4  -1  -4    0.22    0.67
   4   2   4   41.97    2.31
   4   2   4   40.88    1.47
  -4  -2  -4   39.49    1.90
   4   3   4    1.51    1.00
  -4  -3  -4    2.20    0.84
   4   4   4   11.51    1.59
  -4  -4  -4   13.73    1.42
   4   5   4   -1.30    1.05
  -4  -5  -4    1.85    0.88
   4   6   4    1.93    1.54
   5 -12   4   10.94    1.58
  -5  12  -4    6.96    1.19
   5 -11   4   13.18    1.52
  -5  11  -4    9.13    1.19
   5 -10   4    3.85    0.91
  -5  10  -4    2.51    0.81
   5  -9   4    1.79    0.82
   5  -9   4    1.39    0.72
  -5   9  -4    0.83    0.67
   5  -8   4   15.74    1.34
   5  -8   4   14.17    1.27
  -5   8  -4   13.92    1.18
   5  -7   4   59.72    2.04
   5  -7   4   56.70    2.09
  -5   7  -4   56.73    1.90
   5  -6   4   43.37    1.79
   5  -6   4   40.86    1.70
  -5   6  -4   38.57    1.48
   5  -5   4  127.60    3.35
   5  -5   4  124.86    3.19
  -5   5  -4  123.56    2.84
   5  -4   4   -0.39    0.71
   5  -4   4   -0.75    0.50
  -5   4  -4   -0.76    0.41
   5  -3   4    1.83    0.62
   5  -3   4    0.11    0.72
  -5   3  -4    1.83    0.49
   5  -2   4   15.50    1.33
   5  -2   4   16.69    1.32
  -5   2  -4   15.33    0.79
   5  -1   4    9.94    1.20
   5  -1   4   11.20    1.22
  -5   1  -4    9.82    0.68
   5   0   4   51.81    2.37
  -5   0  -4   52.30    2.10
  -5   0  -4   52.99    1.43
   5   1   4   35.69    2.04
  -5  -1  -4   34.22    1.77
  -5  -1  -4   33.38    1.13
   5   2   4   12.60    1.54
  -5  -2  -4   14.18    1.42
   5   3   4    0.43    1.09
  -5  -3  -4    1.14    0.88
   5   4   4    1.82    1.16
  -5  -4  -4    2.21    0.96
   5   5   4   -0.59    1.26
   6 -12   4    3.41    1.26
  -6  12  -4    3.54    1.13
   6 -11   4    1.10    1.00
  -6  11  -4    0.40    0.84
   6 -10   4    5.67    1.06
  -6  10  -4    5.72    1.07
   6  -9   4    5.19    1.05
   6  -9   4    5.24    1.00
  -6   9  -4    5.06    0.94
   6  -8   4    2.09    0.90
   6  -8   4    3.81    0.88
  -6   8  -4    1.66    0.70
   6  -7   4    0.50    0.72
   6  -7   4    0.08    0.85
  -6   7  -4    0.21    0.61
   6  -6   4    1.14    0.66
   6  -6   4    2.41    0.96
  -6   6  -4    3.10    0.74
   6  -5   4   15.81    1.28
   6  -5   4   15.53    1.51
  -6   5  -4   16.89    1.12
   6  -4   4    4.51    0.82
   6  -4   4    4.95    1.14
  -6   4  -4    6.43    0.76
   6  -3   4   62.09    2.46
   6  -3   4   67.83    2.23
  -6   3  -4   66.79    1.85
   6  -2   4    0.94    0.94
   6  -2   4    1.67    0.78
  -6   2  -4    0.72    0.47
   6  -1   4    4.34    1.09
   6  -1   4    4.95    1.07
  -6   1  -4    8.07    0.73
   6   0   4    9.38    1.29
  -6   0  -4    9.99    0.74
  -6   0  -4    8.46    1.22
   6   1   4    1.58    1.07
  -6  -1  -4    3.31    0.92
   6   2   4    3.67    1.27
  -6  -2  -4    4.84    1.11
   6   3   4   14.35    1.80
  -6  -3  -4   18.71    1.59
   6   4   4    4.45    1.45
  -6  -4  -4    4.19    1.05
  -7  12  -4    4.33    1.17
   7 -11   4    2.72    1.16
  -7  11  -4    3.81    1.07
   7 -10   4   13.18    1.41
   7 -10   4   12.42    1.44
  -7  10  -4   11.98    1.35
   7  -9   4    0.98    0.96
   7  -9   4    0.20    0.83
  -7   9  -4    1.23    0.80
   7  -8   4    0.00    0.72
   7  -8   4   -0.21    0.88
  -7   8  -4    0.26    0.66
   7  -7   4    6.91    1.26
   7  -7   4    5.13    0.91
  -7   7  -4    7.57    1.08
   7  -6   4    6.81    1.23
   7  -6   4    9.29    1.01
  -7   6  -4    8.25    1.02
   7  -5   4   16.09    1.59
   7  -5   4   15.78    1.30
  -7   5  -4   14.60    1.13
   7  -4   4   17.85    1.79
   7  -4   4   21.67    1.40
  -7   4  -4   20.40    1.20
   7  -3   4    4.34    1.13
   7  -3   4    3.76    0.90
  -7   3  -4    5.99    0.77
   7  -2   4    2.08    1.04
   7  -2   4    1.44    0.82
  -7   2  -4    2.43    0.56
   7  -1   4   -0.24    0.89
   7  -1   4    1.28    0.82
  -7   1  -4    1.40    0.49
   7   0   4    0.73    0.90
  -7   0  -4   -0.72    0.80
   7   1   4   11.69    1.56
  -7  -1  -4   12.89    1.45
   7   2   4    0.76    1.13
  -7  -2  -4    2.59    1.09
   7   3   4    3.85    1.40
  -7  -3  -4    6.64    1.22
  -8  12  -4   -1.20    0.92
  -8  11  -4    1.58    0.97
   8 -10   4    3.12    1.15
  -8  10  -4    2.51    0.95
   8  -9   4    5.55    1.31
  -8   9  -4    4.36    1.00
   8  -8   4   24.11    1.97
  -8   8  -4   19.94    1.54
   8  -7   4    1.33    1.03
  -8   7  -4    0.65    0.73
   8  -6   4   -0.61    0.64
   8  -6   4    0.21    0.97
  -8   6  -4   -0.79    0.63
   8  -5   4   13.41    1.56
   8  -5   4   15.06    1.25
  -8   5  -4   15.95    1.22
   8  -4   4    1.90    0.76
   8  -4   4    1.99    1.10
  -8   4  -4    2.07    0.68
   8  -3   4    1.99    1.12
   8  -3   4    2.98    0.86
  -8   3  -4    3.32    0.71
   8  -2   4   32.06    1.92
   8  -2   4   32.66    2.17
  -8   2  -4   28.41    1.32
   8  -1   4    3.05    1.21
   8  -1   4    4.57    1.11
   8   0   4    0.93    1.03
  -8   0  -4    1.09    0.95
   8   1   4    0.90    1.15
  -8  -1  -4    0.30    0.91
   8   2   4   -1.64    1.10
  -8  -2  -4    1.05    1.00
  -9  11  -4    1.28    1.00
   9 -10   4    0.89    1.15
  -9  10  -4    0.30    0.84
   9  -9   4    1.44    1.19
  -9   9  -4    1.58    0.83
   9  -8   4   -0.29    1.06
  -9   8  -4    0.51    0.78
   9  -7   4    0.51    1.05
  -9   7  -4    0.61    0.79
   9  -6   4    2.10    1.11
  -9   6  -4    2.30    0.81
   9  -5   4    0.17    1.09
  -9   5  -4    1.20    0.68
   9  -4   4    2.47    1.19
  -9   4  -4    4.25    0.79
   9  -3   4   -0.03    0.95
  -9   3  -4    1.41    0.61
   9  -2   4    0.51    1.12
   9  -1   4    0.06    0.99
   9  -1   4   -1.00    1.15
   9   0   4    5.11    1.29
  -9   0  -4    2.57    1.11
   9   1   4   -0.69    1.10
  -9  -1  -4    0.89    1.04
  10 -10   4    2.41    1.30
 -10  10  -4    1.61    0.94
  10  -9   4    2.02    1.29
 -10   9  -4    0.09    0.80
  10  -8   4    2.15    1.29
 -10   8  -4    0.43    0.84
  10  -7   4    9.18    1.55
 -10   7  -4    9.92    1.21
  10  -6   4   -0.43    1.11
 -10   6  -4    1.22    0.76
  10  -5   4    1.23    1.17
 -10   5  -4    0.68    0.64
  10  -4   4    1.39    1.17
 -10   4  -4    1.82    0.69
  10  -3   4    0.68    1.19
  10  -2   4    1.58    1.30
  11  -9   4    0.95    1.30
 -11   9  -4    0.05    0.93
  11  -8   4   -1.00    1.13
 -11   8  -4   -0.61    0.75
  11  -7   4   -0.49    1.26
 -11   7  -4    0.54    0.79
  11  -6   4   -1.12    1.13
 -11   6  -4    1.61    0.78
  11  -5   4    4.55    1.40
 -11   5  -4    4.95    0.91
  11  -4   4    3.35    1.35
  11  -3   4    0.77    1.32
 -12   0   5    1.98    0.91
  12   0  -5    2.30    1.43
 -12   1   5    7.11    1.20
  12  -1  -5    6.13    1.53
 -12   2   5    2.09    0.93
  12  -2  -5    0.96    1.29
 -12   3   5    1.88    0.86
  12  -3  -5   -1.55    1.13
 -12   4   5   -0.13    0.72
  12  -4  -5   -0.38    1.27
 -12   5   5    0.30    0.88
  12  -5  -5   -0.16    1.22
 -12   6   5    5.15    1.33
  12  -6  -5    4.61    1.49
 -11  -2   5   -0.12    0.82
  11   2  -5    1.40    1.39
 -11  -1   5   10.74    1.34
  11   1  -5   12.39    1.74
 -11   0   5    9.50    1.21
  11   0  -5    8.78    1.51
 -11   1   5    9.70    1.21
  11  -1  -5   11.40    1.68
 -11   2   5    1.44    0.78
  11  -2  -5   -1.22    1.06
 -11   3   5    1.23    0.77
  11  -3  -5    0.86    1.13
 -11   4   5    1.27    0.83
  11  -4  -5   -0.41    1.10
 -11   5   5    6.02    1.14
  11  -5  -5    8.19    1.58
 -11   6   5    4.75    1.12
  11  -6  -5    1.26    1.21
 -11   7   5    6.69    1.32
  11  -7  -5    5.92    1.56
 -10  -3   5    2.33    0.91
  10   3  -5    1.44    1.21
 -10  -2   5    0.96    0.75
  10   2  -5    0.08    1.10
 -10  -1   5    8.22    1.13
  10   1  -5    6.77    1.35
 -10   0   5    1.00    0.66
  10   0  -5   -1.58    0.98
 -10   1   5   13.45    1.25
  10  -1  -5   14.38    1.62
 -10   2   5   37.62    1.79
  10  -2  -5   33.40    2.08
 -10   3   5   21.43    1.49
  10  -3  -5   22.73    1.80
 -10   4   5    0.75    0.73
  10  -4  -5    0.20    0.98
 -10   5   5    0.83    0.77
  10  -5  -5   -0.79    1.00
 -10   6   5    4.50    1.08
  10  -6  -5    4.95    1.36
 -10   7   5    6.83    1.26
  10  -7  -5    4.26    1.37
 -10   8   5    5.67    1.30
  10  -8  -5    3.59    1.38
   9   5  -5    2.14    1.41
   9   4  -5    4.15    1.37
   9   3  -5   -2.27    0.99
   9   3  -5   -0.36    1.01
  -9  -2   5    6.24    0.98
   9   2  -5    6.83    1.28
  -9  -1   5   -0.21    0.50
   9   1  -5    0.47    0.97
  -9   0   5   13.46    1.15
   9   0  -5   14.34    1.50
  -9   1   5    0.46    0.54
   9  -1  -5    1.14    0.92
  -9   2   5   12.34    1.16
   9  -2  -5   12.85    1.43
  -9   3   5    0.51    0.59
   9  -3  -5   -0.75    0.82
  -9   4   5   10.89    1.21
   9  -4  -5   11.22    1.43
  -9   5   5    4.25    0.91
   9  -5  -5    3.37    1.25
  -9   6   5    3.76    0.97
   9  -6  -5    4.72    1.47
  -9   7   5    1.55    0.91
   9  -7  -5    1.49    1.47
  -9   8   5   -0.51    0.92
   9  -8  -5   -1.27    1.35
   8   7  -5    0.22    1.43
   8   6  -5    6.91    1.53
   8   5  -5    3.92    1.29
   8   4  -5   14.77    1.55
   8   4  -5   11.04    1.55
  -8  -3   5   47.43    1.89
   8   3  -5   53.14    2.25
   8   3  -5   53.18    2.36
   8   2  -5   31.62    1.89
   8   2  -5   29.58    1.76
  -8  -1   5    1.03    0.57
   8   1  -5    0.70    0.90
  -8   0   5    4.57    0.78
   8   0  -5    4.16    1.02
  -8   1   5   24.97    1.33
   8  -1  -5   23.57    1.59
  -8   2   5   14.85    1.18
   8  -2  -5   18.75    1.48
  -8   3   5   28.30    1.42
   8  -3  -5   28.02    1.73
  -8   4   5   78.17    2.43
   8  -4  -5   81.19    2.83
  -8   5   5    1.51    0.71
   8  -5  -5    1.78    1.06
  -8   6   5    1.90    0.85
   8  -6  -5    1.59    1.13
  -8   7   5    6.34    1.12
   8  -7  -5    5.45    1.40
  -8   8   5    3.51    1.03
   8  -8  -5    1.65    1.28
  -8   9   5    4.46    1.22
   8  -9  -5    1.89    1.41
   7   8  -5    1.51    1.29
   7   7  -5   11.65    1.63
   7   6  -5    2.13    1.16
   7   5  -5   14.53    1.62
   7   4  -5    3.53    0.92
   7   4  -5    2.86    1.00
  -7  -3   5   15.92    1.23
   7   3  -5   14.73    1.44
   7   3  -5   15.02    1.46
  -7  -2   5    1.83    0.60
   7   2  -5    0.79    0.84
   7   2  -5    1.48    0.87
  -7  -1   5   55.90    1.91
   7   1  -5   56.97    2.11
  -7   0   5   24.83    1.26
   7   0  -5   25.43    1.52
  -7   1   5   26.89    1.30
   7  -1  -5   26.55    1.46
  -7   2   5    4.67    0.73
   7  -2  -5    4.27    0.98
  -7   3   5    3.29    0.69
   7  -3  -5    3.09    0.99
  -7   4   5    6.13    0.87
   7  -4  -5    7.50    1.22
  -7   5   5   19.74    1.26
   7  -5  -5   20.17    1.70
  -7   6   5   51.15    1.93
   7  -6  -5   46.82    2.34
  -7   7   5    9.42    1.20
   7  -7  -5    6.29    1.46
  -7   8   5    2.32    0.92
   7  -8  -5    2.88    1.33
  -7   9   5    2.31    1.04
   7  -9  -5    1.47    1.36
   6   8  -5   22.49    1.95
   6   7  -5    8.59    1.36
   6   6  -5    3.56    1.09
   6   5  -5    1.48    1.41
   6   5  -5   -0.08    0.83
   6   4  -5    0.29    0.79
   6   4  -5    0.96    0.74
  -6  -3   5   27.82    1.42
   6   3  -5   28.77    1.60
   6   3  -5   26.39    1.43
  -6  -2   5   32.71    1.37
   6   2  -5   35.04    1.67
   6   2  -5   32.42    1.58
  -6  -1   5  150.90    3.46
   6   1  -5  150.42    3.59
  -6   0   5    0.48    0.40
   6   0  -5    0.29    0.62
  -6   1   5   20.43    1.06
   6  -1  -5   21.01    1.39
  -6   2   5    8.09    0.81
   6  -2  -5    8.48    1.08
  -6   3   5   26.33    1.22
   6  -3  -5   27.14    1.61
  -6   4   5    6.01    0.81
  -6   4   5    6.44    0.69
   6  -4  -5    6.76    1.18
  -6   5   5   36.43    1.56
  -6   5   5   37.41    1.53
   6  -5  -5   34.79    1.96
  -6   6   5    5.41    0.88
  -6   6   5    5.25    0.88
   6  -6  -5    7.64    1.34
  -6   7   5    4.32    0.88
   6  -7  -5    2.86    1.21
  -6   8   5    2.69    0.88
   6  -8  -5    1.97    1.28
   6  -9  -5    2.28    1.40
   5   9  -5    0.75    1.04
   5   8  -5    3.96    1.09
   5   7  -5    5.94    1.06
   5   6  -5   87.33    2.73
   5   5  -5   27.35    1.56
   5   5  -5   27.01    1.28
   5   4  -5   37.51    1.71
   5   4  -5   39.31    1.49
  -5  -3   5   22.51    1.24
   5   3  -5   22.68    1.32
   5   3  -5   20.56    1.22
  -5  -2   5    4.71    0.67
   5   2  -5    5.30    0.74
   5   2  -5    4.73    0.84
  -5  -1   5    8.85    0.81
   5   1  -5   10.59    1.00
   5   1  -5   10.63    1.00
  -5   0   5  168.18    3.69
  -5   0   5  169.07    3.50
   5   0  -5  160.33    3.80
  -5   1   5  265.75    5.05
  -5   1   5  261.74    5.52
   5  -1  -5  261.01    5.63
  -5   2   5   42.17    1.39
  -5   2   5   41.06    1.37
   5  -2  -5   40.65    1.69
  -5   3   5    4.59    0.65
  -5   3   5    4.40    0.62
   5  -3  -5    6.11    1.02
  -5   4   5   43.75    1.68
  -5   4   5   41.26    1.46
   5  -4  -5   42.95    1.97
  -5   5   5    2.84    0.65
  -5   5   5    2.32    0.73
   5  -5  -5    3.13    1.07
  -5   6   5    5.58    0.81
  -5   6   5    4.80    0.93
   5  -6  -5    4.33    1.16
  -5   7   5   60.16    2.04
  -5   7   5   60.08    2.55
   5  -7  -5   58.48    2.62
  -5   8   5   11.01    1.22
   5  -8  -5   11.12    1.59
  -5   9   5    5.09    1.11
   4  10  -5    0.99    1.09
   4   9  -5    6.79    1.21
   4   8  -5   12.16    1.35
   4   7  -5    9.86    1.19
   4   6  -5   23.02    1.43
   4   5  -5    0.45    0.67
   4   5  -5    1.96    0.58
   4   4  -5   75.25    1.96
   4   4  -5   69.91    2.12
  -4  -3   5    4.34    0.65
   4   3  -5    6.00    0.80
   4   3  -5    6.26    0.70
  -4  -2   5  124.60    3.03
   4   2  -5  121.28    2.83
   4   2  -5  121.00    2.84
  -4  -1   5    0.67    0.43
   4   1  -5    1.31    0.56
   4   1  -5    0.83    0.56
  -4   0   5   71.53    1.94
  -4   0   5   70.14    1.78
   4   0  -5   67.79    2.05
  -4   1   5    1.74    0.40
  -4   1   5    1.40    0.44
   4  -1  -5    0.47    0.59
  -4   2   5   73.06    1.81
  -4   2   5   75.81    2.15
   4  -2  -5   74.11    2.26
  -4   3   5   41.99    1.62
  -4   3   5   43.34    1.32
   4  -3  -5   43.10    1.78
  -4   4   5   30.60    1.53
  -4   4   5   29.38    1.16
   4  -4  -5   31.07    1.67
  -4   5   5   15.68    1.36
  -4   5   5   14.89    0.98
   4  -5  -5   14.02    1.45
  -4   6   5   -0.15    0.72
  -4   6   5    0.76    0.55
   4  -6  -5   -0.09    0.95
  -4   7   5    5.16    1.15
  -4   7   5    3.77    0.83
   4  -7  -5    3.26    1.20
  -4   8   5   -0.27    1.11
  -4   8   5   -0.55    0.69
   4  -8  -5   -1.81    1.07
   3  10  -5    6.79    1.20
   3   9  -5    6.78    1.07
   3   8  -5   10.48    1.20
   3   7  -5   -0.05    0.64
   3   6  -5    9.69    1.01
   3   5  -5  167.38    3.72
   3   5  -5  170.94    3.42
  -3  -4   5  171.28    4.17
   3   4  -5  175.83    3.55
   3   4  -5  172.57    3.68
  -3  -3   5   77.99    2.25
   3   3  -5   81.00    2.03
   3   3  -5   78.62    1.96
  -3  -2   5    6.17    0.67
   3   2  -5    5.88    0.64
   3   2  -5    6.47    0.70
  -3  -1   5   57.01    1.73
   3   1  -5   59.39    1.62
   3   1  -5   62.04    1.79
  -3   0   5   29.86    0.98
  -3   0   5   29.84    1.22
   3   0  -5   28.43    1.26
  -3   1   5   24.72    1.18
  -3   1   5   24.56    0.83
   3  -1  -5   23.83    1.22
  -3   2   5  296.13    5.31
  -3   2   5  304.06    6.56
   3  -2  -5  294.38    6.25
  -3   3   5   28.66    0.98
  -3   3   5   28.60    1.46
   3  -3  -5   27.47    1.46
  -3   4   5   64.12    1.68
  -3   4   5   63.64    2.36
   3  -4  -5   63.44    2.25
  -3   5   5    5.66    0.68
  -3   5   5    4.55    1.03
   3  -5  -5    6.45    1.15
  -3   6   5    3.86    0.69
  -3   6   5    2.67    0.97
   3  -6  -5    3.62    1.09
  -3   7   5    1.87    0.71
  -3   7   5    3.07    1.23
   3  -7  -5    3.24    1.18
  -3   8   5   12.95    1.77
   3  -8  -5   14.53    1.72
   2  11  -5    0.21    0.90
   2  10  -5    2.21    0.89
   2   9  -5   24.89    1.48
   2   8  -5   12.81    1.12
   2   7  -5   44.13    1.68
   2   6  -5    5.94    0.77
  -2  -5   5   11.13    1.02
   2   5  -5   12.50    0.88
  -2  -4   5   -0.18    0.47
   2   4  -5    0.39    0.43
   2   4  -5    0.00    0.36
  -2  -3   5  199.14    4.52
   2   3  -5  197.52    3.85
   2   3  -5  200.76    4.03
  -2  -2   5  159.22    3.78
   2   2  -5  161.66    3.15
   2   2  -5  165.01    3.48
  -2  -1   5  244.06    5.30
   2   1  -5  248.79    5.00
   2   1  -5  236.48    4.41
  -2   0   5    1.21    0.50
  -2   0   5    0.66    0.23
   2   0  -5    1.36    0.54
  -2   1   5    7.98    0.83
  -2   1   5    7.33    0.44
   2  -1  -5    8.03    0.85
  -2   2   5    5.20    0.82
  -2   2   5    4.77    0.44
   2  -2  -5    5.31    0.82
  -2   3   5   15.57    0.73
  -2   3   5   16.90    1.35
   2  -3  -5   14.94    1.19
  -2   4   5  125.71    2.66
  -2   4   5  128.86    3.80
   2  -4  -5  125.89    3.44
  -2   5   5   34.20    1.27
  -2   5   5   36.80    2.16
   2  -5  -5   35.89    1.87
  -2   6   5   35.83    1.43
  -2   6   5   35.85    2.30
   2  -6  -5   35.51    1.91
  -2   7   5    1.77    1.24
   2  -7  -5    3.59    1.11
  -2   8   5   -0.69    1.24
   1  11  -5    1.53    0.94
   1  10  -5   25.00    1.53
   1   9  -5   14.94    1.19
   1   8  -5   11.39    1.01
   1   7  -5    1.26    0.59
   1   6  -5    1.96    0.55
   1   5  -5   22.20    1.01
   1   5  -5   21.98    0.71
  -1  -4   5   25.26    1.28
   1   4  -5   24.58    0.87
   1   4  -5   26.30    1.01
  -1  -3   5  260.01    5.73
   1   3  -5  268.41    4.74
   1   3  -5  259.36    5.12
  -1  -2   5    8.85    0.91
   1   2  -5    7.38    0.67
   1   2  -5    7.78    0.52
  -1  -1   5  133.43    3.30
   1   1  -5  135.69    2.50
   1   1  -5  133.44    3.03
  -1   0   5    0.15    0.51
   1   0  -5   -0.16    0.45
  -1   1   5   90.76    2.70
  -1   1   5   94.04    1.71
   1  -1  -5   89.32    2.44
  -1   2   5    1.98    0.33
  -1   2   5    1.97    0.71
   1  -2  -5    1.90    0.65
  -1   3   5   75.70    2.69
  -1   3   5   74.39    1.65
   1  -3  -5   71.84    2.33
  -1   4   5    6.40    1.17
  -1   4   5   10.06    0.81
   1  -4  -5    6.74    1.05
  -1   5   5   10.12    0.85
  -1   5   5    9.94    1.44
   1  -5  -5   10.82    1.29
  -1   6   5    6.51    1.36
  -1   7   5    5.65    1.53
   1  -7  -5    8.52    1.33
  -1   8   5    5.58    1.73
   0  12  -5    3.81    1.10
   0  11  -5    2.66    0.89
   0  10  -5   -0.05    0.63
   0   9  -5    1.20    0.65
   0   8  -5   75.83    2.22
   0  -7   5   48.66    1.95
   0   7  -5   49.04    1.62
   0  -6   5  110.18    3.05
   0   6  -5  109.38    2.54
   0  -5   5    3.67    0.70
   0   5  -5    3.38    0.52
   0   5  -5    4.34    0.40
   0  -4   5   34.31    1.45
   0   4  -5   35.45    1.10
   0   4  -5   33.32    1.02
   0  -3   5   10.79    0.97
   0   3  -5    8.27    0.64
   0   3  -5    9.26    0.58
   0  -2   5   83.54    2.34
   0   2  -5   82.69    2.07
   0   2  -5   81.89    1.61
   0  -1   5  380.48    8.06
   0   1  -5  380.86    7.44
   0   0   5  145.93    3.76
   0   0  -5  151.14    3.42
   0   1   5   73.48    2.48
   0  -1  -5   75.48    2.19
   0   2   5   25.32    1.65
   0  -2  -5   27.95    1.40
   0   3   5    0.49    0.38
   0   3   5    1.44    0.88
   0  -3  -5    0.23    0.66
   0   4   5   -0.35    0.82
   0   4   5   -0.10    0.42
   0  -4  -5    0.60    0.81
   0   5   5   66.96    3.07
   0  -5  -5   63.04    2.39
   0   6   5   14.47    1.88
   0  -6  -5   16.76    1.53
   0   7   5   13.89    2.10
  -1  12  -5   -0.27    0.82
  -1  11  -5    1.81    0.84
  -1  10  -5    6.91    1.02
  -1   9  -5    1.71    0.69
   1  -8   5   15.93    1.35
  -1   8  -5   15.44    1.10
   1  -7   5    1.54    0.65
  -1   7  -5    1.08    0.50
   1  -6   5   47.05    1.76
  -1   6  -5   45.59    1.40
  -1   6  -5   45.77    1.14
   1  -5   5    1.09    0.56
  -1   5  -5    1.44    0.43
  -1   5  -5    1.95    0.34
   1  -4   5  162.75    3.88
  -1   4  -5  158.73    3.38
  -1   4  -5  165.01    3.09
   1  -3   5    1.41    0.56
  -1   3  -5    0.91    0.40
  -1   3  -5    0.87    0.30
   1  -2   5   37.53    1.50
  -1   2  -5   38.11    1.31
   1  -1   5   10.08    1.04
  -1   1  -5   10.94    0.85
   1   0   5   29.00    1.47
  -1   0  -5   26.59    1.24
   1   1   5   35.58    1.78
  -1  -1  -5   36.80    1.50
   1   2   5   69.58    2.66
  -1  -2  -5   66.97    2.22
   1   3   5   30.73    2.01
   1   3   5   31.53    1.01
  -1  -3  -5   29.29    1.61
   1   4   5    0.94    0.99
  -1  -4  -5    1.59    0.80
   1   5   5    0.89    1.06
  -1  -5  -5    2.69    0.94
   1   6   5   -0.57    1.11
  -1  -6  -5    1.93    0.91
   1   7   5    7.52    1.82
  -2  12  -5    4.72    1.04
  -2  11  -5   10.81    1.24
   2 -10   5    6.30    1.11
  -2  10  -5    4.35    0.86
   2  -9   5    0.85    0.77
  -2   9  -5    1.83    0.65
   2  -8   5    6.18    0.95
  -2   8  -5    6.82    0.83
   2  -7   5   27.03    1.48
  -2   7  -5   28.31    0.92
  -2   7  -5   28.25    1.25
   2  -6   5  110.77    3.00
  -2   6  -5  106.12    2.46
  -2   6  -5  109.36    2.44
   2  -5   5   81.11    2.41
  -2   5  -5   83.38    2.05
  -2   5  -5   81.56    1.93
   2  -4   5   31.24    1.45
  -2   4  -5   29.57    0.96
  -2   4  -5   29.09    1.12
   2  -3   5   56.06    1.87
  -2   3  -5   56.04    1.26
  -2   3  -5   54.28    1.70
   2  -2   5    0.31    0.51
  -2   2  -5    0.35    0.45
   2  -1   5    0.09    0.56
  -2   1  -5    0.15    0.46
   2   0   5  136.57    3.68
  -2   0  -5  127.61    3.28
   2   1   5   16.89    1.49
  -2  -1  -5   18.26    1.25
   2   2   5   44.82    2.33
  -2  -2  -5   46.53    1.88
   2   3   5    0.51    0.95
  -2  -3  -5    0.60    0.76
   2   4   5    3.61    1.19
  -2  -4  -5    6.21    1.06
   2   5   5    0.36    1.10
  -2  -5  -5    1.63    0.82
   2   6   5    4.71    1.64
  -2  -6  -5    8.65    1.27
   3 -12   5    1.63    1.22
  -3  12  -5   -0.08    0.81
   3 -11   5   13.46    1.62
  -3  11  -5    6.30    0.99
   3 -10   5    6.14    1.18
  -3  10  -5    5.73    0.90
   3  -9   5   33.31    1.84
  -3   9  -5   33.40    1.52
   3  -8   5    1.36    0.73
  -3   8  -5    2.13    0.64
   3  -7   5    2.05    0.60
   3  -7   5    1.03    0.67
  -3   7  -5    1.78    0.57
   3  -6   5   36.38    1.41
   3  -6   5   38.74    1.66
  -3   6  -5   37.32    1.33
   3  -5   5   19.66    1.24
   3  -5   5   21.83    1.11
  -3   5  -5   21.38    0.93
   3  -4   5   42.25    1.57
   3  -4   5   40.40    1.68
  -3   4  -5   42.99    1.22
   3  -3   5  145.34    3.79
  -3   3  -5  161.01    3.70
  -3   3  -5  149.05    2.84
   3  -2   5   17.21    1.28
  -3   2  -5   18.59    1.13
   3  -1   5    7.08    0.92
   3   0   5    2.13    0.84
  -3   0  -5    1.70    0.70
   3   1   5    1.71    0.97
  -3  -1  -5    2.46    0.77
   3   2   5   39.30    2.28
  -3  -2  -5   35.97    1.82
   3   3   5   16.68    1.85
  -3  -3  -5   16.47    1.42
   3   4   5   33.48    2.49
  -3  -4  -5   34.63    1.90
   3   5   5   -0.48    1.08
  -3  -5  -5    2.04    0.90
   3   6   5    0.35    1.41
   4 -13   5    3.04    1.43
  -4  13  -5    0.92    0.96
  -4  12  -5    4.91    1.11
   4 -11   5    6.29    1.27
  -4  11  -5    3.95    0.95
   4 -10   5    7.99    1.19
  -4  10  -5    7.09    0.98
   4  -9   5    1.08    0.83
  -4   9  -5    0.78    0.63
   4  -8   5    1.66    0.80
   4  -8   5    2.06    0.66
  -4   8  -5    2.67    0.68
   4  -7   5    2.20    0.70
   4  -7   5    3.35    0.82
  -4   7  -5    2.27    0.62
   4  -6   5    0.19    0.62
   4  -6   5    0.43    0.60
  -4   6  -5    0.67    0.51
   4  -5   5   47.61    1.85
   4  -5   5   46.14    1.79
  -4   5  -5   47.03    1.44
   4  -4   5    0.29    0.55
   4  -4   5    0.43    0.67
  -4   4  -5    1.17    0.44
   4  -3   5   33.79    1.57
   4  -3   5   31.84    1.58
  -4   3  -5   31.57    1.01
   4  -2   5    1.41    0.69
  -4   2  -5    1.91    0.34
  -4   2  -5    1.24    0.66
   4  -1   5   20.93    1.60
  -4   1  -5   24.25    1.39
   4   0   5   -1.22    0.73
  -4   0  -5    0.67    0.41
  -4   0  -5    0.10    0.64
   4   1   5   21.43    1.87
  -4  -1  -5   20.95    1.52
   4   2   5    3.38    1.08
  -4  -2  -5    1.09    0.81
   4   3   5    0.81    1.05
  -4  -3  -5    2.15    0.95
   4   4   5   -0.92    1.08
  -4  -4  -5    1.23    0.89
   4   5   5    1.06    1.26
  -4  -5  -5    5.26    1.10
   5 -13   5    4.40    1.45
  -5  13  -5    0.02    1.13
   5 -12   5    1.22    1.22
  -5  12  -5   -0.16    0.78
   5 -11   5    5.15    1.28
  -5  11  -5    4.29    1.01
   5 -10   5   10.68    1.34
  -5  10  -5    8.38    1.12
   5  -9   5   14.03    1.37
   5  -9   5   12.60    1.18
  -5   9  -5   10.35    1.16
   5  -8   5   47.81    1.92
   5  -8   5   50.43    2.08
  -5   8  -5   46.09    1.79
   5  -7   5    1.40    0.80
   5  -7   5    1.11    0.72
  -5   7  -5    0.90    0.63
   5  -6   5    3.09    0.89
   5  -6   5    2.82    0.80
  -5   6  -5    3.40    0.69
   5  -5   5   16.96    1.31
   5  -5   5   19.09    1.45
  -5   5  -5   16.34    1.04
   5  -4   5   -0.27    0.60
   5  -4   5    0.31    0.74
  -5   4  -5    0.70    0.46
   5  -3   5   37.35    1.77
   5  -3   5   35.51    1.83
  -5   3  -5   35.53    1.18
   5  -2   5   27.40    1.70
   5  -2   5   25.32    1.67
  -5   2  -5   25.97    0.98
   5  -1   5   45.62    2.32
  -5   1  -5   47.69    1.28
  -5   1  -5   46.08    2.03
   5   0   5    2.21    0.97
  -5   0  -5    2.58    0.87
   5   1   5   -0.15    0.88
  -5  -1  -5    0.27    0.85
   5   2   5    3.67    1.20
  -5  -2  -5    4.48    1.07
   5   3   5    7.35    1.47
  -5  -3  -5    9.55    1.31
   5   4   5    3.67    1.35
  -5  -4  -5    5.26    1.24
   6 -12   5    2.67    1.33
  -6  12  -5    2.36    0.96
   6 -11   5    0.01    1.06
  -6  11  -5    0.46    0.79
   6 -10   5    2.42    0.98
  -6  10  -5    1.17    0.82
   6  -9   5   -0.08    0.82
   6  -9   5    1.48    0.88
  -6   9  -5    0.91    0.72
   6  -8   5    6.37    1.14
   6  -8   5    7.20    1.05
  -6   8  -5    3.94    0.84
   6  -7   5    0.12    0.76
   6  -7   5    0.30    0.87
  -6   7  -5    0.56    0.63
   6  -6   5   34.73    1.70
   6  -6   5   30.39    1.83
  -6   6  -5   32.95    1.50
   6  -5   5    0.57    0.90
   6  -5   5    0.16    0.66
  -6   5  -5    0.76    0.58
   6  -4   5    8.00    1.02
   6  -4   5    8.29    1.24
  -6   4  -5    8.26    0.83
   6  -3   5    5.64    1.14
   6  -3   5    6.36    1.02
  -6   3  -5    5.81    0.69
   6  -2   5    0.39    0.80
   6  -2   5    0.96    0.89
  -6   2  -5    0.77    0.42
   6  -1   5    0.02    0.82
  -6   1  -5    0.48    0.78
   6   0   5    8.64    1.32
  -6   0  -5    8.15    1.18
   6   1   5    9.28    1.47
  -6  -1  -5   12.28    1.50
   6   2   5    0.92    1.14
  -6  -2  -5    1.39    0.97
   6   3   5    0.44    1.12
  -6  -3  -5    2.11    1.12
   7 -12   5   -1.36    1.68
  -7  12  -5    0.71    0.88
   7 -11   5    0.32    1.07
  -7  11  -5    0.25    0.85
   7 -10   5    0.38    0.99
   7 -10   5    3.47    1.13
  -7  10  -5    1.78    0.84
   7  -9   5    0.01    0.89
   7  -9   5    1.21    0.98
  -7   9  -5    0.78    0.73
   7  -8   5   11.71    1.27
   7  -8   5   13.30    1.55
  -7   8  -5    8.97    1.09
   7  -7   5   14.55    1.60
   7  -7   5   13.49    1.42
  -7   7  -5   14.92    1.28
   7  -6   5   10.56    1.42
   7  -6   5   12.45    1.19
  -7   6  -5    9.17    1.05
   7  -5   5    0.26    0.70
   7  -5   5    0.43    0.98
  -7   5  -5    1.11    0.61
   7  -4   5   -0.53    0.90
   7  -4   5    0.94    0.72
  -7   4  -5    0.56    0.53
   7  -3   5    0.98    1.05
   7  -3   5    1.47    0.88
  -7   3  -5    3.39    0.62
   7  -2   5    9.27    1.43
   7  -2   5   10.62    1.26
   7  -1   5    1.61    0.94
  -7   1  -5    0.24    0.80
   7   0   5    8.29    1.36
  -7   0  -5    8.02    1.26
   7   1   5   -0.86    1.07
  -7  -1  -5    1.69    1.04
   7   2   5    0.38    1.14
  -7  -2  -5    2.22    1.04
  -8  12  -5    1.28    1.02
  -8  11  -5    4.94    1.09
   8 -10   5    2.07    1.13
  -8  10  -5    0.22    0.77
   8  -9   5    1.08    1.11
  -8   9  -5    0.90    0.81
   8  -8   5    4.29    1.30
  -8   8  -5    4.83    0.95
   8  -7   5   -0.84    0.73
   8  -7   5    0.13    1.02
  -8   7  -5    0.69    0.74
   8  -6   5    1.54    0.81
   8  -6   5    2.08    1.13
  -8   6  -5    3.33    0.83
   8  -5   5   21.05    1.56
   8  -5   5   20.75    1.90
  -8   5  -5   20.62    1.35
   8  -4   5    8.98    1.17
   8  -4   5    7.55    1.39
  -8   4  -5    9.28    0.97
   8  -3   5    0.02    1.05
   8  -3   5    0.83    0.87
   8  -2   5   -0.37    0.85
   8  -2   5   -0.33    1.05
   8  -1   5    1.37    1.02
  -8   1  -5    0.94    0.92
   8   0   5    0.46    1.11
  -8   0  -5    1.98    1.05
   8   1   5    2.24    1.28
  -8  -1  -5    1.50    1.09
  -9  11  -5   -0.32    0.85
   9 -10   5   -1.09    1.12
  -9  10  -5    0.27    0.79
   9  -9   5    0.09    1.15
  -9   9  -5    0.83    0.85
   9  -8   5    0.86    1.19
  -9   8  -5   -0.23    0.73
   9  -7   5    5.77    1.42
  -9   7  -5    3.70    0.97
   9  -6   5    0.26    1.03
  -9   6  -5    0.43    0.72
   9  -5   5    2.21    1.15
  -9   5  -5    3.12    0.76
   9  -4   5    1.44    1.15
   9  -3   5    2.64    1.27
   9  -2   5    0.28    0.96
   9  -2   5   -0.82    1.20
   9  -1   5    3.10    1.21
  -9   1  -5    3.21    1.19
   9   0   5    0.39    1.16
  -9   0  -5    1.00    0.98
  10 -10   5    8.77    1.72
 -10  10  -5    3.35    1.04
  10  -9   5   -0.43    1.20
 -10   9  -5    1.34    0.83
  10  -8   5    0.47    1.25
 -10   8  -5   -1.28    0.73
  10  -7   5   -2.37    1.09
 -10   7  -5    2.09    0.85
  10  -6   5   -0.83    1.16
 -10   6  -5    1.09    0.72
  10  -5   5    3.76    1.38
  10  -4   5    1.50    1.25
  10  -3   5    4.54    1.45
  11  -8   5    2.30    1.45
 -11   8  -5    2.11    0.97
  11  -7   5    1.11    1.36
 -11   7  -5    1.98    0.89
  11  -6   5    1.93    1.33
 -12   0   6    1.43    0.88
  12   0  -6    0.56    1.28
 -12   1   6    0.82    0.85
  12  -1  -6    0.13    1.32
 -12   2   6    1.81    0.87
  12  -2  -6   -1.60    1.17
 -12   3   6    3.97    0.98
  12  -3  -6    2.00    1.36
 -12   4   6    4.41    1.11
  12  -4  -6    4.41    1.44
  12  -5  -6    8.87    1.79
 -11  -3   6    6.91    1.23
 -11  -2   6   12.89    1.47
  11   2  -6   11.77    1.66
 -11  -1   6   -0.25    0.74
  11   1  -6    0.22    1.19
 -11   0   6    0.53    0.73
  11   0  -6   -0.99    1.14
 -11   1   6    1.35    0.74
  11  -1  -6    1.00    1.24
 -11   2   6    4.08    0.97
  11  -2  -6    3.19    1.28
 -11   3   6    6.86    1.09
  11  -3  -6    8.69    1.58
 -11   4   6   14.65    1.54
  11  -4  -6   12.86    1.73
 -11   5   6    5.92    1.15
  11  -5  -6    2.52    1.32
 -11   6   6    0.31    0.94
  11  -6  -6    0.60    1.20
 -10  -3   6    0.20    0.76
  10   3  -6   -0.51    1.12
 -10  -2   6    4.58    1.01
  10   2  -6    4.62    1.24
 -10  -1   6   21.45    1.48
  10   1  -6   19.08    1.84
 -10   0   6   33.72    1.74
  10   0  -6   32.04    2.08
 -10   1   6    2.99    0.83
  10  -1  -6    1.58    1.14
 -10   2   6    0.70    0.69
  10  -2  -6   -0.26    0.99
 -10   3   6    5.58    0.95
  10  -3  -6    6.79    1.37
 -10   4   6    4.29    0.99
  10  -4  -6    0.83    1.09
 -10   5   6    7.70    1.17
  10  -5  -6    5.44    1.34
 -10   6   6   29.21    1.85
  10  -6  -6   27.89    2.25
  10  -7  -6    7.13    1.55
   9   6  -6    1.46    1.45
   9   5  -6    3.83    1.41
   9   4  -6   -0.49    1.10
   9   3  -6   16.33    1.60
   9   3  -6   13.34    1.63
  -9  -2   6    3.59    0.88
   9   2  -6    4.34    1.22
  -9  -1   6   19.30    1.31
   9   1  -6   19.83    1.69
  -9   0   6    6.09    0.94
   9   0  -6    5.87    1.19
  -9   1   6   11.85    1.09
   9  -1  -6    9.23    1.36
  -9   2   6    5.31    0.91
   9  -2  -6    5.79    1.19
  -9   3   6    3.29    0.80
   9  -3  -6    3.74    1.16
  -9   4   6    6.89    1.02
   9  -4  -6    8.65    1.41
  -9   5   6    0.48    0.74
   9  -5  -6    0.41    1.06
  -9   6   6    6.62    1.16
   9  -6  -6    3.97    1.33
  -9   7   6    2.74    1.01
   9  -7  -6    2.97    1.39
   9  -8  -6    6.55    1.71
   8   7  -6    3.56    1.49
   8   6  -6   27.57    2.14
  -8  -5   6   26.71    1.75
   8   5  -6   25.70    2.03
  -8  -4   6    3.96    0.83
   8   4  -6    3.98    1.20
   8   4  -6    4.34    1.07
   8   3  -6   -0.03    0.88
   8   3  -6   -0.36    0.91
   8   2  -6    5.88    1.12
  -8  -1   6   17.22    1.19
   8   1  -6   15.85    1.46
  -8   0   6   24.73    1.39
   8   0  -6   24.42    1.67
  -8   1   6  102.11    2.81
   8  -1  -6  104.51    3.10
  -8   2   6   16.16    1.21
   8  -2  -6   16.57    1.51
  -8   3   6    6.47    0.94
   8  -3  -6    6.89    1.20
  -8   4   6    6.72    0.95
   8  -4  -6    4.47    1.19
  -8   5   6    0.22    0.68
   8  -5  -6   -0.06    1.03
  -8   6   6   11.79    1.28
   8  -6  -6   10.64    1.65
  -8   7   6   15.61    1.46
   8  -7  -6   16.78    2.02
  -8   8   6   16.96    1.59
   8  -8  -6   14.74    2.01
   7   8  -6    9.21    1.62
   7   7  -6   -0.08    1.07
   7   6  -6    6.59    1.35
  -7  -5   6    2.55    0.81
   7   5  -6    2.15    0.99
  -7  -4   6   40.11    1.89
   7   4  -6   42.94    1.89
   7   4  -6   41.18    2.06
  -7  -3   6   27.86    1.53
   7   3  -6   28.60    1.74
   7   3  -6   30.63    1.65
  -7  -2   6   29.51    1.42
   7   2  -6   32.72    1.73
   7   2  -6   32.23    1.75
  -7  -1   6    0.42    0.50
  -7  -1   6    0.09    0.47
   7   1  -6   -0.99    0.75
  -7   0   6    0.94    0.54
   7   0  -6    0.25    0.76
  -7   1   6   10.85    0.95
   7  -1  -6   10.81    1.27
  -7   2   6   21.43    1.24
   7  -2  -6   23.11    1.63
  -7   3   6  101.34    2.67
   7  -3  -6   97.26    3.17
  -7   4   6   22.76    1.29
   7  -4  -6   19.23    1.76
  -7   5   6   14.56    1.19
   7  -5  -6   16.16    1.72
  -7   6   6    3.30    0.85
   7  -6  -6    2.83    1.23
  -7   7   6    1.64    0.81
   7  -7  -6    0.27    1.21
  -7   8   6   -0.14    0.88
   7  -8  -6   -2.74    1.25
   6   9  -6   -0.13    1.18
   6   8  -6    0.25    1.05
   6   7  -6    1.45    1.00
   6   6  -6   17.53    1.67
  -6  -5   6   25.94    1.67
   6   5  -6   26.37    1.70
   6   5  -6   26.57    1.67
  -6  -4   6   86.95    2.77
   6   4  -6   91.12    2.56
   6   4  -6   87.28    2.79
  -6  -3   6    4.42    0.77
   6   3  -6    5.59    0.95
   6   3  -6    5.47    1.03
  -6  -2   6   18.25    1.20
   6   2  -6   20.10    1.37
   6   2  -6   20.03    1.29
  -6  -1   6    1.32    0.48
  -6  -1   6    1.48    0.52
   6   1  -6    1.08    0.71
  -6   0   6   17.33    0.95
  -6   0   6   17.93    1.02
   6   0  -6   16.95    1.33
  -6   1   6   15.41    0.89
  -6   1   6   16.02    0.99
   6  -1  -6   16.30    1.37
  -6   2   6   74.31    2.10
  -6   2   6   75.83    2.08
   6  -2  -6   74.72    2.59
  -6   3   6   37.72    1.44
  -6   3   6   39.16    1.44
   6  -3  -6   37.86    1.98
  -6   4   6   12.26    1.00
  -6   4   6   12.58    1.09
   6  -4  -6   14.73    1.56
  -6   5   6    8.97    0.95
  -6   5   6    7.00    0.95
   6  -5  -6    8.88    1.40
  -6   6   6    0.95    0.67
  -6   6   6    0.78    0.78
   6  -6  -6    0.19    1.09
  -6   7   6   10.19    1.16
   6  -7  -6   12.62    1.77
  -6   8   6    1.77    0.91
   6  -8  -6    1.61    1.33
   5   9  -6   19.89    1.74
   5   8  -6   10.32    1.31
   5   7  -6   21.34    1.56
   5   6  -6    1.30    0.78
  -5  -5   6    4.61    0.90
   5   5  -6    5.76    0.81
   5   5  -6    5.42    1.01
  -5  -4   6    2.42    0.72
   5   4  -6    2.20    0.73
   5   4  -6    1.79    0.78
  -5  -3   6   71.69    2.28
   5   3  -6   72.66    2.26
   5   3  -6   75.33    2.15
  -5  -2   6  197.34    4.53
   5   2  -6  197.97    4.25
   5   2  -6  195.20    4.36
  -5  -1   6   77.81    2.18
   5   1  -6   75.96    2.29
  -5   0   6   36.00    1.35
  -5   0   6   36.82    1.38
   5   0  -6   37.80    1.62
  -5   1   6   34.92    1.27
  -5   1   6   34.83    1.36
   5  -1  -6   33.18    1.62
  -5   2   6    0.82    0.44
  -5   2   6    1.10    0.48
   5  -2  -6    0.87    0.79
  -5   3   6    3.74    0.69
  -5   3   6    4.43    0.63
   5  -3  -6    4.00    1.04
  -5   4   6  126.31    3.45
  -5   4   6  124.58    2.88
   5  -4  -6  124.15    3.66
  -5   5   6   40.16    1.94
  -5   5   6   41.57    1.53
   5  -5  -6   40.47    2.16
  -5   6   6   20.28    1.24
  -5   6   6   20.11    1.68
   5  -6  -6   23.39    1.97
  -5   7   6   -0.71    0.89
  -5   7   6    0.11    0.66
   5  -7  -6    2.22    1.22
  -5   8   6   -2.27    0.99
   5  -8  -6   -1.07    1.26
   4  10  -6    2.32    1.16
   4   9  -6   13.64    1.51
   4   8  -6   -0.60    0.72
   4   7  -6   10.49    1.17
  -4  -6   6   -0.01    0.66
   4   6  -6   -0.01    0.68
  -4  -5   6   44.62    1.96
   4   5  -6   46.53    1.50
   4   5  -6   47.27    1.80
  -4  -4   6    2.40    0.71
   4   4  -6    3.96    0.66
   4   4  -6    2.85    0.76
  -4  -3   6   44.02    1.73
   4   3  -6   44.25    1.61
   4   3  -6   45.78    1.54
  -4  -2   6   14.40    1.05
   4   2  -6   14.42    0.99
   4   2  -6   13.11    1.00
  -4  -1   6   42.69    1.53
   4   1  -6   43.42    1.59
  -4   0   6   43.60    1.57
  -4   0   6   45.06    1.36
   4   0  -6   46.63    1.70
  -4   1   6   44.02    1.31
  -4   1   6   43.99    1.63
   4  -1  -6   44.06    1.77
  -4   2   6   38.86    1.63
  -4   2   6   39.67    1.24
   4  -2  -6   38.39    1.76
  -4   3   6    0.34    0.41
  -4   3   6    0.67    0.60
   4  -3  -6    0.29    0.80
  -4   4   6    6.96    0.98
  -4   4   6    8.47    0.82
   4  -4  -6    8.00    1.26
  -4   5   6    2.39    0.59
  -4   5   6    1.62    0.87
   4  -5  -6    1.73    1.01
  -4   6   6   35.20    1.47
  -4   6   6   37.20    2.19
   4  -6  -6   36.42    2.20
  -4   7   6    6.27    1.39
   4  -7  -6    7.56    1.51
  -4   8   6   10.50    1.70
   4  -8  -6    9.78    1.69
   3  11  -6    2.50    1.12
   3  10  -6    0.07    0.79
   3   9  -6   -0.86    0.64
   3   8  -6   20.76    1.36
   3   7  -6   61.32    2.07
  -3  -6   6   26.05    1.61
   3   6  -6   28.43    1.43
  -3  -5   6   10.31    1.06
   3   5  -6   12.13    1.04
   3   5  -6    9.44    0.78
  -3  -4   6   49.17    1.86
   3   4  -6   48.99    1.48
   3   4  -6   48.58    1.64
  -3  -3   6    2.54    0.65
   3   3  -6    2.53    0.57
   3   3  -6    1.92    0.55
  -3  -2   6    5.57    0.75
   3   2  -6    5.30    0.65
   3   2  -6    6.28    0.74
  -3  -1   6  322.08    6.96
   3   1  -6  327.30    6.57
  -3   0   6   86.06    2.48
  -3   0   6   82.82    1.89
   3   0  -6   86.49    2.43
  -3   1   6   62.28    1.49
  -3   1   6   62.65    2.08
   3  -1  -6   62.14    2.08
  -3   2   6   13.04    0.66
  -3   2   6   11.55    1.14
   3  -2  -6   11.28    1.19
  -3   3   6    1.62    0.76
  -3   3   6    1.48    0.43
   3  -3  -6    2.64    0.91
  -3   4   6    7.70    0.72
  -3   4   6    7.97    1.14
   3  -4  -6    6.60    1.18
  -3   5   6   22.21    1.09
  -3   5   6   25.86    1.92
   3  -5  -6   23.48    1.84
  -3   6   6   27.64    2.18
   3  -6  -6   26.30    2.00
  -3   7   6    4.62    1.40
   3  -7  -6    3.53    1.31
  -3   8   6    1.98    1.41
   2  11  -6    0.96    0.91
   2  10  -6   10.75    1.22
   2   9  -6    1.57    0.73
   2   8  -6    3.25    0.74
  -2  -7   6    2.22    0.80
  -2  -6   6   30.16    1.63
   2   6  -6   31.78    1.33
  -2  -5   6   45.48    1.86
   2   5  -6   48.03    1.59
   2   5  -6   45.93    1.31
  -2  -4   6  109.83    2.99
   2   4  -6  111.43    2.55
   2   4  -6  108.16    2.50
  -2  -3   6   17.37    1.14
   2   3  -6   16.68    0.91
   2   3  -6   18.75    0.86
  -2  -2   6   24.15    1.23
   2   2  -6   22.27    1.08
   2   2  -6   21.67    0.92
  -2  -1   6    4.57    0.70
  -2  -1   6    4.42    0.41
   2   1  -6    4.00    0.66
  -2   0   6    0.22    0.21
  -2   0   6    0.39    0.51
   2   0  -6    0.08    0.53
  -2   1   6  173.40    3.15
  -2   1   6  173.20    4.37
   2  -1  -6  178.95    4.12
  -2   2   6   83.88    2.81
  -2   2   6   86.34    1.78
   2  -2  -6   85.08    2.60
  -2   3   6   69.04    1.60
  -2   3   6   67.72    2.65
   2  -3  -6   66.93    2.41
  -2   4   6    1.87    0.50
  -2   4   6    1.53    0.92
   2  -4  -6    1.82    0.90
  -2   5   6    0.27    0.93
   2  -5  -6    2.71    0.98
  -2   6   6    0.79    1.11
   2  -6  -6    0.08    1.01
  -2   7   6    8.31    1.72
   2  -7  -6    8.79    1.45
   1  12  -6    4.97    1.16
   1  11  -6    1.70    0.90
   1  10  -6    0.66    0.71
   1   9  -6    3.96    0.86
  -1  -8   6    2.85    0.86
   1   8  -6    2.65    0.73
  -1  -7   6    1.54    0.70
   1   7  -6    1.65    0.62
  -1  -6   6  105.89    3.02
   1   6  -6  102.45    2.52
  -1  -5   6    3.25    0.70
   1   5  -6    3.54    0.47
   1   5  -6    3.19    0.57
  -1  -4   6   43.84    1.76
   1   4  -6   45.40    1.33
   1   4  -6   43.87    1.31
  -1  -3   6   18.86    1.17
   1   3  -6   17.69    0.78
   1   3  -6   17.68    0.89
  -1  -2   6   14.24    1.10
   1   2  -6   13.96    0.63
   1   2  -6   12.81    0.84
  -1  -1   6    2.31    0.63
  -1  -1   6    1.74    0.24
   1   1  -6    1.49    0.52
  -1   0   6   62.37    2.15
   1   0  -6   62.13    1.96
  -1   1   6   25.25    1.53
   1  -1  -6   25.15    1.34
  -1   2   6    7.08    1.07
   1  -2  -6    5.93    0.95
  -1   3   6   11.05    1.38
  -1   3   6   12.50    0.67
   1  -3  -6   11.26    1.26
  -1   4   6    1.77    0.98
   1  -4  -6    0.54    0.82
  -1   5   6   13.73    1.70
   1  -5  -6   18.23    1.61
  -1   6   6    0.74    1.19
   1  -6  -6    2.18    1.09
  -1   7   6    5.46    1.71
   1  -7  -6    6.86    1.39
   0 -12   6    2.87    1.30
   0  12  -6   -1.15    0.80
   0 -11   6   13.81    1.69
   0  11  -6    9.85    1.21
   0 -10   6   10.11    1.39
   0  10  -6    8.29    1.01
   0  -9   6   35.37    2.00
   0   9  -6   33.67    1.57
   0  -8   6    0.31    0.66
   0   8  -6   -0.33    0.54
   0  -7   6   14.52    1.30
   0   7  -6   13.91    1.02
   0  -6   6   19.47    1.36
   0   6  -6   19.03    0.71
   0   6  -6   18.57    1.02
   0  -5   6    2.54    0.70
   0   5  -6    3.00    0.52
   0   5  -6    2.58    0.41
   0  -4   6  142.32    3.62
   0   4  -6  141.41    2.83
   0   4  -6  140.53    3.08
   0  -3   6   88.08    2.55
   0   3  -6   86.87    1.82
   0   3  -6   87.27    2.19
   0  -2   6  119.12    3.20
   0   2  -6  122.69    2.90
   0  -1   6   33.01    1.55
   0   1  -6   33.31    1.36
   0   0   6    5.84    0.89
   0   0  -6    5.81    0.83
   0   1   6   18.42    1.51
   0  -1  -6   17.66    1.21
   0   2   6   55.69    2.45
   0  -2  -6   52.70    2.05
   0   3   6   33.16    2.12
   0  -3  -6   32.34    1.77
   0   4   6   36.62    2.43
   0  -4  -6   36.08    1.93
   0   5   6    0.26    1.07
   0  -5  -6    1.04    0.94
   0   6   6   -1.00    1.17
   0  -6  -6    1.20    1.00
   0   7   6    4.22    1.65
   1 -12   6    3.46    1.38
  -1  12  -6    1.65    0.91
   1 -11   6    7.10    1.43
  -1  11  -6    7.82    1.15
   1 -10   6    0.97    0.93
  -1  10  -6   -0.59    0.57
   1  -9   6    5.83    1.09
  -1   9  -6    8.00    0.96
   1  -8   6    0.27    0.66
  -1   8  -6    0.42    0.54
   1  -7   6   33.51    1.71
  -1   7  -6   31.75    1.34
  -1   7  -6   33.16    0.96
   1  -6   6    0.94    0.64
  -1   6  -6    1.22    0.34
  -1   6  -6    1.37    0.49
   1  -5   6   14.69    1.23
  -1   5  -6   12.11    0.70
  -1   5  -6   11.61    0.74
   1  -4   6    1.22    0.60
  -1   4  -6    0.73    0.36
  -1   4  -6    1.35    0.45
   1  -3   6    8.36    0.91
  -1   3  -6    7.24    0.77
  -1   3  -6    7.80    0.48
   1  -2   6   12.45    1.14
  -1   2  -6   11.50    0.87
   1  -1   6   22.93    1.39
  -1   1  -6   23.25    1.22
   1   0   6   42.49    1.94
  -1   0  -6   42.67    1.68
   1   1   6    0.08    0.75
  -1  -1  -6    0.02    0.62
   1   2   6    2.07    0.98
  -1  -2  -6    2.88    0.87
   1   3   6    3.94    1.15
  -1  -3  -6    3.72    1.00
   1   4   6   12.83    1.64
  -1  -4  -6   12.69    1.40
   1   5   6    3.01    1.24
  -1  -5  -6    2.84    1.01
  -1  -6  -6   22.40    1.82
   2 -12   6    1.65    1.36
  -2  12  -6    0.20    0.77
   2 -11   6    2.34    1.14
  -2  11  -6    0.26    0.70
   2 -10   6    5.26    1.16
  -2  10  -6    3.55    0.81
   2  -9   6   27.41    1.73
  -2   9  -6   27.29    1.35
   2  -8   6   19.73    1.56
  -2   8  -6   20.44    0.95
  -2   8  -6   18.37    1.15
   2  -7   6   19.16    1.41
  -2   7  -6   20.22    0.85
  -2   7  -6   18.75    1.08
   2  -6   6   13.53    1.25
  -2   6  -6   15.00    0.92
  -2   6  -6   16.16    0.85
   2  -5   6    0.60    0.61
  -2   5  -6    1.35    0.48
  -2   5  -6    1.67    0.46
   2  -4   6   19.01    1.33
  -2   4  -6   21.81    1.09
  -2   4  -6   20.59    0.80
   2  -3   6   73.31    2.39
  -2   3  -6   75.52    2.18
  -2   3  -6   73.66    1.50
   2  -2   6   20.98    1.35
  -2   2  -6   20.16    1.21
   2  -1   6   59.42    2.28
  -2   1  -6   60.57    2.07
   2   0   6    2.62    0.82
  -2   0  -6    1.58    0.68
   2   1   6    0.23    0.85
  -2  -1  -6    1.14    0.71
   2   2   6    1.21    0.95
  -2  -2  -6    0.25    0.78
   2   3   6    2.62    1.14
  -2  -3  -6    4.55    1.07
   2   4   6    9.12    1.61
  -2  -4  -6   11.35    1.36
   2   5   6    1.85    1.28
  -2  -5  -6    4.17    1.11
   2   6   6    0.77    1.40
   3 -13   6    5.15    1.56
  -3  13  -6   -0.06    0.91
   3 -12   6   15.61    1.91
  -3  12  -6    7.45    1.17
   3 -11   6    0.64    0.96
  -3  11  -6    0.01    0.65
   3 -10   6    0.89    0.96
  -3  10  -6    0.85    0.79
   3  -9   6    6.99    1.16
  -3   9  -6    5.59    0.87
   3  -8   6    3.51    0.92
  -3   8  -6    3.22    0.52
  -3   8  -6    3.80    0.75
   3  -7   6   15.86    1.43
  -3   7  -6   13.70    0.91
  -3   7  -6   13.51    0.99
   3  -6   6   56.07    2.16
  -3   6  -6   57.76    1.82
  -3   6  -6   58.18    1.67
   3  -5   6   27.45    1.52
  -3   5  -6   25.68    1.25
  -3   5  -6   28.02    1.06
   3  -4   6    2.79    0.74
  -3   4  -6    3.13    0.48
  -3   4  -6    2.77    0.65
   3  -3   6    8.65    1.00
  -3   3  -6    7.78    0.53
  -3   3  -6    7.80    0.93
   3  -2   6   19.19    1.43
  -3   2  -6   19.62    1.30
   3  -1   6   24.21    1.66
  -3   1  -6   24.94    1.45
   3   0   6   15.63    1.65
  -3   0  -6   16.28    1.31
   3   1   6   52.72    2.58
  -3  -1  -6   53.10    2.22
   3   2   6    0.10    0.91
  -3  -2  -6    0.53    0.79
   3   3   6    1.49    1.15
  -3  -3  -6    2.40    1.00
   3   4   6    2.86    1.30
  -3  -4  -6    5.55    1.16
   3   5   6    0.40    1.29
  -3  -5  -6    2.65    1.00
   4 -13   6    5.89    1.67
  -4  13  -6    0.78    0.90
   4 -12   6    2.09    1.35
  -4  12  -6    0.79    0.78
   4 -11   6    1.43    1.14
  -4  11  -6    0.82    0.73
   4 -10   6    0.85    0.97
  -4  10  -6    1.18    0.69
   4  -9   6   -0.39    0.84
  -4   9  -6   -0.07    0.61
   4  -8   6   27.86    1.44
   4  -8   6   29.62    1.83
  -4   8  -6   24.77    1.32
   4  -7   6    1.58    0.84
   4  -7   6    0.97    0.72
  -4   7  -6    0.55    0.58
   4  -6   6   16.96    1.33
   4  -6   6   17.45    1.48
  -4   6  -6   18.01    1.03
   4  -5   6    0.77    0.66
  -4   5  -6    1.33    0.50
   4  -4   6    7.50    0.98
  -4   4  -6    7.99    0.69
  -4   4  -6    7.04    0.94
   4  -3   6   -0.12    0.70
  -4   3  -6    0.45    0.36
  -4   3  -6   -0.35    0.57
   4  -2   6   11.98    1.26
  -4   2  -6   11.78    1.25
   4  -1   6    2.20    0.97
  -4   1  -6    3.63    0.91
   4   0   6    1.05    0.89
  -4   0  -6    1.19    0.84
   4   1   6    2.58    0.97
  -4  -1  -6    2.39    0.97
   4   2   6    0.58    1.00
  -4  -2  -6    1.17    0.95
   4   3   6    3.05    1.30
  -4  -3  -6    6.29    1.22
   4   4   6    0.02    1.11
  -4  -4  -6    1.57    1.05
   5 -13   6    2.44    1.56
  -5  13  -6    1.16    0.91
   5 -12   6    3.78    1.45
  -5  12  -6    1.43    0.88
   5 -11   6   20.43    2.10
  -5  11  -6   16.99    1.43
   5 -10   6    6.66    1.25
  -5  10  -6    4.53    0.89
   5  -9   6   -0.24    0.90
   5  -9   6   -0.16    0.77
  -5   9  -6    0.49    0.66
   5  -8   6    5.83    1.05
   5  -8   6    4.32    1.00
  -5   8  -6    4.91    0.83
   5  -7   6    3.16    0.97
   5  -7   6    2.55    0.92
  -5   7  -6    1.87    0.68
   5  -6   6   21.27    1.62
   5  -6   6   22.34    1.61
  -5   6  -6   22.87    1.19
   5  -5   6   23.97    1.66
   5  -5   6   23.22    1.58
  -5   5  -6   24.59    1.13
   5  -4   6   61.48    2.35
   5  -4   6   62.29    2.40
  -5   4  -6   58.21    1.63
   5  -3   6    0.19    0.82
  -5   3  -6   -0.73    0.64
  -5   3  -6    0.44    0.40
   5  -2   6   -0.87    0.81
  -5   2  -6   -0.34    0.63
   5  -1   6    7.66    1.25
  -5   1  -6    6.76    1.16
   5   0   6    3.50    1.06
  -5   0  -6    5.57    1.13
   5   1   6    3.45    1.17
  -5  -1  -6    4.81    1.11
   5   2   6    9.57    1.52
  -5  -2  -6   11.83    1.50
   5   3   6    3.46    1.28
  -5  -3  -6    3.31    1.16
   6 -12   6   -0.82    1.26
  -6  12  -6   -0.60    0.73
   6 -11   6    1.20    1.20
  -6  11  -6    0.97    0.76
   6 -10   6   -0.99    0.96
  -6  10  -6    0.28    0.70
   6  -9   6   13.19    1.42
   6  -9   6   14.92    1.47
  -6   9  -6   11.54    1.18
   6  -8   6    1.14    0.89
   6  -8   6    2.78    1.01
  -6   8  -6    0.87    0.68
   6  -7   6    6.59    1.21
   6  -7   6    6.94    1.09
  -6   7  -6    6.40    0.88
   6  -6   6   -0.52    0.75
   6  -6   6    0.78    0.91
  -6   6  -6   -0.09    0.58
   6  -5   6   -0.01    0.80
   6  -5   6   -0.29    0.89
  -6   5  -6    0.00    0.55
   6  -4   6    1.12    0.96
   6  -4   6    2.57    0.89
  -6   4  -6    1.58    0.53
   6  -3   6    8.85    1.19
  -6   3  -6    8.30    1.23
   6  -2   6   25.07    1.93
  -6   2  -6   22.24    1.63
   6  -1   6    2.03    0.96
  -6   1  -6    1.54    0.93
   6   0   6    1.19    1.01
  -6   0  -6    1.73    0.96
   6   1   6    1.07    1.07
  -6  -1  -6    0.72    0.98
   6   2   6    0.93    1.15
  -6  -2  -6    3.81    1.21
   7 -12   6   -1.34    1.20
  -7  12  -6    0.00    0.84
   7 -11   6    6.29    1.38
  -7  11  -6    2.32    0.89
   7 -10   6    6.78    1.23
   7 -10   6    7.07    1.32
  -7  10  -6    5.28    1.02
   7  -9   6   11.02    1.38
   7  -9   6   10.19    1.41
  -7   9  -6   10.03    1.19
   7  -8   6   -0.97    0.81
   7  -8   6    0.19    0.96
  -7   8  -6    0.90    0.72
   7  -7   6    0.99    1.04
   7  -7   6    0.34    0.86
  -7   7  -6   -0.03    0.61
   7  -6   6    0.61    1.00
   7  -6   6    1.13    0.88
  -7   6  -6    2.63    0.74
   7  -5   6   10.33    1.47
   7  -5   6   10.61    1.23
  -7   5  -6    9.57    0.95
   7  -4   6    5.13    1.08
   7  -4   6    4.21    1.17
   7  -3   6   16.52    1.77
   7  -2   6    0.51    0.91
  -7   2  -6    1.48    0.90
   7  -1   6   -0.51    0.90
  -7   1  -6    1.07    0.90
   7   0   6    0.20    1.04
  -7   0  -6    0.48    0.95
   7   1   6    1.75    1.24
  -7  -1  -6    1.47    1.09
  -8  12  -6   -0.38    0.85
  -8  11  -6    0.84    0.82
   8 -10   6    0.66    1.10
  -8  10  -6   -1.03    0.67
   8  -9   6    1.22    1.15
  -8   9  -6   -0.24    0.75
   8  -8   6   10.22    1.29
   8  -8   6   10.23    1.54
  -8   8  -6    8.98    1.11
   8  -7   6   11.28    1.32
   8  -7   6   12.93    1.66
  -8   7  -6   13.71    1.25
   8  -6   6    1.55    0.90
   8  -6   6    1.41    1.13
  -8   6  -6    3.10    0.81
   8  -5   6   -0.11    0.84
   8  -5   6   -0.60    1.04
   8  -4   6    2.39    1.20
   8  -4   6    1.92    0.98
   8  -3   6    1.39    0.93
   8  -2   6    2.11    1.08
  -8   2  -6    0.68    0.89
   8  -1   6   11.95    1.55
  -8   1  -6    9.69    1.44
   8   0   6    3.40    1.36
  -8   0  -6    3.01    1.21
  -9  11  -6    0.36    0.83
   9 -10   6    3.00    1.30
  -9  10  -6    3.09    0.97
   9  -9   6    1.03    1.23
  -9   9  -6    1.19    0.85
   9  -8   6    2.84    1.26
  -9   8  -6    2.83    0.88
   9  -7   6   -1.34    1.05
  -9   7  -6   -0.59    0.74
   9  -6   6    1.60    1.20
   9  -5   6    1.31    1.22
   9  -4   6    1.77    1.25
   9  -3   6    2.19    1.32
  -9   3  -6    2.80    1.23
   9  -2   6    0.64    0.99
  -9   2  -6   -0.19    0.94
  10  -9   6    0.14    1.22
 -10   9  -6    0.29    0.82
  10  -8   6   -0.19    1.26
 -10   8  -6    1.35    0.82
  10  -7   6    0.74    1.35
  10  -6   6    7.21    1.65
  10  -5   6    1.29    1.24
  10  -4   6   -0.72    1.30
  12   0  -7    2.42    1.46
 -12   1   7    2.76    1.05
  12  -1  -7    1.38    1.35
 -12   2   7   12.77    1.43
  12  -2  -7   12.59    1.89
 -12   3   7    3.16    1.03
  12  -3  -7    1.66    1.41
 -11  -2   7    1.23    0.91
  11   2  -7    0.33    1.21
 -11  -1   7    3.17    0.97
  11   1  -7    1.71    1.30
 -11   0   7    9.51    1.27
  11   0  -7   11.28    1.70
 -11   1   7   17.66    1.49
  11  -1  -7   15.87    1.89
 -11   2   7    9.45    1.25
  11  -2  -7    9.13    1.63
 -11   3   7    3.66    0.99
  11  -3  -7    1.96    1.27
 -11   4   7    1.43    0.91
  11  -4  -7   -0.06    1.20
 -11   5   7    0.68    0.91
  11  -5  -7    0.01    1.25
 -10  -3   7   25.19    1.74
  10   3  -7   25.14    2.01
 -10  -2   7    6.29    1.10
  10   2  -7    5.70    1.36
 -10  -1   7    1.62    0.83
  10   1  -7    1.82    1.17
 -10   0   7    3.48    0.92
  10   0  -7    2.27    1.17
 -10   1   7    6.31    1.02
  10  -1  -7    4.42    1.28
 -10   2   7    9.92    1.22
  10  -2  -7   10.60    1.61
 -10   3   7   38.41    1.94
  10  -3  -7   38.36    2.33
 -10   4   7   17.24    1.47
  10  -4  -7   17.94    2.01
 -10   5   7    3.75    1.04
  10  -5  -7    4.16    1.58
 -10   6   7    1.31    0.99
  10  -6  -7    0.60    1.45
   9   6  -7    6.73    1.63
   9   5  -7    5.15    1.44
   9   4  -7    9.32    1.56
   9   3  -7    6.71    1.28
  -9  -2   7    6.90    1.04
   9   2  -7    8.19    1.30
  -9  -1   7    9.57    1.14
   9   1  -7    9.60    1.36
  -9   0   7    7.18    1.02
   9   0  -7    6.79    1.28
  -9   1   7   10.95    1.16
   9  -1  -7   12.75    1.52
  -9   2   7    2.40    0.75
   9  -2  -7    3.29    1.15
  -9   3   7   10.34    1.15
   9  -3  -7   13.30    1.66
  -9   4   7    2.84    0.85
   9  -4  -7    2.18    1.24
  -9   5   7   18.04    1.49
   9  -5  -7   19.03    2.00
  -9   6   7    5.94    1.12
   9  -6  -7    1.08    1.40
  -9   7   7    8.08    1.30
   9  -7  -7    6.75    1.69
  -8  -7   7    4.01    1.12
   8   7  -7    1.98    1.35
  -8  -6   7    1.94    0.92
   8   6  -7    1.28    1.14
  -8  -5   7    5.02    1.02
   8   5  -7    2.32    1.19
   8   4  -7    4.84    1.16
   8   4  -7    4.69    1.13
   8   3  -7   12.41    1.47
   8   3  -7   14.66    1.46
  -8  -2   7   83.99    2.63
   8   2  -7   86.80    2.80
  -8  -1   7   32.36    1.54
   8   1  -7   31.22    1.79
  -8   0   7    7.80    0.95
   8   0  -7    9.30    1.22
  -8   1   7    6.04    0.88
   8  -1  -7    5.93    1.19
  -8   2   7    0.20    0.56
   8  -2  -7    0.05    0.92
  -8   3   7   14.81    1.20
   8  -3  -7   15.70    1.66
  -8   4   7   29.16    1.55
   8  -4  -7   30.21    2.17
  -8   5   7   39.69    1.81
   8  -5  -7   38.23    2.40
  -8   6   7    6.93    1.09
   8  -6  -7    3.16    1.42
  -8   7   7    1.32    0.89
   8  -7  -7    0.61    1.47
   7   8  -7    0.22    1.12
  -7  -7   7    7.10    1.30
   7   7  -7    6.32    1.40
  -7  -6   7    9.96    1.30
   7   6  -7    9.60    1.46
  -7  -5   7   10.45    1.22
   7   5  -7   11.29    1.43
  -7  -4   7    8.41    1.08
   7   4  -7   11.90    1.25
   7   4  -7    6.54    1.20
  -7  -3   7    0.41    0.64
   7   3  -7    0.45    0.85
   7   3  -7   -0.49    0.81
  -7  -2   7    2.53    0.67
   7   2  -7    4.35    1.01
  -7  -1   7    1.38    0.57
  -7  -1   7    1.90    0.62
   7   1  -7    2.82    0.91
  -7   0   7   92.46    2.56
   7   0  -7   90.16    2.85
  -7   1   7   32.90    1.50
   7  -1  -7   35.43    1.92
  -7   2   7   29.10    1.39
   7  -2  -7   27.98    1.83
  -7   3   7    1.56    0.60
   7  -3  -7    3.33    1.11
  -7   4   7    0.42    0.58
   7  -4  -7    0.08    1.06
  -7   5   7    2.19    0.74
   7  -5  -7    0.73    1.10
  -7   6   7   20.97    1.46
   7  -6  -7   21.14    2.08
  -7   7   7   17.23    1.50
   7  -7  -7   16.07    2.00
  -6  -9   7    5.30    1.31
   6   9  -7    2.05    1.19
  -6  -8   7    3.91    1.20
   6   8  -7    3.46    1.15
  -6  -7   7   36.13    2.27
   6   7  -7   36.25    2.11
  -6  -6   7    7.09    1.16
   6   6  -7    6.98    1.23
  -6  -5   7    6.85    1.10
   6   5  -7    8.18    1.21
   6   5  -7    8.58    1.07
  -6  -4   7    8.19    1.05
   6   4  -7    8.73    1.08
   6   4  -7    7.91    1.13
  -6  -3   7    0.46    0.67
   6   3  -7   -0.26    0.67
   6   3  -7    0.15    0.73
  -6  -2   7   14.24    1.22
   6   2  -7   15.48    1.33
   6   2  -7   14.30    1.29
  -6  -1   7   52.51    1.74
  -6  -1   7   50.92    1.77
   6   1  -7   48.19    1.95
  -6   0   7   51.82    1.74
  -6   0   7   50.86    1.79
   6   0  -7   51.62    2.17
  -6   1   7   12.49    0.97
  -6   1   7   10.52    0.91
   6  -1  -7   11.13    1.33
  -6   2   7   13.04    0.97
  -6   2   7   12.72    1.03
   6  -2  -7   14.82    1.48
  -6   3   7    0.28    0.49
  -6   3   7    0.18    0.48
   6  -3  -7   -0.03    0.91
  -6   4   7   14.37    1.09
  -6   4   7   18.91    1.30
   6  -4  -7   16.92    1.73
  -6   5   7    4.12    0.81
  -6   5   7    4.53    0.92
   6  -5  -7    2.16    1.19
  -6   6   7   16.26    2.41
  -6   6   7   16.92    1.28
   6  -6  -7   14.12    1.87
   6  -7  -7    1.10    1.37
  -5  -9   7    2.52    1.14
   5   9  -7    0.99    0.95
  -5  -8   7    2.76    1.07
   5   8  -7    1.01    0.89
  -5  -7   7    1.60    0.93
   5   7  -7    1.14    0.80
  -5  -6   7    3.53    0.95
   5   6  -7    2.12    0.89
  -5  -5   7   80.63    2.82
   5   5  -7   80.28    2.60
   5   5  -7   81.37    2.30
  -5  -4   7   28.69    1.65
   5   4  -7   27.07    1.54
   5   4  -7   27.43    1.35
  -5  -3   7   38.62    1.73
   5   3  -7   36.44    1.67
   5   3  -7   36.16    1.56
  -5  -2   7   46.67    1.77
   5   2  -7   45.00    1.80
   5   2  -7   44.99    1.76
  -5  -1   7    0.77    0.51
  -5  -1   7    0.89    0.44
   5   1  -7    0.51    0.72
  -5   0   7    0.99    0.44
  -5   0   7    0.29    0.53
   5   0  -7    0.25    0.73
  -5   1   7  105.89    2.48
  -5   1   7  101.14    2.83
   5  -1  -7  100.79    3.03
  -5   2   7   75.08    2.01
  -5   2   7   75.49    2.41
   5  -2  -7   78.26    2.67
  -5   3   7   42.29    1.44
  -5   3   7   40.71    1.83
   5  -3  -7   41.58    2.11
  -5   4   7    0.12    0.65
  -5   4   7    0.23    0.48
   5  -4  -7    0.05    0.97
  -5   5   7    4.73    0.78
  -5   5   7    3.89    1.02
   5  -5  -7    4.17    1.27
  -5   6   7    1.31    0.96
   5  -6  -7    2.16    1.26
  -5   7   7    4.40    1.30
   5  -7  -7    2.37    1.46
  -4 -10   7    3.30    1.24
   4  10  -7    0.43    0.93
  -4  -9   7    1.32    0.99
   4   9  -7   -0.24    0.77
  -4  -8   7    5.76    1.20
   4   8  -7    8.32    1.18
  -4  -7   7    0.64    0.85
   4   7  -7    0.74    0.75
  -4  -6   7   10.86    1.26
   4   6  -7    8.97    1.09
  -4  -5   7    5.87    1.00
   4   5  -7    7.28    0.97
   4   5  -7    5.60    0.75
  -4  -4   7    5.62    0.94
   4   4  -7    4.88    0.84
   4   4  -7    5.22    0.78
  -4  -3   7   19.56    1.31
   4   3  -7   19.18    1.18
   4   3  -7   18.44    1.18
  -4  -2   7    8.61    0.92
   4   2  -7   11.64    1.01
   4   2  -7    8.84    0.98
  -4  -1   7   30.02    1.42
  -4  -1   7   30.83    1.14
   4   1  -7   28.73    1.47
  -4   0   7    0.58    0.55
  -4   0   7    0.36    0.33
   4   0  -7    1.23    0.75
  -4   1   7   11.86    1.08
  -4   1   7   12.00    0.71
   4  -1  -7   12.86    1.29
  -4   2   7    3.26    0.79
  -4   2   7    1.30    0.42
   4  -2  -7    1.48    0.91
  -4   3   7   29.25    1.71
  -4   3   7   31.85    1.16
   4  -3  -7   28.91    1.91
  -4   4   7    9.27    1.19
  -4   4   7    9.69    0.85
   4  -4  -7    9.47    1.41
  -4   5   7   24.49    1.99
   4  -5  -7   26.15    2.08
  -4   6   7    3.29    1.18
   4  -6  -7    1.56    1.29
  -4   7   7    1.00    1.24
   4  -7  -7    0.69    1.31
  -3 -11   7    3.66    1.35
   3  11  -7    2.74    1.04
  -3 -10   7   21.93    2.10
   3  10  -7   16.50    1.50
  -3  -9   7    4.73    1.16
   3   9  -7    2.81    0.83
  -3  -8   7    3.10    1.05
   3   8  -7    3.52    0.85
  -3  -7   7   18.53    1.67
   3   7  -7   18.71    1.32
  -3  -6   7   -0.11    0.70
   3   6  -7    1.20    0.65
   3   6  -7    0.43    0.52
  -3  -5   7    1.91    0.76
   3   5  -7    2.26    0.70
   3   5  -7    1.79    0.58
  -3  -4   7  126.88    3.50
   3   4  -7  125.26    2.99
   3   4  -7  128.72    3.00
  -3  -3   7   50.77    1.90
   3   3  -7   52.61    1.63
   3   3  -7   51.08    1.67
  -3  -2   7   61.62    2.13
   3   2  -7   66.52    2.00
   3   2  -7   60.88    1.75
  -3  -1   7    9.53    0.61
  -3  -1   7    9.33    1.05
   3   1  -7   10.08    1.04
  -3   0   7   13.93    1.20
  -3   0   7   14.23    0.69
   3   0  -7   14.20    1.20
  -3   1   7    0.96    0.63
  -3   1   7    1.19    0.33
   3  -1  -7    0.05    0.71
  -3   2   7   10.69    0.66
  -3   2   7   10.71    1.20
   3  -2  -7   10.53    1.26
  -3   3   7   63.36    2.60
  -3   3   7   66.99    1.65
   3  -3  -7   65.38    2.58
  -3   4   7   15.94    1.65
   3  -4  -7   10.06    1.43
  -3   5   7    8.99    1.44
   3  -5  -7    8.37    1.48
  -3   6   7    1.46    1.16
   3  -6  -7    0.76    1.19
  -3   7   7    2.86    1.44
   3  -7  -7    0.24    1.24
  -2 -11   7    0.50    1.11
   2  11  -7    0.72    0.84
  -2 -10   7    0.10    0.93
   2  10  -7    0.74    0.73
  -2  -9   7    4.23    1.14
   2   9  -7    4.47    0.87
  -2  -8   7   10.40    1.29
   2   8  -7   11.03    1.07
  -2  -7   7   19.04    1.51
   2   7  -7   18.56    1.21
  -2  -6   7   17.53    1.47
   2   6  -7   16.74    1.12
   2   6  -7   16.91    0.89
  -2  -5   7    8.62    1.04
   2   5  -7    8.59    0.78
   2   5  -7    8.15    0.85
  -2  -4   7    1.06    0.62
   2   4  -7    2.62    0.59
   2   4  -7    2.28    0.58
  -2  -3   7   12.97    1.15
   2   3  -7   13.12    0.82
   2   3  -7   10.92    0.87
  -2  -2   7   77.80    2.43
   2   2  -7   76.85    2.18
   2   2  -7   77.29    1.84
  -2  -1   7   32.19    1.61
  -2  -1   7   33.70    0.96
   2   1  -7   33.84    1.48
  -2   0   7   86.01    2.72
  -2   0   7   88.03    1.75
   2   0  -7   86.68    2.58
  -2   1   7    2.09    0.78
  -2   1   7    1.72    0.29
   2  -1  -7    0.91    0.70
  -2   2   7    0.46    0.32
  -2   2   7   -0.51    0.76
   2  -2  -7    0.67    0.79
  -2   3   7   10.12    1.35
   2  -3  -7   10.03    1.31
  -2   4   7    4.32    1.12
   2  -4  -7    5.64    1.23
  -2   5   7   15.37    1.83
   2  -5  -7   19.19    1.87
  -2   6   7   11.45    1.80
   2  -6  -7   13.59    1.64
  -2   7   7    3.18    1.56
   2  -7  -7    3.91    1.39
  -1 -12   7    3.07    1.36
   1  12  -7    2.18    0.94
  -1 -11   7    1.33    1.14
   1  11  -7    0.46    0.75
  -1 -10   7    0.48    0.96
   1  10  -7   -0.23    0.67
  -1  -9   7   29.31    1.99
   1   9  -7   29.71    1.52
  -1  -8   7    4.79    0.99
   1   8  -7    5.84    0.81
  -1  -7   7   15.69    1.47
   1   7  -7   16.32    1.10
  -1  -6   7    5.57    0.94
   1   6  -7    5.52    0.74
   1   6  -7    6.39    0.64
  -1  -5   7    0.29    0.66
   1   5  -7   -0.01    0.40
   1   5  -7    0.08    0.42
  -1  -4   7    0.45    0.58
   1   4  -7    0.02    0.37
   1   4  -7    0.29    0.41
  -1  -3   7   12.21    1.16
   1   3  -7   13.95    0.90
   1   3  -7   13.21    0.72
  -1  -2   7   28.99    1.47
   1   2  -7   26.91    1.24
   1   2  -7   27.46    0.88
  -1  -1   7    8.04    0.97
   1   1  -7    9.84    0.93
  -1   0   7   20.75    1.48
   1   0  -7   20.52    1.26
  -1   1   7    3.05    0.92
   1  -1  -7    2.53    0.81
  -1   2   7   11.07    1.36
   1  -2  -7   11.75    1.29
  -1   3   7    0.60    0.91
   1  -3  -7    1.03    0.91
  -1   4   7   11.28    1.54
   1  -4  -7   16.48    1.62
  -1   5   7   -1.27    1.02
   1  -5  -7    0.78    1.00
  -1   6   7    4.52    1.50
   1  -6  -7    4.74    1.32
   0 -12   7   10.16    1.76
   0  12  -7    5.68    1.13
   0 -11   7    4.17    1.22
   0  11  -7    1.22    0.78
   0 -10   7    3.12    1.08
   0  10  -7    2.86    0.79
   0  -9   7    1.69    0.88
   0   9  -7    1.99    0.70
   0  -8   7    2.18    0.83
   0   8  -7    1.83    0.65
   0  -7   7   54.75    2.23
   0   7  -7   55.26    1.40
   0   7  -7   54.56    1.76
   0  -6   7   36.04    1.78
   0   6  -7   35.60    1.34
   0   6  -7   36.60    1.17
   0  -5   7   84.04    2.69
   0   5  -7   82.52    2.02
   0   5  -7   82.13    2.08
   0  -4   7   16.97    1.30
   0   4  -7   17.20    0.78
   0   4  -7   18.71    0.96
   0  -3   7    6.19    0.90
   0   3  -7    4.80    0.71
   0   3  -7    5.21    0.48
   0  -2   7   32.90    1.65
   0   2  -7   31.62    1.41
   0  -1   7   26.37    1.61
   0   1  -7   26.76    1.36
   0   0   7   38.21    1.89
   0   0  -7   38.03    1.68
   0   1   7   63.46    2.66
   0  -1  -7   64.85    2.31
   0   2   7    2.55    1.00
   0  -2  -7    1.94    0.84
   0   3   7    1.78    1.05
   0  -3  -7    2.58    0.98
   0   4   7   -0.15    0.99
   0  -4  -7    0.47    0.96
   0   5   7    1.30    1.29
   0  -5  -7    1.15    1.01
   0   6   7    7.44    1.87
   0  -6  -7    8.42    1.41
   1 -12   7    4.79    1.47
  -1  12  -7    1.04    0.83
   1 -11   7    1.30    1.07
  -1  11  -7   -0.44    0.69
   1 -10   7    7.41    1.21
  -1  10  -7    6.38    0.98
   1  -9   7    1.49    0.84
  -1   9  -7    0.53    0.61
   1  -8   7    5.72    1.00
  -1   8  -7    5.59    0.81
   1  -7   7    1.62    0.81
  -1   7  -7    1.19    0.39
  -1   7  -7    1.02    0.57
   1  -6   7   -0.24    0.68
  -1   6  -7    0.64    0.46
  -1   6  -7   -0.05    0.37
   1  -5   7   15.66    1.41
  -1   5  -7   15.52    0.85
  -1   5  -7   15.22    0.89
   1  -4   7   13.05    1.26
  -1   4  -7   10.96    0.87
  -1   4  -7   10.81    0.64
   1  -3   7   52.04    2.02
  -1   3  -7   53.46    1.81
   1  -2   7   -0.42    0.56
  -1   2  -7   -0.11    0.51
   1  -1   7    3.68    0.87
  -1   1  -7    5.08    0.83
   1   0   7   10.98    1.27
  -1   0  -7   11.87    1.24
   1   1   7    7.25    1.25
  -1  -1  -7    7.15    1.11
   1   2   7    2.44    1.01
  -1  -2  -7    3.72    1.00
   1   3   7   21.24    2.07
  -1  -3  -7   26.69    1.76
   1   4   7    3.01    1.18
  -1  -4  -7    3.67    1.14
   1   5   7   -1.92    1.19
  -1  -5  -7    3.87    1.14
   2 -12   7   16.73    2.03
  -2  12  -7    8.46    1.17
   2 -11   7   10.06    1.58
  -2  11  -7    5.61    0.96
   2 -10   7   17.12    1.72
  -2  10  -7   16.54    1.31
   2  -9   7    4.67    1.05
  -2   9  -7    3.39    0.75
   2  -8   7   -0.14    0.79
  -2   8  -7   -0.06    0.52
  -2   8  -7    0.54    0.37
   2  -7   7   12.08    1.27
  -2   7  -7   11.53    0.93
  -2   7  -7   12.18    0.84
   2  -6   7   46.31    2.02
  -2   6  -7   47.23    1.46
  -2   6  -7   45.86    1.56
   2  -5   7   35.93    1.80
  -2   5  -7   34.43    1.40
  -2   5  -7   34.39    1.16
   2  -4   7   65.10    2.36
  -2   4  -7   64.32    1.51
  -2   4  -7   63.52    2.04
   2  -3   7    0.70    0.67
  -2   3  -7    1.06    0.62
   2  -2   7    1.41    0.76
  -2   2  -7    1.47    0.68
   2  -1   7    0.87    0.78
  -2   1  -7    1.11    0.68
   2   0   7    1.26    0.95
  -2   0  -7    1.05    0.75
   2   1   7   20.85    1.83
  -2  -1  -7   20.36    1.55
   2   2   7    5.44    1.26
  -2  -2  -7    5.63    1.18
   2   3   7    6.18    1.40
  -2  -3  -7   11.33    1.45
   2   4   7    0.39    1.16
  -2  -4  -7    2.00    1.02
   2   5   7    1.23    1.39
  -2  -5  -7    3.99    1.19
   3 -13   7    3.90    1.66
  -3  13  -7    0.86    0.86
   3 -12   7    1.81    1.41
  -3  12  -7    0.12    0.78
   3 -11   7    0.74    1.17
  -3  11  -7   -0.21    0.65
   3 -10   7    3.91    1.13
  -3  10  -7    2.92    0.76
   3  -9   7   16.84    1.80
  -3   9  -7   16.91    1.37
   3  -8   7   36.22    2.01
  -3   8  -7   36.06    1.52
  -3   8  -7   36.79    1.41
   3  -7   7   -0.01    0.80
  -3   7  -7   -0.08    0.48
  -3   7  -7    0.56    0.57
   3  -6   7   -0.19    0.74
  -3   6  -7   -0.28    0.51
  -3   6  -7   -0.30    0.47
   3  -5   7   20.35    1.55
  -3   5  -7   20.32    0.95
  -3   5  -7   20.39    1.25
   3  -4   7   18.82    1.52
  -3   4  -7   19.55    1.26
  -3   4  -7   18.83    0.79
   3  -3   7   14.84    1.42
  -3   3  -7   17.14    1.27
   3  -2   7   75.32    2.80
  -3   2  -7   75.44    2.57
   3  -1   7    3.13    1.01
  -3   1  -7    5.75    1.06
   3   0   7    0.47    0.95
  -3   0  -7    1.27    0.83
   3   1   7    2.78    1.07
  -3  -1  -7    1.52    0.88
   3   2   7   -0.38    0.97
  -3  -2  -7   -0.40    0.90
   3   3   7    2.75    1.25
  -3  -3  -7    5.97    1.27
   3   4   7    4.06    1.50
  -3  -4  -7    9.49    1.48
   4 -13   7    0.53    1.54
  -4  13  -7    0.33    0.85
   4 -12   7   -0.01    1.36
  -4  12  -7   -0.58    0.66
   4 -11   7    9.89    1.65
  -4  11  -7    9.13    1.30
   4 -10   7    3.52    1.18
  -4  10  -7    3.73    0.85
   4  -9   7   13.92    1.55
  -4   9  -7   11.01    1.11
  -4   9  -7   15.65    1.04
   4  -8   7   -0.11    0.87
  -4   8  -7    0.98    0.54
  -4   8  -7   -0.59    0.54
   4  -7   7    2.25    0.98
  -4   7  -7    2.55    0.67
  -4   7  -7    3.07    0.71
   4  -6   7   -0.25    0.79
  -4   6  -7    0.90    0.55
  -4   6  -7    0.90    0.63
   4  -5   7    6.66    1.08
  -4   5  -7    7.03    0.71
  -4   5  -7    6.19    0.94
   4  -4   7   13.67    1.48
  -4   4  -7   10.09    1.16
  -4   4  -7   12.28    0.74
   4  -3   7    2.80    0.92
  -4   3  -7    2.46    0.86
   4  -2   7    9.15    1.18
  -4   2  -7    9.21    1.20
   4  -1   7    0.50    0.89
  -4   1  -7    0.16    0.79
   4   0   7    9.28    1.35
  -4   0  -7   11.04    1.40
   4   1   7    1.71    1.05
  -4  -1  -7    0.36    0.97
   4   2   7    5.28    1.40
  -4  -2  -7    9.22    1.42
   4   3   7    1.73    1.21
  -4  -3  -7    2.27    1.16
   5 -12   7   -1.31    1.25
  -5  12  -7   -0.34    0.71
   5 -11   7   -0.88    1.21
  -5  11  -7   -0.03    0.70
   5 -10   7    1.78    1.13
  -5  10  -7    1.55    0.75
   5  -9   7    8.15    1.31
  -5   9  -7    5.25    0.89
  -5   9  -7    8.01    1.00
   5  -8   7   11.42    1.46
  -5   8  -7   10.36    1.05
   5  -7   7   50.29    2.29
  -5   7  -7   46.17    1.72
   5  -6   7    2.33    0.96
  -5   6  -7    1.35    0.58
  -5   6  -7    1.79    0.78
   5  -5   7    1.48    0.86
  -5   5  -7    1.23    0.76
  -5   5  -7    1.03    0.51
   5  -4   7    7.85    1.17
  -5   4  -7    7.62    1.10
   5  -3   7    1.43    0.92
  -5   3  -7    1.59    0.80
   5  -2   7    7.17    1.28
  -5   2  -7    8.80    1.26
   5  -1   7   25.07    1.97
   5   0   7    6.83    1.29
  -5   0  -7    7.18    1.26
   5   1   7    0.33    1.04
  -5  -1  -7    1.00    1.02
   5   2   7    0.58    1.06
  -5  -2  -7    1.81    1.10
   6 -12   7    2.11    1.46
  -6  12  -7    2.12    0.89
   6 -11   7    0.84    1.31
  -6  11  -7   -0.11    0.70
   6 -10   7    2.10    1.18
  -6  10  -7    2.09    0.81
   6  -9   7    0.75    1.00
   6  -9   7    0.96    1.03
  -6   9  -7    0.17    0.67
   6  -8   7    0.63    0.92
   6  -8   7   -0.58    0.90
  -6   8  -7    0.18    0.65
   6  -7   7    0.72    0.99
   6  -7   7    1.48    0.99
  -6   7  -7    1.37    0.66
   6  -6   7    3.44    1.05
  -6   6  -7    2.70    0.67
   6  -5   7   21.70    1.83
  -6   5  -7   19.23    1.55
   6  -4   7    3.28    1.04
  -6   4  -7    3.40    0.96
   6  -3   7    8.54    1.32
  -6   3  -7    4.51    1.08
   6  -2   7    2.24    1.13
  -6   2  -7    1.63    0.96
   6  -1   7    0.13    0.94
  -6   1  -7    2.45    1.07
   6   0   7   -0.71    0.96
  -6   0  -7    1.21    1.03
   6   1   7    5.16    1.35
  -6  -1  -7    7.01    1.43
   7 -12   7    3.77    1.48
  -7  12  -7    2.31    0.95
   7 -11   7   -1.86    1.16
  -7  11  -7    0.29    0.72
   7 -10   7   -0.62    1.09
   7 -10   7   -0.11    1.00
  -7  10  -7    0.01    0.73
   7  -9   7    2.74    1.18
   7  -9   7    0.98    1.09
  -7   9  -7    1.05    0.72
   7  -8   7    2.74    1.14
   7  -8   7    1.35    1.01
  -7   8  -7    2.46    0.78
   7  -7   7    1.87    1.10
   7  -7   7    3.51    1.11
  -7   7  -7    3.89    0.82
   7  -6   7   11.29    1.60
   7  -6   7   15.04    1.53
   7  -5   7    2.23    1.06
   7  -4   7    0.48    0.99
  -7   4  -7    1.19    0.89
   7  -3   7   -0.51    1.01
  -7   3  -7   -0.30    0.79
   7  -2   7    0.76    0.96
  -7   2  -7    0.81    0.96
   7  -1   7    4.83    1.21
  -7   1  -7    3.07    1.21
   7   0   7    1.94    1.16
  -7   0  -7    1.16    1.09
  -8  11  -7    0.93    0.84
   8 -10   7    5.43    1.42
  -8  10  -7    4.97    0.98
   8  -9   7    1.35    1.24
   8  -9   7    0.76    1.19
  -8   9  -7    1.13    0.81
   8  -8   7   -0.15    0.95
   8  -8   7    1.02    1.23
  -8   8  -7    1.26    0.76
   8  -7   7   -0.09    1.12
   8  -7   7    1.83    1.06
   8  -6   7    0.79    1.14
   8  -6   7   -0.72    0.88
   8  -5   7    0.72    1.04
   8  -4   7    9.89    1.44
  -8   4  -7    9.59    1.44
   8  -3   7    2.60    1.09
  -8   3  -7    3.73    1.10
   8  -2   7    1.99    1.15
  -8   2  -7    4.40    1.25
   8  -1   7    0.06    1.04
  -8   1  -7    2.50    1.23
   9 -10   7   -0.02    1.31
  -9  10  -7    0.59    0.81
   9  -9   7    0.32    1.27
  -9   9  -7   -0.20    0.77
   9  -8   7   -0.54    1.23
   9  -7   7    1.52    1.33
   9  -6   7   -0.94    1.17
   9  -4   7    2.10    1.88
  -9   4  -7   -0.41    0.97
   9  -3   7    1.70    1.18
  -9   3  -7    0.80    0.97
  10  -8   7    1.30    1.45
  10  -7   7    0.75    1.39
  10  -6   7   -0.16    1.38
 -11  -2   8   13.31    1.53
  11   2  -8   10.53    1.66
 -11  -1   8   12.21    1.43
  11   1  -8    7.98    1.59
 -11   0   8    2.50    0.93
  11   0  -8    2.20    1.37
 -11   1   8    1.01    0.81
  11  -1  -8    0.64    1.27
 -11   2   8    0.84    0.80
  11  -2  -8   -0.04    1.31
 -11   3   8    7.77    1.17
  11  -3  -8    4.56    1.59
 -11   4   8    8.08    1.29
  11  -4  -8    3.70    1.50
 -10  -4   8    3.55    1.12
 -10  -3   8    2.76    0.96
  10   3  -8    2.66    1.24
 -10  -2   8    1.21    0.82
  10   2  -8   -1.06    1.03
 -10  -1   8    4.76    0.97
  10   1  -8    2.34    1.25
 -10   0   8   24.53    1.56
  10   0  -8   23.66    2.05
 -10   1   8   29.93    1.77
  10  -1  -8   28.51    2.15
 -10   2   8    7.37    1.10
  10  -2  -8    6.06    1.50
 -10   3   8   -0.04    0.71
  10  -3  -8    0.47    1.22
 -10   4   8    3.65    0.99
  10  -4  -8    1.40    1.38
 -10   5   8    3.97    1.04
  10  -5  -8    2.59    1.43
   9   5  -8    0.41    1.19
   9   4  -8    2.75    1.23
  -9  -3   8    1.24    0.81
   9   3  -8    0.28    0.99
  -9  -2   8    6.86    1.06
   9   2  -8    7.60    1.34
  -9  -1   8    3.14    0.87
   9   1  -8    1.57    1.13
  -9   0   8   14.61    1.26
   9   0  -8   14.68    1.66
  -9   1   8    1.41    0.72
   9  -1  -8    1.50    1.13
  -9   2   8    8.44    1.10
   9  -2  -8   10.28    1.54
  -9   3   8    4.98    0.98
   9  -3  -8    2.35    1.33
  -9   4   8    6.77    1.08
   9  -4  -8    8.57    1.66
  -9   5   8    3.48    0.94
   9  -5  -8    1.29    1.48
  -9   6   8    1.77    0.95
   9  -6  -8   -1.92    1.39
  -8  -7   8    1.45    1.12
   8   7  -8   -0.62    1.08
  -8  -6   8    3.00    1.20
   8   6  -8    1.43    1.15
   8   5  -8   25.62    2.03
   8   4  -8   13.24    1.55
   8   4  -8   16.40    1.52
   8   3  -8    6.38    1.19
   8   3  -8    6.63    1.20
  -8  -2   8    1.55    0.66
   8   2  -8    0.25    0.97
  -8  -1   8    6.48    0.91
   8   1  -8    9.53    1.31
  -8   0   8    2.01    0.70
   8   0  -8    1.78    1.00
  -8   1   8   17.30    1.28
   8  -1  -8   17.68    1.72
  -8   2   8   51.57    1.92
   8  -2  -8   51.03    2.50
  -8   3   8   10.10    1.07
   8  -3  -8   11.81    1.73
  -8   4   8    4.80    0.90
   8  -4  -8    2.90    1.39
  -8   5   8    2.80    0.84
   8  -5  -8   -0.84    1.33
  -8   6   8    1.16    0.89
   8  -6  -8    0.85    1.46
  -7  -8   8    3.14    1.20
   7   8  -8    0.84    1.16
  -7  -7   8    3.37    1.10
   7   7  -8    2.43    1.12
  -7  -6   8    0.19    0.93
   7   6  -8   -0.05    0.82
  -7  -5   8    2.13    0.94
   7   5  -8    1.86    0.98
  -7  -4   8   -0.66    0.74
   7   4  -8    0.14    0.81
   7   4  -8   -0.64    0.79
  -7  -3   8   25.08    1.54
   7   3  -8   24.04    1.73
   7   3  -8   24.50    1.67
  -7  -2   8   11.04    1.12
  -7  -2   8    9.57    0.99
   7   2  -8   10.58    1.26
  -7  -1   8   17.16    1.17
  -7  -1   8   16.37    1.19
   7   1  -8   15.62    1.49
  -7   0   8    1.57    0.61
   7   0  -8    1.77    0.98
  -7   1   8    0.21    0.55
   7  -1  -8    0.45    0.95
  -7   2   8   -0.14    0.49
   7  -2  -8    1.47    1.06
  -7   3   8   13.34    1.11
   7  -3  -8   13.33    1.71
  -7   4   8   28.71    1.46
   7  -4  -8   25.67    2.15
  -7   5   8   11.41    1.17
   7  -5  -8   11.56    1.84
   7  -6  -8    6.67    1.71
  -6  -9   8    5.85    1.42
   6   9  -8    1.35    1.12
  -6  -8   8    3.17    1.20
   6   8  -8    2.08    1.11
  -6  -7   8    3.22    1.09
   6   7  -8    0.70    0.94
  -6  -6   8    0.64    0.88
   6   6  -8    0.09    0.83
  -6  -5   8    1.80    0.91
   6   5  -8    1.77    0.85
   6   5  -8    2.79    0.85
  -6  -4   8   13.81    1.49
   6   4  -8   13.31    1.22
   6   4  -8   11.90    1.33
  -6  -3   8   25.03    1.53
   6   3  -8   26.89    1.57
   6   3  -8   24.94    1.57
  -6  -2   8    7.85    0.99
   6   2  -8   11.15    1.24
  -6  -1   8    7.02    0.83
  -6  -1   8    6.74    0.91
   6   1  -8    7.77    1.21
  -6   0   8    5.17    0.71
  -6   0   8    5.39    0.81
   6   0  -8    6.55    1.19
  -6   1   8    4.95    0.70
  -6   1   8    2.32    0.68
   6  -1  -8    3.47    1.06
  -6   2   8    1.76    0.68
  -6   2   8    2.62    0.60
   6  -2  -8    3.67    1.11
  -6   3   8   22.65    1.45
  -6   3   8   22.22    1.19
   6  -3  -8   22.15    1.90
  -6   4   8    5.66    0.84
  -6   4   8    5.76    0.99
   6  -4  -8    4.33    1.37
   6  -5  -8    6.90    1.55
   6  -6  -8   -2.47    1.23
  -5  -9   8    1.91    1.19
   5   9  -8   -0.04    0.79
  -5  -8   8   23.82    2.07
   5   8  -8   20.56    1.67
  -5  -7   8   13.32    1.55
   5   7  -8    9.94    1.31
  -5  -6   8   12.07    1.41
   5   6  -8   12.14    1.32
  -5  -5   8   11.62    1.33
   5   5  -8   12.33    1.12
   5   5  -8   12.98    1.30
  -5  -4   8    3.91    0.95
   5   4  -8    3.93    0.86
   5   4  -8    4.18    0.89
  -5  -3   8    2.89    0.83
   5   3  -8    2.64    0.86
   5   3  -8    4.39    0.90
  -5  -2   8   27.40    1.52
   5   2  -8   28.18    1.57
  -5  -1   8   69.39    1.99
  -5  -1   8   72.41    2.41
   5   1  -8   69.87    2.46
  -5   0   8   53.49    1.62
  -5   0   8   49.71    1.97
   5   0  -8   48.94    2.12
  -5   1   8    1.52    0.46
  -5   1   8    1.85    0.71
   5  -1  -8    1.28    0.90
  -5   2   8   18.12    1.45
  -5   2   8   18.84    0.98
   5  -2  -8   17.60    1.63
  -5   3   8    1.22    0.76
  -5   3   8    2.50    0.57
   5  -3  -8    1.69    1.07
  -5   4   8   -0.37    0.75
   5  -4  -8   -0.08    1.05
  -5   5   8   28.74    2.08
   5  -5  -8   25.28    2.30
  -5   6   8    8.02    1.42
   5  -6  -8    7.82    1.73
  -4 -10   8    1.96    1.26
   4  10  -8    0.72    0.91
  -4  -9   8    6.27    1.37
   4   9  -8    3.22    0.99
  -4  -8   8    3.75    1.12
   4   8  -8    2.43    0.90
  -4  -7   8    0.76    0.90
   4   7  -8    0.64    0.71
  -4  -6   8    5.05    1.05
   4   6  -8    8.37    1.08
  -4  -5   8    1.43    0.83
   4   5  -8    1.67    0.70
   4   5  -8   -0.35    0.62
  -4  -4   8   10.83    1.20
   4   4  -8   12.33    1.11
   4   4  -8   12.05    1.15
  -4  -3   8    0.12    0.67
   4   3  -8   -0.03    0.56
   4   3  -8    0.67    0.71
  -4  -2   8   14.70    1.25
   4   2  -8   13.46    1.24
  -4  -1   8    1.58    0.69
  -4  -1   8    1.87    0.46
   4   1  -8    1.81    0.83
  -4   0   8   12.51    1.22
  -4   0   8   13.08    0.79
   4   0  -8   15.52    1.40
  -4   1   8    6.12    0.99
  -4   1   8    7.42    0.64
   4  -1  -8    7.13    1.18
  -4   2   8   18.91    1.58
  -4   2   8   21.57    0.94
   4  -2  -8   19.72    1.77
  -4   3   8    0.48    0.78
   4  -3  -8    1.65    1.08
  -4   4   8    1.37    0.88
   4  -4  -8   -0.52    1.04
  -4   5   8    1.14    1.10
   4  -5  -8   -1.40    1.13
  -4   6   8   -1.89    0.97
   4  -6  -8    1.14    1.34
  -3 -11   8    5.12    1.48
   3  11  -8    3.17    1.10
  -3 -10   8    4.08    1.30
   3  10  -8    2.83    0.98
  -3  -9   8    0.98    1.00
   3   9  -8    0.88    0.74
  -3  -8   8    0.72    0.90
   3   8  -8    1.03    0.70
  -3  -7   8   32.90    2.04
   3   7  -8   30.60    1.62
  -3  -6   8   37.15    2.02
   3   6  -8   38.28    1.68
   3   6  -8   38.00    1.39
  -3  -5   8   43.46    2.11
   3   5  -8   44.32    1.67
   3   5  -8   40.59    1.56
  -3  -4   8    0.13    0.70
   3   4  -8    0.58    0.59
   3   4  -8   -0.13    0.58
  -3  -3   8   27.09    1.56
   3   3  -8   25.51    1.23
   3   3  -8   25.00    1.34
  -3  -2   8    2.57    0.75
   3   2  -8    2.15    0.78
  -3  -1   8    3.06    0.45
  -3  -1   8    2.74    0.73
   3   1  -8    3.49    0.87
  -3   0   8   63.70    2.41
  -3   0   8   66.99    1.55
   3   0  -8   66.91    2.38
  -3   1   8   13.52    1.45
  -3   1   8   15.09    0.68
   3  -1  -8   13.52    1.43
  -3   2   8   17.40    1.67
   3  -2  -8   18.40    1.64
  -3   3   8    1.83    0.92
   3  -3  -8    2.25    1.06
  -3   4   8    1.35    1.00
   3  -4  -8    0.73    1.14
  -3   5   8    1.66    1.17
   3  -5  -8   -0.36    1.20
  -3   6   8    6.89    1.63
   3  -6  -8    7.54    1.59
  -2 -11   8    2.74    1.26
   2  11  -8    1.71    0.91
  -2 -10   8    5.32    1.30
   2  10  -8    4.21    0.95
  -2  -9   8   12.49    1.50
   2   9  -8   10.45    1.12
  -2  -8   8   -0.01    0.82
   2   8  -8    0.49    0.61
  -2  -7   8    0.94    0.83
   2   7  -8    1.50    0.67
  -2  -6   8    5.34    1.06
   2   6  -8    6.44    0.73
   2   6  -8    6.93    0.91
  -2  -5   8   30.37    1.74
   2   5  -8   25.81    1.27
   2   5  -8   27.69    1.26
  -2  -4   8   28.73    1.74
   2   4  -8   29.80    1.26
   2   4  -8   27.89    1.31
  -2  -3   8   89.29    2.79
   2   3  -8   83.10    2.07
   2   3  -8   81.08    2.38
  -2  -2   8   -0.40    0.61
   2   2  -8   -0.21    0.58
  -2  -1   8    2.81    0.34
  -2  -1   8    1.27    0.69
   2   1  -8    2.58    0.78
  -2   0   8    8.21    1.08
   2   0  -8    8.04    1.08
  -2   1   8    2.71    0.93
   2  -1  -8    1.64    0.84
  -2   2   8   27.33    1.96
   2  -2  -8   27.30    1.80
  -2   3   8   18.53    1.87
   2  -3  -8   22.63    1.74
  -2   4   8   10.63    1.62
   2  -4  -8   12.21    1.60
  -2   5   8    3.29    1.41
   2  -5  -8    2.49    1.26
  -2   6   8    0.16    1.35
   2  -6  -8   -0.01    1.25
  -1 -12   8    7.57    1.63
   1  12  -8    4.82    1.13
  -1 -11   8    6.03    1.40
   1  11  -8    3.46    0.91
  -1 -10   8    7.37    1.31
   1  10  -8    7.31    1.08
  -1  -9   8    0.02    0.88
   1   9  -8    0.19    0.60
  -1  -8   8   -0.53    0.75
   1   8  -8   -0.20    0.56
  -1  -7   8    0.49    0.85
   1   7  -8    0.94    0.58
  -1  -6   8    8.39    1.14
   1   6  -8   10.77    0.97
   1   6  -8    9.93    0.82
  -1  -5   8   42.06    2.02
   1   5  -8   39.25    1.45
   1   5  -8   40.74    1.43
  -1  -4   8    6.94    1.03
   1   4  -8    7.43    0.83
   1   4  -8    8.42    0.76
  -1  -3   8   24.43    1.58
   1   3  -8   24.02    0.95
   1   3  -8   21.77    1.22
  -1  -2   8    2.17    0.78
   1   2  -8    1.49    0.66
  -1  -1   8   14.46    1.44
   1   1  -8   12.87    1.15
  -1   0   8    0.44    0.75
   1   0  -8    0.50    0.73
  -1   1   8   17.67    1.72
   1  -1  -8   18.16    1.49
  -1   2   8    1.64    0.97
   1  -2  -8    0.02    0.87
  -1   3   8    4.18    1.20
   1  -3  -8    4.66    1.19
  -1   4   8    1.23    1.08
   1  -4  -8    2.45    1.13
  -1   5   8    2.04    1.38
   1  -5  -8    2.82    1.23
   0 -12   8    0.39    1.24
   0  12  -8    0.71    0.77
   0 -11   8    1.46    1.18
   0  11  -8    1.09    0.77
   0 -10   8   12.61    1.58
   0  10  -8    9.08    1.09
   0  -9   8   18.30    1.79
   0   9  -8   14.89    1.18
   0  -8   8   46.22    2.24
   0   8  -8   44.36    1.70
   0  -7   8   -0.23    0.74
   0   7  -8    1.39    0.43
   0   7  -8    0.69    0.57
   0  -6   8    0.39    0.78
   0   6  -8    0.51    0.52
   0   6  -8    0.50    0.47
   0  -5   8   17.71    1.54
   0   5  -8   16.57    1.00
   0   5  -8   17.79    0.91
   0  -4   8    7.46    1.07
   0   4  -8    8.64    0.91
   0   4  -8    8.05    0.67
   0  -3   8   55.43    2.24
   0   3  -8   54.11    1.30
   0   3  -8   53.15    1.87
   0  -2   8   87.22    2.92
   0   2  -8   86.81    2.61
   0  -1   8   28.04    1.81
   0   1  -8   27.38    1.55
   0   0   8    2.62    0.95
   0   0  -8    4.22    0.91
   0   1   8    0.50    0.89
   0  -1  -8    0.80    0.77
   0   2   8    1.53    1.04
   0  -2  -8    2.61    0.98
   0   3   8   11.57    1.59
   0  -3  -8   13.39    1.55
   0   4   8    3.05    1.40
   0  -4  -8    8.11    1.43
   0   5   8    6.81    1.75
   1 -12   8    3.84    1.52
  -1  12  -8    1.67    0.84
   1 -11   8    3.73    1.34
  -1  11  -8    1.84    0.77
   1 -10   8    3.33    1.12
  -1  10  -8    2.52    0.79
   1  -9   8    0.99    0.91
  -1   9  -8    0.72    0.65
   1  -8   8    6.41    1.15
  -1   8  -8    6.41    0.88
   1  -7   8    0.90    0.82
  -1   7  -8    2.45    0.66
  -1   7  -8    2.52    0.55
   1  -6   8   27.29    1.79
  -1   6  -8   27.20    1.17
  -1   6  -8   26.67    1.22
   1  -5   8    3.02    0.91
  -1   5  -8    2.85    0.63
   1  -4   8   23.40    1.60
  -1   4  -8   22.54    0.84
  -1   4  -8   22.55    1.25
   1  -3   8    3.69    0.85
  -1   3  -8    1.67    0.67
   1  -2   8    6.61    1.07
  -1   2  -8    7.13    1.00
   1  -1   8    3.38    0.95
  -1   1  -8    3.73    0.92
   1   0   8   29.61    1.99
  -1   0  -8   32.21    1.81
   1   1   8    6.20    1.23
  -1  -1  -8    7.99    1.21
   1   2   8    2.88    1.12
  -1  -2  -8    3.91    1.07
   1   3   8    2.16    1.14
  -1  -3  -8    1.87    1.06
  -1  -4  -8   11.46    1.83
   2 -12   8    1.23    1.43
  -2  12  -8   -0.76    0.65
   2 -11   8    0.67    1.16
  -2  11  -8    0.34    0.63
   2 -10   8    3.71    1.21
  -2  10  -8    3.66    0.84
   2  -9   8    6.67    1.22
  -2   9  -8    5.87    0.90
   2  -8   8   18.31    1.77
  -2   8  -8   18.72    0.98
  -2   8  -8   15.18    1.13
   2  -7   8   48.91    2.27
  -2   7  -8   47.89    1.64
  -2   7  -8   47.53    1.65
   2  -6   8   16.12    1.66
  -2   6  -8   16.83    1.12
  -2   6  -8   14.41    0.96
   2  -5   8    0.99    0.79
  -2   5  -8    0.77    0.45
  -2   5  -8    1.12    0.67
   2  -4   8    0.26    0.73
  -2   4  -8   -0.19    0.63
   2  -3   8   -0.15    0.68
  -2   3  -8   -0.64    0.54
   2  -2   8   31.86    1.94
  -2   2  -8   30.43    1.70
   2  -1   8   11.34    1.35
  -2   1  -8   12.34    1.31
   2   0   8   28.08    2.08
  -2   0  -8   29.02    1.85
   2   1   8   -0.08    0.88
  -2  -1  -8    0.41    0.91
   2   2   8    0.79    1.00
  -2  -2  -8    4.15    1.19
   2   3   8    0.29    1.13
  -2  -3  -8    1.48    1.10
   2   4   8    4.47    1.57
  -2  -4  -8    6.58    1.45
   3 -12   8    2.08    1.49
  -3  12  -8    0.18    0.72
   3 -11   8   11.73    1.76
  -3  11  -8    6.33    1.03
   3 -10   8    2.50    1.19
  -3  10  -8    1.55    0.70
   3  -9   8    1.56    1.05
  -3   9  -8    1.47    0.62
   3  -8   8    4.68    1.13
  -3   8  -8    6.34    0.81
  -3   8  -8    3.52    0.71
   3  -7   8    3.69    1.08
  -3   7  -8    2.75    0.63
  -3   7  -8    3.69    0.76
   3  -6   8    5.18    1.07
  -3   6  -8    6.95    0.96
  -3   6  -8    6.78    0.71
   3  -5   8   57.22    2.43
  -3   5  -8   55.26    1.52
  -3   5  -8   56.87    2.13
   3  -4   8   11.94    1.31
  -3   4  -8   12.71    1.23
   3  -3   8    3.62    1.02
  -3   3  -8    4.02    0.95
   3  -2   8    1.31    0.90
  -3   2  -8    2.07    0.89
   3  -1   8    0.11    0.89
  -3   1  -8   -0.73    0.73
   3   0   8    4.60    1.13
  -3   0  -8    5.13    1.13
   3   1   8    6.81    1.33
  -3  -1  -8   12.26    1.53
   3   2   8   11.75    1.66
  -3  -2  -8   21.08    2.01
   3   3   8    1.40    1.26
  -3  -3  -8    4.00    1.27
   4 -12   8    1.88    1.53
  -4  12  -8    2.05    0.81
   4 -11   8   -1.17    1.21
  -4  11  -8   -0.71    0.58
   4 -10   8   -0.43    1.08
  -4  10  -8    0.21    0.72
   4  -9   8   -0.24    0.95
  -4   9  -8    0.22    0.60
  -4   9  -8    1.32    0.63
   4  -8   8    1.22    1.03
  -4   8  -8    1.38    0.67
  -4   8  -8    2.26    0.70
   4  -7   8   11.62    1.43
  -4   7  -8   11.81    0.99
  -4   7  -8   10.57    1.12
   4  -6   8    2.91    1.01
  -4   6  -8    1.83    0.78
  -4   6  -8    2.39    0.58
   4  -5   8   12.09    1.39
  -4   5  -8   10.03    1.19
   4  -4   8    0.24    0.84
  -4   4  -8    0.84    0.78
   4  -3   8    6.54    1.18
  -4   3  -8    7.32    1.18
   4  -2   8    0.93    0.95
  -4   2  -8    1.16    0.84
   4  -1   8    9.60    1.45
  -4   1  -8   10.99    1.48
   4   0   8    0.97    1.00
  -4   0  -8    1.13    1.03
   4   1   8    1.76    1.10
  -4  -1  -8    2.99    1.15
   4   2   8    1.29    1.17
  -4  -2  -8    1.42    1.13
   5 -12   8   -0.10    1.51
  -5  12  -8    0.10    0.70
   5 -11   8    2.40    1.42
  -5  11  -8    1.13    0.71
   5 -10   8   16.56    1.76
  -5  10  -8   12.24    1.24
   5  -9   8   -0.24    1.06
  -5   9  -8    0.65    0.67
  -5   9  -8    2.72    0.78
   5  -8   8    0.13    1.04
  -5   8  -8    0.22    0.63
  -5   8  -8   -0.27    0.58
   5  -7   8    4.03    1.16
  -5   7  -8    4.38    0.75
  -5   7  -8    3.96    0.90
   5  -6   8   -0.24    0.90
  -5   6  -8    0.51    0.71
   5  -5   8    3.21    1.07
  -5   5  -8    4.09    0.98
   5  -4   8   18.93    1.85
  -5   4  -8   18.57    1.61
   5  -3   8   16.67    1.85
  -5   3  -8   15.40    1.63
   5  -2   8    0.18    1.07
  -5   2  -8    0.87    0.99
   5  -1   8    0.42    0.98
  -5   1  -8    0.31    0.96
   5   0   8    0.51    1.10
  -5   0  -8    1.23    1.10
   5   1   8    1.32    1.14
  -5  -1  -8    0.84    1.09
   6 -12   8   -0.14    1.38
  -6  12  -8    1.48    0.84
   6 -11   8   -0.39    1.33
  -6  11  -8   -1.17    0.63
   6 -10   8   -0.63    1.14
  -6  10  -8    0.11    0.85
  -6  10  -8    0.51    0.71
   6  -9   8   -0.89    1.06
  -6   9  -8    0.07    0.68
  -6   9  -8   -0.79    0.63
   6  -8   8    5.84    1.31
  -6   8  -8    7.53    1.11
  -6   8  -8    6.05    0.87
   6  -7   8   -0.11    1.01
  -6   7  -8    1.60    0.83
   6  -6   8    4.94    1.28
  -6   6  -8    4.08    0.94
   6  -5   8    1.70    1.04
  -6   5  -8    1.14    0.83
   6  -4   8    0.73    1.04
  -6   4  -8   -0.09    0.84
   6  -3   8   -0.44    1.05
  -6   3  -8    0.65    0.89
   6  -2   8    2.75    1.08
  -6   2  -8    2.97    1.09
   6  -1   8    2.67    1.17
  -6   1  -8    3.38    1.16
   6   0   8    3.04    1.27
  -6   0  -8    3.61    1.30
   7 -11   8   -1.85    1.21
  -7  11  -8   -0.28    0.70
   7 -10   8    0.40    1.22
  -7  10  -8    0.78    0.75
  -7  10  -8    0.78    0.80
   7  -9   8    6.59    1.43
  -7   9  -8    5.30    1.08
  -7   9  -8    2.38    0.80
   7  -8   8    2.28    1.20
  -7   8  -8    1.37    0.86
   7  -7   8   -1.21    1.03
  -7   7  -8   -0.90    0.75
   7  -6   8   -0.16    0.99
  -7   6  -8    0.48    0.86
   7  -5   8   -0.29    0.97
  -7   5  -8    0.17    0.81
   7  -4   8    1.28    1.16
  -7   4  -8    0.84    0.92
   7  -3   8    2.19    1.36
  -7   3  -8    1.61    1.04
   7  -2   8    3.47    1.19
  -7   2  -8    2.76    1.12
   7  -1   8    1.03    1.13
  -7   1  -8    1.46    1.03
  -8  11  -8   -0.10    0.72
   8 -10   8   -1.17    2.22
  -8  10  -8    0.26    0.76
   8  -9   8   -0.86    1.13
   8  -8   8   -0.53    1.12
  -8   8  -8    0.69    0.97
   8  -7   8    5.12    1.31
  -8   7  -8    4.06    1.14
   8  -6   8   -0.13    1.05
  -8   6  -8    2.10    1.04
   8  -5   8    0.77    1.16
  -8   5  -8    0.54    0.92
   8  -4   8   -1.99    1.13
  -8   4  -8    0.03    0.95
   8  -3   8    0.81    1.06
  -8   3  -8   -1.26    0.92
  -9   7  -8    0.85    1.04
  -9   6  -8    0.85    1.00
  -9   5  -8    2.06    1.10
 -11  -1   9    2.45    0.92
  11   1  -9   -0.69    1.27
 -11   0   9    3.22    0.94
  11   0  -9   -0.83    1.29
 -11   1   9    3.15    0.92
  11  -1  -9    1.78    1.40
 -11   2   9   12.33    1.36
  11  -2  -9    9.63    1.84
 -10  -4   9    0.74    0.91
 -10  -3   9    7.49    1.16
  10   3  -9    5.82    1.43
 -10  -2   9   14.10    1.48
  10   2  -9   15.32    1.76
 -10  -1   9    4.59    0.98
  10   1  -9    1.50    1.27
 -10   0   9    1.55    0.77
  10   0  -9   -1.37    1.16
 -10   1   9    4.22    0.94
  10  -1  -9    1.36    1.37
 -10   2   9    2.05    0.82
  10  -2  -9   -0.64    1.23
 -10   3   9    2.29    0.89
  10  -3  -9    0.76    1.40
 -10   4   9   19.39    1.66
  10  -4  -9   17.85    2.21
   9   5  -9    1.85    1.18
  -9  -3   9    7.97    1.14
   9   3  -9    6.93    1.37
  -9  -2   9    0.97    0.74
   9   2  -9    0.85    1.12
  -9  -1   9    6.36    1.02
   9   1  -9    5.22    1.34
  -9   0   9    0.62    0.66
   9   0  -9   -0.42    1.12
  -9   1   9    1.47    0.75
   9  -1  -9    1.30    1.26
  -9   2   9    1.92    0.76
   9  -2  -9    2.79    1.35
  -9   3   9    2.18    0.79
   9  -3  -9   -0.02    1.33
  -9   4   9    2.80    0.83
   9  -4  -9    2.80    1.62
  -9   5   9    2.17    0.93
   9  -5  -9    0.02    1.56
   8   7  -9    5.16    1.29
   8   6  -9    3.05    1.19
   8   5  -9    0.13    0.89
   8   4  -9    6.01    1.22
   8   4  -9    4.53    1.17
  -8  -3   9    0.41    0.66
   8   3  -9   -0.21    0.96
  -8  -2   9    4.81    0.88
   8   2  -9    6.42    1.23
  -8  -1   9   36.65    1.73
   8   1  -9   36.06    2.13
  -8   0   9   10.10    1.10
   8   0  -9   12.22    1.57
  -8   1   9    4.35    0.86
   8  -1  -9    4.57    1.38
  -8   2   9    4.78    0.85
   8  -2  -9    5.68    1.44
  -8   3   9    0.38    0.64
   8  -3  -9    1.48    1.34
  -8   4   9    1.76    0.74
   8  -4  -9   -0.24    1.39
   8  -5  -9   13.12    2.03
  -7  -8   9    1.35    1.24
   7   8  -9    2.15    1.15
  -7  -7   9    1.00    1.13
   7   7  -9    0.16    0.91
  -7  -6   9    4.91    1.25
   7   6  -9    5.20    1.11
  -7  -5   9    4.63    1.12
   7   5  -9    4.84    1.13
  -7  -4   9   11.83    1.27
   7   4  -9   14.63    1.55
   7   4  -9   14.24    1.47
  -7  -3   9   -0.60    0.71
   7   3  -9   -0.33    0.82
  -7  -2   9    2.36    0.68
  -7  -2   9    1.34    0.71
   7   2  -9    1.04    0.98
  -7  -1   9    0.67    0.59
   7   1  -9    0.35    0.97
  -7   0   9    4.42    0.75
   7   0  -9    2.83    1.19
  -7   1   9   28.77    1.39
   7  -1  -9   27.32    2.12
  -7   2   9   13.28    1.10
   7  -2  -9   12.92    1.70
  -7   3   9    8.96    0.95
   7  -3  -9    9.19    1.63
   7  -4  -9   -0.38    1.31
   7  -5  -9   -2.01    1.33
  -6  -9   9    2.87    1.38
  -6  -8   9    1.10    1.22
   6   8  -9    0.26    0.98
   6   7  -9    4.47    1.11
  -6  -6   9   27.27    2.14
   6   6  -9   27.16    1.83
  -6  -5   9    1.96    1.00
   6   5  -9    1.57    0.86
   6   5  -9    3.93    0.96
  -6  -4   9    1.95    0.86
   6   4  -9    3.12    0.96
   6   4  -9    2.13    0.87
  -6  -3   9    4.79    0.95
   6   3  -9    4.83    1.01
   6   3  -9    5.55    1.07
  -6  -2   9    2.10    0.61
  -6  -2   9    1.84    0.77
   6   2  -9    2.99    1.02
  -6  -1   9    0.75    0.54
  -6  -1   9    0.88    0.66
   6   1  -9   -0.05    0.90
  -6   0   9   19.22    1.37
  -6   0   9   22.92    1.20
   6   0  -9   19.29    1.70
  -6   1   9    9.92    1.10
  -6   1   9   11.95    0.94
   6  -1  -9    9.63    1.46
  -6   2   9    8.35    0.85
  -6   2   9    9.27    1.12
   6  -2  -9    7.77    1.47
  -6   3   9    0.57    0.71
   6  -3  -9    0.97    1.26
  -6   4   9    1.16    1.48
   6  -4  -9   -1.15    1.24
   6  -5  -9    3.05    1.51
  -5  -9   9   11.91    1.77
   5   9  -9   10.09    1.43
  -5  -8   9    0.27    1.11
   5   8  -9    0.18    0.84
  -5  -7   9    0.51    1.05
   5   7  -9    0.82    0.82
  -5  -6   9    2.09    1.01
   5   6  -9    1.33    0.84
  -5  -5   9    9.05    1.30
   5   5  -9    7.68    1.12
   5   5  -9    9.38    1.10
  -5  -4   9   48.33    2.25
   5   4  -9   50.73    1.96
   5   4  -9   49.88    2.03
  -5  -3   9   35.87    1.92
   5   3  -9   36.58    1.75
   5   3  -9   37.56    1.84
  -5  -2   9   13.92    1.40
  -5  -2   9   13.40    0.97
   5   2  -9   14.97    1.45
  -5  -1   9    9.66    0.85
  -5  -1   9   10.69    1.15
   5   1  -9   12.95    1.42
  -5   0   9    0.81    0.69
  -5   0   9    1.43    0.47
   5   0  -9    1.23    0.92
  -5   1   9    2.01    0.49
  -5   1   9    1.07    0.75
   5  -1  -9    0.33    0.92
  -5   2   9   34.68    1.95
   5  -2  -9   32.33    2.09
  -5   3   9   17.15    1.65
   5  -3  -9   18.11    1.88
  -5   4   9   11.17    1.41
   5  -4  -9   11.83    1.76
  -5   5   9   -0.36    0.96
   5  -5  -9   -0.10    1.39
  -4 -10   9    1.44    1.30
   4  10  -9   -0.46    0.80
  -4  -9   9    2.38    1.28
   4   9  -9    2.41    0.91
  -4  -8   9    1.84    1.17
   4   8  -9    0.30    0.70
  -4  -7   9    8.72    1.42
   4   7  -9    7.95    1.12
  -4  -6   9    0.77    0.96
   4   6  -9    1.95    0.77
  -4  -5   9   19.28    1.76
   4   5  -9   20.09    1.41
   4   5  -9   18.81    1.33
  -4  -4   9   -0.46    0.77
   4   4  -9   -0.24    0.62
   4   4  -9    0.20    0.72
  -4  -3   9   15.56    1.47
   4   3  -9   14.47    1.23
   4   3  -9   14.71    1.33
  -4  -2   9    6.04    1.03
  -4  -2   9    5.74    0.68
   4   2  -9    5.02    1.03
  -4  -1   9   20.08    1.57
  -4  -1   9   18.78    0.91
   4   1  -9   19.06    1.54
  -4   0   9    6.89    0.62
  -4   0   9    5.89    1.04
   4   0  -9    9.35    1.29
  -4   1   9    1.76    0.81
   4  -1  -9    2.18    0.99
  -4   2   9   -0.25    0.79
   4  -2  -9    0.14    1.00
  -4   3   9   -0.38    0.82
   4  -3  -9   -0.17    1.14
  -4   4   9   10.14    1.51
   4  -4  -9    6.85    1.58
  -4   5   9    4.34    1.35
   4  -5  -9    2.95    1.51
  -3 -11   9   -0.09    1.26
   3  11  -9   -0.03    0.83
  -3 -10   9    6.24    1.51
   3  10  -9    5.28    1.06
  -3  -9   9   14.92    1.77
   3   9  -9   11.83    1.32
  -3  -8   9   19.35    1.97
   3   8  -9   16.98    1.42
  -3  -7   9    6.43    1.28
   3   7  -9    6.65    1.02
  -3  -6   9    4.83    1.12
   3   6  -9    6.27    0.94
   3   6  -9    6.85    0.88
  -3  -5   9    0.57    0.86
   3   5  -9    1.26    0.71
   3   5  -9    0.47    0.62
  -3  -4   9   -0.49    0.75
   3   4  -9    0.49    0.74
   3   4  -9    0.39    0.62
  -3  -3   9   67.21    2.55
   3   3  -9   63.39    2.22
   3   3  -9   69.96    1.97
  -3  -2   9   32.52    1.13
  -3  -2   9   32.05    1.87
   3   2  -9   31.70    1.67
  -3  -1   9   44.63    2.15
  -3  -1   9   45.56    1.27
   3   1  -9   44.60    2.01
  -3   0   9    1.13    0.83
   3   0  -9    2.67    1.00
  -3   1   9   -0.96    0.76
   3  -1  -9   -0.15    0.89
  -3   2   9    1.59    0.95
   3  -2  -9    0.10    0.96
  -3   3   9    8.70    1.39
   3  -3  -9   10.12    1.55
  -3   4   9    9.92    1.62
   3  -4  -9   11.69    1.77
  -3   5   9    6.10    1.56
   3  -5  -9    5.56    1.59
  -2 -11   9   -0.13    1.19
   2  11  -9    0.22    0.76
  -2 -10   9    1.50    1.20
   2  10  -9    0.97    0.75
  -2  -9   9    1.05    1.04
   2   9  -9    1.22    0.70
  -2  -8   9    6.12    1.22
   2   8  -9    6.46    0.94
  -2  -7   9    6.55    1.24
   2   7  -9    8.16    1.04
  -2  -6   9   50.66    2.38
   2   6  -9   50.91    1.85
   2   6  -9   49.13    1.72
  -2  -5   9   10.21    1.30
   2   5  -9    9.12    1.00
   2   5  -9    9.76    0.96
  -2  -4   9    0.37    0.74
   2   4  -9    1.63    0.59
   2   4  -9    1.69    0.74
  -2  -3   9    3.22    0.91
   2   3  -9    3.00    0.80
   2   3  -9    2.71    0.59
  -2  -2   9    0.13    0.73
  -2  -2   9    0.01    0.26
   2   2  -9    0.17    0.70
  -2  -1   9   24.87    1.75
   2   1  -9   22.62    1.53
  -2   0   9   32.11    1.97
   2   0  -9   31.07    1.81
  -2   1   9   41.21    2.30
   2  -1  -9   44.10    2.12
  -2   2   9    1.08    0.95
   2  -2  -9   -0.40    0.93
  -2   3   9    0.68    1.09
   2  -3  -9    0.83    1.06
  -2   4   9    1.56    1.22
   2  -4  -9    2.80    1.29
  -2   5   9    2.72    1.48
   2  -5  -9    4.09    1.53
  -1 -11   9    0.17    1.22
   1  11  -9    0.09    0.65
  -1 -10   9    0.73    1.07
   1  10  -9    0.96    0.72
  -1  -9   9   -0.11    0.91
   1   9  -9    0.29    0.61
  -1  -8   9   26.31    1.96
   1   8  -9   24.26    1.41
  -1  -7   9    9.47    1.32
   1   7  -9    7.19    0.93
   1   7  -9    9.16    0.87
  -1  -6   9   22.17    1.77
   1   6  -9   19.17    1.18
   1   6  -9   22.26    1.17
  -1  -5   9   -0.28    0.78
   1   5  -9    0.41    0.57
   1   5  -9    1.15    0.54
  -1  -4   9    4.48    0.99
   1   4  -9    5.70    0.69
   1   4  -9    4.19    0.82
  -1  -3   9   -0.07    0.75
   1   3  -9    0.10    0.44
   1   3  -9   -0.15    0.65
  -1  -2   9   27.70    1.84
   1   2  -9   26.86    1.56
  -1  -1   9   10.86    1.32
   1   1  -9   11.42    1.26
  -1   0   9   11.75    1.43
   1   0  -9   14.86    1.45
  -1   1   9    1.74    1.00
   1  -1  -9    1.80    0.92
  -1   2   9    1.53    1.08
   1  -2  -9    3.38    1.08
  -1   3   9    4.52    1.36
   1  -3  -9    4.45    1.27
  -1   4   9    2.74    1.38
   1  -4  -9    3.07    1.30
   0 -12   9    4.22    1.59
   0  12  -9    1.99    0.86
   0 -11   9   14.50    1.86
   0  11  -9    9.95    1.23
   0 -10   9    2.24    1.11
   0  10  -9    0.80    0.71
   0  -9   9   -0.58    0.91
   0   9  -9   -0.52    0.55
   0  -8   9    4.45    1.15
   0   8  -9    3.93    0.81
   0  -7   9    1.07    0.86
   0   7  -9    1.33    0.52
   0   7  -9   -0.02    0.57
   0  -6   9   21.19    1.79
   0   6  -9   23.34    1.16
   0   6  -9   22.55    1.19
   0  -5   9   47.72    2.26
   0   5  -9   44.85    1.72
   0   5  -9   44.86    1.46
   0  -4   9   48.55    2.29
   0   4  -9   48.76    1.88
   0   4  -9   46.98    1.34
   0  -3   9   -0.49    0.72
   0   3  -9    0.52    0.69
   0  -2   9    0.30    0.79
   0   2  -9    0.39    0.72
   0  -1   9    6.38    1.14
   0   1  -9    5.35    1.02
   0   0   9   15.99    1.78
   0   0  -9   14.38    1.41
   0   1   9   10.41    1.48
   0  -1  -9   11.66    1.43
   0   2   9   22.66    2.17
   0  -2  -9   23.96    1.88
   0   3   9    0.86    1.20
   0  -3  -9    2.80    1.20
   0   4   9    2.04    1.46
   0  -4  -9    1.26    1.22
   1 -12   9    1.11    1.49
  -1  12  -9    1.18    0.76
   1 -11   9    0.59    1.22
   1 -10   9   -1.10    1.01
  -1  10  -9    0.83    0.64
   1  -9   9    6.04    1.28
  -1   9  -9    6.03    0.92
   1  -8   9    0.30    0.85
  -1   8  -9    0.07    0.58
   1  -7   9    9.72    1.33
  -1   7  -9    9.90    0.94
  -1   7  -9   11.29    0.95
   1  -6   9    0.19    0.80
  -1   6  -9    0.07    0.49
  -1   6  -9    0.41    0.58
   1  -5   9    3.01    0.94
  -1   5  -9    4.51    0.58
  -1   5  -9    4.28    0.81
   1  -4   9    3.62    0.98
  -1   4  -9    3.06    0.82
   1  -3   9   16.22    1.57
  -1   3  -9   14.98    1.30
   1  -2   9   14.43    1.65
  -1   2  -9   13.73    1.40
  -1   1  -9    6.62    1.18
   1   0   9    1.38    1.03
  -1   0  -9    0.52    0.86
   1   1   9    0.29    1.00
  -1  -1  -9   -0.35    0.95
   1   2   9   -0.52    1.05
  -1  -2  -9    3.43    1.21
   1   3   9   -0.12    1.16
  -1  -3  -9    1.52    1.19
   2 -12   9    1.21    1.61
  -2  12  -9    0.30    0.69
   2 -11   9    4.99    1.54
  -2  11  -9    3.56    0.88
   2 -10   9    7.72    1.49
  -2  10  -9    9.13    1.10
   2  -9   9    6.47    1.30
  -2   9  -9    6.77    0.94
   2  -8   9    0.09    0.93
  -2   8  -9    0.76    0.61
  -2   8  -9    2.35    0.58
   2  -7   9   -0.64    0.91
  -2   7  -9    0.14    0.56
  -2   7  -9    1.31    0.59
   2  -6   9    2.03    0.94
  -2   6  -9    2.32    0.57
  -2   6  -9    2.19    0.74
   2  -5   9   16.83    1.68
  -2   5  -9   18.53    1.35
   2  -4   9    6.28    1.15
  -2   4  -9    6.29    1.01
   2  -3   9   30.71    2.06
  -2   3  -9   28.18    1.72
   2  -2   9   -0.42    0.79
  -2   2  -9    0.59    0.81
   2  -1   9    0.67    0.97
  -2   1  -9    1.31    0.92
   2   0   9    1.54    1.05
  -2   0  -9    0.41    0.97
   2   1   9    1.13    1.02
  -2  -1  -9    2.46    1.12
   2   2   9    2.09    1.17
  -2  -2  -9    6.16    1.45
   2   3   9    4.81    1.51
  -2  -3  -9    7.24    1.52
   3 -12   9    1.97    1.62
  -3  12  -9    0.44    0.69
   3 -11   9    0.15    1.35
  -3  11  -9    0.92    0.74
   3 -10   9    0.32    1.19
  -3  10  -9   -0.12    0.63
   3  -9   9   -0.32    1.05
  -3   9  -9    0.08    0.61
   3  -8   9   19.40    2.05
  -3   8  -9   20.41    1.30
  -3   8  -9   18.93    1.22
   3  -7   9    8.17    1.37
  -3   7  -9    8.76    1.07
  -3   7  -9    6.93    0.79
   3  -6   9    1.49    0.99
  -3   6  -9    0.41    0.73
   3  -5   9    1.19    0.93
  -3   5  -9    0.95    0.77
   3  -4   9    2.27    0.92
  -3   4  -9    2.42    0.92
   3  -3   9    1.45    0.93
  -3   3  -9    0.51    0.72
   3  -2   9    5.32    1.19
  -3   2  -9    6.26    1.16
   3  -1   9   21.98    2.12
   3   0   9    1.05    1.06
  -3   0  -9    2.54    1.14
   3   1   9    1.43    1.16
  -3  -1  -9    1.58    1.17
   3   2   9    2.02    1.23
  -3  -2  -9    2.19    1.23
   4 -12   9   -1.27    1.56
  -4  12  -9    0.12    0.70
   4 -11   9   -1.24    1.35
  -4  11  -9   -0.94    0.60
   4 -10   9    4.94    1.43
  -4  10  -9    4.23    0.86
   4  -9   9    1.00    1.19
  -4   9  -9    0.49    0.63
  -4   9  -9    0.85    0.61
   4  -8   9    4.28    1.30
  -4   8  -9    3.33    0.70
  -4   8  -9    5.61    0.94
   4  -7   9    0.20    1.00
  -4   7  -9   -0.16    0.69
   4  -6   9   -0.45    0.93
  -4   6  -9    3.77    0.93
   4  -5   9   -0.17    0.90
  -4   5  -9   -0.38    0.69
   4  -4   9    4.18    1.14
  -4   4  -9    4.89    1.09
   4  -3   9    0.62    1.03
  -4   3  -9    2.34    1.00
   4  -2   9    1.54    1.11
  -4   2  -9    0.29    0.87
   4  -1   9    0.10    1.19
  -4   1  -9    0.03    0.98
   4   0   9    0.94    1.09
  -4   0  -9    3.74    1.26
   4   1   9    1.25    1.14
  -4  -1  -9    3.58    1.32
   5 -12   9   -0.01    1.54
  -5  12  -9    0.03    0.66
   5 -11   9   -1.52    1.36
  -5  11  -9    0.05    0.65
   5 -10   9    3.07    1.52
  -5  10  -9    0.80    0.78
   5  -9   9    0.15    1.27
  -5   9  -9    0.49    0.67
  -5   9  -9    2.25    0.82
   5  -8   9    0.84    1.15
  -5   8  -9    1.46    0.77
   5  -7   9    4.65    1.31
  -5   7  -9    3.72    0.95
   5  -6   9   12.48    1.55
  -5   6  -9   11.21    1.35
   5  -5   9    0.84    1.06
  -5   5  -9    0.30    0.77
   5  -4   9   -1.16    0.95
  -5   4  -9    1.52    0.91
   5  -3   9    3.73    1.31
  -5   3  -9    4.23    1.13
   5  -2   9    0.37    1.17
  -5   2  -9    1.32    1.01
   5  -1   9    1.23    1.11
  -5   1  -9    1.05    1.10
   5   0   9    1.96    1.21
  -5   0  -9    6.38    1.45
   6 -12   9   -1.81    1.49
   6 -11   9   -0.88    1.38
  -6  11  -9   -0.03    0.67
   6 -10   9   -0.77    1.25
  -6  10  -9   -0.60    0.67
  -6  10  -9    0.44    1.07
   6  -9   9    2.07    1.29
  -6   9  -9    2.84    0.91
   6  -8   9   -0.68    1.13
  -6   8  -9    1.05    0.78
   6  -7   9    0.54    1.12
  -6   7  -9    0.34    0.79
   6  -6   9    0.09    1.09
  -6   6  -9    1.32    0.86
   6  -5   9    1.42    1.20
  -6   5  -9    2.39    1.01
   6  -4   9    2.26    1.23
  -6   4  -9    1.14    0.96
   6  -3   9    1.50    1.31
  -6   3  -9    2.37    1.06
   6  -2   9    0.31    1.09
  -6   2  -9    1.26    1.12
   6  -1   9    1.76    1.22
  -6   1  -9   -0.47    0.97
   7 -11   9    2.09    1.52
  -7  11  -9    1.08    0.77
   7 -10   9   -1.91    1.19
  -7  10  -9    1.34    0.84
   7  -9   9   -2.25    1.20
  -7   9  -9    1.28    0.91
   7  -8   9    0.35    1.16
  -7   8  -9    1.33    0.95
   7  -7   9   -0.52    1.16
  -7   7  -9    1.53    0.93
   7  -6   9   -2.32    1.11
  -7   6  -9    0.40    0.93
   7  -5   9    2.49    1.32
  -7   5  -9    4.05    1.16
   7  -4   9    0.36    1.30
  -7   4  -9    1.27    1.04
   7  -3   9   -0.68    1.02
  -7   3  -9    0.24    0.99
   8 -10   9    1.23    1.61
  -8  10  -9    2.27    0.99
   8  -9   9   -1.18    1.18
  -8   9  -9    1.86    0.99
   8  -8   9   -0.55    1.25
  -8   8  -9    1.28    0.96
   8  -7   9   -2.68    1.11
  -8   7  -9    0.59    0.96
   8  -6   9   -0.20    1.20
  -8   6  -9    1.80    1.06
   8  -5   9    0.63    1.29
  -8   5  -9    0.27    1.03
 -10  -3  10    0.21    0.80
  10   3 -10   -0.63    1.22
 -10  -2  10    3.57    0.96
  10   2 -10    0.16    1.22
 -10  -1  10    0.32    0.73
  10   1 -10   -1.05    1.22
 -10   0  10    1.74    0.85
  10   0 -10    0.26    1.36
 -10   1  10   19.50    1.55
  10  -1 -10   20.19    2.09
 -10   2  10   10.35    1.25
  10  -2 -10    9.73    1.86
   9   5 -10    1.39    1.10
  -9  -4  10    2.25    0.86
  -9  -3  10    1.27    0.79
   9   3 -10   -0.13    1.16
  -9  -2  10    3.02    0.91
   9   2 -10    1.28    1.26
  -9  -1  10    3.85    0.88
   9   1 -10    4.43    1.43
  -9   0  10    1.84    0.79
   9   0 -10   -0.27    1.23
  -9   1  10    3.15    0.84
   9  -1 -10    2.83    1.44
  -9   2  10    0.25    0.66
   9  -2 -10    2.43    1.53
  -9   3  10    8.87    1.15
   9  -3 -10    7.09    1.84
   8   6 -10   -0.58    0.96
   8   5 -10    1.02    1.00
   8   4 -10   24.13    1.87
  -8  -3  10   18.71    1.38
   8   3 -10   17.91    1.76
  -8  -2  10    7.12    0.99
   8   2 -10    7.45    1.39
  -8  -1  10    3.48    0.80
   8   1 -10    2.86    1.28
  -8   0  10    1.54    0.70
   8   0 -10   -0.43    1.20
  -8   1  10    0.85    0.62
   8  -1 -10    0.40    1.30
  -8   2  10    7.36    0.97
   8  -2 -10   12.07    1.87
   8  -3 -10   16.80    2.16
   8  -4 -10    6.71    1.88
  -7  -7  10    5.90    1.44
   7   7 -10    2.61    1.02
  -7  -6  10    1.44    1.21
   7   6 -10    2.39    0.96
  -7  -5  10    0.31    0.95
   7   5 -10    0.02    0.82
  -7  -4  10    0.03    0.89
   7   4 -10   -0.10    0.89
   7   4 -10   -0.17    0.85
  -7  -3  10    0.32    0.79
  -7  -3  10    1.08    0.70
   7   3 -10    0.80    0.97
  -7  -2  10   19.75    2.02
  -7  -2  10   19.23    1.31
   7   2 -10   19.51    1.82
  -7  -1  10   13.08    1.15
   7   1 -10   15.31    1.79
  -7   0  10   17.33    1.22
   7   0 -10   17.21    1.92
  -7   1  10    0.37    0.57
   7  -1 -10    2.19    1.35
   7  -2 -10    0.76    1.33
   7  -3 -10   -0.66    1.33
   7  -4 -10    5.58    1.83
  -6  -8  10    4.07    1.52
   6   8 -10    3.26    1.09
  -6  -7  10    3.87    1.40
  -6  -6  10    0.31    1.09
   6   6 -10    1.00    0.80
  -6  -5  10    0.91    0.95
   6   5 -10    0.64    0.78
   6   5 -10   -0.67    0.79
  -6  -4  10    0.42    0.89
   6   4 -10    0.04    0.79
   6   4 -10    0.53    0.91
  -6  -3  10   19.13    1.27
  -6  -3  10   16.07    1.60
   6   3 -10   17.08    1.68
  -6  -2  10   19.13    1.63
  -6  -2  10   18.74    1.21
   6   2 -10   19.15    1.71
  -6  -1  10   11.73    1.28
  -6  -1  10   12.80    1.01
   6   1 -10   17.16    1.69
  -6   0  10    2.31    0.81
  -6   0  10    2.72    0.62
   6   0 -10    3.28    1.27
  -6   1  10   -0.43    0.66
   6  -1 -10   -0.29    1.14
  -6   2  10    3.40    0.93
   6  -2 -10    4.15    1.46
   6  -3 -10    0.36    1.37
   6  -4 -10    6.69    1.78
  -5  -9  10    0.49    1.33
   5   9 -10    0.11    0.83
  -5  -8  10    0.98    1.32
   5   8 -10   -0.24    0.76
  -5  -7  10   17.15    1.92
   5   7 -10   17.34    1.61
  -5  -6  10   16.50    1.78
   5   6 -10   15.89    1.51
  -5  -5  10   17.20    1.88
   5   5 -10   18.44    1.44
   5   5 -10   17.52    1.46
  -5  -4  10   -0.23    0.80
   5   4 -10   -0.41    0.86
   5   4 -10    1.64    0.83
  -5  -3  10    0.35    0.77
   5   3 -10   -0.55    0.89
  -5  -2  10    1.71    0.86
  -5  -2  10    2.02    0.55
   5   2 -10    3.03    1.04
  -5  -1  10   25.92    1.17
  -5  -1  10   23.73    1.72
   5   1 -10   26.71    1.87
  -5   0  10   31.29    1.90
   5   0 -10   35.54    2.18
  -5   1  10   30.03    1.90
   5  -1 -10   29.77    2.15
  -5   2  10   -0.16    0.84
   5  -2 -10    0.21    1.16
  -5   3  10    0.28    0.91
   5  -3 -10    0.40    1.33
  -5   4  10    0.12    0.95
   5  -4 -10    0.98    1.46
  -4 -10  10    3.26    1.53
   4  10 -10    1.87    0.87
  -4  -9  10    0.87    1.29
   4   9 -10   -0.09    0.71
  -4  -8  10    4.45    1.39
   4   8 -10    3.77    0.94
  -4  -7  10    2.75    1.17
   4   7 -10    1.57    0.79
  -4  -6  10    7.71    1.44
   4   6 -10    6.44    1.09
   4   6 -10    6.75    1.09
  -4  -5  10    4.23    1.13
   4   5 -10    3.76    0.95
   4   5 -10    3.10    0.83
  -4  -4  10    6.56    1.19
   4   4 -10    7.52    1.13
   4   4 -10    7.19    1.02
  -4  -3  10   12.94    1.39
   4   3 -10   14.39    1.47
  -4  -2  10    6.22    0.72
  -4  -2  10    4.75    1.07
   4   2 -10    6.69    1.18
  -4  -1  10    6.12    1.09
   4   1 -10    3.70    1.10
  -4   0  10    0.36    0.79
   4   0 -10    1.57    1.01
  -4   1  10    9.01    1.30
   4  -1 -10   11.07    1.55
  -4   2  10    2.41    1.06
   4  -2 -10    3.34    1.30
  -4   3  10   10.57    1.53
   4  -3 -10   11.03    1.77
  -4   4  10    3.15    1.23
   4  -4 -10    0.66    1.38
  -3 -10  10    3.74    1.44
   3  10 -10    2.06    0.87
  -3  -9  10    1.23    1.28
   3   9 -10    2.12    0.84
  -3  -8  10   -0.54    1.11
   3   8 -10    1.18    0.77
  -3  -7  10   -0.20    1.00
   3   7 -10    0.20    0.66
  -3  -6  10   26.54    2.03
   3   6 -10   25.74    1.45
   3   6 -10   25.36    1.53
  -3  -5  10   28.62    2.06
   3   5 -10   30.79    1.54
   3   5 -10   30.99    1.59
  -3  -4  10   35.00    2.09
   3   4 -10   35.29    1.54
   3   4 -10   34.83    1.72
  -3  -3  10   -0.50    0.76
   3   3 -10    0.23    0.76
  -3  -2  10    0.40    0.79
   3   2 -10   -0.23    0.83
  -3  -1  10   -0.53    0.76
   3   1 -10    0.46    0.85
  -3   0  10    2.78    0.95
   3   0 -10    4.54    1.15
  -3   1  10   16.55    1.84
   3  -1 -10   16.47    1.76
  -3   2  10   13.07    1.69
   3  -2 -10   16.31    1.86
  -3   3  10    6.56    1.38
   3  -3 -10    5.63    1.50
  -3   4  10    0.35    1.13
   3  -4 -10    0.19    1.27
  -2 -11  10    1.69    1.47
   2  11 -10   -0.50    0.68
  -2 -10  10    0.97    1.27
   2  10 -10    1.70    0.82
  -2  -9  10    9.92    1.57
   2   9 -10    5.53    0.97
  -2  -8  10    5.08    1.30
   2   8 -10    4.93    0.94
  -2  -7  10    0.98    0.99
   2   7 -10    0.19    0.66
  -2  -6  10   -0.20    0.92
   2   6 -10   -0.48    0.60
   2   6 -10    0.17    0.68
  -2  -5  10    2.62    1.01
   2   5 -10    2.40    0.71
   2   5 -10    1.97    0.77
  -2  -4  10   14.01    1.48
   2   4 -10   13.91    1.03
   2   4 -10   14.12    1.30
  -2  -3  10   17.64    1.79
   2   3 -10   16.61    1.40
  -2  -2  10   33.35    2.05
   2   2 -10   33.69    1.77
  -2  -1  10    0.70    0.90
   2   1 -10    0.42    0.84
  -2   0  10    1.82    1.00
   2   0 -10    1.30    0.93
  -2   1  10    1.67    1.04
   2  -1 -10    1.45    1.05
  -2   2  10    2.07    1.22
   2  -2 -10    2.43    1.24
  -2   3  10    3.68    1.33
   2  -3 -10    2.53    1.32
  -2   4  10    7.91    1.68
   2  -4 -10    8.81    1.76
  -1 -11  10    4.79    1.57
   1  11 -10    3.34    0.85
  -1 -10  10    1.29    1.29
   1  10 -10    2.24    0.76
  -1  -9  10    4.77    1.33
   1   9 -10    4.40    0.92
  -1  -8  10    0.31    0.96
   1   8 -10   -0.57    0.58
  -1  -7  10    0.60    0.91
   1   7 -10    1.38    0.70
   1   7 -10    1.79    0.63
  -1  -6  10    0.46    0.91
   1   6 -10   -0.68    0.53
   1   6 -10    2.57    0.68
  -1  -5  10    6.74    1.17
   1   5 -10   10.57    0.92
   1   5 -10    5.83    0.90
  -1  -4  10    5.87    1.16
   1   4 -10    6.80    1.00
  -1  -3  10    7.12    1.23
   1   3 -10    8.87    1.13
  -1  -2  10    4.39    1.14
   1   2 -10    4.72    1.01
  -1  -1  10    0.31    0.87
   1   1 -10   -0.51    0.80
  -1   0  10    1.54    1.05
   1   0 -10    2.46    0.98
  -1   1  10    0.47    1.03
   1  -1 -10    1.36    1.07
  -1   2  10    4.39    1.34
   1  -2 -10    6.28    1.37
  -1   3  10   -0.05    1.21
   1  -3 -10    2.27    1.31
   0 -12  10    1.07    1.58
   0  12 -10    0.47    0.74
   0 -11  10    0.99    1.35
   0  11 -10    0.98    0.70
   0 -10  10    2.90    1.27
   0  10 -10    0.80    0.63
   0  -9  10    4.88    1.33
   0   9 -10    3.85    0.82
   0  -8  10    9.59    1.50
   0   8 -10    9.66    1.00
   0  -7  10   26.80    2.10
   0   7 -10   23.62    1.23
   0   7 -10   22.12    1.27
   0  -6  10   -0.44    0.83
   0   6 -10    1.88    0.65
   0   6 -10    0.59    0.54
   0  -5  10   -0.04    0.82
   0   5 -10    0.36    0.61
   0  -4  10   11.08    1.41
   0   4 -10   11.90    1.19
   0  -3  10    3.93    1.02
   0   3 -10    4.38    0.92
   0  -2  10    6.53    1.23
   0   2 -10    9.03    1.16
   0  -1  10   24.01    1.99
   0   1 -10   27.28    1.77
   0   0  10    4.67    1.25
   0   0 -10    2.69    1.04
   0   1  10    0.31    1.06
   0  -1 -10    1.29    1.03
   0   2  10   -0.74    1.10
   0  -2 -10    2.56    1.22
   0   3  10    1.31    1.28
   0  -3 -10    3.04    1.36
   1 -12  10    1.01    1.56
  -1  12 -10    0.76    0.70
   1 -11  10   -1.11    1.31
  -1  11 -10   -0.16    0.62
   1 -10  10    0.62    1.23
  -1  10 -10    1.24    0.70
   1  -9  10   -0.29    1.15
  -1   9 -10    0.66    0.63
   1  -8  10    0.64    1.07
  -1   8 -10    0.47    0.61
  -1   8 -10    1.55    0.57
   1  -7  10    0.13    0.93
  -1   7 -10    0.78    0.62
  -1   7 -10   -0.14    0.53
   1  -6  10    1.30    0.96
  -1   6 -10    2.90    0.77
   1  -5  10    6.87    1.21
  -1   5 -10    8.68    1.12
   1  -4  10    1.93    0.88
  -1   4 -10    3.23    0.89
   1  -3  10    0.91    0.92
  -1   3 -10    0.67    0.83
   1  -2  10    0.93    0.94
  -1   2 -10    2.06    0.98
   1  -1  10    0.79    0.98
  -1   1 -10    0.81    0.94
   1   0  10    2.04    1.12
  -1   0 -10    0.52    0.94
   1   1  10    6.39    1.48
  -1  -1 -10    6.01    1.41
   1   2  10    1.34    1.26
  -1  -2 -10    6.32    1.58
   2 -12  10    2.81    1.71
  -2  12 -10    2.27    0.80
   2 -11  10   -1.62    1.40
  -2  11 -10   -0.24    0.64
   2 -10  10    0.22    1.36
  -2  10 -10    0.22    0.64
   2  -9  10    3.06    1.36
  -2   9 -10    4.48    0.83
   2  -8  10    2.27    1.20
  -2   8 -10    1.33    0.65
  -2   8 -10    4.38    0.75
   2  -7  10    5.57    1.29
  -2   7 -10    5.60    0.92
   2  -6  10   21.22    1.96
  -2   6 -10   20.64    1.46
   2  -5  10    1.18    0.93
  -2   5 -10    0.38    0.75
   2  -4  10    0.37    0.85
  -2   4 -10    0.73    0.79
   2  -3  10    1.46    0.96
  -2   3 -10    2.09    0.93
   2  -2  10   -0.50    0.88
  -2   2 -10   -1.31    0.81
   2  -1  10    1.38    1.08
  -2   1 -10    3.69    1.16
   2   0  10    1.05    1.12
  -2   0 -10    4.86    1.26
   2   1  10    1.16    1.23
  -2  -1 -10    3.48    1.36
   2   2  10    0.63    1.30
  -2  -2 -10    1.69    1.30
   3 -12  10   -0.18    1.55
  -3  12 -10   -0.01    0.70
   3 -11  10    1.98    1.66
  -3  11 -10    0.66    0.71
   3 -10  10    5.98    1.68
  -3  10 -10    3.43    0.86
   3  -9  10    0.58    1.24
  -3   9 -10    0.49    0.66
   3  -8  10   -0.41    1.10
  -3   8 -10    0.54    0.67
   3  -7  10    3.01    1.17
  -3   7 -10    5.63    1.01
   3  -6  10   -0.44    0.94
  -3   6 -10    0.92    0.82
   3  -5  10    0.33    0.89
  -3   5 -10    2.29    0.94
   3  -4  10   11.96    1.57
  -3   4 -10   15.26    1.54
   3  -3  10    1.88    1.13
  -3   3 -10    2.21    0.95
   3  -2  10    1.80    1.16
  -3   2 -10    1.82    1.00
   3  -1  10    0.83    1.22
  -3   1 -10    2.29    1.18
   3   0  10   -0.15    1.07
  -3   0 -10    2.75    1.30
   3   1  10   -0.83    1.12
  -3  -1 -10    2.44    1.35
   4 -12  10   -0.43    1.55
  -4  12 -10    0.75    0.71
   4 -11  10    2.31    1.65
  -4  11 -10    1.32    0.75
   4 -10  10    0.31    1.44
  -4  10 -10   -0.13    0.66
   4  -9  10    0.99    1.29
  -4   9 -10    1.15    0.76
   4  -8  10    0.69    1.16
  -4   8 -10    2.72    0.92
   4  -7  10    0.72    1.13
  -4   7 -10   -0.11    0.84
   4  -6  10    0.71    1.10
  -4   6 -10    3.60    1.04
   4  -5  10    1.69    1.14
  -4   5 -10    2.08    1.01
   4  -4  10   -0.39    1.02
  -4   4 -10    0.25    0.89
   4  -3  10   -1.36    1.07
  -4   3 -10    0.11    0.99
   4  -2  10    0.13    1.20
  -4   2 -10    1.04    0.99
   4  -1  10    0.37    1.07
  -4   1 -10    1.34    1.20
   4   0  10    1.51    1.25
  -4   0 -10    2.71    1.31
   5 -11  10   -0.27    1.52
  -5  11 -10   -0.65    0.66
   5 -10  10    0.61    1.49
   5  -9  10    4.78    1.53
  -5   9 -10    7.46    1.15
   5  -8  10    0.15    1.26
  -5   8 -10    1.39    0.84
   5  -7  10   -1.65    1.11
  -5   7 -10    0.31    0.87
   5  -6  10    3.72    1.37
  -5   6 -10    2.87    1.00
   5  -5  10   -0.88    1.12
  -5   5 -10    0.03    0.92
   5  -4  10    0.39    1.20
  -5   4 -10    2.70    1.10
   5  -3  10    5.49    1.52
  -5   3 -10    5.51    1.30
   5  -2  10    2.72    1.61
  -5   2 -10    4.57    1.32
   5  -1  10    1.03    1.20
  -5   1 -10    2.54    1.27
   6 -11  10   -2.59    1.40
   6 -10  10   -1.50    1.38
   6  -9  10   -1.50    1.29
  -6   9 -10    0.57    0.84
   6  -8  10   -1.98    1.22
  -6   8 -10    0.21    0.82
   6  -7  10    1.65    1.36
  -6   7 -10    1.56    0.99
   6  -6  10   -0.61    1.21
  -6   6 -10    1.80    1.05
   6  -5  10   -0.04    1.28
  -6   5 -10    0.92    0.97
   6  -4  10   -0.11    1.28
  -6   4 -10    0.21    1.11
   6  -3  10   -1.30    1.34
  -6   3 -10    0.99    1.21
   7 -10  10   -1.03    1.45
  -7  10 -10   -0.23    0.88
   7  -9  10   -2.12    1.34
  -7   9 -10    0.67    0.96
   7  -8  10    1.18    1.41
  -7   8 -10    2.12    1.00
   7  -7  10   -0.84    1.24
  -7   7 -10    3.71    1.15
   7  -6  10   -1.44    1.28
  -7   6 -10   -0.38    0.96
   7  -5  10    0.62    1.39
  -7   5 -10    0.14    1.04
  -9  -4  11    1.90    0.86
  -9  -3  11    4.24    0.96
   9   3 -11    2.96    1.34
  -9  -2  11    6.25    1.06
   9   2 -11    5.50    1.48
  -9  -1  11    2.70    0.84
   9   1 -11    0.90    1.35
  -9   0  11    6.83    1.07
   9   0 -11    5.69    1.72
  -9   1  11    2.39    0.78
   9  -1 -11    0.99    1.59
   9  -2 -11    3.54    1.75
   8   6 -11    6.38    1.29
   8   5 -11    4.20    1.16
  -8  -4  11    0.17    0.70
   8   4 -11   -0.83    1.08
  -8  -3  11    2.13    0.76
   8   3 -11   -2.42    1.05
  -8  -2  11   -0.30    0.62
   8   2 -11   -0.43    1.22
  -8  -1  11    5.79    0.94
   8   1 -11    6.09    1.62
  -8   0  11   21.41    1.41
   8   0 -11   21.78    2.25
   8  -1 -11   13.14    1.99
   8  -2 -11    2.98    1.63
  -7  -7  11    0.48    1.32
  -7  -6  11   -1.12    1.05
   7   6 -11   -0.79    0.80
  -7  -5  11    7.42    1.39
   7   5 -11    6.30    1.22
  -7  -4  11    5.61    1.18
   7   4 -11    7.37    1.36
  -7  -3  11    9.38    1.91
  -7  -3  11   10.76    1.16
   7   3 -11   11.66    1.61
  -7  -2  11    1.10    0.67
   7   2 -11   -0.06    1.17
  -7  -1  11    1.16    0.64
   7   1 -11    1.22    1.30
   7   0 -11   -0.85    1.30
   7  -1 -11    5.32    1.62
   7  -2 -11   10.26    1.91
   7  -3 -11    9.38    1.96
  -6  -8  11   -0.96    1.32
   6   8 -11   -0.49    0.71
  -6  -7  11   -1.46    1.21
   6   7 -11    0.95    0.81
  -6  -6  11    5.93    1.38
   6   6 -11    4.70    1.08
  -6  -5  11    5.49    1.32
   6   5 -11    9.27    1.31
   6   5 -11    6.74    1.15
  -6  -4  11    5.02    1.21
   6   4 -11    9.43    1.38
  -6  -3  11    3.53    0.73
  -6  -3  11    1.39    0.95
   6   3 -11    3.75    1.27
  -6  -2  11    0.67    0.56
  -6  -2  11    0.43    0.81
   6   2 -11   -1.27    1.12
  -6  -1  11    2.21    0.75
  -6  -1  11    0.07    0.77
   6   1 -11    0.86    1.20
  -6   0  11    1.09    0.83
   6   0 -11    1.87    1.35
  -6   1  11    9.50    1.27
   6  -1 -11   10.66    1.77
   6  -2 -11    2.14    1.53
   6  -3 -11    4.34    1.76
  -5  -9  11    3.05    1.65
   5   9 -11    3.95    1.07
  -5  -8  11    6.48    1.69
   5   8 -11    5.20    1.09
  -5  -7  11   -0.46    1.21
   5   7 -11   -0.31    0.77
  -5  -6  11   -0.03    1.16
   5   6 -11    0.94    0.77
  -5  -5  11    1.23    1.06
   5   5 -11    2.01    0.90
   5   5 -11    2.32    1.00
  -5  -4  11    6.18    1.24
   5   4 -11    6.99    1.12
   5   4 -11    9.17    1.33
  -5  -3  11   18.70    1.16
  -5  -3  11   16.71    1.86
   5   3 -11   21.54    1.85
  -5  -2  11   26.68    2.05
  -5  -2  11   29.17    1.61
   5   2 -11   28.31    2.04
  -5  -1  11    3.34    1.04
   5   1 -11    6.48    1.40
  -5   0  11    0.50    0.89
   5   0 -11    0.95    1.21
  -5   1  11   -0.61    0.84
   5  -1 -11   -0.09    1.25
  -5   2  11    0.51    0.99
   5  -2 -11    1.19    1.43
  -5   3  11    6.12    1.34
   5  -3 -11    8.33    1.82
  -4  -9  11   -1.06    1.41
   4   9 -11   -0.06    0.81
  -4  -8  11   -0.11    1.30
   4   8 -11   -0.97    0.67
  -4  -7  11    0.13    1.21
   4   7 -11    1.06    0.83
  -4  -6  11    1.40    1.15
   4   6 -11    4.94    1.02
   4   6 -11    1.97    0.83
  -4  -5  11    1.19    1.06
   4   5 -11    0.72    0.79
   4   5 -11    1.27    0.93
  -4  -4  11    2.77    1.08
   4   4 -11    3.96    0.94
   4   4 -11    3.39    1.07
  -4  -3  11   -0.35    0.49
  -4  -3  11   -0.82    0.87
   4   3 -11   -1.15    0.85
  -4  -2  11    5.14    1.21
   4   2 -11    5.92    1.29
  -4  -1  11    1.55    0.98
   4   1 -11    2.61    1.13
  -4   0  11    9.49    1.38
   4   0 -11    9.57    1.55
  -4   1  11   -0.20    0.94
   4  -1 -11    2.05    1.27
  -4   2  11    1.59    1.12
   4  -2 -11    0.79    1.42
  -4   3  11    0.90    1.16
   4  -3 -11    0.57    1.51
  -3 -10  11   -1.65    1.33
   3  10 -11    0.86    0.80
  -3  -9  11    1.96    1.40
   3   9 -11    3.20    0.93
  -3  -8  11    6.37    1.56
   3   8 -11    7.07    1.11
  -3  -7  11   16.33    1.80
   3   7 -11   15.47    1.42
  -3  -6  11   -0.31    1.01
   3   6 -11   -0.63    0.76
   3   6 -11   -0.09    0.70
  -3  -5  11    0.70    0.98
   3   5 -11    2.74    0.79
   3   5 -11    1.29    0.90
  -3  -4  11    2.53    1.06
   3   4 -11    2.74    0.99
  -3  -3  11    0.89    0.94
   3   3 -11    0.62    0.92
  -3  -2  11    8.66    1.39
   3   2 -11   10.39    1.42
  -3  -1  11   11.32    1.53
   3   1 -11   12.87    1.58
  -3   0  11    6.70    1.35
   3   0 -11    5.19    1.32
  -3   1  11    0.09    1.03
   3  -1 -11    0.63    1.21
  -3   2  11    0.12    1.11
   3  -2 -11    0.89    1.32
  -3   3  11    0.10    1.20
   3  -3 -11    2.26    1.48
  -2 -10  11   -1.08    1.31
   2  10 -11    0.29    0.71
  -2  -9  11   -1.36    1.15
   2   9 -11    0.02    0.69
  -2  -8  11    3.38    1.39
   2   8 -11    2.25    0.87
  -2  -7  11    1.28    1.17
   2   7 -11    1.91    0.79
  -2  -6  11    3.99    1.20
   2   6 -11    3.54    0.87
   2   6 -11    4.09    0.85
  -2  -5  11   16.91    1.77
   2   5 -11   17.26    1.41
  -2  -4  11    1.20    0.99
   2   4 -11    1.48    0.83
  -2  -3  11   -0.05    0.87
   2   3 -11    1.13    0.87
  -2  -2  11    4.91    1.19
   2   2 -11    6.93    1.16
  -2  -1  11    1.39    1.00
   2   1 -11   -0.53    0.89
  -2   0  11    3.15    1.14
   2   0 -11    3.79    1.25
  -2   1  11   10.87    1.67
   2  -1 -11   11.15    1.63
  -2   2  11    3.15    1.37
   2  -2 -11    5.48    1.53
  -1 -11  11   -1.01    1.41
   1  11 -11   -0.53    0.63
  -1 -10  11    0.28    1.28
   1  10 -11   -0.58    0.61
  -1  -9  11   -0.75    1.15
   1   9 -11    0.22    0.71
  -1  -8  11    1.13    1.18
   1   8 -11   -0.28    0.64
  -1  -7  11    4.03    1.25
   1   7 -11    4.11    0.85
   1   7 -11    4.60    0.86
  -1  -6  11    4.30    1.21
   1   6 -11    5.07    0.91
  -1  -5  11    1.38    1.05
   1   5 -11    3.06    0.88
  -1  -4  11    0.37    0.96
   1   4 -11    1.87    0.85
  -1  -3  11    0.65    0.89
   1   3 -11    1.00    0.82
  -1  -2  11    0.34    0.96
   1   2 -11    0.43    0.89
  -1  -1  11    3.61    1.19
   1   1 -11    4.36    1.17
  -1   0  11    0.15    1.03
   1   0 -11    0.93    1.05
  -1   1  11    1.41    1.25
   1  -1 -11    2.17    1.27
  -1   2  11    1.19    1.31
   1  -2 -11   -0.15    1.26
   0 -11  11   -0.24    1.47
   0  11 -11    1.49    0.74
   0 -10  11    8.10    1.67
   0  10 -11    6.99    1.05
   0  -9  11    0.07    1.12
   0   9 -11   -1.20    0.58
   0  -8  11   -0.80    1.03
   0   8 -11   -0.53    0.60
   0  -7  11    9.26    1.50
   0   7 -11   11.35    1.12
   0   7 -11    7.69    1.57
   0  -6  11   -0.28    0.96
   0   6 -11    2.18    0.80
   0  -5  11    2.31    1.08
   0   5 -11    2.29    0.83
   0  -4  11   21.83    1.95
   0   4 -11   21.76    1.63
   0  -3  11    5.83    1.33
   0   3 -11    4.66    1.09
   0  -2  11   -0.41    1.01
   0   2 -11    0.83    0.88
   0  -1  11    1.40    1.12
   0   1 -11    1.38    1.09
   0   0  11    1.01    1.15
   0   0 -11    1.31    1.14
   0   1  11    1.30    1.28
   0  -1 -11    3.07    1.30
   0   2  11    0.82    1.30
   0  -2 -11    2.19    1.41
   1 -11  11   -0.06    1.49
  -1  11 -11    0.58    0.70
   1 -10  11   -0.56    1.26
  -1  10 -11    0.13    0.67
   1  -9  11    0.11    1.21
  -1   9 -11    0.27    0.62
   1  -8  11    0.89    1.16
  -1   8 -11    3.23    0.72
   1  -7  11    1.71    1.12
  -1   7 -11    1.27    0.71
   1  -6  11    3.13    1.09
  -1   6 -11    2.71    0.86
   1  -5  11    0.17    0.89
  -1   5 -11    0.91    0.84
   1  -4  11   -1.34    0.84
  -1   4 -11   -0.16    0.82
   1  -3  11   -0.75    0.92
  -1   3 -11   -0.08    0.89
   1  -2  11    1.86    1.10
  -1   2 -11    4.37    1.18
   1  -1  11    0.74    1.12
  -1   1 -11    0.77    1.00
   1   0  11    2.87    1.29
  -1   0 -11    3.10    1.29
   1   1  11    1.06    1.23
  -1  -1 -11    2.26    1.43
   2 -11  11   -1.96    1.40
  -2  11 -11    0.14    0.67
   2 -10  11   -0.21    1.38
  -2  10 -11    1.79    0.75
   2  -9  11    7.53    1.66
   2  -8  11   -0.19    1.12
  -2   8 -11    2.05    0.77
   2  -7  11   -0.17    1.04
  -2   7 -11    2.07    0.87
   2  -6  11    0.68    1.08
  -2   6 -11    1.66    0.89
   2  -5  11    0.68    0.97
  -2   5 -11    3.44    0.96
   2  -4  11    1.80    1.14
  -2   4 -11    2.67    1.05
  -2   3 -11    3.99    1.18
   2  -2  11    2.97    1.24
  -2   2 -11    4.30    1.25
   2  -1  11    0.00    1.22
  -2   1 -11   -0.53    1.05
   2   0  11   -0.53    1.13
  -2   0 -11   -0.43    1.17
   3 -11  11    0.63    1.65
  -3  11 -11   -0.78    0.63
   3 -10  11    1.10    1.50
   3  -9  11   -0.71    1.34
   3  -8  11   -0.35    1.25
  -3   8 -11    1.89    0.84
   3  -7  11    6.42    1.48
  -3   7 -11    6.59    1.12
   3  -6  11    0.96    1.13
  -3   6 -11    3.18    1.05
   3  -5  11    4.00    1.31
  -3   5 -11    2.68    1.08
   3  -4  11    1.82    1.20
  -3   4 -11    3.13    1.13
   3  -3  11   -0.46    1.07
  -3   3 -11    2.42    1.20
   3  -2  11   -0.57    1.23
  -3   2 -11    1.68    1.19
   3  -1  11    3.75    1.58
  -3   1 -11    3.00    1.31
   4 -11  11   -2.08    1.55
   4 -10  11   -2.20    1.43
   4  -9  11    1.67    1.44
  -4   9 -11    2.40    0.87
   4  -8  11    0.72    1.31
  -4   8 -11    2.63    1.01
   4  -7  11    0.07    1.27
  -4   7 -11    1.75    1.03
   4  -6  11   -0.12    1.29
  -4   6 -11    0.45    1.01
   4  -5  11   -0.49    1.16
  -4   5 -11    0.45    1.01
   4  -4  11   -0.59    1.24
  -4   4 -11   -0.53    0.95
   4  -3  11    0.21    1.37
  -4   3 -11    1.63    1.17
   4  -2  11    1.58    1.53
  -4   2 -11    2.21    1.26
   5 -10  11   -1.18    1.45
   5  -9  11    0.41    1.47
  -5   9 -11    2.89    1.07
   5  -8  11   -1.53    1.30
  -5   8 -11    0.88    0.97
   5  -7  11   -1.78    1.38
  -5   7 -11    0.64    0.98
   5  -6  11    3.70    1.55
  -5   6 -11    3.22    1.19
   5  -5  11    3.82    1.59
  -5   5 -11    2.71    1.13
   5  -4  11    0.84    1.41
  -5   4 -11    1.81    1.25
   5  -3  11    1.29    1.56
  -5   3 -11    1.78    1.21
   6  -9  11   -1.25    1.43
  -6   9 -11    0.67    0.93
   6  -8  11    0.22    1.52
  -6   8 -11    1.63    1.07
   6  -7  11   -1.24    1.36
  -6   7 -11    0.86    1.11
   6  -6  11   -0.97    1.35
  -6   6 -11    1.54    1.17
   6  -5  11   -0.92    1.37
  -6   5 -11    1.24    1.13
  -8  -4  12    2.49    0.86
   8   4 -12    0.92    1.25
   8   3 -12   12.16    1.79
  -8  -2  12    8.66    1.07
   8   2 -12    6.72    1.69
   8   1 -12    6.40    1.70
   8   0 -12   -0.06    1.49
  -7  -6  12    2.73    1.40
   7   6 -12    4.22    1.17
  -7  -5  12   -1.10    1.23
  -7  -4  12    1.75    0.76
   7   4 -12   -1.07    1.16
  -7  -3  12    0.48    0.66
   7   3 -12   -1.75    1.20
   7   2 -12    0.06    1.40
   7   1 -12    8.92    1.89
   7   0 -12    6.20    1.72
   7  -1 -12    5.93    1.83
  -6  -7  12    1.04    1.45
   6   7 -12    1.07    0.91
  -6  -6  12    0.79    1.32
   6   6 -12    1.63    0.97
  -6  -5  12    0.00    1.05
   6   5 -12    0.83    0.91
   6   5 -12    0.51    1.10
  -6  -4  12    0.25    0.59
  -6  -4  12   -1.62    0.94
   6   4 -12   -2.13    1.05
  -6  -3  12    0.14    0.97
  -6  -3  12    0.35    0.95
   6   3 -12   -0.81    1.21
  -6  -2  12    5.16    1.19
   6   2 -12    6.68    1.55
  -6  -1  12    2.94    1.07
   6   1 -12    2.75    1.55
   6   0 -12    4.87    1.61
   6  -1 -12   -2.56    1.45
   6  -2 -12   -1.28    1.57
  -5  -8  12   -1.73    1.37
   5   8 -12    0.61    0.90
  -5  -7  12   -1.12    1.32
   5   7 -12    0.62    0.81
  -5  -6  12    4.92    1.44
   5   6 -12    3.88    1.02
  -5  -5  12   10.80    1.64
   5   5 -12   12.77    1.45
   5   5 -12   12.50    1.54
  -5  -4  12    5.45    1.02
  -5  -4  12    3.91    1.21
   5   4 -12    6.84    1.42
  -5  -3  12    0.39    1.05
   5   3 -12    2.09    1.22
  -5  -2  12    2.55    1.11
   5   2 -12    0.39    1.21
  -5  -1  12    0.40    0.97
   5   1 -12    1.81    1.35
  -5   0  12    3.86    1.14
   5   0 -12    4.32    1.55
  -5   1  12    5.53    1.38
   5  -1 -12    5.50    1.69
  -5   2  12    4.65    1.26
   5  -2 -12    5.07    1.74
  -4  -9  12    0.34    1.55
   4   9 -12    1.28    0.91
  -4  -8  12   -1.14    1.29
   4   8 -12    0.14    0.81
  -4  -7  12    2.55    1.39
   4   7 -12    2.75    0.94
  -4  -6  12   -1.36    1.10
   4   6 -12    0.25    0.80
   4   6 -12   -1.39    0.91
  -4  -5  12    0.12    1.06
   4   5 -12   -0.05    1.00
  -4  -4  12   -0.43    0.99
   4   4 -12   -0.79    1.01
  -4  -3  12    1.57    1.02
   4   3 -12    4.46    1.26
  -4  -2  12    1.07    1.06
   4   2 -12    1.28    1.21
  -4  -1  12   -0.85    0.96
   4   1 -12    2.50    1.33
  -4   0  12   -0.03    1.01
   4   0 -12   -0.26    1.26
  -4   1  12   -0.55    1.08
   4  -1 -12    2.00    1.48
  -4   2  12    1.33    1.21
   4  -2 -12    0.26    1.63
  -3  -9  12    0.79    1.49
   3   9 -12   -0.15    0.80
  -3  -8  12    0.55    1.35
   3   8 -12   -0.11    0.77
  -3  -7  12    2.15    1.36
   3   7 -12    2.28    0.90
  -3  -6  12    0.10    1.13
   3   6 -12   -0.65    0.86
  -3  -5  12    4.84    1.38
   3   5 -12    6.86    1.23
  -3  -4  12    6.83    1.43
   3   4 -12    8.77    1.37
  -3  -3  12    5.91    1.40
   3   3 -12    9.30    1.44
  -3  -2  12   -0.13    1.04
   3   2 -12    0.01    1.08
  -3  -1  12    0.25    1.03
   3   1 -12   -0.50    1.16
  -3   0  12    1.48    1.17
   3   0 -12    1.16    1.27
  -3   1  12    0.51    1.23
   3  -1 -12    2.91    1.43
  -2 -10  12   -3.07    1.32
   2  10 -12   -0.31    0.73
  -2  -9  12   -0.28    1.33
   2   9 -12    0.18    0.73
  -2  -8  12    6.16    1.58
   2   8 -12    5.15    1.03
  -2  -7  12   -0.06    1.17
  -2  -6  12   -0.12    1.08
   2   6 -12    1.91    0.91
  -2  -5  12    2.15    1.18
   2   5 -12    3.02    1.02
  -2  -4  12    1.66    1.18
   2   4 -12    1.53    0.95
  -2  -3  12   -0.49    1.03
   2   3 -12    1.11    1.05
  -2  -2  12    2.78    1.20
   2   2 -12    3.41    1.20
  -2  -1  12    8.09    1.56
   2   1 -12    8.04    1.48
  -2   0  12   -0.53    1.17
   2   0 -12    1.84    1.27
  -2   1  12   -0.67    1.21
   2  -1 -12    1.99    1.38
  -1 -10  12    0.96    1.45
   1  10 -12    1.48    0.80
  -1  -9  12    0.20    1.38
   1   9 -12    2.28    0.86
  -1  -8  12    1.24    1.30
  -1  -7  12   -0.50    1.10
   1   7 -12    2.40    0.83
  -1  -6  12   -0.37    1.07
   1   6 -12    1.05    0.84
  -1  -5  12    0.11    1.10
   1   5 -12    2.50    0.97
  -1  -4  12    2.44    1.12
   1   4 -12    3.33    1.07
  -1  -3  12   -0.35    1.05
   1   3 -12    0.88    1.03
  -1  -2  12    2.76    1.22
   1   2 -12    3.92    1.21
  -1  -1  12    0.75    1.15
   1   1 -12    0.78    1.14
  -1   0  12    0.95    1.22
   1   0 -12    1.77    1.27
  -1   1  12    0.22    1.24
   1  -1 -12    1.50    1.41
   0 -11  12   -1.44    1.52
   0 -10  12    2.28    1.55
   0  10 -12    0.58    0.73
   0  -9  12    0.97    1.28
   0  -8  12    1.16    1.31
   0  -7  12    6.49    1.52
   0   7 -12    8.99    1.12
   0  -6  12    6.98    1.43
   0   6 -12    9.05    1.21
   0  -5  12    0.05    1.04
   0   5 -12    0.99    0.93
   0  -4  12   -0.53    1.00
   0   4 -12    0.92    0.97
   0  -3  12    2.07    1.20
   0   3 -12    2.92    1.10
   0  -2  12   -1.50    1.01
   0   2 -12    2.52    1.20
   0  -1  12    1.94    1.29
   0   1 -12    3.11    1.30
   0   0  12    4.48    1.49
   0   0 -12    5.66    1.54
   1 -11  12   -2.63    1.52
  -1  11 -12    0.23    0.73
   1 -10  12   -0.17    1.45
   1  -9  12    2.27    1.42
   1  -8  12   -0.75    1.18
  -1   8 -12    1.90    0.82
   1  -7  12   -0.50    1.12
  -1   7 -12    2.59    0.89
   1  -6  12   -0.42    1.04
  -1   6 -12    1.86    0.88
   1  -5  12    2.83    1.19
  -1   5 -12    4.34    1.13
   1  -4  12    0.59    1.19
  -1   4 -12    2.60    1.11
   1  -3  12    1.24    1.19
  -1   3 -12    3.33    1.21
   1  -2  12    0.09    1.20
  -1   2 -12    1.49    1.16
   1  -1  12    0.39    1.28
  -1   1 -12   -0.16    1.16
   2 -11  12   -1.32    1.58
   2 -10  12    1.03    1.53
   2  -9  12   -1.10    1.33
   2  -8  12   -0.83    1.24
  -2   8 -12    2.55    0.89
   2  -7  12    2.13    1.33
  -2   7 -12    2.09    0.94
   2  -6  12    2.75    1.31
  -2   6 -12    2.38    1.01
   2  -5  12    6.52    1.52
  -2   5 -12    8.68    1.41
   2  -4  12    1.13    1.17
  -2   4 -12    2.07    1.16
   2  -3  12   -0.20    1.16
  -2   3 -12    1.20    1.19
   2  -2  12    1.46    1.31
  -2   2 -12    1.61    1.24
   2  -1  12    0.97    1.46
  -2   1 -12    2.80    1.31
   3 -10  12    2.51    1.71
   3  -9  12    1.29    1.54
   3  -8  12    2.40    1.50
  -3   8 -12    4.62    1.09
   3  -7  12   -1.45    1.22
  -3   7 -12    1.74    0.97
   3  -6  12   -0.71    1.30
  -3   6 -12    0.54    0.95
   3  -5  12   -0.32    1.24
  -3   5 -12    0.54    1.07
   3  -4  12    0.06    1.29
  -3   4 -12    4.31    1.32
   3  -3  12    4.24    1.61
  -3   3 -12    5.42    1.39
  -3   2 -12    1.98    1.33
   4 -10  12    1.29    1.72
   4  -9  12   -2.38    1.42
  -4   9 -12    2.47    1.00
   4  -8  12   -1.63    1.51
  -4   8 -12    1.04    0.98
   4  -7  12   -1.28    1.42
  -4   7 -12    0.93    0.99
   4  -6  12    0.58    1.48
  -4   6 -12    1.97    1.17
   4  -5  12   -2.65    1.33
  -4   5 -12    3.92    1.31
   4  -4  12    1.46    1.44
  -4   4 -12    3.46    1.35
   5  -8  12    1.11    1.65
  -5   8 -12    4.90    1.24
   5  -7  12   -0.20    1.59
  -5   7 -12    1.42    1.05
   5  -6  12    0.53    1.53
  -5   6 -12    0.78    1.07
   7   4 -13   -1.53    1.23
   7   3 -13    0.20    1.49
   7   2 -13    1.47    1.57
   7   1 -13   -0.41    1.59
  -6  -6  13   -0.27    1.27
   6   6 -13    0.32    0.95
  -6  -5  13    0.75    1.28
   6   5 -13   -0.05    1.23
  -6  -4  13    1.46    1.19
   6   4 -13    0.39    1.38
  -6  -3  13    2.83    1.25
   6   3 -13    4.23    1.58
  -6  -2  13   -0.46    0.97
   6   2 -13   -1.73    1.37
  -6  -1  13   -0.81    1.17
   6   1 -13   -1.77    1.51
  -5  -7  13   -0.20    1.43
   5   7 -13    3.02    1.05
  -5  -6  13   -0.91    1.28
  -5  -5  13   -0.90    1.24
   5   5 -13    0.31    1.18
  -5  -4  13    0.88    1.24
   5   4 -13    0.71    1.27
  -5  -3  13    0.29    1.15
   5   3 -13    0.57    1.36
  -5  -2  13    1.54    1.20
   5   2 -13    5.62    1.55
  -5  -1  13    5.23    1.34
   5   1 -13    7.76    1.79
  -5   0  13    1.86    1.21
   5   0 -13    0.21    1.56
  -4  -8  13   -0.14    1.60
   4   8 -13    0.40    0.79
  -4  -7  13   -0.16    1.44
  -4  -6  13   -0.73    1.21
   4   6 -13    0.00    1.10
  -4  -5  13   -0.58    1.17
   4   5 -13    0.85    1.15
  -4  -4  13    0.66    1.25
   4   4 -13    0.86    1.25
  -4  -3  13   -2.00    1.02
   4   3 -13    0.45    1.22
  -4  -2  13   -1.32    1.06
   4   2 -13   -0.25    1.33
  -4  -1  13    1.78    1.27
   4   1 -13    1.82    1.48
  -4   0  13    0.69    1.15
   4   0 -13    0.97    1.53
  -3  -9  13   -1.67    1.50
   3   9 -13    1.14    0.94
  -3  -8  13    0.13    1.45
  -3  -7  13    5.80    1.66
  -3  -6  13    7.93    1.67
   3   6 -13    5.37    1.21
  -3  -5  13   -1.16    1.23
   3   5 -13    0.01    1.07
  -3  -4  13   -0.17    1.15
   3   4 -13   -0.28    1.10
  -3  -3  13   -0.36    1.20
   3   3 -13    1.61    1.24
  -3  -2  13   -1.80    1.06
   3   2 -13    1.82    1.36
  -3  -1  13    2.89    1.35
   3   1 -13    3.51    1.53
  -3   0  13    3.79    1.45
   3   0 -13    4.99    1.63
  -2  -9  13   -0.88    1.45
  -2  -8  13   -1.33    1.34
  -2  -7  13   -0.58    1.27
  -2  -6  13    0.02    1.29
   2   6 -13    0.66    1.02
  -2  -5  13    2.37    1.30
   2   5 -13    1.68    1.12
  -2  -4  13    7.52    1.67
   2   4 -13    8.71    1.45
  -2  -3  13   -0.39    1.15
   2   3 -13    2.55    1.19
  -2  -2  13   -1.63    1.08
   2   2 -13    1.48    1.24
  -2  -1  13    0.74    1.26
   2   1 -13    2.10    1.38
  -1  -9  13   -0.68    1.41
  -1  -8  13    0.61    1.34
  -1  -7  13    0.44    1.30
   1   7 -13    3.51    1.03
  -1  -6  13    1.80    1.30
   1   6 -13    3.31    1.14
  -1  -5  13    2.94    1.34
   1   5 -13    3.21    1.12
  -1  -4  13   -0.85    1.17
   1   4 -13    2.14    1.17
  -1  -3  13   -1.04    1.14
   1   3 -13    1.76    1.25
  -1  -2  13   -0.02    1.17
   1   2 -13    2.74    1.34
  -1  -1  13    0.83    1.35
   1   1 -13    2.39    1.38
   0 -10  13    1.76    1.66
   0  -9  13    3.91    1.65
   0  -8  13    0.77    1.41
   0  -7  13   -1.00    1.21
   0   7 -13    2.22    0.94
   0  -6  13    2.26    1.37
   0   6 -13    1.39    0.99
   0  -5  13    0.25    1.19
   0   5 -13    2.25    1.08
   0  -4  13    1.33    1.28
   0   4 -13    3.51    1.23
   0  -3  13    4.82    1.50
   0   3 -13    8.41    1.52
   0  -2  13    1.18    1.29
   0   2 -13    2.23    1.32
   1 -10  13   -1.19    1.54
   1  -9  13    1.10    1.57
   1  -8  13   -1.02    1.34
  -1   8 -13    3.85    1.06
   1  -7  13    0.20    1.29
  -1   7 -13    4.35    1.10
   1  -6  13    0.96    1.23
  -1   6 -13    4.65    1.21
   1  -5  13   -0.15    1.22
  -1   5 -13    2.51    1.21
   1  -4  13   -0.50    1.28
  -1   4 -13    0.83    1.17
   1  -3  13    0.29    1.26
  -1   3 -13    0.12    1.22
   2  -9  13   -0.36    1.54
   2  -8  13    3.69    1.67
  -2   8 -13    5.85    1.11
   2  -7  13    1.08    1.47
  -2   7 -13    4.27    1.14
   2  -6  13   -0.41    1.33
  -2   6 -13    2.76    1.20
   2  -5  13   -0.64    1.32
  -2   5 -13    3.47    1.29
   2  -4  13   -1.55    1.23
  -2   4 -13    1.78    1.28
   3  -8  13   -0.93    1.50
  -3   8 -13    4.06    1.13
   3  -7  13   -1.36    1.47
  -3   7 -13    3.13    1.11
   3  -6  13   -0.45    1.58
  -3   6 -13    1.94    1.22
   3  -5  13    0.26    1.55
  -3   5 -13    2.74    1.33
  -5  -5  14    4.00    1.58
   5   5 -14    1.52    1.45
  -5  -4  14    3.93    1.55
   5   4 -14    6.49    1.77
  -4  -6  14   -0.21    1.41
  -4  -5  14   -1.70    1.26
   4   5 -14    3.68    1.35
  -4  -4  14   -0.24    1.37
   4   4 -14    1.24    1.42
  -4  -3  14   -1.06    1.23
   4   3 -14   -0.78    1.42
  -3  -7  14    0.52    1.54
  -3  -6  14    0.56    1.44
   3   6 -14    2.22    1.23
  -3  -5  14   -0.86    1.29
   3   5 -14    1.24    1.30
  -3  -4  14    3.20    1.51
   3   4 -14    3.16    1.41
  -3  -3  14    2.93    1.52
   3   3 -14    3.37    1.47
  -2  -7  14    1.11    1.52
  -2  -6  14    2.13    1.52
   2   6 -14    1.83    1.20
  -2  -5  14   -0.29    1.31
   2   5 -14    1.65    1.25
  -2  -4  14   -0.58    1.28
   2   4 -14    1.41    1.30
  -2  -3  14    0.01    1.38
   2   3 -14    1.06    1.39
  -1  -8  14    1.28    1.55
  -1  -7  14   -0.19    1.41
   1   7 -14    1.55    1.03
  -1  -6  14    0.20    1.43
   1   6 -14    1.11    1.14
  -1  -5  14   -0.52    1.38
   1   5 -14    1.85    1.25
  -1  -4  14   -0.87    1.29
   1   4 -14    1.33    1.29
   0  -8  14    0.44    1.51
   0  -7  14   -0.32    1.45
   0   7 -14    4.94    1.25
   0  -6  14    0.78    1.42
   0   6 -14    4.30    1.30
   0  -5  14    2.98    1.55
   0   5 -14    3.61    1.29
   0   0   0    0.00    0.00
;
_shelx_hkl_checksum              34659
loop_
_space_group_symop_operation_xyz
'x, y, z'
'-x, -y, -z'
loop_
_atom_site_label
_atom_site_type_symbol
_atom_site_fract_x
_atom_site_fract_y
_atom_site_fract_z
_atom_site_U_iso_or_equiv
_atom_site_adp_type
_atom_site_occupancy
_atom_site_site_symmetry_order
_atom_site_calc_flag
_atom_site_refinement_flags_posn
_atom_site_refinement_flags_adp
_atom_site_refinement_flags_occupancy
Pt1 Pt 0.0000 0.0000 0.0000 0.03771(12) Uani 1 2 d S . P
Cl1 Cl 0.0626(2) -0.0118(2) 0.2231(2) 0.0486(4) Uani 1 1 d . . .
C3 C 0.7100(11) 0.3364(11) -0.0423(9) 0.061(2) Uani 1 1 d . . .
H3A H 0.7811 0.2921 -0.0921 0.073 Uiso 1 1 calc R U .
H3B H 0.6343 0.3449 -0.1156 0.073 Uiso 1 1 calc R U .
C1 C 0.3680(9) 0.1973(8) 0.0624(7) 0.0377(15) Uani 1 1 d . . .
N1 N 0.2340(7) 0.1206(7) 0.0373(7) 0.0461(15) Uani 1 1 d . . .
C6 C 0.6217(10) 0.4597(11) 0.2287(9) 0.070(3) Uani 1 1 d . . .
H6A H 0.6981 0.4498 0.3004 0.084 Uiso 1 1 calc R U .
H6B H 0.5503 0.5021 0.2795 0.084 Uiso 1 1 calc R U .
N2 N 0.5229(7) 0.2873(8) 0.0906(7) 0.0501(16) Uani 1 1 d . . .
C2 C 0.6149(10) 0.2113(10) 0.0019(10) 0.057(2) Uani 1 1 d . . .
H2A H 0.5397 0.1001 -0.0902 0.069 Uiso 1 1 calc R U .
H2B H 0.6897 0.1887 0.0630 0.069 Uiso 1 1 calc R U .
C5 C 0.7140(10) 0.5849(10) 0.1852(10) 0.061(2) Uani 1 1 d . . .
H5A H 0.7865 0.6969 0.2776 0.074 Uiso 1 1 calc R U .
H5B H 0.6374 0.6051 0.1235 0.074 Uiso 1 1 calc R U .
C4 C 0.8127(11) 0.5155(11) 0.0962(11) 0.065(2) Uani 1 1 d . . .
H4A H 0.8665 0.5964 0.0628 0.078 Uiso 1 1 calc R U .
H4B H 0.8981 0.5094 0.1626 0.078 Uiso 1 1 calc R U .
I1S I 0.45138(6) 0.16142(6) 0.42115(5) 0.04366(13) Uani 1 1 d . . .
I3S I 0.81740(7) 0.53871(6) 0.66832(6) 0.05747(16) Uani 1 1 d . . .
I2S I 0.83314(6) 0.14494(7) 0.41443(6) 0.05161(15) Uani 1 1 d . . .
C1S C 0.7023(8) 0.2584(8) 0.5499(8) 0.0393(15) Uani 1 1 d . . .
H1SA H 0.7046 0.2234 0.6291 0.047 Uiso 1 1 calc R U .
loop_
_atom_site_aniso_label
_atom_site_aniso_U_11
_atom_site_aniso_U_22
_atom_site_aniso_U_33
_atom_site_aniso_U_23
_atom_site_aniso_U_13
_atom_site_aniso_U_12
Pt1 0.03007(19) 0.02387(19) 0.0461(2) 0.00650(16) 0.01964(17) 0.00795(15)
Cl1 0.0365(9) 0.0495(11) 0.0514(11) 0.0196(8) 0.0206(8) 0.0134(8)
C3 0.062(5) 0.067(6) 0.064(6) 0.029(5) 0.043(5) 0.032(5)
C1 0.045(4) 0.029(3) 0.036(4) 0.011(3) 0.022(3) 0.014(3)
N1 0.034(3) 0.035(3) 0.048(4) 0.008(3) 0.022(3) 0.003(3)
C6 0.042(5) 0.051(5) 0.058(5) -0.005(4) 0.022(4) -0.008(4)
N2 0.036(3) 0.034(3) 0.053(4) 0.004(3) 0.025(3) 0.002(3)
C2 0.048(5) 0.040(4) 0.071(5) 0.014(4) 0.033(4) 0.016(4)
C5 0.049(5) 0.035(4) 0.072(6) 0.014(4) 0.011(4) 0.006(4)
C4 0.055(5) 0.052(5) 0.089(7) 0.037(5) 0.041(5) 0.013(4)
I1S 0.0426(3) 0.0370(3) 0.0490(3) 0.0186(2) 0.0206(2) 0.0155(2)
I3S 0.0510(3) 0.0336(3) 0.0702(4) 0.0158(2) 0.0177(3) 0.0128(2)
I2S 0.0522(3) 0.0500(3) 0.0591(3) 0.0248(2) 0.0325(3) 0.0258(3)
C1S 0.044(4) 0.033(4) 0.039(4) 0.017(3) 0.018(3) 0.014(3)
loop_
_atom_type_symbol
_atom_type_description
_atom_type_scat_dispersion_real
_atom_type_scat_dispersion_imag
_atom_type_scat_source
C C 0.0033 0.0016 'International Tables Vol C Tables 4.2.6.8 and 6.1.1.4'
H H 0.0000 0.0000 'International Tables Vol C Tables 4.2.6.8 and 6.1.1.4'
N N 0.0061 0.0033 'International Tables Vol C Tables 4.2.6.8 and 6.1.1.4'
Cl Cl 0.1484 0.1585 'International Tables Vol C Tables 4.2.6.8 and 6.1.1.4'
I I -0.4742 1.8119 'International Tables Vol C Tables 4.2.6.8 and 6.1.1.4'
Pt Pt -1.7033 8.3905 'International Tables Vol C Tables 4.2.6.8 and 6.1.1.4'
loop_
_geom_angle_atom_site_label_1
_geom_angle_atom_site_label_2
_geom_angle_atom_site_label_3
_geom_angle
_geom_angle_site_symmetry_1
_geom_angle_site_symmetry_3
N1 Pt1 N1 180.0 2 .
N1 Pt1 Cl1 90.60(19) 2 2
N1 Pt1 Cl1 89.40(19) . 2
N1 Pt1 Cl1 89.40(19) 2 .
N1 Pt1 Cl1 90.60(19) . .
Cl1 Pt1 Cl1 180.0 2 .
C4 C3 C2 111.1(7) . .
C4 C3 H3A 109.4 . .
C2 C3 H3A 109.4 . .
C4 C3 H3B 109.4 . .
C2 C3 H3B 109.4 . .
H3A C3 H3B 108.0 . .
N1 C1 N2 179.3(9) . .
C1 N1 Pt1 176.7(6) . .
N2 C6 C5 109.5(7) . .
N2 C6 H6A 109.8 . .
C5 C6 H6A 109.8 . .
N2 C6 H6B 109.8 . .
C5 C6 H6B 109.8 . .
H6A C6 H6B 108.2 . .
C1 N2 C2 122.0(6) . .
C1 N2 C6 122.0(6) . .
C2 N2 C6 115.2(6) . .
N2 C2 C3 109.0(6) . .
N2 C2 H2A 109.9 . .
C3 C2 H2A 109.9 . .
N2 C2 H2B 109.9 . .
C3 C2 H2B 109.9 . .
H2A C2 H2B 108.3 . .
C6 C5 C4 110.6(7) . .
C6 C5 H5A 109.5 . .
C4 C5 H5A 109.5 . .
C6 C5 H5B 109.5 . .
C4 C5 H5B 109.5 . .
H5A C5 H5B 108.1 . .
C3 C4 C5 112.4(7) . .
C3 C4 H4A 109.1 . .
C5 C4 H4A 109.1 . .
C3 C4 H4B 109.1 . .
C5 C4 H4B 109.1 . .
H4A C4 H4B 107.9 . .
I1S C1S I2S 112.8(3) . .
I1S C1S I3S 110.8(3) . .
I2S C1S I3S 112.5(3) . .
I1S C1S H1SA 106.8 . .
I2S C1S H1SA 106.8 . .
I3S C1S H1SA 106.8 . .
loop_
_geom_bond_atom_site_label_1
_geom_bond_atom_site_label_2
_geom_bond_distance
_geom_bond_site_symmetry_2
Pt1 N1 1.969(6) 2
Pt1 N1 1.969(6) .
Pt1 Cl1 2.3142(19) 2
Pt1 Cl1 2.3142(19) .
C3 C4 1.510(12) .
C3 C2 1.500(11) .
C3 H3A 0.9800 .
C3 H3B 0.9800 .
C1 N1 1.131(8) .
C1 N2 1.311(8) .
C6 N2 1.473(9) .
C6 C5 1.487(11) .
C6 H6A 0.9800 .
C6 H6B 0.9800 .
N2 C2 1.461(9) .
C2 H2A 0.9800 .
C2 H2B 0.9800 .
C5 C4 1.490(12) .
C5 H5A 0.9800 .
C5 H5B 0.9800 .
C4 H4A 0.9800 .
C4 H4B 0.9800 .
I1S C1S 2.132(7) .
I3S C1S 2.145(7) .
I2S C1S 2.148(7) .
C1S H1SA 0.9900 .
loop_
_geom_torsion_atom_site_label_1
_geom_torsion_atom_site_label_2
_geom_torsion_atom_site_label_3
_geom_torsion_atom_site_label_4
_geom_torsion
C5 C6 N2 C1 -132.1(8)
C5 C6 N2 C2 57.9(10)
C1 N2 C2 C3 133.2(8)
C6 N2 C2 C3 -56.8(10)
C4 C3 C2 N2 53.0(10)
N2 C6 C5 C4 -54.6(10)
C2 C3 C4 C5 -54.4(11)
C6 C5 C4 C3 55.0(11)
