#------------------------------------------------------------------------------
#$Date: 2015-12-03 15:12:24 +0200 (Thu, 03 Dec 2015) $
#$Revision: 170694 $
#$URL: svn://www.crystallography.net/cod/cif/7/11/81/7118106.cif $
#------------------------------------------------------------------------------
#
# This file is available in the Crystallography Open Database (COD),
# http://www.crystallography.net/
#
# All data on this site have been placed in the public domain by the
# contributors.
#
data_7118106
loop_
_publ_author_name
'Yu Jiang'
'Run Sun'
'Qiang Wang'
'Xiang-Ying Tang'
'Min Shi'
_publ_section_title
;
 Cyclization of sulfide, ether or tertiary amine-tethered
 N-sulfonyl-1,2,3-triazoles: a facile synthetic protocol for 3-substituted
 isoquinolines or dihydroisoquinolines
;
_journal_name_full               Chem.Commun.
_journal_page_first              16968
_journal_paper_doi               10.1039/C5cc07511D
_journal_volume                  51
_journal_year                    2015
_chemical_absolute_configuration rmad
_chemical_formula_moiety         'C12 H13 N S'
_chemical_formula_sum            'C12 H13 N S'
_chemical_formula_weight         203.29
_chemical_name_systematic
;
 ?
;
_space_group_crystal_system      monoclinic
_space_group_IT_number           4
_space_group_name_Hall           'P 2yb'
_space_group_name_H-M_alt        'P 1 21 1'
_symmetry_space_group_name_Hall  'P 2yb'
_symmetry_space_group_name_H-M   'P 1 21 1'
_atom_sites_solution_hydrogens   geom
_atom_sites_solution_primary     direct
_audit_creation_date             2015-04-01
_audit_creation_method
;
Olex2 1.2
(compiled 2015.01.26 svn.r3150 for OlexSys, GUI svn.r4998)
;
_audit_update_record
;
2015-04-03 deposited with the CCDC.
2015-09-29 downloaded from the CCDC.
;
_cell_angle_alpha                90
_cell_angle_beta                 100.646(3)
_cell_angle_gamma                90
_cell_formula_units_Z            2
_cell_length_a                   5.9732(9)
_cell_length_b                   7.2898(11)
_cell_length_c                   11.9181(19)
_cell_measurement_reflns_used    2309
_cell_measurement_temperature    130
_cell_measurement_theta_max      30.48
_cell_measurement_theta_min      2.79
_cell_volume                     510.02(14)
_computing_cell_refinement       'SAINT v7.68A (Bruker, 2009)'
_computing_data_reduction        'SAINT v7.68A (Bruker, 2009)'
_computing_molecular_graphics    'Olex2 (Dolomanov et al., 2009)'
_computing_publication_material  'Olex2 (Dolomanov et al., 2009)'
_computing_structure_refinement  'XL (Sheldrick, 2008)'
_computing_structure_solution    'ShelXS (Sheldrick, 2008)'
_diffrn_ambient_temperature      130
_diffrn_measured_fraction_theta_full 0.998
_diffrn_measured_fraction_theta_max 0.993
_diffrn_measurement_device_type  'Bruker APEX-II CCD'
_diffrn_measurement_method       '\f and \w scans'
_diffrn_radiation_monochromator  graphite
_diffrn_radiation_type           MoK\a
_diffrn_radiation_wavelength     0.71073
_diffrn_reflns_av_R_equivalents  0.0216
_diffrn_reflns_av_unetI/netI     0.0415
_diffrn_reflns_laue_measured_fraction_full 0.998
_diffrn_reflns_laue_measured_fraction_max 0.993
_diffrn_reflns_limit_h_max       8
_diffrn_reflns_limit_h_min       -6
_diffrn_reflns_limit_k_max       10
_diffrn_reflns_limit_k_min       -10
_diffrn_reflns_limit_l_max       16
_diffrn_reflns_limit_l_min       -16
_diffrn_reflns_number            5103
_diffrn_reflns_point_group_measured_fraction_full 0.994
_diffrn_reflns_point_group_measured_fraction_max 0.974
_diffrn_reflns_theta_full        25.242
_diffrn_reflns_theta_max         30.610
_diffrn_reflns_theta_min         1.739
_diffrn_standards_number         0
_exptl_absorpt_coefficient_mu    0.274
_exptl_absorpt_correction_T_max  0.7461
_exptl_absorpt_correction_T_min  0.6688
_exptl_absorpt_correction_type   multi-scan
_exptl_absorpt_process_details
;
SADABS-2008/1 (Bruker,2008) was used for absorption correction.
wR2(int) was 0.0660 before and 0.0436 after correction.
The Ratio of minimum to maximum transmission is 0.8964.
The \l/2 correction factor is 0.0015.
;
_exptl_crystal_colour            colourless
_exptl_crystal_density_diffrn    1.324
_exptl_crystal_density_meas      .
_exptl_crystal_description       block
_exptl_crystal_F_000             216
_exptl_crystal_size_max          0.25
_exptl_crystal_size_mid          0.08
_exptl_crystal_size_min          0.01
_refine_diff_density_max         0.385
_refine_diff_density_min         -0.229
_refine_diff_density_rms         0.056
_refine_ls_abs_structure_details
;
 Flack x determined using 1159 quotients [(I+)-(I-)]/[(I+)+(I-)]
 (Parsons, Flack and Wagner, Acta Cryst. B69 (2013) 249-259).
;
_refine_ls_abs_structure_Flack   0.09(5)
_refine_ls_extinction_coef       .
_refine_ls_extinction_method     none
_refine_ls_goodness_of_fit_ref   1.075
_refine_ls_hydrogen_treatment    constr
_refine_ls_matrix_type           full
_refine_ls_number_parameters     129
_refine_ls_number_reflns         3056
_refine_ls_number_restraints     1
_refine_ls_restrained_S_all      1.075
_refine_ls_R_factor_all          0.0420
_refine_ls_R_factor_gt           0.0367
_refine_ls_shift/su_max          0.002
_refine_ls_shift/su_mean         0.000
_refine_ls_structure_factor_coef Fsqd
_refine_ls_weighting_details
'w=1/[\s^2^(Fo^2^)+(0.0445P)^2^+0.0364P] where P=(Fo^2^+2Fc^2^)/3'
_refine_ls_weighting_scheme      calc
_refine_ls_wR_factor_gt          0.0874
_refine_ls_wR_factor_ref         0.0913
_reflns_Friedel_coverage         0.829
_reflns_friedel_fraction_full    0.989
_reflns_friedel_fraction_max     0.951
_reflns_number_gt                2788
_reflns_number_total             3056
_reflns_threshold_expression     'I > 2\s(I)'
_cod_data_source_file            c5cc07511d2.cif
_cod_data_source_block           mo_dm15240_0m
_cod_database_code               7118106
_shelxl_version_number           2014-3
_shelx_space_group_comment
;
The symmetry employed for this shelxl refinement is uniquely defined
by the following loop, which should always be used as a source of
symmetry information in preference to the above space-group names.
They are only intended as comments.
;
_shelx_estimated_absorpt_t_max   0.997
_shelx_estimated_absorpt_t_min   0.935
_olex2_refinement_description
;
1. Fixed Uiso
 At 1.2 times of:
  All C(H) groups, All C(H,H) groups
 At 1.5 times of:
  All C(H,H,H) groups
2.a Secondary CH2 refined with riding coordinates:
 C10(H10A,H10B)
2.b Aromatic/amide H refined with riding coordinates:
 C1(H1), C3(H3), C4(H4), C6(H6), C8(H8)
2.c Idealised Me refined as rotating group:
 C11(H11A,H11B,H11C), C12(H12A,H12B,H12C)
;
_shelx_res_file
;
TITL mo_dm15240_0m in P2(1)
CELL 0.71073 5.9732 7.2898 11.9181 90 100.646 90
ZERR 2 0.0009 0.0011 0.0019 0 0.003 0
LATT -1
SYMM -X,0.5+Y,-Z
SFAC C H N S
UNIT 24 26 2 2

L.S. 4
PLAN  -1 0 0
SIZE 0.01 0.08 0.25
TEMP -143.15
BOND $H
fmap 2
acta
MORE -1
CONF
REM <olex2.extras>
REM <HklSrc "%.\\mo_dm15240_0m.hkl">
REM </olex2.extras>

WGHT    0.044500    0.036400
FVAR       0.29881
S1    4    0.931113    0.407073    0.905154    11.00000    0.02062    0.03548 =
         0.01940    0.00136    0.00669    0.00175
N1    3    0.613327    0.505311    0.737036    11.00000    0.01759    0.01987 =
         0.02686   -0.00150    0.00739   -0.00036
C1    1    0.522494    0.540448    0.630215    11.00000    0.01415    0.01778 =
         0.02792   -0.00209    0.00618    0.00033
AFIX  43
H1    2    0.373055    0.590410    0.615045    11.00000   -1.20000
AFIX   0
C2    1    0.631560    0.509128    0.536045    11.00000    0.01389    0.01250 =
         0.02209    0.00013    0.00387   -0.00037
C3    1    0.528219    0.549899    0.421795    11.00000    0.01347    0.01659 =
         0.02602    0.00032    0.00119    0.00097
AFIX  43
H3    2    0.380377    0.602786    0.406000    11.00000   -1.20000
AFIX   0
C4    1    0.640725    0.513309    0.334539    11.00000    0.01827    0.01796 =
         0.02288    0.00077    0.00008   -0.00030
AFIX  43
H4    2    0.570160    0.541866    0.258431    11.00000   -1.20000
AFIX   0
C5    1    0.861038    0.433441    0.355360    11.00000    0.01760    0.01639 =
         0.02109   -0.00086    0.00305   -0.00226
C6    1    0.963942    0.394364    0.465784    11.00000    0.01329    0.01570 =
         0.02034   -0.00056    0.00325    0.00020
AFIX  43
H6    2    1.111731    0.341281    0.480121    11.00000   -1.20000
AFIX   0
C7    1    0.852608    0.432171    0.558614    11.00000    0.01315    0.01341 =
         0.02010    0.00096    0.00277   -0.00119
C8    1    0.951641    0.395658    0.673607    11.00000    0.01380    0.01679 =
         0.02088    0.00007    0.00183    0.00054
AFIX  43
H8    2    1.100188    0.344605    0.692369    11.00000   -1.20000
AFIX   0
C9    1    0.829637    0.435177    0.758034    11.00000    0.01770    0.01801 =
         0.01993    0.00016    0.00520   -0.00163
C10   1    1.231933    0.364154    0.913232    11.00000    0.02055    0.03440 =
         0.02018   -0.00125    0.00478    0.00013
AFIX  23
H10A  2    1.255244    0.237903    0.887019    11.00000   -1.20000
H10B  2    1.294705    0.451081    0.863213    11.00000   -1.20000
AFIX   0
C11   1    1.353445    0.387952    1.035967    11.00000    0.02542    0.04287 =
         0.02110   -0.00085    0.00220   -0.00016
AFIX 137
H11A  2    1.328160    0.512677    1.061666    11.00000   -1.50000
H11B  2    1.517081    0.367362    1.040805    11.00000   -1.50000
H11C  2    1.293541    0.299180    1.084666    11.00000   -1.50000
AFIX   0
C12   1    0.977481    0.392624    0.256462    11.00000    0.02519    0.02497 =
         0.01883   -0.00079    0.00464    0.00461
AFIX 137
H12A  2    1.124053    0.332817    0.284560    11.00000   -1.50000
H12B  2    1.003031    0.507372    0.217879    11.00000   -1.50000
H12C  2    0.881191    0.311100    0.202542    11.00000   -1.50000
AFIX   0
HKLF 4

REM  mo_dm15240_0m in P2(1)
REM R1 =  0.0367 for    2788 Fo > 4sig(Fo)  and  0.0420 for all    3056 data
REM    129 parameters refined using      1 restraints

END

WGHT      0.0445      0.0337

REM Highest difference peak  0.385,  deepest hole -0.229,  1-sigma level  0.056
Q1    1   0.8920  0.4141  0.7176  11.00000  0.05    0.39
;
_shelx_res_checksum              94122
_shelx_hkl_file
;
   1   0   0   58.73    1.54
   2   0   0   99.11    2.20
   2   0   0   97.88    2.58
   3   0   0    6.83    0.29
   4   0   0   12.12    0.47
   4   0   0   12.49    0.46
   5   0   0    0.05    0.08
   5   0   0    0.08    0.08
   6   0   0    0.09    0.10
   7   0   0   11.62    0.58
   8   0   0    0.09    0.15
   0   1   0   -0.36    0.04
   1  -1   0  188.09    3.99
   1  -1   0  183.84    4.82
   1   1   0  190.70    4.03
   1   1   0  185.23    3.93
   2  -1   0   97.05    2.58
   2  -1   0   98.22    2.15
   2   1   0   95.23    2.49
   2   1   0   96.08    2.09
   3  -1   0  197.47    5.37
   3  -1   0  210.64    4.51
   3   1   0  212.70    4.55
   3   1   0  201.58    5.28
   4  -1   0   13.90    0.48
   4  -1   0   13.82    0.54
   4   1   0   13.90    0.51
   4   1   0   13.56    0.46
   5  -1   0    4.99    0.31
   5  -1   0    4.97    0.29
   5   1   0    5.26    0.26
   5   1   0    4.80    0.30
   6  -1   0    4.92    0.33
   6  -1   0    5.29    0.35
   6   1   0    5.73    0.37
   7  -1   0    5.99    0.40
   7   1   0    5.20    0.39
   8  -1   0    3.75    0.38
   8   1   0    3.27    0.37
   0  -2   0 1000.00   24.57
   0   2   0  946.85   20.57
   0   2   0  936.69   20.68
  -1  -2   0  357.09    9.36
   1  -2   0  364.13    7.83
   1  -2   0  368.96    9.47
  -1   2   0  375.88    7.72
   1   2   0  378.76    7.89
   1   2   0  370.16    7.74
   2  -2   0   33.97    0.81
   2  -2   0   33.06    1.04
   2   2   0   34.53    0.83
   2   2   0   35.20    0.88
   3  -2   0    5.15    0.22
   3  -2   0    5.30    0.30
   3   2   0    5.22    0.22
   3   2   0    5.17    0.26
   4  -2   0   12.46    0.54
   4  -2   0   12.47    0.44
   4   2   0   13.11    0.40
   4   2   0   12.88    0.50
   5  -2   0    0.30    0.12
   5  -2   0    0.27    0.10
   5   2   0    0.26    0.11
   6  -2   0    2.74    0.24
   6  -2   0    3.47    0.31
   6   2   0    3.09    0.32
   7  -2   0    3.94    0.33
   7  -2   0    4.58    0.37
   7   2   0    3.41    0.36
   8   2   0    2.55    0.35
   0  -3   0   -0.04    0.05
   0   3   0   -0.08    0.03
   0   3   0    0.02    0.03
  -1  -3   0   80.93    2.18
   1  -3   0   81.41    2.28
   1  -3   0   81.08    1.78
   1   3   0   86.15    1.87
   1   3   0   84.71    1.88
  -1   3   0   85.24    1.86
   2  -3   0  173.54    4.77
   2  -3   0  179.18    3.87
   2   3   0  179.04    3.97
   2   3   0  182.33    3.90
  -2   3   0  184.63    3.87
   3  -3   0   39.09    0.95
   3  -3   0   37.09    1.23
   3   3   0   39.62    1.00
   3   3   0   38.88    1.05
  -3   3   0   40.17    0.97
   4  -3   0   29.65    0.79
   4  -3   0   28.27    1.02
   4   3   0   29.78    0.89
   4   3   0   29.04    0.81
   5  -3   0   10.07    0.53
   5  -3   0    9.65    0.40
   5   3   0    8.86    0.46
   6  -3   0    3.50    0.26
   6  -3   0    3.81    0.34
   6   3   0    3.69    0.31
   7  -3   0    3.05    0.36
   7   3   0    2.25    0.30
   8   3   0    7.69    0.53
   0  -4   0   41.94    1.23
   0   4   0   42.91    0.96
   0   4   0   41.26    1.05
   1  -4   0  206.78    5.64
  -1  -4   0  211.48    5.53
  -1   4   0  220.73    4.62
   1   4   0  216.34    4.64
   1   4   0  216.56    4.66
   2  -4   0    6.75    0.19
   2  -4   0    7.05    0.37
   2   4   0    6.50    0.30
  -2   4   0    6.85    0.28
   2   4   0    6.75    0.29
   3  -4   0    1.12    0.18
   3  -4   0    1.18    0.09
  -3   4   0    1.13    0.13
   3   4   0    1.01    0.14
   3   4   0    1.15    0.14
   4  -4   0    9.90    0.53
   4   4   0   10.04    0.42
  -4   4   0   11.06    0.40
   4   4   0   10.68    0.47
   5  -4   0    1.11    0.22
  -5   4   0    1.04    0.15
   5   4   0    1.04    0.16
   5   4   0    0.97    0.18
   6  -4   0    2.42    0.32
   6   4   0    2.07    0.27
   7  -4   0    0.75    0.23
   7   4   0    0.50    0.18
   0  -5   0   -0.04    0.06
   0   5   0   -0.04    0.03
   0   5   0   -0.04    0.04
   1  -5   0    6.59    0.36
  -1  -5   0    6.67    0.30
   1   5   0    6.72    0.32
  -1   5   0    7.35    0.32
   1   5   0    6.57    0.26
   2  -5   0  100.29    2.91
   2   5   0  103.39    2.41
  -2   5   0  103.20    2.36
   2   5   0  104.84    2.39
   3  -5   0    8.61    0.49
  -3   5   0    9.57    0.38
   3   5   0    9.52    0.41
   3   5   0    8.42    0.39
   4  -5   0   13.23    0.65
  -4   5   0   13.25    0.48
   4   5   0   11.78    0.52
   4   5   0   12.31    0.50
   5  -5   0   17.25    0.82
   5   5   0   17.72    0.71
   5   5   0   17.90    0.65
   6  -5   0    0.24    0.16
   6   5   0   -0.05    0.11
   7  -5   0    5.76    0.48
   7   5   0    4.85    0.41
   0  -6   0   48.64    1.44
   0   6   0   45.36    1.25
   1  -6   0   44.85    1.43
  -1  -6   0   44.48    1.32
  -1   6   0   44.30    1.20
   1   6   0   45.81    1.23
   1   6   0   44.92    1.10
   2  -6   0   20.67    0.84
   2   6   0   20.65    0.64
  -2   6   0   21.35    0.68
   2   6   0   20.65    0.71
   3  -6   0    5.98    0.42
  -3   6   0    5.95    0.32
   3   6   0    6.47    0.36
   3   6   0    6.23    0.33
   4  -6   0    4.75    0.39
   4   6   0    4.30    0.31
   4   6   0    4.36    0.30
  -4   6   0    4.29    0.28
   5  -6   0    3.58    0.37
   5   6   0    2.59    0.28
   5   6   0    3.10    0.33
   6  -6   0    0.30    0.17
   6   6   0    0.18    0.15
   0  -7   0    0.07    0.10
   0   7   0    0.03    0.08
   1  -7   0    4.52    0.33
  -1   7   0    3.73    0.28
   1   7   0    4.02    0.29
   2  -7   0   24.73    0.96
  -2   7   0   23.17    0.78
   2   7   0   24.46    0.83
   2   7   0   23.67    0.72
   3  -7   0   14.17    0.71
   3   7   0   13.27    0.53
   3   7   0   14.25    0.60
  -3   7   0   13.55    0.55
   4  -7   0    5.05    0.42
   4   7   0    5.71    0.38
   4   7   0    4.86    0.34
  -4   7   0    5.30    0.34
   5  -7   0    9.69    0.62
   5   7   0    8.50    0.49
   5   7   0    8.99    0.49
   6  -7   0    4.16    0.44
   6   7   0    4.20    0.36
   6   7   0    4.48    0.39
   0  -8   0   30.72    1.07
   0   8   0   29.60    0.98
   1  -8   0    3.82    0.33
   1   8   0    3.51    0.34
  -1   8   0    3.45    0.33
   2  -8   0   10.41    0.59
   2   8   0    9.85    0.52
  -2   8   0   10.69    0.51
   3  -8   0   16.33    0.82
  -3   8   0   16.86    0.67
   3   8   0   17.72    0.72
   4  -8   0    0.17    0.15
   4   8   0   -0.09    0.09
   5  -8   0    2.99    0.41
   5   8   0    2.38    0.31
   5   8   0    1.97    0.28
   0   9   0    0.03    0.11
   1  -9   0    5.52    0.41
  -1   9   0    5.02    0.38
   1   9   0    5.96    0.42
   2  -9   0    1.59    0.28
   2   9   0    1.74    0.27
  -2   9   0    1.56    0.24
   3  -9   0    6.25    0.49
  -3   9   0    5.23    0.39
   3   9   0    5.76    0.42
   4  -9   0    6.85    0.54
   4   9   0    5.94    0.45
   0  10   0    6.40    0.46
  -1  10   0    2.43    0.32
   1  10   0    2.31    0.31
   2 -10   0    1.77    0.30
   2  10   0    1.39    0.26
  -2  10   0    1.38    0.25
   8   0  -1    2.81    0.35
   7   0  -1    2.77    0.31
   6   0  -1    4.89    0.33
   5   0  -1    0.15    0.09
   5   0  -1    0.14    0.10
   4   0  -1    5.48    0.28
   4   0  -1    4.89    0.27
   3   0  -1   63.07    1.52
   3   0  -1   64.11    1.75
   2   0  -1    8.59    0.28
   2   0  -1    8.48    0.31
   1   0  -1   66.50    1.41
   1   0  -1   65.54    1.48
  -1   0   1   70.22    1.77
   0   0   1   36.83    0.94
   0   0   1   35.10    0.79
   1   0   1    3.05    0.12
   1   0   1    2.80    0.13
   2   0   1   39.69    1.10
   3   0   1    3.82    0.21
   3   0   1    3.49    0.20
   4   0   1    0.01    0.06
   4   0   1   -0.01    0.06
   5   0   1    3.85    0.27
   5   0   1    3.77    0.26
   6   0   1   22.16    0.79
   7   0   1    5.85    0.40
   8   0   1    5.16    0.41
   8  -1  -1    1.83    0.29
   8   1  -1    1.34    0.25
   7  -1  -1    1.39    0.24
   7   1  -1    1.34    0.23
   6  -1  -1    4.52    0.31
   6  -1  -1    5.29    0.35
   6   1  -1    4.53    0.33
   5  -1  -1    9.38    0.42
   5  -1  -1    9.15    0.45
   5   1  -1    8.46    0.42
   5   1  -1    9.99    0.39
   4  -1  -1   14.69    0.57
   4  -1  -1   13.67    0.48
   4   1  -1   14.61    0.49
   4   1  -1   14.33    0.52
   3  -1  -1   10.88    0.37
   3  -1  -1   10.13    0.42
   3   1  -1   10.58    0.38
   3   1  -1   10.26    0.36
   2  -1  -1   29.70    0.90
   2  -1  -1   29.83    0.74
   2   1  -1   30.44    0.82
   2   1  -1   30.93    0.77
   2   1  -1   29.62    0.71
   1  -1  -1  145.03    3.16
   1  -1  -1  144.51    3.82
  -1  -1   1  150.72    3.75
   1   1  -1  143.33    3.11
   1   1  -1  148.70    3.19
  -1   1   1  147.95    3.08
  -1   1   1  150.61    3.83
   0  -1   1   58.91    1.59
   0   1  -1   62.45    1.31
   0   1   1   60.64    1.31
   0   1   1   61.60    1.60
   0   1   1   61.53    1.33
   1  -1   1   57.75    1.62
   1  -1   1   62.82    1.32
   1   1   1   59.35    1.56
   1   1   1   60.70    1.32
   1   1   1   61.22    1.36
   2  -1   1   29.06    0.92
   2  -1   1   31.32    0.76
   2   1   1   32.70    0.80
   2   1   1   31.89    0.85
   3  -1   1    6.72    0.31
   3  -1   1    6.87    0.27
   3   1   1    6.48    0.26
   3   1   1    6.50    0.29
   4  -1   1    4.07    0.23
   4  -1   1    3.78    0.25
   4   1   1    4.31    0.26
   4   1   1    4.31    0.22
   5  -1   1    4.99    0.29
   5  -1   1    4.89    0.31
   5   1   1    5.57    0.29
   5   1   1    4.74    0.31
   6  -1   1    4.10    0.31
   6  -1   1    3.64    0.28
   6   1   1    3.74    0.30
   7  -1   1    5.15    0.37
   7   1   1    6.12    0.42
   8  -1   1    3.60    0.38
   8   1   1    3.74    0.40
   8  -2  -1    1.99    0.29
   8   2  -1    1.54    0.28
   7  -2  -1    6.28    0.43
   7  -2  -1    5.23    0.36
   7   2  -1    5.14    0.40
   6  -2  -1    1.85    0.25
   6  -2  -1    1.68    0.21
   6   2  -1    1.61    0.24
   5  -2  -1    0.80    0.17
   5  -2  -1    0.65    0.13
   5   2  -1    0.88    0.17
   4  -2  -1    4.59    0.30
   4  -2  -1    4.77    0.24
   4   2  -1    4.71    0.22
   4   2  -1    4.37    0.18
   4   2  -1    4.67    0.27
   3  -2  -1   30.18    0.78
   3  -2  -1   29.16    0.97
   3   2  -1   30.56    0.76
   3   2  -1   29.83    0.83
   2  -2  -1    7.82    0.24
   2  -2  -1    7.41    0.34
   2   2  -1    7.36    0.28
  -2   2   1    7.71    0.23
   2   2  -1    7.30    0.26
  -1  -2   1   73.11    1.95
   1  -2  -1   73.75    2.04
   1   2  -1   78.57    1.69
  -1   2   1   76.13    1.63
   1   2  -1   74.47    1.66
   0  -2  -1  124.93    3.19
   0  -2   1  115.66    3.18
   0   2   1  120.68    2.62
   0   2   1  125.11    3.20
   0   2  -1  125.04    2.62
   0   2   1  123.52    2.65
   0   2  -1  121.57    2.63
   1  -2   1   50.52    1.47
   1  -2   1   52.36    1.14
   1   2   1   54.57    1.23
   1   2   1   52.46    1.39
  -1   2  -1   53.89    1.20
   1   2   1   54.69    1.21
   2  -2   1    4.95    0.17
   2  -2   1    4.85    0.26
   2   2   1    4.73    0.22
   2   2   1    4.57    0.20
   3  -2   1    3.36    0.23
   3  -2   1    3.03    0.16
   3   2   1    3.16    0.18
   3   2   1    3.29    0.13
   4  -2   1    3.32    0.20
   4  -2   1    3.50    0.26
   4   2   1    3.11    0.16
   4   2   1    2.70    0.22
   5  -2   1    5.44    0.36
   5  -2   1    5.03    0.29
   5   2   1    5.12    0.33
   6  -2   1   14.48    0.65
   6  -2   1   13.77    0.56
   6   2   1   12.79    0.59
   7  -2   1   15.05    0.72
   7  -2   1   14.07    0.62
   7   2   1   14.24    0.68
   8   2   1    3.66    0.40
   8   3  -1   -0.10    0.14
   7  -3  -1    2.95    0.36
   7   3  -1    3.11    0.35
   6  -3  -1    1.47    0.20
   6  -3  -1    1.97    0.29
   6   3  -1    1.20    0.22
   5  -3  -1   13.14    0.62
   5  -3  -1   12.24    0.47
   5   3  -1   13.33    0.56
   4  -3  -1    4.75    0.24
   4  -3  -1    5.42    0.35
   4   3  -1    5.05    0.30
   4   3  -1    5.89    0.27
  -4   3   1    5.79    0.24
   3  -3  -1   16.08    0.47
   3  -3  -1   16.53    0.66
  -3   3   1   16.50    0.47
   3   3  -1   16.70    0.55
   3   3  -1   16.49    0.51
   2  -3  -1    0.60    0.12
   2  -3  -1    0.70    0.07
   2   3  -1    0.63    0.09
   2   3  -1    0.60    0.09
  -2   3   1    0.70    0.08
   1  -3  -1   25.67    0.83
  -1  -3   1   25.37    0.74
   1   3  -1   26.10    0.69
   1   3  -1   27.26    0.66
  -1   3   1   26.57    0.66
   0  -3  -1   18.82    0.62
   0  -3   1   18.49    0.61
   0   3   1   19.90    0.49
   0   3  -1   19.35    0.45
   0   3   1   18.98    0.52
   0   3  -1   20.42    0.54
   1  -3   1   14.09    0.52
  -1  -3  -1   14.67    0.45
  -1   3  -1   14.19    0.43
   1   3   1   14.41    0.42
   1   3   1   14.26    0.43
   2  -3   1    5.04    0.16
   2  -3   1    4.99    0.29
   2   3   1    5.69    0.25
   2   3   1    5.53    0.24
  -2   3  -1    5.51    0.23
   3  -3   1   10.87    0.50
   3  -3   1   11.27    0.34
   3   3   1   11.39    0.43
   3   3   1   10.48    0.39
   4  -3   1    0.43    0.09
   4  -3   1    0.21    0.12
   4   3   1    0.22    0.10
   5  -3   1    7.37    0.34
   5  -3   1    7.17    0.44
   5   3   1    7.39    0.41
   6  -3   1    2.59    0.32
   6   3   1    2.65    0.30
   7  -3   1    2.07    0.31
   7   3   1    2.21    0.31
   7  -4  -1    6.60    0.49
   7   4  -1    5.43    0.43
   6  -4  -1    0.59    0.20
   6   4  -1    0.40    0.16
   5  -4  -1    0.74    0.19
   5   4  -1    0.58    0.15
   5   4  -1    0.61    0.13
   4  -4  -1    2.60    0.30
   4  -4  -1    2.62    0.17
  -4   4   1    2.33    0.17
   4   4  -1    2.76    0.21
   4   4  -1    2.71    0.23
   3  -4  -1    6.84    0.40
   3  -4  -1    6.53    0.25
   3   4  -1    7.29    0.33
   3   4  -1    7.34    0.33
  -3   4   1    7.22    0.28
  -2  -4   1   26.53    0.73
   2  -4  -1   25.65    0.91
   2  -4  -1   25.06    0.62
   2   4  -1   27.17    0.75
  -2   4   1   26.67    0.70
   2   4  -1   27.26    0.73
  -1  -4   1    7.49    0.30
   1  -4  -1    7.32    0.38
  -1   4   1    8.15    0.31
   1   4  -1    9.10    0.34
   1   4  -1    8.31    0.28
   0  -4  -1   33.87    1.02
   0  -4   1   33.07    1.01
   0   4   1   34.20    0.87
   0   4  -1   31.87    0.87
   0   4   1   33.74    0.80
   0   4  -1   33.17    0.76
  -1  -4  -1   24.86    0.77
   1  -4   1   24.84    0.85
   1   4   1   27.14    0.68
  -1   4  -1   25.98    0.71
   1   4   1   26.04    0.72
   2  -4   1    5.99    0.34
  -2  -4  -1    5.29    0.19
  -2   4  -1    5.86    0.26
   2   4   1    5.60    0.27
   2   4   1    5.41    0.26
   3  -4   1    0.26    0.05
   3  -4   1    0.40    0.14
  -3   4  -1    0.32    0.08
   3   4   1    0.36    0.09
   3   4   1    0.17    0.08
   4  -4   1   11.60    0.57
  -4   4  -1   10.66    0.42
   4   4   1   11.09    0.44
   4   4   1   10.63    0.48
   5  -4   1    3.99    0.35
   5   4   1    3.61    0.30
  -5   4  -1    3.57    0.24
   6  -4   1    3.69    0.36
   6   4   1    3.80    0.37
   7  -4   1   16.75    0.82
   7   4   1   15.46    0.74
   7  -5  -1    0.85    0.25
   7   5  -1    0.39    0.18
   6  -5  -1    2.31    0.34
   6   5  -1    2.22    0.29
   5  -5  -1    6.18    0.46
   5   5  -1    6.55    0.40
   5   5  -1    5.68    0.34
   4  -5  -1    3.02    0.30
  -4   5   1    2.71    0.20
   4   5  -1    2.55    0.24
   4   5  -1    2.51    0.26
   3  -5  -1    5.36    0.38
   3   5  -1    5.61    0.30
  -3   5   1    5.45    0.27
   3   5  -1    5.28    0.30
  -2  -5   1    4.80    0.21
   2  -5  -1    4.03    0.32
   2   5  -1    4.79    0.28
   2   5  -1    4.68    0.24
  -2   5   1    4.82    0.25
   1  -5  -1    4.25    0.29
  -1  -5   1    4.39    0.23
   1   5  -1    4.50    0.20
  -1   5   1    4.23    0.24
   1   5  -1    4.15    0.25
   0  -5  -1    2.65    0.21
   0  -5   1    2.83    0.21
   0   5   1    2.93    0.14
   0   5  -1    3.00    0.12
   0   5   1    3.13    0.21
   0   5  -1    2.35    0.19
  -1  -5  -1   12.89    0.46
   1  -5   1   12.78    0.54
  -1   5  -1   12.42    0.45
   1   5   1   12.77    0.40
   1   5   1   11.98    0.46
   2  -5   1    4.74    0.33
   2   5   1    4.73    0.27
   2   5   1    4.66    0.25
  -2   5  -1    4.53    0.25
   3  -5   1    3.64    0.31
   3   5   1    3.54    0.25
   3   5   1    3.66    0.25
  -3   5  -1    3.48    0.23
   4  -5   1    1.31    0.24
   4   5   1    1.56    0.19
  -4   5  -1    1.06    0.16
   4   5   1    1.17    0.19
   5  -5   1    5.92    0.44
  -5   5  -1    5.44    0.32
   5   5   1    5.50    0.38
   5   5   1    5.90    0.35
   6  -5   1    2.06    0.32
   6   5   1    1.91    0.28
   7  -5   1    4.25    0.43
   7   5   1    4.67    0.41
   6  -6  -1    1.40    0.28
   6   6  -1    1.37    0.25
   6   6  -1    1.22    0.21
   5  -6  -1    0.04    0.14
   5   6  -1    0.20    0.13
   5   6  -1    0.32    0.13
   4  -6  -1    0.25    0.15
  -4   6   1    0.59    0.13
   4   6  -1    0.64    0.15
   4   6  -1    0.36    0.13
   3  -6  -1    7.87    0.48
   3   6  -1    8.01    0.41
  -3   6   1    6.97    0.35
   3   6  -1    7.68    0.37
   2  -6  -1   11.42    0.57
   2   6  -1   11.49    0.49
  -2   6   1   12.35    0.47
   2   6  -1   11.19    0.42
   1  -6  -1    1.93    0.24
  -1  -6   1    1.99    0.18
  -1   6   1    1.73    0.19
   1   6  -1    1.79    0.13
   1   6  -1    1.74    0.21
   0  -6  -1    1.68    0.21
   0  -6   1    1.64    0.20
   0   6   1    1.77    0.13
   0   6  -1    1.72    0.20
   0   6   1    1.86    0.20
   1  -6   1    5.27    0.35
  -1  -6  -1    5.67    0.30
   1   6   1    5.33    0.24
  -1   6  -1    5.38    0.31
   1   6   1    4.95    0.30
   2  -6   1    7.91    0.46
   2   6   1    7.49    0.38
  -2   6  -1    7.56    0.36
   2   6   1    7.87    0.34
   3  -6   1    3.38    0.32
   3   6   1    3.60    0.27
  -3   6  -1    3.85    0.26
   3   6   1    3.25    0.24
   4  -6   1   11.64    0.63
  -4   6  -1   10.18    0.46
   4   6   1   10.46    0.49
   4   6   1   10.86    0.51
   5  -6   1    0.87    0.22
   5   6   1    1.13    0.22
   5   6   1    0.88    0.18
   6  -6   1    3.29    0.41
   6   6   1    3.21    0.36
   6  -7  -1    3.18    0.43
   6   7  -1    2.67    0.33
   6   7  -1    3.08    0.34
   5  -7  -1    2.76    0.39
   5   7  -1    1.50    0.25
   5   7  -1    2.13    0.27
   4  -7  -1    3.27    0.40
   4   7  -1    2.71    0.28
   4   7  -1    2.89    0.31
   3  -7  -1    0.50    0.18
  -3   7   1    0.27    0.12
   3   7  -1    0.30    0.12
   3   7  -1    0.28    0.11
   2  -7  -1    3.54    0.33
  -2   7   1    3.45    0.26
   2   7  -1    3.51    0.29
   1  -7  -1    1.91    0.25
   1   7  -1    1.52    0.22
  -1   7   1    1.44    0.19
   0  -7  -1    1.24    0.19
   0  -7   1    1.04    0.18
   0   7   1    0.70    0.14
   0   7  -1    0.83    0.16
   1  -7   1    3.91    0.31
  -1   7  -1    4.29    0.30
   1   7   1    3.71    0.28
   2  -7   1    8.69    0.50
   2   7   1    8.66    0.37
   2   7   1    7.55    0.42
  -2   7  -1    7.95    0.41
   3  -7   1    0.18    0.14
   3   7   1    0.23    0.11
   3   7   1    0.33    0.13
  -3   7  -1    0.42    0.14
   4  -7   1    2.15    0.33
   4   7   1    1.79    0.25
  -4   7  -1    2.37    0.26
   4   7   1    2.05    0.25
   5  -7   1    0.83    0.23
   5   7   1    0.81    0.19
   5   7   1    0.99    0.21
   6  -7   1    7.93    0.58
   6   7   1    6.71    0.48
   5  -8  -1    0.65    0.22
   5   8  -1    0.48    0.17
   5   8  -1    0.82    0.22
   4  -8  -1    0.28    0.17
   4   8  -1    0.20    0.13
   3  -8  -1    4.41    0.40
   3   8  -1    4.07    0.34
  -3   8   1    3.77    0.30
   2  -8  -1    2.10    0.30
   2   8  -1    1.41    0.23
  -2   8   1    1.60    0.22
   1  -8  -1    4.06    0.34
   1   8  -1    3.38    0.33
  -1   8   1    3.69    0.30
   0  -8  -1    0.92    0.19
   0  -8   1    0.76    0.18
   0   8   1    1.25    0.20
   0   8  -1    1.43    0.23
   1  -8   1    0.54    0.17
   1   8   1    0.41    0.14
  -1   8  -1    0.25    0.13
   2  -8   1    1.01    0.23
   2   8   1    1.09    0.20
  -2   8  -1    1.14    0.20
   3  -8   1    8.21    0.55
   3   8   1    7.99    0.47
  -3   8  -1    8.19    0.45
   4  -8   1    2.00    0.33
  -4   8  -1    1.39    0.22
   4   8   1    1.16    0.21
   4   8   1    1.80    0.27
   5  -8   1    2.90    0.40
   5   8   1    2.58    0.32
   5   8   1    2.18    0.30
   4  -9  -1    0.65    0.23
   4   9  -1    0.78    0.20
   3  -9  -1    0.02    0.15
   3   9  -1    0.02    0.14
   2  -9  -1    0.82    0.22
  -2   9   1    1.07    0.21
   2   9  -1    0.55    0.18
   1  -9  -1    0.51    0.19
  -1   9   1    0.43    0.16
   1   9  -1    0.39    0.16
   0   9  -1    0.97    0.21
   0   9   1    1.00    0.21
   1  -9   1   -0.07    0.12
   1   9   1    0.21    0.14
  -1   9  -1    0.17    0.12
   2  -9   1    5.33    0.43
   2   9   1    5.18    0.40
  -2   9  -1    4.40    0.36
   3  -9   1    0.16    0.16
   3   9   1    0.38    0.16
  -3   9  -1    0.35    0.16
   4  -9   1    2.06    0.34
   4   9   1    2.51    0.33
   2 -10  -1    1.55    0.29
   2  10  -1    1.08    0.24
  -2  10   1    1.27    0.25
  -1  10   1    1.08    0.23
   1  10  -1    0.80    0.22
   0  10  -1    1.32    0.24
   0  10   1    1.57    0.27
  -1  10  -1    0.57    0.20
   1  10   1    0.42    0.18
   2 -10   1    0.74    0.23
  -2  10  -1    0.51    0.20
   2  10   1    0.26    0.17
   8   0  -2    0.47    0.18
   7   0  -2    1.08    0.21
   6   0  -2    0.17    0.10
   6   0  -2    0.05    0.10
   5   0  -2    2.53    0.21
   5   0  -2    2.30    0.24
   4   0  -2   24.28    0.80
   4   0  -2   24.64    0.74
   3   0  -2   46.60    1.18
   3   0  -2   48.54    1.37
  -2   0   2    7.21    0.28
   2   0  -2    6.56    0.24
   1   0  -2    0.14    0.04
   1   0  -2    0.16    0.02
  -1   0   2    0.23    0.05
   0   0   2    6.42    0.22
   0   0   2    6.24    0.18
   1   0   2   17.08    0.43
   1   0   2   16.68    0.51
   2   0   2    8.28    0.32
   2   0   2    8.79    0.30
   3   0   2   30.16    0.81
   3   0   2   29.01    0.90
   4   0   2   14.89    0.56
   4   0   2   15.10    0.53
   5   0   2    6.63    0.37
   5   0   2    6.63    0.35
   6   0   2    1.45    0.22
   7   0   2    3.06    0.32
   8   0   2    0.55    0.19
   8  -1  -2    0.57    0.19
   8   1  -2    0.80    0.22
   7  -1  -2    3.25    0.33
   7   1  -2    3.48    0.36
   6  -1  -2    3.47    0.29
   6  -1  -2    3.08    0.26
   6   1  -2    2.64    0.29
   5  -1  -2   10.11    0.44
   5  -1  -2   11.05    0.50
   5   1  -2   10.10    0.46
   5   1  -2   10.52    0.42
   4  -1  -2    2.99    0.21
   4  -1  -2    2.77    0.22
   4   1  -2    3.57    0.20
   4   1  -2    3.00    0.21
   3  -1  -2    2.20    0.19
   3  -1  -2    2.16    0.15
   3   1  -2    2.23    0.12
   3   1  -2    1.96    0.16
   3   1  -2    2.43    0.15
   2  -1  -2    9.37    0.29
  -2  -1   2    9.13    0.30
  -2   1   2    8.62    0.36
   2   1  -2    9.09    0.26
   2   1  -2    8.72    0.30
   1   1  -2  157.77    3.44
   1   1  -2  158.36    3.36
  -1   1   2  158.39    3.32
  -1   1   2  162.34    4.14
   0  -1   2   74.62    1.92
   0   1   2   73.11    1.55
   0   1   2   75.53    1.61
   0   1   2   67.54    1.90
   1  -1   2    7.53    0.21
   1  -1   2    7.43    0.29
   1   1   2    7.42    0.24
   1   1   2    7.28    0.25
   2  -1   2   18.86    0.63
   2  -1   2   19.65    0.52
   2   1   2   20.08    0.58
   3  -1   2    1.85    0.16
   3  -1   2    1.84    0.14
   3   1   2    1.84    0.14
   3   1   2    1.81    0.15
   4  -1   2    2.18    0.18
   4  -1   2    2.22    0.20
   4   1   2    2.22    0.19
   4   1   2    2.15    0.21
   5  -1   2    0.26    0.12
   5  -1   2    0.01    0.08
   5   1   2    0.04    0.09
   6  -1   2   10.19    0.53
   6  -1   2    9.32    0.46
   6   1   2    9.17    0.49
   7  -1   2    1.85    0.25
   7   1   2    2.26    0.30
   8  -1   2    1.34    0.24
   8   1   2    1.25    0.25
   8  -2  -2    0.25    0.16
   8   2  -2    0.40    0.19
   7  -2  -2    1.00    0.20
   7  -2  -2    1.65    0.27
   7   2  -2    0.97    0.22
   6  -2  -2    0.45    0.15
   6  -2  -2    0.36    0.13
   6   2  -2    0.65    0.17
   5  -2  -2    1.29    0.20
   5  -2  -2    1.33    0.17
   5   2  -2    1.08    0.18
   4  -2  -2   10.28    0.50
   4  -2  -2   10.74    0.40
   4   2  -2   11.06    0.36
   4   2  -2   10.74    0.36
   4   2  -2   10.71    0.45
  -3  -2   2   40.94    1.13
   3  -2  -2   42.06    1.30
   3  -2  -2   41.65    1.04
  -3   2   2   42.69    0.95
   3   2  -2   41.50    1.01
   3   2  -2   41.89    1.09
   2  -2  -2   10.92    0.33
  -2  -2   2   10.73    0.34
   2  -2  -2   10.61    0.45
  -2   2   2   11.02    0.29
   2   2  -2   11.19    0.34
   2   2  -2   11.45    0.37
  -1  -2   2    9.98    0.33
   1   2  -2   10.52    0.32
   1   2  -2   10.45    0.30
  -1   2   2   10.17    0.28
   0  -2   2    7.75    0.29
   0   2   2    7.43    0.23
   0   2   2    6.97    0.28
   0   2  -2    7.80    0.20
   0   2   2    7.72    0.24
   0   2  -2    7.83    0.25
   1  -2   2    5.06    0.14
   1  -2   2    4.91    0.24
   1   2   2    5.06    0.19
   1   2   2    5.23    0.20
   1   2   2    5.17    0.20
   2  -2   2   12.19    0.47
   2  -2   2   12.20    0.34
   2   2   2   12.58    0.41
   2   2   2   12.36    0.38
   2   2   2   12.88    0.38
   3  -2   2   13.14    0.41
   3  -2   2   12.90    0.53
   3   2   2   13.59    0.48
   3   2   2   13.40    0.41
   4  -2   2   17.33    0.69
   4  -2   2   18.38    0.57
   4   2   2   17.62    0.63
   4   2   2   19.11    0.57
   5  -2   2    5.66    0.30
   5  -2   2    5.55    0.36
   5   2   2    5.57    0.35
   6  -2   2    3.00    0.30
   6  -2   2    2.41    0.25
   6   2   2    1.99    0.26
   7  -2   2    1.48    0.23
   7  -2   2    1.71    0.29
   7   2   2    1.71    0.27
   8   3  -2    1.68    0.30
   7  -3  -2    0.93    0.23
   7   3  -2    0.66    0.19
   6  -3  -2    5.45    0.33
   6  -3  -2    4.92    0.39
   6   3  -2    4.52    0.35
   5  -3  -2    7.00    0.44
   5  -3  -2    6.31    0.32
   5   3  -2    6.43    0.31
   5   3  -2    6.78    0.38
   4  -3  -2    4.40    0.32
   4  -3  -2    4.34    0.23
   4   3  -2    4.64    0.24
   4   3  -2    4.02    0.27
  -4   3   2    4.48    0.20
   3  -3  -2    4.76    0.21
   3  -3  -2    4.81    0.32
   3   3  -2    4.78    0.26
  -3   3   2    4.65    0.19
   3   3  -2    4.63    0.23
   2  -3  -2    0.94    0.08
   2  -3  -2    0.82    0.15
  -2  -3   2    0.93    0.08
   2   3  -2    0.80    0.11
  -2   3   2    0.72    0.08
   2   3  -2    0.77    0.10
   1  -3  -2   37.58    1.15
  -1  -3   2   37.33    1.06
   1   3  -2   38.23    0.94
  -1   3   2   37.69    0.90
   1   3  -2   38.66    0.91
   0  -3   2   28.79    0.88
   0   3   2   30.28    0.73
   0   3  -2   30.07    0.77
   0   3   2   29.20    0.90
   0   3   2   30.39    0.75
   0   3  -2   30.44    0.68
   1  -3   2   13.16    0.50
   1   3   2   13.57    0.45
  -1   3  -2   13.98    0.42
   1   3   2   13.81    0.42
   1   3   2   14.07    0.41
   2  -3   2   10.39    0.46
   2  -3   2   10.33    0.28
   2   3   2   10.70    0.37
   2   3   2   10.83    0.39
   2   3   2   11.89    0.34
   3  -3   2    1.46    0.19
   3  -3   2    1.74    0.11
   3   3   2    1.44    0.17
   3   3   2    1.70    0.16
   4  -3   2    1.94    0.25
   4  -3   2    2.14    0.16
   4   3   2    1.87    0.22
   5  -3   2    0.27    0.09
   5  -3   2    0.09    0.11
   5   3   2    0.25    0.12
   6  -3   2    3.54    0.34
   6   3   2    2.68    0.31
   7  -3   2    3.99    0.41
   7   3   2    3.10    0.36
   7  -4  -2    1.14    0.27
   7   4  -2    0.71    0.20
   6  -4  -2    0.84    0.21
   6   4  -2    0.28    0.14
   5  -4  -2    1.07    0.21
   5  -4  -2    1.28    0.16
   5   4  -2    1.13    0.16
   5   4  -2    1.08    0.20
   4  -4  -2    0.82    0.12
   4  -4  -2    0.90    0.19
  -4   4   2    1.11    0.12
   4   4  -2    0.74    0.14
   4   4  -2    0.76    0.13
   3  -4  -2   23.87    0.90
   3  -4  -2   23.47    0.64
   3   4  -2   24.98    0.74
   3   4  -2   23.63    0.71
  -3   4   2   24.06    0.64
   2  -4  -2   11.19    0.51
   2  -4  -2   11.35    0.34
  -2  -4   2   11.39    0.38
   2   4  -2   11.37    0.42
  -2   4   2   11.68    0.37
   2   4  -2   12.22    0.40
   1  -4  -2    6.16    0.33
  -1  -4   2    5.68    0.27
   1   4  -2    6.28    0.23
  -1   4   2    5.99    0.25
   1   4  -2    6.42    0.29
   0  -4   2   10.43    0.41
   0  -4  -2   10.06    0.42
   0   4  -2   10.04    0.26
   0   4   2    9.72    0.35
   0   4  -2   10.26    0.37
   0   4   2   10.07    0.32
  -1  -4  -2    1.33    0.13
   1  -4   2    1.78    0.18
  -1   4  -2    1.43    0.15
   1   4   2    1.29    0.11
   1   4   2    1.27    0.13
  -2  -4  -2    6.74    0.25
   2  -4   2    7.00    0.38
  -2   4  -2    6.88    0.30
   2   4   2    6.78    0.30
   2   4   2    6.90    0.30
   3  -4   2    5.04    0.35
   3   4   2    5.15    0.28
  -3   4  -2    4.70    0.26
   3   4   2    4.84    0.28
   4  -4   2   13.63    0.64
   4   4   2   13.72    0.56
   4   4   2   13.37    0.51
  -4   4  -2   13.34    0.50
   5  -4   2    3.31    0.32
   5   4   2    3.24    0.28
   6  -4   2    2.26    0.32
   6   4   2    2.19    0.28
   7  -4   2    0.37    0.21
   7   4   2    0.50    0.19
   7  -5  -2    0.56    0.21
   7   5  -2    0.62    0.20
   6  -5  -2    3.66    0.37
   6   5  -2    2.72    0.32
   6   5  -2    2.92    0.29
   5  -5  -2    4.72    0.40
   5   5  -2    3.75    0.27
   5   5  -2    4.36    0.33
   4  -5  -2    1.97    0.29
  -4   5   2    1.97    0.16
   4   5  -2    1.96    0.22
   4   5  -2    2.13    0.23
   3  -5  -2    2.56    0.26
   3   5  -2    2.52    0.23
  -3   5   2    2.37    0.17
   3   5  -2    1.92    0.20
   2  -5  -2    3.56    0.16
  -2  -5   2    3.78    0.21
   2  -5  -2    2.96    0.28
   2   5  -2    3.93    0.25
   2   5  -2    3.77    0.21
  -2   5   2    3.72    0.21
   1  -5  -2    7.10    0.38
  -1  -5   2    7.18    0.33
   1   5  -2    6.88    0.25
   1   5  -2    6.66    0.33
  -1   5   2    7.24    0.31
   0  -5   2   11.93    0.49
   0  -5  -2   12.53    0.51
   0   5   2   12.41    0.38
   0   5  -2   12.60    0.31
   0   5  -2   12.04    0.46
   0   5   2   12.35    0.44
   1  -5   2    8.41    0.42
  -1  -5  -2    8.61    0.36
   1   5   2    8.14    0.31
   1   5   2    8.76    0.37
  -1   5  -2    8.12    0.36
   2  -5   2    6.66    0.39
   2   5   2    5.84    0.30
  -2   5  -2    5.88    0.30
   2   5   2    6.15    0.29
   3  -5   2    1.32    0.22
   3   5   2    1.33    0.17
  -3   5  -2    1.22    0.16
   3   5   2    1.22    0.17
   4  -5   2    0.50    0.17
   4   5   2    0.41    0.14
  -4   5  -2    0.44    0.12
   4   5   2    0.34    0.12
   5  -5   2    0.56    0.19
   5   5   2    0.37    0.15
  -5   5  -2    0.45    0.13
   6  -5   2    2.38    0.35
   6   5   2    2.34    0.31
   7  -5   2    1.85    0.35
   7   5   2    1.44    0.29
   6  -6  -2    0.43    0.19
   6   6  -2    0.09    0.12
   6   6  -2    0.49    0.17
   5  -6  -2    1.04    0.24
   5   6  -2    0.92    0.17
   5   6  -2    0.91    0.19
   4  -6  -2    1.07    0.23
   4   6  -2    1.21    0.19
   4   6  -2    0.87    0.16
   3  -6  -2    6.66    0.46
   3   6  -2    7.01    0.39
  -3   6   2    7.36    0.34
   3   6  -2    7.65    0.36
   2  -6  -2    8.25    0.48
  -2   6   2    8.47    0.37
   2   6  -2    7.79    0.33
   2   6  -2    7.98    0.40
   1  -6  -2    1.19    0.20
  -1  -6   2    1.68    0.20
   1   6  -2    1.50    0.12
   1   6  -2    1.56    0.20
  -1   6   2    1.36    0.17
   0  -6   2    4.18    0.28
   0  -6  -2    3.65    0.27
   0   6   2    3.56    0.24
   0   6   2    3.97    0.20
   0   6  -2    3.82    0.27
  -1  -6  -2    2.08    0.19
   1  -6   2    2.37    0.24
   1   6   2    2.13    0.22
  -1   6  -2    1.90    0.21
   1   6   2    2.06    0.16
   2  -6   2    0.75    0.19
   2   6   2    0.53    0.13
  -2   6  -2    0.48    0.12
   2   6   2    0.71    0.13
   3  -6   2    3.91    0.35
  -3   6  -2    3.92    0.28
   3   6   2    4.15    0.28
   3   6   2    4.38    0.29
   4  -6   2    4.54    0.38
  -4   6  -2    4.32    0.30
   4   6   2    4.52    0.32
   4   6   2    4.11    0.30
   5  -6   2    3.82    0.36
  -5   6  -2    3.03    0.29
   5   6   2    2.78    0.32
   6  -6   2    1.06    0.28
   6   6   2    1.07    0.23
   6  -7  -2    0.97    0.27
   6   7  -2    0.93    0.23
   6   7  -2    0.78    0.19
   5  -7  -2    2.72    0.38
   5   7  -2    2.47    0.30
   5   7  -2    2.08    0.27
   4  -7  -2    0.79    0.22
   4   7  -2    1.16    0.20
   4   7  -2    0.83    0.17
   3  -7  -2    0.44    0.18
   3   7  -2    0.79    0.15
   3   7  -2    0.35    0.13
  -3   7   2    0.86    0.15
   2  -7  -2    3.27    0.32
   2   7  -2    3.42    0.28
  -2   7   2    3.18    0.25
  -1  -7   2    2.48    0.23
   1  -7  -2    2.34    0.28
  -1   7   2    2.40    0.24
   1   7  -2    2.20    0.25
   0  -7  -2    3.31    0.27
   0  -7   2    3.17    0.28
   0   7   2    2.62    0.26
   0   7  -2    3.03    0.26
   1  -7   2    4.47    0.34
  -1   7  -2    3.96    0.30
   1   7   2    4.20    0.30
   2  -7   2    3.32    0.31
  -2   7  -2    2.48    0.26
   2   7   2    3.12    0.23
   2   7   2    2.75    0.27
   3  -7   2    1.35    0.25
   3   7   2    0.88    0.17
   3   7   2    1.11    0.18
  -3   7  -2    1.27    0.20
   4  -7   2    0.16    0.14
   4   7   2    0.10    0.11
  -4   7  -2    0.27    0.12
   4   7   2    0.22    0.13
   5  -7   2    0.02    0.15
   5   7   2   -0.07    0.11
   5   7   2   -0.12    0.11
   5  -8  -2    0.30    0.19
   5   8  -2    0.01    0.12
   4  -8  -2    1.27    0.27
   4   8  -2    0.85    0.19
   3  -8  -2    1.32    0.26
  -3   8   2    1.53    0.22
   3   8  -2    1.13    0.22
   2  -8  -2    3.95    0.37
   2   8  -2    3.19    0.33
  -2   8   2    3.55    0.29
   1  -8  -2    1.52    0.25
  -1   8   2    1.04    0.18
   1   8  -2    1.20    0.21
   0  -8   2    0.62    0.18
   0  -8  -2    0.48    0.16
   0   8  -2    0.22    0.13
   0   8   2    0.38    0.13
   1  -8   2    0.85    0.20
   1   8   2    0.91    0.17
  -1   8  -2    0.77    0.17
   2  -8   2    0.49    0.18
   2   8   2    0.48    0.15
  -2   8  -2    0.41    0.15
   3  -8   2    1.66    0.29
  -3   8  -2    1.09    0.20
   3   8   2    0.83    0.19
   4  -8   2    2.30    0.36
   4   8   2    1.71    0.26
   4   8   2    2.37    0.29
  -4   8  -2    1.98    0.27
   5  -8   2    1.11    0.28
   5   8   2    1.68    0.28
   5   8   2    1.75    0.28
   4  -9  -2    1.36    0.30
   4   9  -2    1.34    0.26
   3  -9  -2    0.33    0.19
   3   9  -2    0.34    0.15
   2  -9  -2    0.60    0.20
  -2   9   2    0.63    0.17
   2   9  -2    0.12    0.13
   1  -9  -2    1.09    0.23
   1   9  -2    1.14    0.22
  -1   9   2    0.81    0.18
   0   9  -2    0.38    0.15
   0   9   2    0.38    0.16
   1  -9   2    1.98    0.31
  -1   9  -2    1.96    0.27
   1   9   2    1.65    0.25
   2  -9   2    1.81    0.32
  -2   9  -2    1.27    0.24
   2   9   2    1.68    0.25
   3  -9   2    0.84    0.24
   3   9   2    0.80    0.19
  -3   9  -2    0.69    0.20
   2 -10  -2    0.97    0.25
   2  10  -2    0.37    0.18
  -2  10   2    0.73    0.21
  -1  10   2    1.14    0.23
   1  10  -2    1.72    0.29
   0  10  -2    0.00    0.12
   0  10   2   -0.01    0.13
  -1  10  -2    0.09    0.14
   1  10   2    0.04    0.15
   8   0  -3    0.16    0.15
   7   0  -3    0.02    0.12
   6   0  -3    4.41    0.31
   6   0  -3    3.49    0.29
   5   0  -3    0.83    0.15
   5   0  -3    1.00    0.16
   4   0  -3   28.16    0.83
   4   0  -3   28.29    0.92
  -3   0   3   40.51    1.16
   3   0  -3   36.45    0.99
   2   0  -3   19.60    0.54
  -2   0   3   19.64    0.62
   2   0  -3   19.33    0.43
  -1   0   3   25.99    0.76
   0   0   3   25.76    0.74
   0   0   3   24.88    0.62
   1   0   3   18.20    0.56
   1   0   3   17.46    0.47
   2   0   3    5.81    0.27
   2   0   3    5.98    0.24
   3   0   3   23.45    0.78
   3   0   3   24.82    0.70
   4   0   3   41.68    1.13
   4   0   3   41.13    1.26
   5   0   3    2.15    0.25
   5   0   3    1.92    0.23
   6   0   3   -0.16    0.09
   7   0   3    0.25    0.15
   8  -1  -3    0.51    0.19
   8   1  -3    0.67    0.21
   7  -1  -3    3.75    0.33
   7   1  -3    3.90    0.39
   6  -1  -3    4.34    0.31
   6  -1  -3    4.66    0.34
   6   1  -3    3.39    0.30
   5  -1  -3    5.38    0.35
   5  -1  -3    4.82    0.31
   5   1  -3    5.62    0.34
   5   1  -3    5.64    0.30
   4  -1  -3    7.40    0.39
   4  -1  -3    7.16    0.33
   4   1  -3    7.87    0.34
   4   1  -3    7.24    0.35
  -3  -1   3    2.50    0.17
   3  -1  -3    2.42    0.16
  -3   1   3    2.34    0.20
   3   1  -3    2.78    0.18
   3   1  -3    2.30    0.12
   2  -1  -3    8.22    0.28
  -2  -1   3    8.35    0.30
  -2   1   3    7.56    0.34
   2   1  -3    8.36    0.29
   2   1  -3    8.26    0.24
  -1  -1   3  101.16    2.73
   1   1  -3  105.86    2.30
  -1   1   3  105.49    2.77
   1   1  -3  103.99    2.23
   0  -1   3   42.91    1.19
   0   1   3   41.91    1.00
   0   1   3   42.89    1.18
   1  -1   3   83.77    1.84
   1  -1   3   81.58    2.23
   1   1   3   83.68    1.87
   1   1   3   82.62    2.19
   2  -1   3    9.01    0.30
   2  -1   3    8.25    0.37
   2   1   3    9.07    0.33
   2   1   3    9.00    0.32
   3  -1   3    2.21    0.16
   3  -1   3    1.82    0.19
   3   1   3    2.01    0.17
   3   1   3    2.06    0.16
   4  -1   3    0.24    0.12
   4  -1   3    0.14    0.08
   4   1   3    0.36    0.10
   4   1   3    0.32    0.11
   5  -1   3    2.32    0.27
   5  -1   3    2.55    0.22
   5   1   3    2.24    0.25
   6  -1   3   11.06    0.50
   6  -1   3   10.23    0.56
   6   1   3   10.44    0.52
   7  -1   3    2.51    0.30
   7   1   3    2.64    0.32
   8  -2  -3   -0.02    0.12
   8   2  -3   -0.21    0.13
   7  -2  -3    0.44    0.16
   7  -2  -3    0.26    0.16
   7   2  -3    0.30    0.15
   6  -2  -3    1.66    0.22
   6  -2  -3    1.64    0.25
   6   2  -3    2.05    0.27
   5  -2  -3    3.04    0.28
   5  -2  -3    2.89    0.24
   5   2  -3    3.65    0.28
   4  -2  -3   15.90    0.66
   4  -2  -3   15.25    0.53
   4   2  -3   16.25    0.48
   4   2  -3   16.15    0.58
   4   2  -3   16.38    0.53
  -4   2   3   15.77    0.41
  -3  -2   3   41.53    1.14
   3  -2  -3   41.69    1.03
   3  -2  -3   40.51    1.28
  -3   2   3   40.49    0.90
   3   2  -3   40.19    0.98
   3   2  -3   40.24    1.07
  -2  -2   3    7.82    0.27
   2  -2  -3    7.44    0.27
   2   2  -3    7.95    0.27
  -2   2   3    7.68    0.20
   2   2  -3    7.64    0.29
  -2   2   3    6.08    0.34
  -1  -2   3    5.29    0.23
   1   2  -3    4.84    0.20
   1   2  -3    5.06    0.19
  -1   2   3    5.13    0.17
   0  -2   3    8.37    0.33
   0   2   3    8.25    0.27
   0   2  -3    8.46    0.28
   0   2   3    8.34    0.25
   0   2   3    8.02    0.32
   1  -2   3    4.56    0.26
   1  -2   3    5.15    0.17
   1   2   3    5.11    0.21
   1   2   3    4.92    0.20
   1   2   3    5.58    0.22
   2  -2   3    7.78    0.25
   2  -2   3    7.69    0.36
   2   2   3    7.85    0.28
   2   2   3    8.05    0.31
   3  -2   3   22.84    0.61
   3  -2   3   21.55    0.78
   3   2   3   21.88    0.69
   3   2   3   21.49    0.66
   4  -2   3   26.83    0.77
   4  -2   3   27.83    0.98
   4   2   3   27.39    0.82
   4   2   3   26.97    0.85
   5  -2   3    2.83    0.22
   5  -2   3    2.24    0.28
   5   2   3    2.22    0.25
   6  -2   3    0.07    0.14
   6  -2   3   -0.03    0.09
   6   2   3    0.02    0.11
   7   2   3    0.14    0.14
   8   3  -3    1.59    0.29
   7  -3  -3    1.15    0.25
   7  -3  -3    0.89    0.20
   7   3  -3    0.77    0.20
   6  -3  -3    4.97    0.32
   6  -3  -3    5.48    0.41
   6   3  -3    4.96    0.36
   5  -3  -3    2.34    0.20
   5  -3  -3    2.21    0.29
   5   3  -3    1.98    0.19
   5   3  -3    1.83    0.24
   4  -3  -3    1.82    0.25
   4  -3  -3    1.23    0.15
   4   3  -3    1.50    0.19
   4   3  -3    1.46    0.15
  -4   3   3    1.47    0.11
  -3  -3   3    2.88    0.15
   3  -3  -3    3.07    0.26
   3  -3  -3    3.02    0.17
   3   3  -3    3.26    0.19
   3   3  -3    2.78    0.20
  -3   3   3    3.08    0.14
   2  -3  -3    6.88    0.37
  -2  -3   3    7.30    0.27
  -2   3   3    7.51    0.24
   2   3  -3    7.86    0.30
   2   3  -3    7.26    0.29
  -1  -3   3   33.46    0.97
   1   3  -3   32.96    0.82
  -1   3   3   33.63    0.80
   1   3  -3   33.54    0.86
   0  -3   3   35.24    1.06
   0   3   3   35.91    1.06
   0   3   3   35.56    0.88
   0   3   3   35.50    0.87
   0   3  -3   36.72    0.90
   0   3  -3   34.79    0.81
   1  -3   3   13.53    0.52
   1   3   3   13.41    0.46
  -1   3  -3   13.84    0.43
   1   3   3   13.15    0.41
   1   3   3   13.81    0.42
   2  -3   3   18.26    0.45
   2  -3   3   17.64    0.67
   2   3   3   18.17    0.55
   2   3   3   17.87    0.54
   2   3   3   17.35    0.56
   3  -3   3    1.41    0.20
   3  -3   3    1.34    0.11
   3   3   3    1.48    0.17
   4  -3   3    0.10    0.12
   4  -3   3    0.06    0.06
   4   3   3   -0.02    0.08
   5  -3   3    3.15    0.22
   5  -3   3    3.14    0.31
   5   3   3    2.96    0.30
   6  -3   3    6.44    0.48
   6   3   3    6.27    0.43
   7  -3   3    2.76    0.39
   7   3   3    2.42    0.33
   7  -4  -3    0.24    0.17
   7   4  -3    0.02    0.13
   6  -4  -3    0.59    0.19
   6   4  -3    0.84    0.15
   6   4  -3    0.83    0.20
   5  -4  -3    5.53    0.30
   5  -4  -3    5.58    0.42
   5   4  -3    5.23    0.30
   5   4  -3    5.43    0.35
   4  -4  -3    4.86    0.37
   4  -4  -3    4.86    0.25
   4   4  -3    5.65    0.33
   4   4  -3    4.47    0.27
   3  -4  -3   25.63    0.96
   3  -4  -3   24.90    0.69
  -3   4   3   25.56    0.67
   3   4  -3   26.38    0.78
   3   4  -3   26.50    0.76
   2  -4  -3    0.29    0.11
  -2  -4   3    0.45    0.09
  -2   4   3    0.39    0.07
   2   4  -3    0.38    0.08
   2   4  -3    0.40    0.09
   1  -4  -3    3.96    0.27
  -1  -4   3    3.75    0.22
   1   4  -3    4.25    0.23
   1   4  -3    4.35    0.18
  -1   4   3    3.65    0.19
   0  -4  -3    0.95    0.14
   0  -4   3    0.82    0.13
   0   4  -3    0.88    0.06
   0   4  -3    0.74    0.11
   0   4   3    0.79    0.11
   0   4   3    1.07    0.15
   0   4   3    1.05    0.11
   1  -4   3    0.78    0.15
   1   4   3    0.69    0.10
  -1   4  -3    0.80    0.11
   1   4   3    0.68    0.11
   1   4   3    0.73    0.10
   2  -4   3    4.99    0.33
   2   4   3    5.10    0.26
   2   4   3    5.05    0.26
  -2   4  -3    5.37    0.27
   3  -4   3   13.68    0.62
   3   4   3   13.80    0.52
  -3   4  -3   13.23    0.49
   3   4   3   13.39    0.49
   4  -4   3   11.10    0.58
   4   4   3   11.43    0.51
   5  -4   3    1.72    0.27
   5   4   3    2.73    0.30
   6  -4   3    0.41    0.20
   6   4   3    0.53    0.18
   7  -4   3    0.37    0.22
   7   4   3    0.02    0.14
   7  -5  -3    0.64    0.23
   7   5  -3    0.71    0.21
   6  -5  -3    2.95    0.38
   6   5  -3    2.78    0.32
   6   5  -3    2.98    0.28
   5  -5  -3    0.66    0.21
   5   5  -3    0.75    0.17
   5   5  -3    0.79    0.15
   4  -5  -3    0.64    0.19
   4   5  -3    0.52    0.14
   4   5  -3    0.59    0.13
   3  -5  -3    3.06    0.17
   3  -5  -3    2.91    0.30
  -3   5   3    3.19    0.20
   3   5  -3    2.65    0.22
   3   5  -3    3.21    0.24
  -2  -5   3    2.70    0.19
   2  -5  -3    2.56    0.26
   2   5  -3    2.70    0.18
   2   5  -3    2.94    0.22
  -2   5   3    2.71    0.18
  -1  -5   3   14.58    0.55
   1  -5  -3   15.12    0.63
   1   5  -3   14.78    0.44
  -1   5   3   15.54    0.50
   1   5  -3   15.25    0.54
   0  -5  -3   13.42    0.54
   0  -5   3   13.04    0.54
   0   5   3   13.08    0.45
   0   5  -3   12.73    0.48
   0   5   3   12.42    0.42
  -1  -5  -3    4.08    0.25
   1  -5   3    4.56    0.31
  -1   5  -3    4.58    0.26
   1   5   3    4.38    0.25
   1   5   3    4.19    0.22
   2  -5   3   10.71    0.53
   2   5   3   10.66    0.42
  -2   5  -3   10.75    0.44
   2   5   3   10.66    0.43
   3  -5   3    0.29    0.15
   3   5   3    0.25    0.10
  -3   5  -3    0.31    0.11
   3   5   3    0.11    0.09
   4  -5   3    0.29    0.15
   4   5   3    0.31    0.12
  -4   5  -3    0.26    0.10
   4   5   3    0.20    0.11
   5  -5   3    1.49    0.28
  -5   5  -3    1.74    0.22
   5   5   3    1.62    0.24
   6  -5   3    4.73    0.45
   6   5   3    4.09    0.41
   6  -6  -3    2.13    0.35
   6   6  -3    1.87    0.24
   6   6  -3    2.14    0.31
   5  -6  -3    2.22    0.34
   5   6  -3    2.09    0.27
   5   6  -3    2.37    0.27
   4  -6  -3    4.27    0.39
   4   6  -3    4.30    0.31
   4   6  -3    3.81    0.29
   3  -6  -3    6.12    0.44
  -3   6   3    5.72    0.29
   3   6  -3    5.94    0.36
   3   6  -3    5.17    0.30
   2  -6  -3    1.88    0.27
   2   6  -3    2.01    0.23
   2   6  -3    1.87    0.18
  -2   6   3    1.78    0.18
  -1  -6   3    2.50    0.22
   1  -6  -3    2.22    0.26
  -1   6   3    2.21    0.19
   1   6  -3    2.18    0.23
   0  -6  -3    0.92    0.17
   0  -6   3    0.95    0.18
   0   6   3    1.13    0.16
   0   6   3    1.30    0.14
   0   6  -3    0.96    0.16
  -1  -6  -3    3.35    0.23
   1  -6   3    3.13    0.29
   1   6   3    3.18    0.24
   1   6   3    3.15    0.21
  -1   6  -3    3.09    0.25
   2  -6   3    1.84    0.26
   2   6   3    2.01    0.20
  -2   6  -3    1.68    0.20
   2   6   3    1.58    0.19
   3  -6   3    5.80    0.42
   3   6   3    5.26    0.32
  -3   6  -3    4.87    0.31
   3   6   3    5.70    0.34
   4  -6   3    4.21    0.39
   4   6   3    4.08    0.31
  -4   6  -3    3.77    0.29
   4   6   3    4.01    0.31
   5  -6   3    1.54    0.30
   5   6   3    1.09    0.22
  -5   6  -3    1.28    0.21
   6  -6   3    0.71    0.25
   6   6   3    0.42    0.17
   6  -7  -3    0.48    0.22
   6   7  -3    0.49    0.19
   6   7  -3    0.41    0.16
   5  -7  -3    0.44    0.21
   5   7  -3    0.47    0.16
   5   7  -3    0.28    0.15
   4  -7  -3    0.79    0.22
   4   7  -3    1.19    0.22
   4   7  -3    0.56    0.15
   3  -7  -3    0.97    0.22
  -3   7   3    1.21    0.18
   3   7  -3    1.08    0.20
   2  -7  -3    2.09    0.29
  -2   7   3    2.51    0.24
   2   7  -3    1.80    0.24
  -1  -7   3    5.30    0.34
   1  -7  -3    5.23    0.38
  -1   7   3    5.28    0.32
   1   7  -3    5.22    0.34
   0  -7   3    3.45    0.31
   0  -7  -3    3.49    0.29
   0   7   3    3.76    0.27
   0   7  -3    3.29    0.27
   1  -7   3    4.51    0.36
   1   7   3    4.12    0.25
   1   7   3    4.04    0.30
  -1   7  -3    4.31    0.31
   2  -7   3    1.73    0.27
   2   7   3    2.16    0.22
   2   7   3    2.34    0.25
  -2   7  -3    2.40    0.27
   3  -7   3    0.99    0.24
  -3   7  -3    1.11    0.19
   3   7   3    1.03    0.18
   3   7   3    1.21    0.19
   4  -7   3    1.08    0.25
   4   7   3    1.15    0.21
  -4   7  -3    1.18    0.20
   4   7   3    0.99    0.20
   5  -7   3    0.31    0.19
   5   7   3    0.23    0.16
  -5   7  -3    0.18    0.13
   5  -8  -3    0.33    0.19
   5   8  -3    0.34    0.16
   4  -8  -3    2.40    0.37
   4   8  -3    1.71    0.26
   3  -8  -3    1.54    0.29
   3   8  -3    1.60    0.25
   2  -8  -3    1.53    0.27
   2   8  -3    1.27    0.22
  -2   8   3    1.70    0.22
   1  -8  -3    0.05    0.12
  -1   8   3    0.33    0.13
   1   8  -3    0.02    0.10
   0  -8   3    0.33    0.16
   0   8  -3    0.36    0.14
   0   8   3    0.24    0.13
   1  -8   3    3.18    0.33
  -1   8  -3    2.86    0.31
   1   8   3    2.94    0.29
   2  -8   3    0.91    0.23
  -2   8  -3    0.68    0.17
   2   8   3    0.64    0.16
   3  -8   3    1.38    0.29
  -3   8  -3    1.55    0.24
   3   8   3    1.83    0.26
   3   8   3    1.47    0.22
   4  -8   3    1.33    0.30
  -4   8  -3    0.85    0.20
   4   8   3    0.95    0.20
   4   8   3    1.18    0.22
   4  -9  -3    0.43    0.23
   4   9  -3    0.00    0.14
   3  -9  -3    0.26    0.18
   3   9  -3    0.21    0.14
   2  -9  -3    2.56    0.36
  -2   9   3    1.51    0.24
   2   9  -3    2.31    0.31
   1  -9  -3    2.28    0.32
   1   9  -3    1.13    0.22
  -1   9   3    1.18    0.21
   0   9   3    1.09    0.21
   0   9  -3    1.44    0.24
   1  -9   3    1.02    0.26
  -1   9  -3    1.26    0.23
   1   9   3    0.93    0.21
   2  -9   3    0.50    0.22
   2   9   3    0.70    0.19
  -2   9  -3    0.57    0.18
   3  -9   3    0.56    0.23
  -3   9  -3    0.30    0.16
   3   9   3    0.68    0.19
   2 -10  -3    0.60    0.22
   2  10  -3    0.07    0.14
  -1  10   3    0.38    0.17
   1  10  -3    0.40    0.18
   0  10   3   -0.20    0.12
   0  10  -3   -0.03    0.13
  -1  10  -3    0.49    0.17
   1  10   3    0.50    0.17
   8   0  -4    0.38    0.16
   7   0  -4   14.95    0.68
   6   0  -4   14.72    0.62
   6   0  -4   14.54    0.64
   5   0  -4  101.54    2.81
   5   0  -4   97.55    2.44
   4   0  -4   10.63    0.43
  -4   0   4   10.48    0.48
  -3   0   4   54.46    1.58
  -2   0   4    0.03    0.04
   2   0  -4   -0.01    0.04
   2   0  -4    0.02    0.02
   0   0   4    3.21    0.18
   0   0   4    2.67    0.14
   1   0   4    0.45    0.09
   1   0   4    0.36    0.06
   2   0   4    7.66    0.29
   2   0   4    7.61    0.34
   3   0   4    3.56    0.25
   3   0   4    3.35    0.21
   4   0   4   30.99    1.02
   4   0   4   30.88    0.91
   5   0   4    0.73    0.17
   5   0   4    0.56    0.14
   6   0   4    0.60    0.17
   7   0   4    0.00    0.12
   8  -1  -4   17.54    0.78
   8   1  -4   18.46    0.83
   7  -1  -4    5.48    0.39
   7   1  -4    5.08    0.39
   6  -1  -4   26.28    0.89
   6  -1  -4   25.73    0.99
   6   1  -4   25.11    0.90
   5  -1  -4    0.45    0.13
   5  -1  -4    0.38    0.14
   5   1  -4    0.54    0.13
   5   1  -4    0.49    0.14
   4  -1  -4   59.32    1.52
   4  -1  -4   58.86    1.79
   4   1  -4   60.12    1.35
   4   1  -4   61.93    1.55
  -3  -1   4   29.82    0.89
   3  -1  -4   29.30    0.80
   3   1  -4   28.02    0.69
  -3   1   4   29.27    0.97
   3   1  -4   28.40    0.81
   2  -1  -4  119.58    2.72
  -2  -1   4  120.78    3.20
   2   1  -4  120.30    2.73
  -2   1   4  126.63    3.27
   2   1  -4  120.05    2.60
  -1  -1   4   50.58    1.39
   1   1  -4   49.65    1.13
  -1   1   4   50.06    1.41
   0  -1   4   14.35    0.49
   0   1   4   14.21    0.48
   0   1   4   14.09    0.42
   1  -1   4   56.36    1.59
   1  -1   4   55.95    1.30
   1   1   4   55.75    1.33
   1   1   4   56.11    1.55
   2  -1   4    8.00    0.37
   2  -1   4    7.90    0.28
   2   1   4    7.68    0.32
   2   1   4    8.04    0.31
   3  -1   4    6.42    0.28
   3  -1   4    6.21    0.35
   3   1   4    6.52    0.31
   3   1   4    6.31    0.31
   4  -1   4    3.32    0.23
   4  -1   4    3.40    0.29
   4   1   4    3.23    0.24
   4   1   4    3.02    0.24
   5  -1   4    6.97    0.37
   5  -1   4    7.17    0.44
   5   1   4    7.52    0.41
   6  -1   4    3.85    0.36
   6  -1   4    4.09    0.31
   6   1   4    3.84    0.33
   7  -1   4    3.90    0.33
   7   1   4    4.54    0.38
   8  -2  -4    0.93    0.22
   8   2  -4    0.82    0.24
   7  -2  -4    7.71    0.50
   7  -2  -4    6.49    0.42
   7   2  -4    6.64    0.45
   6  -2  -4   40.64    1.40
   6  -2  -4   38.89    1.18
   6   2  -4   39.23    1.23
   5  -2  -4   60.19    1.90
   5  -2  -4   60.63    1.59
   5   2  -4   60.14    1.64
   5   2  -4   61.94    1.43
  -4  -2   4   40.09    1.26
   4  -2  -4   45.05    1.17
   4  -2  -4   44.60    1.43
   4   2  -4   45.75    1.22
   4   2  -4   44.48    1.06
  -3  -2   4   31.14    0.95
   3  -2  -4   32.33    0.86
   3   2  -4   33.33    0.90
   3   2  -4   32.20    0.81
  -3   2   4   32.89    1.10
  -2  -2   4    4.60    0.21
  -2   2   4    4.23    0.13
   2   2  -4    4.37    0.19
   2   2  -4    4.50    0.22
  -2   2   4    4.95    0.29
  -1  -2   4   16.45    0.55
  -1   2   4   16.87    0.41
  -1   2   4   16.68    0.59
   1   2  -4   16.46    0.46
   1   2  -4   16.92    0.47
   0  -2   4    0.52    0.10
   0   2   4    0.48    0.06
   0   2  -4    0.56    0.08
   0   2   4    0.63    0.08
   0   2   4    0.70    0.10
   1  -2   4   13.10    0.49
   1  -2   4   12.59    0.35
   1   2   4   11.84    0.40
   1   2   4   12.40    0.43
   2  -2   4    9.54    0.43
   2  -2   4    8.78    0.30
   2   2   4    9.66    0.35
   2   2   4    9.49    0.36
   3  -2   4   14.21    0.45
   3  -2   4   14.84    0.61
   3   2   4   13.89    0.49
   3   2   4   14.70    0.53
   4  -2   4   18.78    0.76
   4  -2   4   17.53    0.58
   4   2   4   18.74    0.66
   4   2   4   17.93    0.61
   5  -2   4    0.40    0.13
   5  -2   4    0.57    0.19
   5   2   4    0.69    0.16
   6  -2   4    0.06    0.14
   6  -2   4    0.01    0.10
   6   2   4   -0.15    0.10
   7   2   4   -0.08    0.13
   8   3  -4    4.73    0.47
   7  -3  -4   17.45    0.71
   7  -3  -4   18.95    0.87
   7   3  -4   16.25    0.76
   6  -3  -4    6.03    0.36
   6  -3  -4    6.38    0.46
   6   3  -4    5.56    0.39
   5  -3  -4    0.46    0.13
   5  -3  -4    0.69    0.18
   5   3  -4    0.40    0.13
   5   3  -4    0.70    0.11
   4  -3  -4   20.82    0.84
   4  -3  -4   19.97    0.64
   4   3  -4   20.36    0.61
   4   3  -4   21.26    0.71
   3  -3  -4   55.61    1.37
   3  -3  -4   55.10    1.74
  -3  -3   4   57.56    1.54
  -3   3   4   56.21    1.24
   3   3  -4   56.01    1.36
   3   3  -4   57.82    1.44
  -2  -3   4   23.03    0.71
   2   3  -4   22.35    0.64
   2   3  -4   23.75    0.66
  -2   3   4   23.61    0.57
  -1  -3   4   55.81    1.57
  -1   3   4   56.08    1.64
   1   3  -4   56.77    1.33
  -1   3   4   55.72    1.26
   1   3  -4   54.13    1.30
   0  -3   4   18.69    0.63
   0   3   4   17.88    0.50
   0   3   4   18.12    0.52
   0   3   4   17.21    0.62
   0   3  -4   17.46    0.53
   0   3  -4   17.98    0.46
   1  -3   4   14.12    0.57
  -1   3  -4   14.68    0.47
   1   3   4   14.75    0.51
   1   3   4   14.32    0.45
   1   3   4   15.23    0.47
   2  -3   4    1.63    0.21
   2  -3   4    1.82    0.11
   2   3   4    1.95    0.14
   2   3   4    1.35    0.15
   3  -3   4    0.50    0.17
   3  -3   4    0.54    0.08
   3   3   4    0.39    0.10
   3   3   4    0.69    0.10
   4  -3   4    4.16    0.35
   4  -3   4    4.55    0.23
   4   3   4    4.08    0.29
   5  -3   4    2.60    0.34
   5   3   4    2.64    0.29
   6  -3   4    9.46    0.60
   6   3   4    9.41    0.53
   7  -3   4    0.79    0.25
   7   3   4    0.50    0.19
   7  -4  -4    4.56    0.42
   7   4  -4    2.68    0.35
   6  -4  -4   44.59    1.59
   6   4  -4   45.08    1.19
   6   4  -4   41.54    1.35
   5  -4  -4    9.51    0.57
   5  -4  -4    8.53    0.40
   5   4  -4    8.91    0.47
   5   4  -4    9.58    0.40
   4  -4  -4   57.94    1.44
   4  -4  -4   56.89    1.85
   4   4  -4   57.55    1.44
   4   4  -4   56.77    1.53
  -3  -4   4    9.68    0.37
   3  -4  -4   10.60    0.54
   3  -4  -4   10.75    0.37
  -3   4   4   10.80    0.33
   3   4  -4   10.26    0.42
   3   4  -4   10.21    0.41
  -2  -4   4    0.48    0.10
   2  -4  -4    0.55    0.14
   2   4  -4    0.55    0.10
  -2   4   4    0.43    0.08
   2   4  -4    0.51    0.10
  -1  -4   4   10.94    0.44
  -1   4   4   10.44    0.50
   1   4  -4   10.87    0.35
  -1   4   4   10.80    0.35
   1   4  -4   10.38    0.40
   0  -4   4    1.93    0.20
   0   4  -4    2.29    0.11
   0   4   4    2.12    0.15
   0   4   4    1.97    0.15
   0   4  -4    1.54    0.16
   0   4   4    2.41    0.20
   1  -4   4   11.84    0.53
   1   4   4   11.74    0.41
  -1   4  -4   11.86    0.44
   1   4   4   12.38    0.42
   1   4   4   11.42    0.45
   2  -4   4    0.00    0.11
   2   4   4    0.37    0.10
  -2   4  -4    0.29    0.09
   2   4   4    0.22    0.08
   2   4   4    0.21    0.08
   3  -4   4   16.15    0.71
   3   4   4   14.93    0.57
   4  -4   4    3.93    0.37
   4   4   4    5.03    0.33
   5  -4   4    0.57    0.20
   5   4   4    0.83    0.19
   6  -4   4    0.51    0.23
   6   4   4    0.36    0.17
   7  -4   4    0.17    0.21
   7   4   4    0.25    0.16
   7  -5  -4   17.67    0.90
   7   5  -4   15.68    0.76
   6  -5  -4    0.62    0.22
   6   5  -4    0.43    0.18
   6   5  -4    0.35    0.13
   5  -5  -4    0.41    0.17
   5   5  -4    0.28    0.11
   5   5  -4    0.46    0.15
   4  -5  -4    4.92    0.40
   4   5  -4    4.46    0.29
   4   5  -4    4.19    0.30
   3  -5  -4   35.78    1.31
   3  -5  -4   35.56    0.95
  -3   5   4   38.30    0.94
   3   5  -4   37.56    1.04
   3   5  -4   36.79    1.05
  -2  -5   4    5.28    0.28
   2  -5  -4    5.26    0.38
   2   5  -4    5.59    0.27
   2   5  -4    5.80    0.31
  -2   5   4    5.79    0.26
   1  -5  -4   16.58    0.69
  -1  -5   4   16.36    0.62
   1   5  -4   16.73    0.58
  -1   5   4   17.33    0.53
   1   5  -4   16.05    0.48
   0  -5   4   18.06    0.71
   0  -5  -4   18.70    0.71
   0   5   4   19.32    0.58
   0   5   4   18.92    0.59
   0   5  -4   19.24    0.64
   1  -5   4    0.79    0.19
  -1  -5  -4    0.87    0.14
   1   5   4    0.95    0.14
   1   5   4    0.89    0.13
  -1   5  -4    0.86    0.14
   1   5   4    0.79    0.14
   2  -5   4    4.08    0.34
   2   5   4    4.64    0.28
  -2   5  -4    4.78    0.28
   2   5   4    3.94    0.25
   3  -5   4    5.17    0.41
   3   5   4    4.95    0.31
   3   5   4    5.12    0.30
  -3   5  -4    4.86    0.31
   4  -5   4    3.73    0.37
   4   5   4    3.10    0.27
  -4   5  -4    3.75    0.28
   5  -5   4   -0.13    0.14
  -5   5  -4    0.03    0.09
   5   5   4   -0.05    0.10
   6  -5   4    3.48    0.46
   6   5   4    3.93    0.40
  -6   5  -4    4.17    0.34
   6  -6  -4   14.85    0.83
   6   6  -4   15.57    0.71
   6   6  -4   14.94    0.63
   5  -6  -4   10.51    0.65
   5   6  -4   10.12    0.52
   5   6  -4   10.55    0.50
   4  -6  -4   18.39    0.89
   4   6  -4   18.61    0.70
   4   6  -4   19.31    0.71
   3  -6  -4   18.58    0.84
   3   6  -4   18.96    0.69
   3   6  -4   18.12    0.63
   2  -6  -4    3.94    0.34
   2   6  -4    4.03    0.29
  -2   6   4    3.40    0.22
   2   6  -4    3.61    0.22
   1  -6  -4    3.04    0.29
  -1  -6   4    2.84    0.25
   1   6  -4    2.54    0.26
  -1   6   4    2.72    0.21
   0  -6  -4    4.97    0.33
   0  -6   4    5.47    0.36
   0   6   4    4.91    0.26
   0   6  -4    5.14    0.31
   0   6   4    4.94    0.28
  -1  -6  -4    2.39    0.22
   1  -6   4    2.21    0.28
  -1   6  -4    2.23    0.24
   1   6   4    2.04    0.21
   1   6   4    2.36    0.19
   2  -6   4    2.66    0.33
  -2   6  -4    2.92    0.25
   2   6   4    2.41    0.24
   2   6   4    2.45    0.24
   3  -6   4    5.54    0.44
   3   6   4    5.17    0.33
  -3   6  -4    5.15    0.34
   3   6   4    4.80    0.32
   4  -6   4    1.95    0.32
  -4   6  -4    2.20    0.25
   4   6   4    2.65    0.29
   5  -6   4    0.61    0.24
  -5   6  -4    0.79    0.18
   5   6   4    0.73    0.19
   6  -6   4    0.54    0.26
   6   6   4    0.59    0.20
   6  -7  -4    1.66    0.34
   6   7  -4    1.03    0.24
   6   7  -4    1.48    0.25
   5  -7  -4    0.20    0.17
   5   7  -4    0.20    0.13
   5   7  -4    0.36    0.15
   4  -7  -4    2.97    0.39
   4   7  -4    2.72    0.29
   4   7  -4    2.65    0.30
   3  -7  -4   12.41    0.69
   3   7  -4   12.56    0.58
   2  -7  -4    7.31    0.50
  -2   7   4    7.66    0.37
   2   7  -4    8.28    0.45
  -1  -7   4    8.37    0.45
   1  -7  -4    8.15    0.49
   1   7  -4    8.12    0.44
  -1   7   4    8.11    0.39
   0  -7  -4    6.40    0.40
   0  -7   4    6.72    0.43
   0   7  -4    6.10    0.38
   0   7   4    6.19    0.35
   1  -7   4    5.25    0.41
   1   7   4    5.36    0.30
   1   7   4    5.35    0.33
  -1   7  -4    4.58    0.32
   2  -7   4    5.81    0.45
   2   7   4    5.29    0.32
   2   7   4    5.27    0.34
  -2   7  -4    4.74    0.34
   3  -7   4    2.24    0.34
   3   7   4    1.91    0.24
  -3   7  -4    1.60    0.23
   3   7   4    1.71    0.23
   4  -7   4    0.86    0.25
   4   7   4    0.61    0.17
  -4   7  -4    0.75    0.19
   4   7   4    0.80    0.19
   5  -7   4    1.67    0.35
  -5   7  -4    2.10    0.28
   5   7   4    1.94    0.30
   5  -8  -4   12.65    0.78
   5   8  -4   13.12    0.64
   4  -8  -4    2.08    0.36
   4   8  -4    1.72    0.26
   3  -8  -4    5.86    0.48
   3   8  -4    5.54    0.41
   2  -8  -4    9.67    0.58
   2   8  -4    8.70    0.50
  -2   8   4    9.58    0.46
   1  -8  -4    0.28    0.15
   1   8  -4    0.19    0.11
  -1   8   4    0.38    0.13
   0  -8   4    3.26    0.34
   0   8   4    3.56    0.29
   0   8  -4    3.00    0.32
   1  -8   4    1.13    0.25
  -1   8  -4    1.00    0.20
   1   8   4    1.16    0.20
   2  -8   4    4.49    0.43
   2   8   4    4.28    0.34
  -2   8  -4    4.71    0.35
   3  -8   4    0.26    0.19
   3   8   4    0.23    0.13
  -3   8  -4    0.33    0.15
   3   8   4    0.20    0.13
   4  -8   4    1.41    0.33
   4   8   4    1.08    0.21
   4   8   4    1.33    0.24
  -4   8  -4    1.44    0.24
   4  -9  -4    1.98    0.36
   4   9  -4    1.43    0.27
   3  -9  -4    1.80    0.32
   3   9  -4    1.97    0.30
   2  -9  -4    6.20    0.47
   2   9  -4    4.52    0.39
   1  -9  -4    7.66    0.50
  -1   9   4    6.26    0.41
   1   9  -4    6.55    0.46
   0   9  -4    0.58    0.17
   0   9   4    0.46    0.16
   1  -9   4    5.95    0.49
   1   9   4    6.17    0.42
  -1   9  -4    6.34    0.44
   2  -9   4    0.52    0.23
   2   9   4    0.80    0.20
  -2   9  -4    0.54    0.18
   3  -9   4   -0.06    0.18
  -3   9  -4    0.21    0.16
   3   9   4    0.31    0.15
   1  10  -4    1.34    0.27
  -1  10   4    1.23    0.23
   0  10  -4    1.18    0.25
   0  10   4    1.01    0.22
   8   0  -5    4.47    0.45
   7   0  -5    0.42    0.16
   6   0  -5   19.70    0.79
   6   0  -5   18.35    0.74
   5   0  -5   49.80    1.38
   5   0  -5   48.96    1.55
  -4   0   5    0.32    0.11
   4   0  -5    0.30    0.09
   3   0  -5    9.60    0.37
  -3   0   5    9.74    0.42
   3   0  -5    9.53    0.23
  -2   0   5   17.24    0.59
   2   0  -5   16.38    0.51
   2   0  -5   16.77    0.40
  -1   0   5    0.03    0.05
   0   0   5   80.62    2.16
   0   0   5   77.09    1.80
   1   0   5  272.00    5.87
   1   0   5  268.25    7.01
   2   0   5   -0.05    0.06
   2   0   5    0.07    0.05
   3   0   5   37.34    1.00
   3   0   5   35.92    1.15
   4   0   5    2.48    0.21
   4   0   5    1.90    0.24
   5   0   5   35.15    1.08
   5   0   5   36.19    1.22
   6   0   5    7.07    0.42
   7   0   5   16.81    0.73
   8  -1  -5    2.53    0.34
   8   1  -5    2.11    0.32
   7  -1  -5    1.92    0.28
   7   1  -5    2.31    0.30
   6  -1  -5   13.31    0.65
   6  -1  -5   13.23    0.59
   6   1  -5   13.26    0.61
  -5  -1   5   11.03    0.50
   5  -1  -5   10.35    0.54
   5  -1  -5    9.78    0.46
   5   1  -5   10.94    0.50
   5   1  -5   11.25    0.50
  -4  -1   5    5.78    0.32
   4  -1  -5    5.95    0.30
   4   1  -5    5.40    0.20
  -4   1   5    4.36    0.33
   4   1  -5    5.27    0.31
  -3  -1   5   15.61    0.55
   3  -1  -5   14.96    0.50
   3   1  -5   15.24    0.51
   3   1  -5   15.24    0.40
  -3   1   5   13.17    0.59
  -2  -1   5   39.43    1.12
  -2   1   5   35.52    1.15
   2   1  -5   38.90    0.97
   2   1  -5   37.67    0.88
  -1  -1   5    7.54    0.33
  -1   1   5    8.95    0.36
   1   1  -5    7.74    0.26
   0  -1   5    9.10    0.38
   0   1   5    9.67    0.38
   0   1   5    9.18    0.33
   1  -1   5    4.43    0.20
   1  -1   5    4.62    0.27
   1   1   5    4.54    0.24
   1   1   5    4.67    0.22
   2  -1   5   43.41    1.08
   2  -1   5   42.06    1.31
   2   1   5   43.29    1.27
   2   1   5   43.68    1.11
   3  -1   5   77.81    1.89
   3  -1   5   80.25    2.29
   3   1   5   81.51    1.95
   3   1   5   79.80    2.22
   4  -1   5  112.80    3.16
   4  -1   5  108.69    2.63
   4   1   5  113.34    2.70
   4   1   5  112.99    3.07
   5  -1   5    5.47    0.33
   5  -1   5    5.57    0.40
   5   1   5    5.65    0.36
   6  -1   5    9.31    0.48
   6  -1   5    9.34    0.55
   6   1   5    9.18    0.50
   7  -1   5    0.55    0.18
   7   1   5    0.44    0.18
   8  -2  -5    2.70    0.35
   8   2  -5    2.29    0.34
   7  -2  -5    5.03    0.38
   7  -2  -5    6.30    0.46
   7   2  -5    5.89    0.44
   6  -2  -5    9.06    0.47
   6  -2  -5    8.63    0.53
   6   2  -5    9.03    0.49
   5  -2  -5   22.52    0.76
   5  -2  -5   22.62    0.92
   5   2  -5   22.79    0.81
   5   2  -5   22.38    0.62
  -4  -2   5   21.14    0.71
   4  -2  -5   19.94    0.81
   4  -2  -5   20.35    0.66
  -4   2   5   21.77    0.86
   4   2  -5   20.70    0.57
   4   2  -5   20.18    0.70
   3  -2  -5    3.50    0.21
  -3  -2   5    3.34    0.21
   3   2  -5    3.72    0.18
  -3   2   5    3.34    0.28
   3   2  -5    4.26    0.24
  -2  -2   5   16.84    0.58
   2   2  -5   17.13    0.52
   2   2  -5   16.81    0.49
  -2   2   5   17.58    0.66
  -1  -2   5   25.52    0.79
   1   2  -5   24.71    0.65
   1   2  -5   24.04    0.64
  -1   2   5   23.83    0.81
   0  -2   5   76.01    2.14
   0   2   5   78.38    1.81
   1  -2   5  117.42    3.23
   1  -2   5  114.97    2.64
   1   2   5  117.84    2.71
   1   2   5  125.43    3.18
   2  -2   5   25.49    0.67
   2  -2   5   25.13    0.88
   2   2   5   24.81    0.79
   2   2   5   24.68    0.73
   3  -2   5   20.18    0.61
   3  -2   5   21.17    0.81
   3   2   5   20.99    0.69
   3   2   5   22.05    0.71
   4  -2   5    3.60    0.33
   4  -2   5    3.21    0.22
   4   2   5    3.79    0.27
   5  -2   5   23.81    0.97
   5  -2   5   23.41    0.76
   5   2   5   24.18    0.86
   6  -2   5   17.47    0.82
   6  -2   5   16.81    0.65
   6   2   5   16.92    0.73
   7   2   5    8.47    0.52
   8  -3  -5    1.15    0.28
   8   3  -5    1.00    0.25
   7  -3  -5    8.78    0.59
   7  -3  -5    9.60    0.51
   7   3  -5   10.22    0.58
   6  -3  -5    6.11    0.46
   6  -3  -5    5.83    0.37
   6   3  -5    6.26    0.42
   5  -3  -5    6.29    0.35
   5  -3  -5    5.64    0.43
   5   3  -5    6.49    0.39
   5   3  -5    6.46    0.29
  -4  -3   5   27.36    0.84
   4  -3  -5   26.43    1.02
   4  -3  -5   25.70    0.79
   4   3  -5   26.38    0.85
   4   3  -5   26.87    0.75
  -3  -3   5    7.09    0.31
   3  -3  -5    6.64    0.30
   3   3  -5    6.91    0.30
  -3   3   5    7.25    0.44
   3   3  -5    7.22    0.34
  -3   3   5    7.04    0.19
  -2  -3   5    3.77    0.22
  -2   3   5    3.31    0.14
  -2   3   5    3.58    0.28
   2   3  -5    3.36    0.20
   2   3  -5    3.33    0.20
  -1  -3   5    3.23    0.22
  -1   3   5    3.26    0.25
   1   3  -5    3.23    0.19
  -1   3   5    3.17    0.15
   1   3  -5    3.19    0.17
   0  -3   5   33.11    1.07
   0   3   5   34.68    0.84
   0   3  -5   33.50    0.89
   0   3   5   34.48    0.90
   1  -3   5    4.46    0.30
   1   3   5    4.04    0.23
   1   3   5    4.13    0.23
   2  -3   5   18.89    0.51
   2  -3   5   19.37    0.74
   2   3   5   17.09    0.60
   2   3   5   18.25    0.60
   3  -3   5  107.77    2.49
   3  -3   5  113.76    3.16
   3   3   5  111.63    2.64
   3   3   5  108.40    2.94
   4  -3   5   28.51    1.09
   4  -3   5   28.06    0.79
   4   3   5   29.64    0.94
   5  -3   5   28.55    1.12
   5   3   5   27.41    0.96
   6  -3   5    0.09    0.17
   6   3   5    0.48    0.17
   7  -3   5    0.71    0.26
   7   3   5    0.59    0.21
   7  -4  -5    8.28    0.59
   7   4  -5    7.09    0.50
   6  -4  -5    1.82    0.31
   6  -4  -5    2.52    0.27
   6   4  -5    2.26    0.31
   5  -4  -5    0.82    0.21
   5  -4  -5    1.58    0.20
   5   4  -5    1.30    0.21
   5   4  -5    1.36    0.17
   4  -4  -5   25.97    1.03
   4  -4  -5   25.39    0.76
   4   4  -5   25.06    0.76
   4   4  -5   25.04    0.83
   3  -4  -5    1.23    0.22
   3  -4  -5    0.67    0.12
  -3  -4   5    1.15    0.14
   3   4  -5    0.86    0.15
   3   4  -5    0.86    0.14
  -2  -4   5    3.46    0.22
   2   4  -5    3.18    0.21
   2   4  -5    3.63    0.21
  -2   4   5    3.69    0.30
  -2   4   5    3.63    0.17
  -1  -4   5   51.48    1.51
   1   4  -5   53.86    1.24
  -1   4   5   51.35    1.21
   1   4  -5   51.04    1.30
  -1   4   5   48.42    1.58
   0  -4   5   22.79    0.80
   0   4   5   22.84    0.80
   0   4  -5   22.06    0.68
   0   4   5   22.02    0.66
   0   4  -5   22.07    0.57
   0   4   5   23.20    0.64
   1  -4   5   22.81    0.83
   1   4   5   21.77    0.75
  -1   4  -5   20.96    0.67
   1   4   5   21.30    0.66
  -1   4  -5   21.79    0.54
   1   4   5   22.52    0.65
   2  -4   5   49.61    1.58
  -2   4  -5   48.66    1.28
   2   4   5   50.12    1.30
   2   4   5   47.64    1.41
   3  -4   5    3.93    0.36
   3   4   5    4.32    0.29
   4  -4   5    1.64    0.28
   4   4   5    1.15    0.19
   5  -4   5    8.52    0.57
   5   4   5    7.77    0.46
   6  -4   5   18.72    0.95
   6   4   5   21.06    0.85
   7  -5  -5    7.89    0.60
   7   5  -5    7.34    0.51
   6  -5  -5    1.90    0.34
   6   5  -5    2.11    0.24
   6   5  -5    2.58    0.32
   5  -5  -5    1.72    0.31
   5   5  -5    1.58    0.24
   5   5  -5    1.77    0.21
   4  -5  -5   15.59    0.54
   4  -5  -5   16.41    0.79
   4   5  -5   16.02    0.62
   4   5  -5   15.66    0.59
   3  -5  -5    8.79    0.53
   3  -5  -5    9.02    0.36
   3   5  -5    9.14    0.41
   3   5  -5    9.10    0.42
  -2  -5   5    4.46    0.28
   2  -5  -5    4.63    0.36
  -2   5   5    5.32    0.24
   2   5  -5    4.92    0.30
   2   5  -5    4.99    0.26
   1  -5  -5    3.98    0.31
  -1  -5   5    4.43    0.30
  -1   5   5    3.99    0.22
   1   5  -5    4.14    0.26
  -1   5   5    3.93    0.32
   1   5  -5    4.19    0.21
   0  -5   5   24.52    0.88
   0   5   5   24.63    0.71
   0   5  -5   23.73    0.76
   0   5   5   23.73    0.72
   1  -5   5    0.43    0.16
  -1   5  -5    0.42    0.11
   1   5   5    0.55    0.11
   1   5   5    0.50    0.11
   1   5   5    0.59    0.14
   2  -5   5   20.95    0.87
   2   5   5   20.60    0.67
   2   5   5   20.20    0.68
  -2   5  -5   19.71    0.69
   3  -5   5   55.31    1.83
  -3   5  -5   53.48    1.46
   3   5   5   55.61    1.49
   4  -5   5    6.52    0.49
   4   5   5    6.53    0.41
  -4   5  -5    7.07    0.39
   5  -5   5   22.45    1.04
   5   5   5   22.17    0.87
   6  -5   5    3.64    0.47
  -6   5  -5    3.54    0.36
   6   5   5    3.58    0.39
   6  -6  -5    3.17    0.44
   6   6  -5    3.47    0.38
   6   6  -5    3.59    0.33
   5  -6  -5    3.91    0.47
   5   6  -5    4.57    0.33
   5   6  -5    4.42    0.35
   4  -6  -5    6.19    0.49
   4   6  -5    6.23    0.37
   4   6  -5    7.32    0.40
   3  -6  -5    7.91    0.53
   3   6  -5    7.65    0.38
   3   6  -5    7.24    0.40
   2  -6  -5    5.09    0.40
  -2  -6   5    5.67    0.32
  -2   6   5    6.29    0.30
   2   6  -5    5.81    0.28
   2   6  -5    6.58    0.37
  -1  -6   5   26.59    0.93
   1  -6  -5   26.03    1.00
   1   6  -5   24.60    0.84
  -1   6   5   26.76    0.77
   0  -6   5    4.98    0.35
   0  -6  -5    3.99    0.31
   0   6   5    4.08    0.26
   0   6  -5    3.69    0.28
   0   6   5    3.87    0.24
   1  -6   5   15.07    0.70
  -1  -6  -5   14.68    0.61
   1   6   5   15.71    0.56
   1   6   5   14.67    0.54
  -1   6  -5   14.08    0.57
   2  -6   5   33.25    1.24
   2   6   5   33.78    0.98
  -2   6  -5   32.42    1.02
   2   6   5   31.86    0.98
   3  -6   5    0.23    0.18
   3   6   5    0.30    0.12
   3   6   5    0.25    0.12
  -3   6  -5    0.02    0.10
   4  -6   5    0.04    0.16
  -4   6  -5    0.18    0.12
   4   6   5    0.17    0.12
   5  -6   5    3.44    0.45
   5   6   5    3.40    0.36
  -5   6  -5    3.67    0.36
   6  -7  -5    1.82    0.36
   6   7  -5    1.91    0.27
   6   7  -5    1.90    0.30
   5  -7  -5    1.52    0.32
   5   7  -5    1.43    0.24
   5   7  -5    1.08    0.22
   4  -7  -5    1.80    0.32
   4   7  -5    1.74    0.25
   3  -7  -5   11.31    0.67
   3   7  -5   11.33    0.55
   2  -7  -5    0.74    0.22
  -2   7   5    1.03    0.16
   2   7  -5    1.00    0.18
  -1  -7   5    6.99    0.43
   1  -7  -5    6.77    0.45
   1   7  -5    7.08    0.42
  -1   7   5    6.69    0.35
   0  -7   5    5.28    0.41
   0  -7  -5    4.93    0.36
   0   7  -5    5.46    0.36
   0   7   5    5.35    0.30
   0   7   5    5.79    0.33
   1  -7   5   11.96    0.65
  -1   7  -5   12.45    0.56
   1   7   5   12.37    0.50
   1   7   5   12.13    0.52
   2  -7   5   14.22    0.75
   2   7   5   13.47    0.55
   2   7   5   14.00    0.58
  -2   7  -5   12.89    0.59
   3  -7   5    7.37    0.54
  -3   7  -5    7.06    0.43
   3   7   5    7.25    0.41
   3   7   5    7.11    0.41
   4  -7   5   12.98    0.79
   4   7   5   14.02    0.63
   5  -7   5    3.32    0.47
  -5   7  -5    4.30    0.41
   5   7   5    4.61    0.39
   5  -8  -5    2.69    0.42
   5   8  -5    2.56    0.33
   4  -8  -5    0.32    0.20
   4   8  -5    0.06    0.13
   3  -8  -5    3.50    0.43
   3   8  -5    3.09    0.34
   2  -8  -5   18.57    0.89
   2   8  -5   18.80    0.78
   1  -8  -5    2.62    0.34
  -1   8   5    2.50    0.26
   1   8  -5    2.23    0.28
   0  -8   5    7.93    0.51
   0   8   5    6.99    0.40
   0   8  -5    6.99    0.45
   1  -8   5    8.53    0.57
  -1   8  -5    8.70    0.49
   1   8   5    8.39    0.45
   2  -8   5    9.34    0.63
   2   8   5    9.53    0.50
  -2   8  -5   10.21    0.54
   3  -8   5    1.57    0.34
  -3   8  -5    1.81    0.27
   3   8   5    1.71    0.25
   3   8   5    1.49    0.25
   4  -8   5    0.13    0.22
  -4   8  -5    1.05    0.22
   4   8   5    0.42    0.17
   3  -9  -5    5.31    0.48
   3   9  -5    5.25    0.42
   2  -9  -5    0.31    0.19
   2   9  -5    0.07    0.13
  -1   9   5    4.44    0.34
   1   9  -5    3.44    0.37
   0   9  -5    1.24    0.23
   0   9   5    1.78    0.26
   1  -9   5   16.08    0.85
   1   9   5   16.31    0.69
  -1   9  -5   16.37    0.75
   2  -9   5    0.78    0.27
   2   9   5    1.78    0.26
  -2   9  -5    1.36    0.25
  -3   9  -5    1.66    0.28
   8   0  -6    0.28    0.19
   7   0  -6    9.26    0.53
   6   0  -6    2.32    0.29
   6   0  -6    2.73    0.32
   5   0  -6    2.55    0.27
  -5   0   6    3.02    0.29
   4   0  -6    3.25    0.23
  -4   0   6    2.83    0.25
   3   0  -6    2.04    0.08
  -3   0   6    2.28    0.20
   3   0  -6    2.09    0.17
   2   0  -6   24.10    0.60
  -2   0   6   27.45    0.85
  -1   0   6   29.29    0.92
   0   0   6   76.92    1.83
   0   0   6   80.52    2.19
   1   0   6    0.60    0.12
   1   0   6    0.63    0.10
   2   0   6    0.09    0.08
   2   0   6    0.06    0.06
   3   0   6   12.53    0.55
   3   0   6   12.39    0.47
   4   0   6    0.06    0.11
   4   0   6    0.22    0.10
   5   0   6    1.14    0.19
   5   0   6    1.07    0.21
   6   0   6    2.28    0.28
   7   0   6    0.35    0.18
   8  -1  -6   -0.06    0.14
   8   1  -6    0.14    0.18
   7  -1  -6    2.73    0.33
   7  -1  -6    3.41    0.35
   7   1  -6    3.00    0.35
   6  -1  -6    1.81    0.25
   6  -1  -6    1.51    0.26
   6   1  -6    1.53    0.25
   5  -1  -6    3.30    0.27
   5  -1  -6    2.94    0.29
   5   1  -6    3.06    0.27
  -5   1   6    2.52    0.32
   4  -1  -6   34.20    0.97
  -4  -1   6   31.24    1.08
   4   1  -6   32.96    0.78
  -4   1   6   35.02    1.18
   4   1  -6   33.22    0.98
  -3  -1   6   16.63    0.60
   3  -1  -6   16.59    0.55
   3   1  -6   15.70    0.43
   3   1  -6   15.56    0.54
  -3   1   6   15.92    0.65
  -2  -1   6   26.18    0.84
   2   1  -6   25.59    0.64
  -2   1   6   24.87    0.86
   2   1  -6   26.35    0.73
  -1  -1   6    1.05    0.15
  -1   1   6    0.96    0.14
   0  -1   6   35.05    1.06
   0   1   6   34.45    0.90
   0   1   6   32.78    1.04
   1  -1   6    5.24    0.30
   1  -1   6    5.28    0.24
   1   1   6    5.60    0.29
   1   1   6    5.33    0.26
   2  -1   6    2.32    0.16
   2  -1   6    2.37    0.23
   2   1   6    2.26    0.18
   2   1   6    2.52    0.20
   3  -1   6   24.02    0.90
   3  -1   6   24.82    0.73
   3   1   6   24.36    0.84
   3   1   6   25.26    0.77
   4  -1   6   10.86    0.45
   4  -1   6   11.01    0.56
   4   1   6   10.67    0.49
   4   1   6   10.94    0.49
   5  -1   6    2.77    0.34
   5  -1   6    2.93    0.25
   5   1   6    3.29    0.28
   6  -1   6    0.54    0.21
   6  -1   6    0.50    0.16
   6   1   6    0.30    0.15
   7  -1   6    0.12    0.14
   7   1   6    0.08    0.15
   8  -2  -6    1.74    0.30
   8   2  -6    1.17    0.27
   7  -2  -6    4.14    0.36
   7  -2  -6    4.65    0.43
   7   2  -6    4.21    0.37
   6  -2  -6    8.84    0.55
   6  -2  -6    9.12    0.48
   6   2  -6    8.32    0.49
   5  -2  -6    2.30    0.25
   5  -2  -6    2.68    0.33
   5   2  -6    2.80    0.29
  -4  -2   6    0.30    0.10
   4  -2  -6    0.42    0.11
   4   2  -6    0.30    0.07
   4   2  -6    0.36    0.11
  -4   2   6    0.11    0.11
  -3  -2   6    3.30    0.22
   3  -2  -6    3.38    0.21
   3   2  -6    3.03    0.21
  -3   2   6    3.22    0.27
   3   2  -6    3.19    0.17
  -2  -2   6   15.28    0.57
  -2   2   6   16.20    0.64
   2   2  -6   16.26    0.51
   2   2  -6   16.41    0.48
  -1  -2   6   35.38    1.10
   1   2  -6   35.86    0.90
  -1   2   6   36.90    1.14
   0  -2   6   30.45    0.98
   0   2   6   30.20    0.83
   0   2   6   30.10    0.95
   1  -2   6   16.45    0.49
   1  -2   6   17.16    0.65
   1   2   6   16.50    0.54
   2  -2   6   11.31    0.54
   2  -2   6   12.01    0.40
   2   2   6   12.26    0.46
   2   2   6   11.89    0.47
   3  -2   6    6.23    0.42
   3  -2   6    6.66    0.30
   3   2   6    6.52    0.35
   3   2   6    6.82    0.34
   4  -2   6    0.08    0.08
   4  -2   6    0.12    0.15
   4   2   6    0.15    0.11
   5  -2   6    1.73    0.28
   5  -2   6    1.87    0.21
   5   2   6    1.19    0.22
   6  -2   6    1.15    0.28
   6   2   6    1.35    0.24
   7   2   6    1.42    0.28
   8  -3  -6    0.05    0.17
   8   3  -6    0.09    0.16
   7  -3  -6    1.66    0.31
   7  -3  -6    0.85    0.21
   7   3  -6    1.03    0.24
   6  -3  -6    2.15    0.33
   6  -3  -6    1.75    0.25
   6   3  -6    1.94    0.27
   5  -3  -6    4.39    0.30
   5  -3  -6    4.02    0.37
   5   3  -6    4.44    0.33
   5   3  -6    4.44    0.24
   4  -3  -6   14.36    0.54
   4  -3  -6   14.73    0.70
  -4  -3   6   15.24    0.56
   4   3  -6   14.35    0.58
   4   3  -6   14.61    0.48
  -4   3   6   15.01    0.73
  -3  -3   6   23.76    0.79
   3  -3  -6   24.07    0.73
  -3   3   6   24.74    0.95
   3   3  -6   24.77    0.69
   3   3  -6   23.14    0.74
  -2  -3   6    4.47    0.26
  -2   3   6    4.62    0.33
   2   3  -6    4.07    0.22
   2   3  -6    3.94    0.22
  -1  -3   6    4.39    0.27
  -1   3   6    4.31    0.29
   1   3  -6    4.44    0.21
   1   3  -6    4.43    0.23
   0  -3   6   16.49    0.64
   0   3   6   16.90    0.63
   0   3   6   16.24    0.54
   0   3  -6   16.54    0.53
   1  -3   6    5.34    0.35
   1   3   6    5.28    0.27
   1   3   6    5.49    0.29
   2  -3   6    9.03    0.31
   2  -3   6    8.74    0.48
   2   3   6    8.68    0.39
   2   3   6    8.95    0.39
   3  -3   6    0.97    0.12
   3  -3   6    0.94    0.21
   3   3   6    1.23    0.16
   3   3   6    1.04    0.17
   4  -3   6    8.03    0.52
   4   3   6    7.41    0.42
   5  -3   6    5.56    0.46
   5   3   6    6.43    0.42
   6  -3   6    0.72    0.25
   6   3   6    0.89    0.22
   7  -4  -6    1.24    0.30
   7   4  -6    0.62    0.21
   6  -4  -6    8.50    0.58
   6  -4  -6    7.38    0.42
   6   4  -6    7.88    0.49
   5  -4  -6    0.83    0.22
   5  -4  -6    0.77    0.16
   5   4  -6    0.66    0.13
   5   4  -6    1.13    0.21
   4  -4  -6    1.96    0.21
   4  -4  -6    1.82    0.29
   4   4  -6    1.92    0.20
   4   4  -6    1.63    0.22
   3  -4  -6    3.26    0.22
  -3  -4   6    3.13    0.21
  -3   4   6    3.39    0.34
   3   4  -6    3.06    0.22
   3   4  -6    3.38    0.23
  -2  -4   6   13.02    0.51
  -2   4   6   12.83    0.38
   2   4  -6   12.83    0.48
   2   4  -6   12.70    0.46
  -2   4   6   13.48    0.64
  -1  -4   6   16.99    0.66
  -1   4   6   18.46    0.51
   1   4  -6   16.78    0.52
   1   4  -6   18.10    0.59
  -1   4   6   18.25    0.73
   0  -4   6    9.92    0.49
   0   4   6    9.57    0.46
   0   4   6    9.54    0.35
   0   4  -6    9.89    0.40
   0   4   6    9.93    0.40
   0   4  -6   10.11    0.32
   1  -4   6   14.75    0.65
   1   4   6   14.39    0.57
  -1   4  -6   14.42    0.52
   1   4   6   14.16    0.51
   2  -4   6    7.92    0.49
   2   4   6    7.61    0.38
  -2   4  -6    8.04    0.38
   2   4   6    8.43    0.38
   3  -4   6    0.98    0.22
   3   4   6    0.95    0.17
   4  -4   6    0.52    0.21
   4   4   6    0.60    0.15
   5  -4   6    2.37    0.37
   5   4   6    1.95    0.28
   6  -4   6    1.52    0.34
   6   4   6    1.79    0.29
   7  -5  -6    1.42    0.33
   7   5  -6    0.81    0.23
   6  -5  -6    1.12    0.29
   6   5  -6    1.16    0.23
   5  -5  -6    5.48    0.47
   5   5  -6    4.99    0.37
   5   5  -6    5.07    0.33
   4  -5  -6    4.56    0.28
   4  -5  -6    4.90    0.43
   4   5  -6    4.38    0.32
   4   5  -6    5.05    0.31
   3  -5  -6   12.51    0.46
   3  -5  -6   11.29    0.64
   3   5  -6   12.59    0.50
   3   5  -6   12.18    0.51
   2  -5  -6    2.87    0.30
  -2  -5   6    2.84    0.23
   2   5  -6    2.46    0.20
  -2   5   6    2.68    0.17
  -2   5   6    2.77    0.34
   2   5  -6    2.84    0.23
  -1  -5   6    1.23    0.20
  -1   5   6    1.19    0.14
   1   5  -6    1.17    0.16
   1   5  -6    1.29    0.14
   0  -5   6    3.53    0.31
   0   5   6    2.95    0.20
   0   5  -6    3.54    0.25
   0   5   6    3.12    0.28
   0   5   6    3.93    0.24
   1  -5   6    7.52    0.46
   1   5   6    7.47    0.40
   1   5   6    7.68    0.36
   1   5   6    8.36    0.36
  -1   5  -6    7.52    0.38
   2  -5   6    5.35    0.43
   2   5   6    6.34    0.34
  -2   5  -6    5.69    0.34
   3  -5   6    4.27    0.40
  -3   5  -6    3.14    0.26
   3   5   6    3.12    0.27
   4  -5   6    1.23    0.28
  -4   5  -6    2.26    0.27
   4   5   6    1.69    0.24
   5  -5   6    2.73    0.41
   5   5   6    3.15    0.35
  -5   5  -6    3.23    0.34
   6  -5   6    1.99    0.39
   6   5   6    2.20    0.32
  -6   5  -6    1.97    0.28
   6  -6  -6    1.26    0.31
   6   6  -6    1.14    0.24
   5  -6  -6    0.43    0.21
   5   6  -6    0.63    0.16
   5   6  -6    0.42    0.16
   4  -6  -6    2.83    0.40
   4   6  -6    2.28    0.27
   4   6  -6    2.28    0.26
   3  -6  -6    0.68    0.22
   3   6  -6    0.69    0.15
   3   6  -6    0.54    0.15
  -2  -6   6   13.87    0.58
   2  -6  -6   13.71    0.70
   2   6  -6   13.95    0.58
  -2   6   6   13.81    0.48
  -1  -6   6    3.02    0.28
   1  -6  -6    2.94    0.31
   1   6  -6    2.96    0.25
  -1   6   6    3.46    0.23
   0  -6  -6    6.75    0.41
   0  -6   6    7.22    0.45
   0   6   6    6.34    0.42
   0   6  -6    6.20    0.37
   0   6   6    7.13    0.34
   0   6   6    6.73    0.34
  -1  -6  -6    3.66    0.29
   1  -6   6    3.23    0.34
  -1   6  -6    2.68    0.27
   1   6   6    3.32    0.24
   1   6   6    3.07    0.28
   1   6   6    3.20    0.24
   2  -6   6    2.13    0.33
   2   6   6    2.43    0.25
   2   6   6    2.76    0.24
  -2   6  -6    2.68    0.28
   3  -6   6   -0.09    0.13
   3   6   6    0.14    0.10
  -3   6  -6    0.13    0.11
   4  -6   6    0.81    0.26
   4   6   6    0.77    0.18
  -4   6  -6    0.82    0.19
   5  -6   6    0.96    0.29
   5   6   6    0.62    0.20
  -5   6  -6    0.79    0.19
   6   7  -6    0.65    0.21
   5  -7  -6    2.67    0.42
   5   7  -6    2.59    0.31
   5   7  -6    2.36    0.29
   4  -7  -6    4.64    0.44
   4   7  -6    4.02    0.33
   3  -7  -6    2.28    0.36
   3   7  -6    2.20    0.27
   2  -7  -6    3.85    0.44
   2   7  -6    3.82    0.32
   1  -7  -6    0.38    0.16
  -1  -7   6    0.20    0.15
   1   7  -6    0.15    0.11
  -1   7   6    0.28    0.11
   0  -7   6   -0.01    0.12
   0  -7  -6    0.13    0.13
   0   7   6    0.13    0.10
   0   7  -6    0.00    0.10
   0   7   6   -0.05    0.08
   1  -7   6    9.86    0.61
   1   7   6   10.77    0.48
  -1   7  -6   10.85    0.53
   1   7   6   11.31    0.49
   2  -7   6    0.78    0.23
   2   7   6    0.87    0.17
   2   7   6    0.73    0.16
  -2   7  -6    0.61    0.16
   3  -7   6    3.08    0.43
   3   7   6    3.20    0.32
  -3   7  -6    3.73    0.36
   4  -7   6    0.60    0.27
   4   7   6    0.56    0.18
  -4   7  -6    0.49    0.18
   5  -8  -6    1.37    0.32
   5   8  -6    1.13    0.23
   4  -8  -6    0.05    0.17
   4   8  -6    0.43    0.16
   3  -8  -6    0.23    0.20
   3   8  -6    0.65    0.19
   2  -8  -6    5.67    0.48
   2   8  -6    5.77    0.42
   1  -8  -6    2.63    0.34
   1   8  -6    2.13    0.28
  -1   8   6    2.06    0.24
   0  -8   6    0.95    0.26
   0   8   6    1.83    0.24
   0   8  -6    1.49    0.24
   1  -8   6    0.40    0.20
  -1   8  -6    0.43    0.16
   1   8   6    0.53    0.16
   2  -8   6    1.36    0.32
   2   8   6    1.44    0.22
  -2   8  -6    1.39    0.24
   2   8   6    1.50    0.23
   3  -8   6    0.25    0.22
   3   8   6    0.53    0.17
  -3   8  -6    0.36    0.16
   3  -9  -6    0.09    0.18
   3   9  -6    0.02    0.13
   2  -9  -6    2.36    0.36
   2   9  -6    1.64    0.28
   1   9  -6    0.96    0.22
   0   9  -6    0.69    0.21
   0   9   6    0.86    0.20
   1  -9   6    3.80    0.47
  -1   9  -6    4.41    0.43
   1   9   6    4.34    0.35
   2  -9   6    0.69    0.28
   2   9   6    0.63    0.18
  -2   9  -6    0.78    0.20
   8   0  -7    0.57    0.22
   7   0  -7    2.01    0.30
   6   0  -7    0.27    0.14
   6   0  -7    0.11    0.14
   5   0  -7    0.35    0.14
  -5   0   7    0.46    0.15
  -4   0   7    3.33    0.29
   4   0  -7    4.07    0.27
   3   0  -7   14.18    0.52
   3   0  -7   14.43    0.35
  -3   0   7   15.27    0.61
  -2   0   7   11.73    0.48
   2   0  -7   10.90    0.32
  -1   0   7   17.14    0.63
   0   0   7   15.94    0.60
   0   0   7   15.30    0.50
   1   0   7    5.21    0.30
   1   0   7    4.58    0.24
   2   0   7    5.89    0.29
   2   0   7    5.65    0.34
   3   0   7    7.57    0.37
   3   0   7    7.77    0.43
   4   0   7    1.87    0.25
   4   0   7    1.72    0.21
   5   0   7    4.03    0.31
   5   0   7    3.68    0.34
   6   0   7    1.31    0.23
   8  -1  -7    1.05    0.25
   8   1  -7    0.76    0.24
   7  -1  -7   11.62    0.66
   7  -1  -7   11.11    0.61
   7   1  -7   11.78    0.63
   6  -1  -7    3.48    0.30
   6  -1  -7    3.61    0.36
   6   1  -7    4.11    0.34
  -5  -1   7    2.38    0.25
   5  -1  -7    1.88    0.23
  -5   1   7    1.84    0.28
   5   1  -7    1.86    0.24
   4  -1  -7   15.02    0.56
  -4  -1   7   14.20    0.60
   4   1  -7   14.54    0.56
  -4   1   7   14.54    0.67
   3  -1  -7    4.51    0.26
  -3  -1   7    4.81    0.29
  -3   1   7    4.83    0.32
   3   1  -7    4.98    0.19
   3   1  -7    5.04    0.27
   2   1  -7    4.89    0.20
  -2   1   7    5.14    0.31
   2   1  -7    5.39    0.26
  -1  -1   7    1.00    0.15
  -1   1   7    0.64    0.13
   0  -1   7   43.37    1.34
   0   1   7   45.02    1.14
   0   1   7   43.35    1.33
   1  -1   7    2.81    0.18
   1  -1   7    3.18    0.24
   1   1   7    2.62    0.19
   1   1   7    2.01    0.20
   2  -1   7    6.53    0.30
   2  -1   7    6.49    0.39
   2   1   7    6.67    0.32
   2   1   7    6.35    0.34
   3  -1   7    7.72    0.45
   3  -1   7    7.48    0.35
   3   1   7    7.57    0.38
   3   1   7    7.65    0.40
   4  -1   7    0.72    0.19
   4  -1   7    0.59    0.13
   4   1   7    0.65    0.16
   4   1   7    0.49    0.13
   5  -1   7    0.00    0.09
   5  -1   7   -0.05    0.13
   5   1   7    0.07    0.11
   6  -1   7    0.83    0.18
   6   1   7    0.68    0.19
   8  -2  -7    0.50    0.20
   8   2  -7    0.38    0.19
   7  -2  -7    1.15    0.28
   7  -2  -7    0.88    0.22
   7   2  -7    0.99    0.23
   6  -2  -7    2.09    0.32
   6  -2  -7    1.98    0.26
   6   2  -7    1.89    0.28
   5  -2  -7    1.09    0.23
  -5  -2   7    1.05    0.18
   5  -2  -7    1.16    0.18
   5   2  -7    0.94    0.18
  -5   2   7    1.05    0.24
  -4  -2   7    3.13    0.25
   4  -2  -7    3.62    0.25
   4   2  -7    3.41    0.18
  -4   2   7    3.28    0.31
   4   2  -7    3.46    0.26
  -3  -2   7    7.29    0.37
   3  -2  -7    7.19    0.34
   3   2  -7    8.07    0.36
  -3   2   7    8.03    0.45
   3   2  -7    8.26    0.30
  -2  -2   7   15.90    0.60
   2   2  -7   16.19    0.49
  -2   2   7   16.36    0.66
   2   2  -7   16.08    0.53
  -1  -2   7   12.68    0.52
   1   2  -7   12.70    0.42
  -1   2   7   12.95    0.54
   0  -2   7   12.31    0.53
   0   2   7   12.80    0.52
   0   2   7   13.52    0.47
   1  -2   7    3.01    0.26
   1  -2   7    2.77    0.17
   1   2   7    3.19    0.22
   2  -2   7    4.85    0.36
   2  -2   7    4.98    0.25
   2   2   7    4.94    0.29
   2   2   7    5.09    0.29
   3  -2   7    5.62    0.39
   3  -2   7    5.45    0.27
   3   2   7    3.91    0.29
   3   2   7    5.97    0.34
   4  -2   7    1.42    0.18
   4  -2   7    1.11    0.23
   4   2   7    1.52    0.22
   5  -2   7    3.39    0.27
   5  -2   7    4.11    0.40
   5   2   7    3.74    0.33
   6  -2   7    1.27    0.29
   6   2   7    1.59    0.27
   7  -3  -7    5.16    0.40
   7  -3  -7    5.60    0.49
   7   3  -7    5.64    0.45
   6  -3  -7    3.63    0.31
   6  -3  -7    3.06    0.40
   6   3  -7    3.77    0.38
   5  -3  -7    3.56    0.27
   5  -3  -7    4.02    0.38
   5   3  -7    4.05    0.32
   4  -3  -7    6.23    0.33
  -4  -3   7    6.86    0.35
  -4   3   7    6.07    0.46
   4   3  -7    5.92    0.36
   4   3  -7    6.35    0.29
  -3  -3   7    4.59    0.28
  -3   3   7    5.02    0.37
   3   3  -7    5.38    0.30
   3   3  -7    5.43    0.27
  -2  -3   7    1.66    0.20
   2   3  -7    1.29    0.15
   2   3  -7    1.18    0.14
  -2   3   7    1.65    0.24
  -1  -3   7    2.60    0.23
   1   3  -7    2.40    0.18
   1   3  -7    2.54    0.17
  -1   3   7    2.40    0.23
   0  -3   7   14.37    0.60
   0   3   7   14.16    0.58
   0   3  -7   14.08    0.49
   0   3   7   13.70    0.50
   1  -3   7    7.05    0.41
   1   3   7    6.56    0.33
   2  -3   7    3.87    0.21
   2  -3   7    4.24    0.35
   2   3   7    3.85    0.26
   2   3   7    3.96    0.26
   3  -3   7    6.73    0.29
   3  -3   7    6.56    0.46
   3   3   7    6.00    0.35
   3   3   7    6.09    0.33
   4  -3   7    0.11    0.16
   4   3   7    0.00    0.09
   5  -3   7    0.26    0.19
   5   3   7    0.07    0.11
   6  -3   7    1.01    0.30
   6   3   7    0.76    0.20
   7  -4  -7    0.29    0.21
   7   4  -7    0.47    0.20
   6  -4  -7    2.89    0.40
   6  -4  -7    2.96    0.31
   6   4  -7    2.87    0.34
   5  -4  -7    1.92    0.32
   5  -4  -7    1.63    0.22
   5   4  -7    1.22    0.17
   5   4  -7    1.36    0.23
   4  -4  -7    1.97    0.22
   4  -4  -7    1.77    0.30
  -4   4   7    1.70    0.31
   4   4  -7    2.23    0.21
   4   4  -7    2.02    0.24
  -3  -4   7    2.11    0.19
   3   4  -7    2.60    0.22
   3   4  -7    2.78    0.22
  -2  -4   7   16.64    0.64
  -2   4   7   16.75    0.75
   2   4  -7   16.20    0.55
   2   4  -7   16.96    0.58
  -1  -4   7    5.33    0.33
   1   4  -7    5.21    0.29
  -1   4   7    5.02    0.36
   1   4  -7    5.53    0.25
   0  -4   7    5.00    0.34
   0   4   7    4.84    0.32
   0   4  -7    4.95    0.22
   0   4  -7    4.74    0.28
   0   4   7    5.05    0.28
   1  -4   7    3.24    0.30
   1   4   7    2.25    0.22
  -1   4  -7    2.74    0.22
   1   4   7    3.21    0.23
   2  -4   7    4.81    0.39
   2   4   7    4.29    0.28
   2   4   7    4.53    0.29
   3  -4   7    1.88    0.30
   3   4   7    2.11    0.24
   4  -4   7    1.50    0.29
   4   4   7    1.87    0.26
   5  -4   7    2.02    0.35
   5   4   7    2.23    0.29
   6  -4   7    1.35    0.33
   6   4   7    1.28    0.26
   7  -5  -7    2.05    0.39
   7   5  -7    2.15    0.33
   6  -5  -7    2.51    0.39
   6   5  -7    2.44    0.33
   5  -5  -7    3.92    0.41
   5   5  -7    3.44    0.35
   5   5  -7    4.12    0.29
   4  -5  -7    2.47    0.36
   4  -5  -7    2.66    0.22
   4   5  -7    2.30    0.24
   4   5  -7    2.69    0.28
   3  -5  -7    1.65    0.29
   3   5  -7    1.62    0.21
  -3   5   7    1.41    0.27
   3   5  -7    2.08    0.23
  -2  -5   7    0.46    0.13
   2   5  -7    0.46    0.11
   2   5  -7    0.51    0.12
  -2   5   7    0.43    0.17
  -2   5   7    0.51    0.09
  -1  -5   7    1.30    0.20
   1   5  -7    1.35    0.14
  -1   5   7    1.50    0.25
  -1   5   7    1.60    0.16
   1   5  -7    1.57    0.20
   0  -5   7    3.96    0.33
   0   5  -7    3.82    0.27
   0   5   7    3.82    0.24
   0   5   7    3.79    0.25
   0   5   7    4.00    0.32
   1  -5   7    7.75    0.49
   1   5   7    7.48    0.38
  -1   5  -7    8.00    0.40
   2  -5   7    1.99    0.31
  -2   5  -7    2.62    0.27
   2   5   7    2.11    0.23
   3  -5   7    2.20    0.33
   3   5   7    2.57    0.28
  -3   5  -7    2.42    0.27
   4  -5   7    0.23    0.20
   4   5   7    0.26    0.13
  -4   5  -7    0.27    0.12
   5  -5   7    0.24    0.22
  -5   5  -7    0.33    0.14
   5   5   7    0.36    0.17
   6  -6  -7    1.06    0.30
   6   6  -7    0.74    0.21
   5  -6  -7    1.12    0.29
   5   6  -7    0.63    0.17
   5   6  -7    1.09    0.22
   4  -6  -7    0.77    0.24
   4   6  -7    0.90    0.18
   4   6  -7    0.88    0.18
   3  -6  -7    2.40    0.21
   3  -6  -7    2.31    0.36
   3   6  -7    2.35    0.26
   3   6  -7    2.48    0.25
   2  -6  -7    8.34    0.54
  -2  -6   7    7.62    0.42
   2   6  -7    7.88    0.43
   1  -6  -7    3.71    0.34
  -1  -6   7    3.21    0.31
  -1   6   7    4.02    0.24
  -1   6   7    3.47    0.35
   1   6  -7    3.73    0.28
   0  -6   7    0.84    0.20
   0   6  -7    1.09    0.18
   0   6   7    1.41    0.18
   0   6   7    1.05    0.22
   0   6   7    1.28    0.18
   1  -6   7    1.21    0.25
   1   6   7    1.05    0.17
  -1   6  -7    1.14    0.19
   1   6   7    1.16    0.18
   2  -6   7    1.54    0.29
   2   6   7    1.63    0.22
  -2   6  -7    1.33    0.21
   3  -6   7    0.37    0.21
  -3   6  -7    0.41    0.15
   3   6   7    0.45    0.15
   4  -6   7    1.09    0.29
  -4   6  -7    1.40    0.24
   4   6   7    1.38    0.24
   5  -6   7    0.89    0.30
   5   6   7    1.17    0.25
  -5   6  -7    1.34    0.25
   5  -7  -7    2.43    0.40
   5   7  -7    1.87    0.26
   4  -7  -7    2.70    0.40
   4   7  -7    1.46    0.24
   3  -7  -7    0.42    0.21
   3   7  -7    0.48    0.16
   2  -7  -7    0.01    0.15
   2   7  -7    0.14    0.11
   1  -7  -7    0.18    0.17
  -1  -7   7    0.15    0.14
   1   7  -7    0.03    0.09
  -1   7   7    0.30    0.12
   0  -7  -7    2.86    0.35
   0  -7   7    1.98    0.31
   0   7  -7    2.46    0.29
   0   7   7    2.32    0.24
   0   7   7    2.33    0.24
   1  -7   7    3.19    0.40
   1   7   7    3.64    0.29
   1   7   7    3.19    0.29
  -1   7  -7    3.55    0.34
   2  -7   7    1.76    0.32
   2   7   7    1.78    0.24
  -2   7  -7    1.91    0.25
   3  -7   7    0.72    0.27
  -3   7  -7    0.97    0.21
   3   7   7    0.91    0.19
   4  -7   7    0.03    0.20
  -4   7  -7    0.12    0.15
   4   7   7    0.19    0.15
   4  -8  -7    0.61    0.25
   4   8  -7    0.25    0.15
   3  -8  -7    1.51    0.32
   3   8  -7    1.15    0.23
   2  -8  -7    2.43    0.37
   2   8  -7    2.04    0.28
   1  -8  -7    2.17    0.34
   1   8  -7    2.36    0.30
   0  -8   7    0.47    0.24
   0   8   7    0.80    0.17
   0   8  -7    0.64    0.18
   1  -8   7    0.08    0.19
  -1   8  -7    0.02    0.11
   1   8   7   -0.08    0.09
   2  -8   7   -0.10    0.18
  -2   8  -7    0.14    0.13
   2   8   7    0.07    0.13
   3  -8   7    0.29    0.25
   3   8   7    0.25    0.14
  -3   8  -7    0.08    0.13
   3  -9  -7   -0.01    0.18
   3   9  -7    0.01    0.13
   2  -9  -7    0.05    0.18
   2   9  -7   -0.09    0.13
   1   9  -7    0.00    0.13
   0   9   7    0.96    0.20
   0   9  -7    0.53    0.17
   1  -9   7    0.98    0.30
  -1   9  -7    0.85    0.22
   1   9   7    0.59    0.18
   8   0  -8    0.62    0.23
   7   0  -8    0.87    0.23
  -6   0   8   -0.09    0.11
   6   0  -8   -0.03    0.09
   5   0  -8    6.98    0.41
  -5   0   8    7.15    0.45
   4   0  -8    8.21    0.40
  -4   0   8    7.80    0.45
   3   0  -8   17.68    0.62
  -3   0   8   18.75    0.72
  -2   0   8    9.55    0.45
   2   0  -8    9.31    0.29
  -1   0   8    0.32    0.10
   0   0   8    1.08    0.17
   0   0   8    0.75    0.12
   1   0   8    0.37    0.09
   1   0   8    0.38    0.11
   2   0   8   14.84    0.64
   2   0   8   15.97    0.56
   3   0   8    6.80    0.36
   3   0   8    6.64    0.40
   4   0   8    5.41    0.38
   4   0   8    5.03    0.33
   5   0   8    8.76    0.47
   5   0   8    8.68    0.52
   6   0   8   -0.01    0.12
   8  -1  -8    2.51    0.37
   8   1  -8    3.32    0.42
   7  -1  -8   12.20    0.69
   7  -1  -8   10.91    0.61
   7   1  -8   11.16    0.63
   6  -1  -8    2.98    0.38
   6  -1  -8    2.91    0.32
   6   1  -8    2.65    0.32
  -6   1   8    3.79    0.44
   5  -1  -8    2.64    0.28
  -5  -1   8    2.70    0.32
  -5   1   8    2.65    0.34
   5   1  -8    2.62    0.28
  -4  -1   8    0.16    0.10
   4  -1  -8    0.13    0.09
   4   1  -8    0.02    0.08
  -4   1   8    0.25    0.13
   3  -1  -8    0.80    0.14
   3   1  -8    0.61    0.12
  -3   1   8    1.14    0.19
   3   1  -8    0.87    0.09
  -2   1   8    4.06    0.29
   2   1  -8    4.29    0.20
  -1  -1   8   13.04    0.57
  -1   1   8   14.42    0.58
   0  -1   8   31.56    1.08
   0   1   8   33.55    1.08
   0   1   8   33.46    0.92
   1  -1   8    2.74    0.25
   1  -1   8    2.70    0.19
   1   1   8    2.78    0.23
   1   1   8    2.33    0.20
   2  -1   8    4.43    0.26
   2  -1   8    4.51    0.34
   2   1   8    4.55    0.30
   2   1   8    4.50    0.28
   3  -1   8    0.76    0.18
   3  -1   8    0.85    0.14
   3   1   8    0.98    0.18
   3   1   8    1.20    0.18
   4  -1   8    1.53    0.27
   4  -1   8    1.37    0.19
   4   1   8    1.96    0.25
   4   1   8    1.49    0.23
   5  -1   8    0.97    0.24
   5  -1   8    1.21    0.20
   5   1   8    1.06    0.21
   6  -1   8    2.15    0.28
   6   1   8    2.18    0.31
   7  -2  -8    0.99    0.22
   7  -2  -8    0.43    0.20
   7   2  -8    0.54    0.20
   6  -2  -8    0.37    0.15
   6  -2  -8    0.38    0.20
   6   2  -8    0.36    0.15
  -5  -2   8    5.03    0.34
   5  -2  -8    3.92    0.30
  -5   2   8    4.24    0.40
   5   2  -8    3.96    0.31
   4  -2  -8   10.20    0.45
  -4  -2   8    9.21    0.47
  -4   2   8    9.64    0.56
   4   2  -8   10.17    0.46
  -3  -2   8   12.01    0.54
   3   2  -8   13.31    0.51
  -3   2   8   12.66    0.62
   3   2  -8   13.37    0.42
  -2  -2   8    9.91    0.45
  -2   2   8    9.25    0.49
   2   2  -8    9.78    0.35
   2   2  -8    9.45    0.39
  -1  -2   8    1.38    0.19
  -1   2   8    1.02    0.18
   1   2  -8    0.97    0.13
   0  -2   8    1.08    0.18
   0   2   8    1.37    0.17
   0   2   8    1.33    0.19
   1  -2   8    0.14    0.06
   1  -2   8    0.16    0.11
   1   2   8    0.17    0.08
   1   2   8    0.05    0.07
   2  -2   8   10.36    0.54
   2  -2   8   10.10    0.40
   2   2   8   10.53    0.48
   2   2   8    9.84    0.44
   3  -2   8    6.30    0.44
   3  -2   8    6.39    0.32
   3   2   8    6.32    0.37
   3   2   8    6.73    0.38
   4  -2   8    6.35    0.47
   4  -2   8    6.04    0.33
   4   2   8    6.08    0.39
   5  -2   8    5.52    0.47
   5   2   8    5.85    0.41
   6  -2   8    1.25    0.31
   6   2   8    0.99    0.23
   7  -3  -8    5.62    0.51
   7  -3  -8    5.88    0.43
   7   3  -8    5.94    0.45
   6  -3  -8    4.43    0.35
   6  -3  -8    3.25    0.42
   6   3  -8    3.76    0.39
   5  -3  -8    1.46    0.28
   5  -3  -8    1.36    0.21
   5   3  -8    1.30    0.22
  -5   3   8    1.56    0.31
  -4  -3   8    1.65    0.22
   4  -3  -8    1.47    0.19
   4   3  -8    1.59    0.17
  -4   3   8    1.53    0.28
   4   3  -8    1.79    0.23
  -3  -3   8    1.58    0.21
   3   3  -8    2.44    0.18
   3   3  -8    2.62    0.21
  -3   3   8    2.71    0.33
  -2  -3   8    1.63    0.21
   2   3  -8    1.47    0.17
   2   3  -8    1.25    0.15
  -2   3   8    1.43    0.22
  -1  -3   8   14.94    0.63
   1   3  -8   15.28    0.53
   1   3  -8   15.96    0.52
  -1   3   8   15.70    0.67
   0  -3   8   18.05    0.72
   0   3   8   16.91    0.69
   0   3  -8   17.44    0.59
   0   3   8   17.81    0.61
   1  -3   8    6.03    0.40
   1   3   8    4.41    0.30
   1   3   8    6.35    0.33
   2  -3   8    1.09    0.22
   2  -3   8    1.39    0.15
   2   3   8    1.16    0.18
   2   3   8    1.12    0.18
   3  -3   8    4.53    0.40
   3   3   8    4.23    0.32
   3   3   8    5.13    0.32
   4  -3   8    1.01    0.25
   4   3   8    0.95    0.19
   5  -3   8    0.01    0.18
   5   3   8    0.30    0.15
   6  -3   8    2.54    0.42
   6   3   8    2.69    0.35
   7  -4  -8    0.43    0.22
   7   4  -8    0.32    0.19
   6  -4  -8    1.82    0.35
   6  -4  -8    1.83    0.27
   6   4  -8    1.54    0.27
   5  -4  -8    1.84    0.33
   5  -4  -8    1.73    0.23
   5   4  -8    2.32    0.29
   4  -4  -8    7.40    0.38
   4   4  -8    7.53    0.41
  -4   4   8    7.02    0.53
   4   4  -8    7.15    0.35
  -3  -4   8    5.67    0.34
  -3   4   8    6.01    0.46
   3   4  -8    6.14    0.32
   3   4  -8    5.45    0.32
  -2  -4   8    8.30    0.42
  -2   4   8    8.18    0.50
   2   4  -8    8.18    0.38
   2   4  -8    8.48    0.37
  -1  -4   8    0.41    0.13
   1   4  -8    0.67    0.13
  -1   4   8    0.78    0.18
   1   4  -8    0.70    0.11
   0  -4   8    0.42    0.15
   0   4  -8    0.67    0.10
   0   4   8    0.60    0.15
   0   4   8    0.70    0.13
   0   4  -8    0.34    0.10
   1  -4   8    1.27    0.24
  -1   4  -8    1.18    0.17
   1   4   8    1.79    0.23
   1   4   8    1.48    0.20
   2  -4   8    3.97    0.38
   2   4   8    3.75    0.28
   2   4   8    3.33    0.26
   3  -4   8    6.66    0.50
   3   4   8    6.14    0.39
   4  -4   8    4.39    0.44
   4   4   8    4.81    0.37
   5  -4   8    1.90    0.36
   5   4   8    1.39    0.26
   6  -5  -8    2.55    0.42
   6   5  -8    2.29    0.32
   5  -5  -8    1.90    0.36
   5  -5  -8    1.45    0.22
   5   5  -8    1.42    0.24
   4  -5  -8    0.88    0.24
   4  -5  -8    1.08    0.18
   4   5  -8    0.96    0.17
   4   5  -8    0.71    0.17
  -3  -5   8    1.69    0.22
   3   5  -8    1.28    0.19
   3   5  -8    1.66    0.21
  -3   5   8    1.58    0.31
  -2  -5   8    2.25    0.24
   2   5  -8    1.77    0.22
  -2   5   8    1.88    0.30
   2   5  -8    2.25    0.22
  -1  -5   8    4.35    0.33
  -1   5   8    4.69    0.37
   1   5  -8    4.61    0.30
   0  -5   8   14.36    0.66
   0   5  -8   12.29    0.54
   0   5   8   13.31    0.54
   1  -5   8    3.14    0.33
   1   5   8    2.99    0.26
  -1   5  -8    3.53    0.28
   1   5   8    3.43    0.30
   2  -5   8    0.68    0.24
  -2   5  -8    0.56    0.15
   2   5   8    0.62    0.15
   3  -5   8    2.01    0.33
   3   5   8    3.12    0.32
  -3   5  -8    2.13    0.26
   4  -5   8    0.47    0.23
  -4   5  -8    0.72    0.18
   4   5   8    0.33    0.15
   5  -5   8   -0.04    0.20
  -5   5  -8    0.24    0.14
   5   5   8    0.21    0.14
   6  -6  -8    1.08    0.29
   6   6  -8    1.37    0.26
   5  -6  -8    3.06    0.44
   5   6  -8    3.48    0.37
   5   6  -8    2.31    0.27
   4  -6  -8    1.50    0.31
   4   6  -8    1.57    0.23
   4   6  -8    1.55    0.23
   3  -6  -8    4.57    0.44
   3   6  -8    4.33    0.33
   2  -6  -8    3.23    0.40
  -2  -6   8    3.53    0.30
   2   6  -8    3.82    0.30
  -2   6   8    2.48    0.37
  -1  -6   8    0.40    0.16
   1   6  -8    0.40    0.13
  -1   6   8    0.27    0.15
   0  -6   8    0.08    0.15
   0   6  -8    0.07    0.09
   0   6   8    0.17    0.10
   0   6   8    0.00    0.12
   1  -6   8    1.59    0.30
   1   6   8    1.94    0.23
  -1   6  -8    2.02    0.26
   2  -6   8    2.20    0.36
   2   6   8    2.41    0.28
  -2   6  -8    2.80    0.31
   3  -6   8    2.69    0.40
   3   6   8    3.33    0.34
  -3   6  -8    2.86    0.32
   4  -6   8    1.26    0.32
  -4   6  -8    1.46    0.25
   4   6   8    1.22    0.24
   5  -7  -8    1.51    0.34
   5   7  -8    1.39    0.24
   4  -7  -8   -0.04    0.16
   4   7  -8    0.12    0.13
   3  -7  -8    0.06    0.16
   3   7  -8   -0.12    0.09
   2  -7  -8    3.38    0.43
   2   7  -8    2.85    0.31
  -1  -7   8    0.67    0.19
   1  -7  -8    0.70    0.22
   1   7  -8    0.50    0.15
   0  -7   8    4.77    0.43
   0  -7  -8    5.13    0.41
   0   7   8    5.30    0.33
   0   7   8    4.97    0.33
   0   7  -8    4.89    0.36
   1  -7   8    0.90    0.26
   1   7   8    0.62    0.16
  -1   7  -8    0.67    0.18
   2  -7   8    2.17    0.38
   2   7   8    1.55    0.24
  -2   7  -8    2.03    0.28
   3  -7   8    0.35    0.23
  -3   7  -8    0.16    0.14
   3   7   8    0.21    0.14
   4  -7   8    0.06    0.22
   4   7   8    0.16    0.14
  -4   7  -8    0.04    0.13
   4  -8  -8    0.20    0.21
   4   8  -8    0.32    0.17
   3  -8  -8    2.43    0.40
   3   8  -8    1.78    0.28
   2  -8  -8    1.02    0.27
   2   8  -8    0.84    0.21
   1  -8  -8    0.62    0.22
   1   8  -8    0.73    0.20
   0  -8   8    0.04    0.18
   0   8   8   -0.06    0.11
   0   8  -8    0.02    0.11
   1  -8   8    0.37    0.24
  -1   8  -8    0.34    0.16
   2  -8   8    2.08    0.39
  -2   8  -8    1.79    0.29
   2   8   8    2.38    0.31
   2  -9  -8    1.06    0.28
   2   9  -8    1.24    0.25
   1   9  -8    0.76    0.20
   0   9  -8    0.50    0.18
   7   0  -9    3.94    0.42
  -6   0   9    1.25    0.26
   6   0  -9    1.80    0.28
  -5   0   9   12.93    0.67
   5   0  -9   12.82    0.58
  -4   0   9   31.47    1.14
   4   0  -9   32.58    1.00
  -3   0   9    8.26    0.45
   3   0  -9    8.12    0.39
  -2   0   9   19.99    0.78
  -1   0   9   28.05    0.98
   0   0   9   21.60    0.82
   1   0   9    8.08    0.44
   1   0   9    8.81    0.39
   2   0   9   30.52    0.91
   2   0   9   28.44    1.04
   3   0   9    6.74    0.42
   3   0   9    6.36    0.36
   4   0   9    7.53    0.41
   4   0   9    6.74    0.45
   5   0   9    1.58    0.25
   5   0   9    1.65    0.28
   6   0   9    0.07    0.14
   7  -1  -9    1.01    0.24
   7  -1  -9    0.97    0.27
   7   1  -9    1.01    0.25
   6  -1  -9    0.63    0.18
  -6   1   9    0.52    0.21
   6   1  -9    0.53    0.17
  -5  -1   9    0.83    0.20
   5  -1  -9    0.81    0.17
   5   1  -9    0.65    0.16
  -5   1   9    0.83    0.21
   4  -1  -9   10.07    0.47
  -4  -1   9   10.12    0.52
  -4   1   9    9.83    0.56
   4   1  -9   10.89    0.49
   3  -1  -9   33.99    1.01
   3   1  -9   35.42    0.85
  -3   1   9   33.84    1.20
   3   1  -9   33.37    1.01
   2   1  -9   28.80    0.76
  -2   1   9   28.88    1.02
  -1  -1   9  103.96    2.89
  -1   1   9   99.85    2.88
   0  -1   9   30.03    1.05
   0   1   9   30.19    0.90
   0   1   9   31.32    1.05
   1  -1   9   10.45    0.43
   1  -1   9   11.32    0.54
   1   1   9   11.34    0.46
   1   1   9   10.61    0.51
   2  -1   9    0.43    0.11
   2  -1   9    0.59    0.17
   2   1   9    0.44    0.14
   2   1   9    0.54    0.12
   3  -1   9    0.58    0.18
   3  -1   9    0.74    0.14
   3   1   9    0.64    0.15
   3   1   9    0.59    0.16
   4  -1   9    2.20    0.25
   4  -1   9    1.79    0.29
   4   1   9    2.92    0.31
   4   1   9    2.49    0.30
   5  -1   9    0.40    0.20
   5  -1   9    0.30    0.14
   5   1   9    0.29    0.16
   6  -1   9    3.97    0.35
   6   1   9    5.08    0.41
   7  -2  -9    4.74    0.41
   7  -2  -9    4.98    0.47
   7   2  -9    4.79    0.48
   6  -2  -9    2.66    0.38
   6  -2  -9    3.25    0.34
   6   2  -9    2.17    0.30
  -6   2   9    2.53    0.38
   5  -2  -9   16.10    0.67
  -5  -2   9   16.32    0.72
  -5   2   9   18.62    0.87
   5   2  -9   16.38    0.70
  -4  -2   9   20.45    0.79
   4  -2  -9   21.16    0.73
   4   2  -9   19.95    0.73
  -4   2   9   19.47    0.89
  -3  -2   9   22.55    0.83
   3   2  -9   21.11    0.72
  -3   2   9   21.47    0.88
   3   2  -9   21.71    0.63
  -2  -2   9   10.53    0.51
   2   2  -9   11.63    0.46
  -2   2   9   11.75    0.57
   2   2  -9   11.73    0.41
  -1  -2   9   14.96    0.63
   1   2  -9   14.38    0.49
  -1   2   9   14.12    0.63
   0  -2   9   18.12    0.73
   0   2   9   18.03    0.62
   0   2   9   17.16    0.71
   1  -2   9   12.18    0.58
   1   2   9   12.05    0.50
   1   2   9   11.97    0.55
   2  -2   9   21.23    0.70
   2  -2   9   22.58    0.90
   2   2   9   22.13    0.76
   2   2   9   22.52    0.84
   3  -2   9    9.68    0.56
   3  -2   9    9.61    0.43
   3   2   9    9.01    0.46
   3   2   9    9.35    0.48
   4  -2   9    4.29    0.41
   4  -2   9    4.58    0.30
   4   2   9    4.80    0.35
   5  -2   9    2.72    0.39
   5   2   9    3.02    0.34
   6  -2   9    0.29    0.23
   6   2   9    0.49    0.19
   7  -3  -9    2.91    0.36
   7  -3  -9    2.64    0.42
   7   3  -9    3.37    0.41
   6  -3  -9    0.13    0.13
   6  -3  -9    0.16    0.17
   6   3  -9   -0.06    0.13
   5  -3  -9    3.81    0.31
   5   3  -9    3.76    0.32
  -5   3   9    4.04    0.42
  -4  -3   9    5.79    0.36
   4  -3  -9    5.94    0.35
   4   3  -9    5.78    0.36
  -4   3   9    5.36    0.45
   3   3  -9   19.44    0.68
   3   3  -9   20.35    0.62
  -3   3   9   18.04    0.85
  -2  -3   9   42.35    1.46
  -2   3   9   46.92    1.55
   2   3  -9   48.61    1.25
   2   3  -9   47.82    1.21
  -1  -3   9   24.84    0.91
   1   3  -9   25.13    0.74
   1   3  -9   24.20    0.74
  -1   3   9   23.91    0.93
   0  -3   9   62.33    1.87
   0   3   9   61.38    1.58
   0   3   9   58.62    1.84
   0   3  -9   58.90    1.52
   1  -3   9    0.32    0.14
   1   3   9    0.43    0.13
   1   3   9    0.24    0.10
   2  -3   9    0.75    0.20
   2   3   9    0.55    0.13
   2   3   9    0.78    0.17
   3  -3   9    0.92    0.24
   3   3   9    1.27    0.20
   3   3   9    0.91    0.18
   4  -3   9    0.26    0.19
   4   3   9    0.37    0.15
   5  -3   9    1.48    0.32
   5   3   9    1.89    0.28
   7  -4  -9    2.01    0.38
   7  -4  -9    1.70    0.28
   6  -4  -9    8.46    0.49
   6  -4  -9   10.10    0.68
   6   4  -9    8.11    0.53
   5  -4  -9   11.58    0.70
   5  -4  -9    9.37    0.49
  -5   4   9   10.18    0.69
   5   4  -9    9.77    0.53
   4  -4  -9    6.49    0.37
   4   4  -9    6.39    0.34
   4   4  -9    6.27    0.38
  -3  -4   9   26.68    0.97
   3   4  -9   29.25    0.86
  -3   4   9   27.60    1.14
   3   4  -9   28.16    0.89
  -2  -4   9    1.47    0.22
   2   4  -9    1.09    0.16
  -2   4   9    0.75    0.21
   2   4  -9    1.19    0.17
  -1  -4   9    2.51    0.26
   1   4  -9    2.43    0.24
   1   4  -9    2.51    0.19
  -1   4   9    2.70    0.32
   0  -4   9    8.47    0.50
   0   4   9    9.51    0.44
   0   4  -9    8.87    0.42
   0   4  -9    9.52    0.37
   1  -4   9   17.60    0.80
   1   4   9   18.34    0.68
  -1   4  -9   17.37    0.65
   1   4   9   17.63    0.73
   2  -4   9    8.29    0.54
   2   4   9    8.11    0.44
   2   4   9    7.19    0.41
   3  -4   9    7.41    0.56
   3   4   9    8.83    0.47
   4  -4   9    4.61    0.47
   4   4   9    4.71    0.38
   5  -4   9    1.33    0.34
   5   4   9    2.41    0.33
   6  -5  -9    0.17    0.18
   6   5  -9   -0.22    0.12
   5  -5  -9    4.86    0.48
   5  -5  -9    4.95    0.35
   5   5  -9    4.86    0.37
   4  -5  -9    1.43    0.30
   4  -5  -9    1.34    0.20
   4   5  -9    1.40    0.22
   4   5  -9    1.62    0.22
  -4   5   9    0.86    0.25
  -3  -5   9   20.63    0.79
   3   5  -9   21.09    0.73
   3   5  -9   19.67    0.71
  -2  -5   9   30.89    1.08
   2   5  -9   30.68    0.91
  -2   5   9   29.92    1.21
   2   5  -9   30.54    0.95
  -1  -5   9    9.65    0.52
   1   5  -9   10.17    0.47
  -1   5   9   10.24    0.59
   0  -5   9   28.35    1.08
   0   5   9   27.57    0.89
   0   5   9   28.60    1.08
   0   5  -9   27.24    0.90
   1  -5   9    3.50    0.36
  -1   5  -9    3.62    0.29
   1   5   9    3.27    0.30
   1   5   9    3.36    0.28
   2  -5   9    0.02    0.17
   2   5   9    0.07    0.09
  -2   5  -9    0.08    0.09
   3  -5   9    1.19    0.29
  -3   5  -9    1.17    0.22
   3   5   9    1.32    0.23
   4  -5   9    1.59    0.35
  -4   5  -9    1.59    0.26
   4   5   9    1.64    0.27
   5  -5   9    1.01    0.32
  -5   5  -9    1.70    0.28
   5   5   9    1.52    0.28
   6  -6  -9    8.85    0.68
   6   6  -9    7.91    0.53
   5  -6  -9    2.21    0.39
   5   6  -9    2.87    0.34
   4  -6  -9    6.60    0.55
   4   6  -9    6.91    0.41
   4   6  -9    5.81    0.40
   3  -6  -9   11.12    0.69
   3   6  -9   10.54    0.52
  -3   6   9   10.28    0.69
  -2  -6   9    0.77    0.19
  -2   6   9    0.62    0.22
   2   6  -9    0.82    0.17
  -1  -6   9    1.74    0.27
  -1   6   9    1.38    0.27
   1   6  -9    1.53    0.22
   0  -6   9    3.91    0.37
   0   6   9    3.69    0.28
   0   6  -9    3.58    0.30
   0   6   9    4.19    0.38
   1  -6   9   11.08    0.67
   1   6   9   12.17    0.55
  -1   6  -9   11.85    0.57
   2  -6   9    6.40    0.53
   2   6   9    5.63    0.39
  -2   6  -9    6.47    0.42
   3  -6   9    3.13    0.44
   3   6   9    3.12    0.34
  -3   6  -9    3.11    0.35
   4  -6   9    2.74    0.46
   4   6   9    3.70    0.39
  -4   6  -9    4.14    0.41
   5  -7  -9    1.60    0.37
   4  -7  -9    6.68    0.58
   4   7  -9    5.64    0.41
   3  -7  -9   13.05    0.79
   3   7  -9   12.72    0.61
   2  -7  -9    6.08    0.52
   2   7  -9    6.87    0.44
   1  -7  -9   13.36    0.74
  -1  -7   9   14.12    0.70
   1   7  -9   13.28    0.62
  -1   7   9   13.23    0.75
   0  -7   9    2.98    0.40
   0  -7  -9    3.85    0.43
   0   7  -9    3.26    0.34
   0   7   9    3.20    0.40
   0   7   9    3.49    0.29
   1  -7   9    3.75    0.46
   1   7   9    4.93    0.35
  -1   7  -9    4.12    0.35
   2  -7   9    0.47    0.25
  -2   7  -9    0.85    0.20
   2   7   9    0.81    0.20
   3  -7   9    0.15    0.24
   3   7   9    0.66    0.19
  -3   7  -9    0.53    0.18
   3  -8  -9    1.78    0.39
   3   8  -9    1.57    0.27
   2  -8  -9    1.54    0.32
   2   8  -9    1.67    0.28
   1  -8  -9    0.64    0.24
   1   8  -9    0.86    0.21
   0  -8   9    2.31    0.37
   0   8  -9    2.74    0.34
   1  -8   9    3.04    0.45
   1   8   9    3.10    0.33
  -1   8  -9    3.49    0.38
   2  -8   9    4.05    0.54
   2   8   9    5.39    0.40
  -2   8  -9    4.67    0.40
   7   0 -10    2.56    0.36
  -6   0  10   11.80    0.68
   6   0 -10   12.02    0.61
   5   0 -10    6.88    0.42
  -5   0  10    6.85    0.49
   4   0 -10    3.43    0.27
  -4   0  10    2.84    0.29
   3   0 -10    2.24    0.24
  -3   0  10    2.26    0.28
  -2   0  10   14.78    0.65
  -1   0  10    6.50    0.40
   0   0  10    2.77    0.26
   1   0  10    4.64    0.35
   1   0  10    5.40    0.31
   2   0  10    1.02    0.18
   2   0  10    1.41    0.23
   3   0  10    1.91    0.28
   3   0  10    1.81    0.23
   4   0  10    1.83    0.25
   4   0  10    1.96    0.30
   5   0  10    2.51    0.31
   7  -1 -10    7.69    0.58
   7  -1 -10    7.04    0.50
   7   1 -10    7.72    0.53
   6  -1 -10    0.24    0.14
   6   1 -10    0.53    0.18
  -6   1  10    0.08    0.14
   5  -1 -10    6.41    0.41
  -5  -1  10    6.42    0.45
  -5   1  10    6.11    0.47
   5   1 -10    6.47    0.41
   4  -1 -10    8.13    0.43
  -4  -1  10    8.11    0.48
   4   1 -10    7.81    0.42
  -4   1  10    7.96    0.50
  -3  -1  10    5.07    0.36
   3   1 -10    6.11    0.35
  -3   1  10    6.22    0.41
  -2  -1  10    4.11    0.32
   2   1 -10    5.05    0.24
  -2   1  10    4.94    0.36
  -1  -1  10   36.75    1.22
  -1   1  10   34.71    1.22
   0  -1  10    7.83    0.45
   0   1  10    7.93    0.44
   0   1  10    7.61    0.38
   1  -1  10    3.43    0.25
   1  -1  10    3.49    0.30
   1   1  10    3.85    0.30
   1   1  10    3.61    0.26
   2  -1  10    0.85    0.19
   2  -1  10    0.96    0.16
   2   1  10    0.85    0.19
   2   1  10    0.96    0.18
   3  -1  10    1.30    0.24
   3  -1  10    1.08    0.18
   3   1  10    0.66    0.17
   3   1  10    1.15    0.22
   4  -1  10   10.15    0.50
   4  -1  10   11.60    0.64
   4   1  10   10.96    0.58
   4   1  10   10.05    0.53
   5  -1  10    7.25    0.53
   5  -1  10    6.45    0.42
   5   1  10    6.66    0.45
   7  -2 -10    1.87    0.36
   7  -2 -10    1.22    0.26
   7   2 -10    1.65    0.30
   6  -2 -10   10.89    0.58
   6   2 -10   12.13    0.62
  -6   2  10   10.14    0.69
  -5  -2  10    5.36    0.39
   5  -2 -10    4.21    0.33
   5   2 -10    4.59    0.36
  -5   2  10    4.45    0.43
   4  -2 -10    2.22    0.26
  -4  -2  10    2.92    0.28
  -4   2  10    2.42    0.34
   4   2 -10    2.53    0.28
  -3  -2  10    1.93    0.25
   3   2 -10    1.74    0.22
   3   2 -10    1.98    0.16
  -3   2  10    1.87    0.28
  -2  -2  10   14.60    0.64
   2   2 -10   14.29    0.49
   2   2 -10   13.76    0.54
  -2   2  10   13.54    0.66
  -1  -2  10    7.13    0.43
   1   2 -10    6.87    0.32
  -1   2  10    6.22    0.40
   0  -2  10    5.99    0.39
   0   2  10    5.80    0.38
   0   2  10    5.89    0.33
   1  -2  10    4.23    0.34
   1   2  10    4.26    0.32
   1   2  10    4.05    0.28
   2  -2  10    2.30    0.23
   2  -2  10    1.67    0.26
   2   2  10    1.75    0.24
   2   2  10    1.73    0.23
   3  -2  10    1.98    0.30
   3  -2  10    1.54    0.20
   3   2  10    1.92    0.26
   3   2  10    1.96    0.26
   4  -2  10    1.82    0.32
   4  -2  10    2.31    0.26
   4   2  10    2.16    0.29
   5  -2  10    2.63    0.39
   5   2  10    2.91    0.35
   7  -3 -10    1.58    0.35
   7  -3 -10    1.76    0.30
   7   3 -10    2.27    0.35
   6  -3 -10    0.20    0.15
   6  -3 -10    0.35    0.21
   6   3 -10    0.25    0.15
   5  -3 -10    5.75    0.39
   5   3 -10    6.53    0.43
   4  -3 -10    6.38    0.38
  -4   3  10    6.00    0.48
   4   3 -10    5.41    0.36
  -3  -3  10    9.36    0.51
  -3   3  10   10.40    0.61
   3   3 -10   10.30    0.42
   3   3 -10    9.86    0.46
  -2  -3  10   12.24    0.58
  -2   3  10   11.17    0.61
   2   3 -10   12.25    0.47
   2   3 -10   11.68    0.48
  -1  -3  10    7.88    0.45
   1   3 -10    7.46    0.36
   1   3 -10    7.60    0.36
  -1   3  10    7.23    0.45
   0  -3  10    7.29    0.45
   0   3 -10    7.40    0.38
   0   3  10    8.42    0.47
   0   3  10    8.56    0.41
   1  -3  10    0.08    0.12
   1   3  10    0.14    0.10
   1   3  10    0.02    0.09
   2  -3  10    1.10    0.23
   2   3  10    1.72    0.25
   2   3  10    1.12    0.20
   3  -3  10    5.49    0.45
   3   3  10    5.18    0.37
   4  -3  10    8.26    0.60
   4   3  10    9.35    0.52
   5  -3  10    3.05    0.44
   5   3  10    3.41    0.38
   6  -4 -10    6.49    0.44
   6  -4 -10    6.02    0.55
   6   4 -10    7.05    0.49
   5  -4 -10    2.79    0.42
   5  -4 -10    2.34    0.29
   5   4 -10    3.16    0.34
  -5   4  10    2.44    0.40
   4  -4 -10    1.37    0.22
   4   4 -10    0.89    0.19
  -4   4  10    0.90    0.24
  -3  -4  10    8.91    0.48
  -3   4  10    9.26    0.59
   3   4 -10    8.86    0.42
   3   4 -10    8.90    0.44
  -2  -4  10    4.40    0.34
   2   4 -10    5.07    0.30
  -2   4  10    5.44    0.43
   2   4 -10    5.21    0.31
  -1  -4  10    5.32    0.38
   1   4 -10    5.49    0.33
   1   4 -10    5.58    0.30
  -1   4  10    5.02    0.39
   0  -4  10    4.67    0.37
   0   4  10    4.53    0.30
   0   4  10    3.40    0.33
   0   4 -10    4.43    0.30
   1  -4  10    4.69    0.39
  -1   4 -10    5.40    0.35
   1   4  10    5.47    0.39
   1   4  10    5.12    0.34
   2  -4  10    4.22    0.41
   2   4  10    3.93    0.32
   2   4  10    3.43    0.30
   3  -4  10    1.06    0.28
   3   4  10    0.87    0.20
   4  -4  10    2.71    0.41
   4   4  10    2.86    0.34
   5  -4  10   -0.10    0.21
   5   4  10    0.23    0.16
   6  -5 -10    0.16    0.19
   6   5 -10    0.28    0.19
   5  -5 -10    3.81    0.32
   5  -5 -10    3.91    0.52
   5   5 -10    4.26    0.42
   4  -5 -10    6.43    0.39
  -4   5  10    6.80    0.57
   4   5 -10    6.73    0.42
   4   5 -10    6.93    0.39
  -3  -5  10    4.42    0.34
  -3   5  10    4.59    0.44
   3   5 -10    4.79    0.33
   3   5 -10    4.17    0.31
  -2  -5  10    3.71    0.33
   2   5 -10    3.87    0.30
   2   5 -10    4.17    0.28
  -2   5  10    4.33    0.41
  -1  -5  10    1.79    0.27
   1   5 -10    2.06    0.24
   0  -5  10    8.24    0.53
   0   5  10    8.66    0.44
   0   5  10    8.63    0.53
   0   5 -10    8.67    0.45
   1  -5  10    4.26    0.41
   1   5  10    4.93    0.34
   1   5  10    4.27    0.35
  -1   5 -10    4.73    0.33
   2  -5  10    0.91    0.26
  -2   5 -10    0.70    0.17
   2   5  10    0.62    0.17
   3  -5  10    7.15    0.58
   3   5  10    7.77    0.48
  -3   5 -10    7.61    0.47
   4  -5  10    2.12    0.40
  -4   5 -10    1.78    0.28
   4   5  10    2.54    0.34
   5  -6 -10    3.88    0.52
   5   6 -10    4.02    0.42
   4  -6 -10    0.93    0.28
   4   6 -10    0.98    0.20
   3  -6 -10   10.66    0.70
   3   6 -10   10.82    0.54
  -3   6  10   11.59    0.74
  -2  -6  10    0.28    0.15
  -2   6  10   -0.12    0.13
   2   6 -10    0.32    0.13
  -1  -6  10    0.87    0.22
  -1   6  10    1.26    0.27
   1   6 -10    1.42    0.22
   0  -6  10    0.88    0.23
   0   6  10    0.63    0.16
   0   6  10    1.04    0.25
   0   6 -10    1.13    0.20
   1  -6  10    4.04    0.42
  -1   6 -10    3.52    0.35
   1   6  10    3.53    0.35
   2  -6  10    3.26    0.44
  -2   6 -10    3.51    0.36
   2   6  10    3.22    0.35
   3  -6  10    1.37    0.35
   3   6  10    1.55    0.26
  -3   6 -10    1.42    0.25
   4  -7 -10    6.15    0.59
   4   7 -10    7.46    0.47
   3  -7 -10    0.25    0.22
   3   7 -10    0.10    0.14
   2  -7 -10    0.91    0.27
  -2   7  10    0.98    0.28
   2   7 -10    0.95    0.21
  -1  -7  10    1.90    0.31
   1   7 -10    2.32    0.31
  -1   7  10    2.32    0.37
   0  -7  10    2.41    0.36
   0   7  10    2.32    0.28
   0   7 -10    2.42    0.31
   1  -7  10    4.31    0.51
  -1   7 -10    4.21    0.36
   1   7  10    4.74    0.36
   2  -7  10    6.05    0.56
   2   7  10    5.23    0.41
  -2   7 -10    5.85    0.44
   3  -8 -10    5.04    0.59
   3   8 -10    3.86    0.41
   2  -8 -10    0.87    0.28
   2   8 -10    1.06    0.23
   1  -8 -10    0.45    0.23
   1   8 -10    0.13    0.14
   0  -8  10   -0.14    0.16
   0   8 -10    0.04    0.12
   1  -8  10    2.51    0.43
  -1   8 -10    2.52    0.34
   1   8  10    2.58    0.32
   7   0 -11    2.60    0.36
  -6   0  11    3.78    0.45
   6   0 -11    3.39    0.38
  -5   0  11    0.17    0.14
   5   0 -11    0.07    0.10
   4   0 -11    0.48    0.14
  -4   0  11    0.56    0.18
  -3   0  11    1.51    0.25
   3   0 -11    1.35    0.21
  -2   0  11    0.42    0.15
   0   0  11   25.94    0.99
   1   0  11    6.01    0.35
   2   0  11    8.06    0.43
   2   0  11    8.16    0.49
   3   0  11    0.51    0.16
   3   0  11    0.60    0.18
   4   0  11    1.11    0.26
   4   0  11    0.77    0.19
   5   0  11    0.17    0.15
   7  -1 -11    0.87    0.24
   7  -1 -11    1.02    0.29
   7   1 -11    0.85    0.24
  -6  -1  11    2.26    0.34
   6  -1 -11    1.69    0.27
  -6   1  11    1.98    0.34
   6   1 -11    1.80    0.29
  -5  -1  11    2.41    0.33
   5  -1 -11    2.16    0.28
   5   1 -11    2.44    0.30
  -5   1  11    1.82    0.31
   4  -1 -11    6.24    0.39
  -4  -1  11    5.72    0.41
  -4   1  11    6.07    0.45
   4   1 -11    5.55    0.36
  -3  -1  11   12.08    0.62
   3   1 -11   14.26    0.58
  -3   1  11   14.84    0.70
  -2  -1  11    0.82    0.18
   2   1 -11    0.75    0.11
  -2   1  11    0.76    0.18
  -1  -1  11    8.71    0.49
  -1   1  11    8.37    0.49
   0  -1  11    0.49    0.15
   0   1  11    0.30    0.13
   1  -1  11    2.43    0.30
   1   1  11    2.38    0.29
   1   1  11    2.78    0.24
   2  -1  11    5.89    0.42
   2  -1  11    5.74    0.34
   2   1  11    5.44    0.36
   2   1  11    5.58    0.40
   3  -1  11   15.86    0.77
   3  -1  11   16.29    0.65
   3   1  11   16.07    0.68
   4  -1  11    4.87    0.43
   4  -1  11    4.44    0.35
   4   1  11    4.51    0.37
   5  -1  11    0.67    0.19
   5  -1  11    0.41    0.21
   5   1  11    0.33    0.16
   7  -2 -11    3.30    0.48
   7  -2 -11    3.22    0.40
   7   2 -11    2.85    0.38
   6  -2 -11    2.11    0.30
  -6   2  11    1.86    0.36
   6   2 -11    2.69    0.35
   5  -2 -11    0.38    0.15
  -5  -2  11    0.42    0.17
  -5   2  11    0.37    0.19
   5   2 -11    0.48    0.16
  -4  -2  11    1.59    0.25
   4  -2 -11    1.96    0.25
  -4   2  11    1.73    0.29
   4   2 -11    1.73    0.24
  -3  -2  11    0.71    0.18
  -3   2  11    0.68    0.18
   3   2 -11    0.89    0.17
  -2  -2  11    0.90    0.19
  -2   2  11    1.36    0.24
   2   2 -11    1.10    0.15
   2   2 -11    1.43    0.20
   1   2 -11   12.66    0.46
  -1   2  11    8.83    0.53
   0  -2  11   16.81    0.74
   0   2  11   16.61    0.64
   0   2  11   16.14    0.73
   1  -2  11    9.67    0.55
   1   2  11   10.90    0.55
   1   2  11    9.23    0.47
   2  -2  11    4.90    0.41
   2  -2  11    5.40    0.32
   2   2  11    5.59    0.38
   2   2  11    4.77    0.37
   3  -2  11    0.25    0.13
   3  -2  11    0.10    0.15
   3   2  11    0.19    0.12
   3   2  11    0.35    0.15
   4  -2  11    1.70    0.32
   4   2  11    1.62    0.26
   5  -2  11    0.18    0.22
   5   2  11    0.14    0.14
   6  -3 -11    2.84    0.34
   6  -3 -11    2.90    0.44
  -6   3  11    2.30    0.40
   6   3 -11    2.26    0.32
   5  -3 -11    1.14    0.21
   5   3 -11    1.31    0.24
  -5   3  11    0.86    0.25
   4  -3 -11    6.22    0.39
   4   3 -11    6.93    0.41
  -4   3  11    5.79    0.49
  -3  -3  11    5.20    0.38
  -3   3  11    5.36    0.44
   3   3 -11    4.95    0.29
   3   3 -11    6.01    0.35
  -2  -3  11    4.08    0.33
   2   3 -11    3.52    0.25
   2   3 -11    3.57    0.27
  -2   3  11    4.00    0.36
  -1  -3  11    3.64    0.32
   1   3 -11    3.81    0.26
  -1   3  11    3.65    0.34
   0  -3  11    2.98    0.31
   0   3  11    3.12    0.26
   0   3  11    3.22    0.30
   0   3 -11    3.02    0.25
   1  -3  11    5.42    0.42
   1   3  11    5.39    0.38
   1   3  11    4.75    0.33
   2  -3  11    4.10    0.38
   2   3  11    3.96    0.34
   2   3  11    4.36    0.33
   3  -3  11    8.64    0.59
   3   3  11    8.89    0.51
   4  -3  11    3.56    0.46
   4   3  11    3.47    0.38
   6  -4 -11    1.92    0.29
   6  -4 -11    1.53    0.35
   6   4 -11    1.91    0.32
   5  -4 -11    0.92    0.20
   5   4 -11    0.72    0.20
  -5   4  11    0.22    0.19
   4  -4 -11    1.64    0.24
  -4   4  11    1.98    0.36
   4   4 -11    1.67    0.25
  -3  -4  11    0.08    0.10
   3   4 -11   -0.02    0.10
  -3   4  11   -0.14    0.12
   3   4 -11    0.17    0.10
  -2   4  11    2.53    0.36
   2   4 -11    2.07    0.23
   2   4 -11    2.50    0.25
  -1  -4  11   11.10    0.58
   1   4 -11    9.64    0.46
  -1   4  11    9.71    0.58
   1   4 -11   10.30    0.44
   0  -4  11    4.46    0.38
   0   4  11    4.51    0.32
   0   4 -11    4.17    0.31
   0   4  11    4.52    0.38
   1  -4  11   13.30    0.71
  -1   4 -11   12.69    0.57
   1   4  11   13.14    0.65
   1   4  11   12.09    0.57
   2  -4  11    1.18    0.28
   2   4  11    1.10    0.21
   2   4  11    1.39    0.24
   3  -4  11    0.33    0.21
   3   4  11   -0.10    0.10
   4  -4  11    2.67    0.42
   4   4  11    2.70    0.35
   5  -5 -11    1.42    0.33
   5  -5 -11    1.93    0.27
   5   5 -11    1.47    0.27
  -5   5  11    1.64    0.36
   4  -5 -11    2.43    0.29
  -4   5  11    2.29    0.40
   4   5 -11    2.97    0.33
  -3  -5  11    4.84    0.37
  -3   5  11    4.51    0.45
   3   5 -11    4.24    0.32
   3   5 -11    4.81    0.34
  -2  -5  11    4.04    0.35
  -2   5  11    4.46    0.43
   2   5 -11    4.42    0.32
  -1  -5  11   -0.08    0.10
  -1   5  11   -0.05    0.13
   1   5 -11    0.20    0.11
   0  -5  11    1.11    0.25
   0   5  11    1.94    0.25
   0   5 -11    1.55    0.23
   0   5  11    1.91    0.30
   1  -5  11    2.44    0.35
  -1   5 -11    2.39    0.28
   1   5  11    2.78    0.34
   1   5  11    2.81    0.32
   2  -5  11    5.15    0.48
  -2   5 -11    4.52    0.36
   2   5  11    4.75    0.37
   3  -5  11    1.68    0.36
  -3   5 -11    1.65    0.27
   3   5  11    1.99    0.29
  -4   5 -11    3.68    0.40
   5  -6 -11    0.19    0.23
   4  -6 -11    0.18    0.14
   4  -6 -11    0.13    0.20
  -4   6  11    0.16    0.18
  -3   6  11    0.42    0.22
   3   6 -11    0.15    0.12
  -2  -6  11    1.00    0.23
   2   6 -11    1.15    0.21
  -2   6  11    0.96    0.26
  -1  -6  11    4.72    0.40
  -1   6  11    4.58    0.44
   1   6 -11    4.86    0.37
   0  -6  11    1.50    0.30
   0   6 -11    1.67    0.25
   0   6  11    1.80    0.32
   0   6  11    1.88    0.26
   1  -6  11    7.39    0.57
   1   6  11    7.24    0.45
  -1   6 -11    7.29    0.46
   2  -6  11    1.22    0.32
  -2   6 -11    0.89    0.21
   2   6  11    0.93    0.22
   3  -6  11    0.08    0.22
  -3   6 -11    0.09    0.12
   3   6  11    0.05    0.13
   4  -7 -11    0.89    0.32
   3  -7 -11    3.07    0.47
   3   7 -11    2.94    0.34
   2  -7 -11    1.46    0.33
  -2   7  11    1.21    0.32
   2   7 -11    1.38    0.24
  -1  -7  11    1.67    0.30
  -1   7  11    0.95    0.28
   1   7 -11    1.03    0.21
   0  -7  11    0.56    0.22
   0   7 -11    1.00    0.22
   1  -7  11   -0.05    0.19
  -1   7 -11    0.12    0.12
   1   7  11    0.16    0.14
   2   7  11    4.41    0.38
  -2   7 -11    4.05    0.42
   7   0 -12    2.21    0.35
  -6   0  12    0.31    0.19
   6   0 -12    0.38    0.18
   5   0 -12    2.39    0.30
  -5   0  12    2.35    0.35
  -4   0  12    6.32    0.47
   4   0 -12    6.34    0.40
   3   0 -12    6.93    0.40
  -3   0  12    6.55    0.46
  -2   0  12    3.00    0.30
  -1   0  12    9.66    0.54
   0   0  12    9.86    0.55
   1   0  12    3.06    0.31
   1   0  12    2.97    0.26
   2   0  12    0.07    0.10
   2   0  12    0.11    0.12
   3   0  12    2.19    0.33
   3   0  12    2.18    0.28
   4   0  12    0.57    0.20
   4   0  12    0.61    0.19
   7  -1 -12    5.55    0.47
   7   1 -12    5.07    0.44
   6  -1 -12   10.28    0.58
  -6  -1  12    9.93    0.64
  -6   1  12    9.81    0.69
   6   1 -12   10.38    0.60
  -5  -1  12    2.38    0.34
   5  -1 -12    1.93    0.28
   5   1 -12    1.97    0.28
  -5   1  12    1.13    0.27
   4  -1 -12    4.66    0.34
  -4  -1  12    4.62    0.39
   4   1 -12    4.84    0.35
  -4   1  12    5.05    0.42
  -3  -1  12    5.43    0.40
  -3   1  12    4.83    0.41
   3   1 -12    5.36    0.35
  -2  -1  12    0.21    0.13
  -2   1  12    0.35    0.14
   2   1 -12    0.28    0.08
  -1  -1  12    0.36    0.13
  -1   1  12    0.37    0.14
   0  -1  12    2.52    0.32
   0   1  12    2.69    0.33
   1  -1  12    6.80    0.46
   1   1  12    6.40    0.44
   1   1  12    6.18    0.38
   2  -1  12    2.59    0.34
   2  -1  12    2.56    0.28
   2   1  12    2.19    0.27
   2   1  12    2.38    0.31
   3  -1  12    6.63    0.41
   3  -1  12    6.25    0.48
   3   1  12    5.77    0.44
   3   1  12    6.36    0.43
   4  -1  12    2.35    0.36
   4  -1  12    2.25    0.29
   4   1  12    2.52    0.33
   6  -2 -12    0.51    0.18
  -6   2  12    0.24    0.20
   6   2 -12    0.35    0.18
  -5  -2  12    0.86    0.22
   5  -2 -12    1.70    0.26
  -5   2  12    1.59    0.31
   5   2 -12    1.92    0.28
  -4  -2  12    7.73    0.50
   4  -2 -12    7.39    0.45
  -4   2  12    8.23    0.57
   4   2 -12    8.37    0.47
  -3  -2  12    4.98    0.39
   3   2 -12    5.37    0.35
  -3   2  12    4.49    0.40
  -2  -2  12    3.65    0.32
  -2   2  12    3.00    0.32
   2   2 -12    3.36    0.27
   2   2 -12    3.38    0.23
  -1  -2  12   11.11    0.59
  -1   2  12   10.10    0.58
   1   2 -12   10.29    0.44
   0  -2  12    6.61    0.45
   0   2  12    6.54    0.44
   1  -2  12    2.85    0.35
   1   2  12    3.70    0.33
   1   2  12    3.44    0.29
   2  -2  12    0.09    0.15
   2   2  12    0.08    0.12
   2   2  12    0.09    0.10
   3  -2  12    2.44    0.27
   3  -2  12    1.82    0.32
   3   2  12    2.08    0.29
   3   2  12    2.06    0.30
   4  -2  12    0.71    0.24
   4   2  12    1.12    0.25
   6  -3 -12    6.01    0.45
  -6   3  12    5.89    0.57
   6   3 -12    6.59    0.48
   5  -3 -12    3.21    0.35
  -5   3  12    2.93    0.44
   5   3 -12    3.06    0.36
   4  -3 -12    3.03    0.32
  -4   3  12    2.74    0.41
   4   3 -12    3.03    0.32
  -3  -3  12    3.86    0.34
  -3   3  12    3.22    0.41
   3   3 -12    3.84    0.30
  -2  -3  12    0.06    0.12
   2   3 -12    0.20    0.09
  -2   3  12    0.11    0.13
   2   3 -12    0.13    0.10
  -1  -3  12    1.23    0.23
  -1   3  12    1.01    0.22
   1   3 -12    1.24    0.18
   0  -3  12    1.26    0.24
   0   3  12    1.44    0.26
   0   3 -12    1.34    0.20
   1  -3  12    4.29    0.39
   1   3  12    4.07    0.32
   2  -3  12    2.79    0.38
   2   3  12    3.91    0.35
   2   3  12    3.42    0.35
   3  -3  12    3.05    0.41
   3   3  12    2.35    0.31
   4  -3  12    2.51    0.41
   4   3  12    1.85    0.30
   6  -4 -12    0.43    0.18
   6  -4 -12    0.35    0.23
   6   4 -12    0.69    0.23
   5  -4 -12    0.56    0.18
   5   4 -12    0.66    0.21
  -5   4  12    0.59    0.26
   4  -4 -12    6.41    0.42
   4   4 -12    7.06    0.44
  -4   4  12    6.65    0.56
  -3  -4  12    1.11    0.22
   3   4 -12    1.51    0.23
  -3   4  12    0.55    0.21
  -2  -4  12    4.30    0.37
   2   4 -12    5.06    0.33
  -2   4  12    4.20    0.41
   2   4 -12    4.39    0.30
  -1  -4  12    7.25    0.48
   1   4 -12    7.08    0.38
  -1   4  12    7.16    0.50
   1   4 -12    7.69    0.41
   0  -4  12    2.22    0.31
   0   4  12    2.28    0.33
   0   4 -12    2.51    0.28
   1  -4  12    2.57    0.37
   1   4  12    2.74    0.35
   1   4  12    2.71    0.31
  -1   4 -12    3.05    0.32
   2  -4  12   -0.10    0.15
   2   4  12    0.13    0.13
  -2   4 -12    0.16    0.12
   3  -4  12    1.36    0.31
   3   4  12    1.51    0.27
   5  -5 -12    3.30    0.49
   5  -5 -12    4.13    0.40
   5   5 -12    3.99    0.42
  -5   5  12    3.85    0.54
   4  -5 -12    1.86    0.27
   4   5 -12    2.04    0.29
  -3  -5  12    2.88    0.35
   3   5 -12    2.31    0.28
   3   5 -12    1.88    0.25
  -3   5  12    2.06    0.37
  -2  -5  12   -0.01    0.13
  -2   5  12    0.13    0.16
   2   5 -12    0.37    0.14
  -1  -5  12    0.78    0.22
   1   5 -12    1.01    0.19
  -1   5  12    0.99    0.24
   0  -5  12    0.33    0.18
   0   5  12    0.51    0.19
   0   5 -12    0.50    0.15
   1  -5  12    2.77    0.39
   1   5  12    3.44    0.41
  -1   5 -12    3.70    0.36
   1   5  12    3.20    0.34
   2  -5  12    2.41    0.39
   2   5  12    1.91    0.28
  -2   5 -12    2.28    0.30
   3  -5  12    1.15    0.33
  -3   5 -12    1.62    0.27
   3   5  12    0.90    0.23
   4  -6 -12    2.12    0.40
   4  -6 -12    2.92    0.34
  -4   6  12    2.56    0.45
  -3   6  12    0.64    0.26
   3   6 -12    0.88    0.20
  -2  -6  12    3.29    0.39
  -2   6  12    3.52    0.47
   2   6 -12    3.68    0.36
  -1  -6  12    3.55    0.37
  -1   6  12    3.76    0.48
   1   6 -12    2.56    0.31
   0  -6  12    1.21    0.27
   0   6 -12    1.41    0.25
   0   6  12    1.37    0.30
   1  -6  12    0.69    0.25
   1   6  12    0.83    0.20
  -1   6 -12    0.86    0.20
   2  -6  12   -0.05    0.19
   2   6  12    0.27    0.15
  -2   6 -12   -0.01    0.11
   3   7 -12    1.29    0.25
   2   7 -12    0.23    0.16
  -2   7  12    0.05    0.19
  -1  -7  12    0.31    0.19
  -1   7  12   -0.01    0.17
   1   7 -12    0.08    0.13
   0  -7  12    0.43    0.23
   0   7 -12    0.49    0.18
  -6   0  13    0.96    0.29
   6   0 -13    1.05    0.24
  -5   0  13    2.38    0.36
   5   0 -13    1.99    0.29
   4   0 -13   12.54    0.60
  -4   0  13   12.43    0.70
   3   0 -13    8.16    0.46
  -3   0  13    7.60    0.51
  -2   0  13    4.03    0.36
  -1   0  13    6.00    0.44
   0   0  13    0.07    0.11
   1   0  13    0.39    0.17
   2   0  13    4.31    0.40
   2   0  13    4.80    0.35
   3   0  13    1.66    0.31
   4   0  13    0.56    0.20
   4   0  13    0.40    0.21
   6  -1 -13   11.68    0.63
  -6   1  13   11.18    0.76
   6   1 -13   11.76    0.64
  -5  -1  13    0.76    0.22
   5  -1 -13    0.53    0.18
  -5   1  13    0.55    0.22
   5   1 -13    0.52    0.17
  -4  -1  13    2.89    0.37
   4  -1 -13    2.88    0.32
   4   1 -13    2.39    0.30
  -4   1  13    2.68    0.38
  -3  -1  13    0.88    0.21
   3   1 -13    0.75    0.18
  -3   1  13    0.60    0.20
  -2  -1  13    1.13    0.23
  -2   1  13    0.98    0.22
  -1  -1  13    8.52    0.52
  -1   1  13    7.90    0.51
   0  -1  13    7.40    0.48
   0   1  13    5.92    0.44
   1   1  13    6.85    0.42
   1   1  13    6.42    0.46
   2  -1  13    0.16    0.12
   2  -1  13   -0.03    0.12
   2   1  13    0.32    0.15
   2   1  13   -0.01    0.12
   3  -1  13    0.43    0.20
   3  -1  13    0.28    0.15
   3   1  13    0.12    0.14
   3   1  13    0.31    0.16
   4  -1  13    0.27    0.16
   4  -1  13    0.25    0.20
   4   1  13    0.11    0.17
   6  -2 -13    0.80    0.22
   6   2 -13    1.51    0.30
  -6   2  13    0.88    0.29
  -5  -2  13    1.28    0.26
   5  -2 -13    2.29    0.30
   5   2 -13    2.85    0.34
  -5   2  13    2.45    0.40
   4  -2 -13   10.53    0.55
  -4  -2  13   10.23    0.60
   4   2 -13   10.90    0.56
  -4   2  13   10.56    0.67
  -3  -2  13    7.12    0.48
   3   2 -13    5.60    0.38
   2   2 -13    4.56    0.33
  -2   2  13    3.88    0.38
  -1  -2  13    3.53    0.33
  -1   2  13    3.15    0.38
   1   2 -13    3.07    0.25
   0  -2  13    0.11    0.13
   0   2  13    0.58    0.18
   1  -2  13    0.03    0.13
   1   2  13    0.08    0.11
   1   2  13    0.11    0.12
   2  -2  13    2.29    0.35
   2   2  13    1.87    0.30
   2   2  13    1.85    0.28
   3  -2  13    5.85    0.49
   3   2  13    3.86    0.38
   3   2  13    5.38    0.41
   6  -3 -13    4.96    0.41
  -6   3  13    3.93    0.55
   6   3 -13    4.73    0.48
   5  -3 -13    2.98    0.35
  -5   3  13    2.41    0.42
   5   3 -13    3.14    0.36
  -4  -3  13    0.03    0.13
   4  -3 -13    0.43    0.16
   4   3 -13    0.55    0.17
  -4   3  13   -0.06    0.14
  -3  -3  13    1.91    0.29
   3   3 -13    2.44    0.29
  -3   3  13    1.61    0.31
  -2  -3  13    3.01    0.36
   2   3 -13    3.16    0.28
   2   3 -13    3.31    0.27
  -1  -3  13    1.73    0.28
  -1   3  13    1.78    0.30
   1   3 -13    2.09    0.25
   0  -3  13    8.30    0.55
   0   3  13    8.65    0.55
   0   3 -13    8.22    0.44
   1  -3  13    3.00    0.39
   1   3  13    3.34    0.34
   2  -3  13    0.56    0.22
   2   3  13    0.61    0.18
   2   3  13    0.64    0.19
   3  -3  13    0.41    0.23
   3   3  13    0.39    0.19
   5  -4 -13    2.64    0.33
   5   4 -13    2.96    0.37
   4  -4 -13    5.77    0.41
   4   4 -13    5.57    0.41
  -4   4  13    5.95    0.54
  -3  -4  13    2.63    0.34
  -3   4  13    1.21    0.29
  -2  -4  13    4.36    0.38
   2   4 -13    3.92    0.30
   2   4 -13    4.33    0.32
  -2   4  13    3.71    0.45
  -1  -4  13    1.35    0.26
  -1   4  13    1.68    0.31
   1   4 -13    1.78    0.24
   0  -4  13    0.31    0.17
   0   4 -13    0.23    0.13
   0   4  13    0.54    0.20
   1  -4  13    1.15    0.27
  -1   4 -13    0.93    0.20
   1   4  13    1.20    0.26
   1   4  13    1.07    0.21
   2  -4  13    0.50    0.22
   2   4  13    0.47    0.18
  -2   4 -13    0.39    0.15
   3  -4  13    3.35    0.46
   3   4  13    3.44    0.40
   4  -5 -13    0.63    0.19
   4   5 -13    0.69    0.20
  -4   5  13    0.78    0.28
  -3  -5  13    0.39    0.18
  -3   5  13    0.32    0.20
  -2  -5  13    1.98    0.31
  -2   5  13    0.90    0.27
   2   5 -13    2.18    0.28
  -1  -5  13    0.93    0.23
  -1   5  13    1.30    0.28
   1   5 -13    1.08    0.20
   0  -5  13    3.78    0.40
   0   5  13    3.84    0.40
   0   5 -13    4.39    0.35
   1  -5  13    2.12    0.35
  -1   5 -13    2.44    0.31
   1   5  13    2.14    0.29
   2  -5  13    0.67    0.26
  -2   5 -13    0.48    0.16
   2   5  13    0.61    0.20
  -3   6  13    0.21    0.19
   2   6 -13    2.16    0.29
  -2   6  13    2.46    0.43
  -1  -6  13    1.44    0.29
  -1   6  13    1.35    0.32
   1   6 -13    1.36    0.24
   0  -6  13    0.15    0.18
   0   6  13    0.20    0.18
   0   6 -13    0.07    0.12
   1  -6  13    0.94    0.29
  -1   6 -13    1.23    0.25
   1   6  13    1.11    0.23
   6   0 -14    0.15    0.15
  -6   0  14    0.06    0.18
  -5   0  14    0.47    0.20
   5   0 -14    0.36    0.16
   4   0 -14    4.19    0.36
  -4   0  14    3.92    0.40
  -3   0  14    0.72    0.21
   3   0 -14    0.49    0.16
  -2   0  14    0.89    0.21
  -1   0  14    0.30    0.15
   0   0  14    9.12    0.58
   1   0  14    7.09    0.51
   2   0  14    8.69    0.50
   2   0  14    7.32    0.53
   3   0  14   22.73    0.90
   3   0  14   23.30    1.06
   6   1 -14    7.21    0.52
   5  -1 -14    2.37    0.33
  -5  -1  14    2.50    0.38
   5   1 -14    2.49    0.33
  -5   1  14    3.40    0.47
   4  -1 -14    4.31    0.37
  -4  -1  14    5.19    0.45
  -4   1  14    4.29    0.43
   4   1 -14    4.43    0.35
  -3  -1  14    0.38    0.16
   3   1 -14    1.06    0.21
  -3   1  14    0.99    0.25
  -2  -1  14    3.56    0.34
  -2   1  14    2.96    0.38
  -1  -1  14    9.66    0.59
  -1   1  14    9.81    0.60
   0  -1  14   15.06    0.78
   0   1  14   16.77    0.80
   1  -1  14    2.10    0.33
   1   1  14    1.32    0.26
   2  -1  14    0.22    0.17
   2   1  14    0.70    0.19
   2   1  14    0.79    0.22
   3  -1  14    2.93    0.42
   3  -1  14    3.05    0.34
   3   1  14    2.61    0.38
   3   1  14    2.97    0.36
  -5  -2  14    0.10    0.16
   5  -2 -14    0.60    0.19
   5   2 -14    0.71    0.21
  -5   2  14    0.63    0.25
  -4  -2  14    1.22    0.26
   4  -2 -14    1.04    0.22
  -4   2  14    1.34    0.30
   4   2 -14    2.02    0.29
  -3  -2  14    0.92    0.23
  -3   2  14    0.24    0.16
   3   2 -14    1.00    0.20
  -2  -2  14    1.27    0.25
  -2   2  14    1.24    0.28
   2   2 -14    1.26    0.21
  -1  -2  14    1.58    0.28
  -1   2  14    1.04    0.24
   1   2 -14    1.22    0.19
   0  -2  14    8.18    0.55
   0   2  14    7.39    0.52
   1  -2  14    4.91    0.44
   1   2  14    5.23    0.44
   2  -2  14   11.71    0.71
   2   2  14   12.65    0.64
   2   2  14   12.15    0.68
   3  -2  14   12.02    0.75
   3   2  14   12.92    0.67
   5  -3 -14    9.39    0.56
  -5   3  14    9.92    0.73
   5   3 -14   10.29    0.59
   4  -3 -14    0.17    0.14
  -4  -3  14    0.26    0.16
   4   3 -14    0.47    0.18
  -4   3  14    0.43    0.23
  -3  -3  14    2.43    0.34
   3   3 -14    1.86    0.26
  -3   3  14    2.08    0.36
  -2  -3  14    4.76    0.41
   2   3 -14    4.14    0.33
  -1  -3  14    8.76    0.57
   1   3 -14    8.38    0.46
   1   3 -14    8.91    0.46
  -1   3  14    8.47    0.58
   0  -3  14    5.46    0.46
   0   3  14    5.06    0.44
   0   3 -14    5.19    0.36
   1  -3  14    6.74    0.52
   1   3  14    6.46    0.49
   1   3  14    5.53    0.41
   2  -3  14    3.37    0.44
   2   3  14    3.11    0.40
   2   3  14    2.86    0.34
   4  -4 -14    0.22    0.14
  -4   4  14    0.29    0.20
   4   4 -14    0.28    0.17
  -3  -4  14    0.88    0.23
  -3   4  14    0.98    0.29
   3   4 -14    1.04    0.22
  -2  -4  14    0.88    0.23
  -2   4  14    1.27    0.30
   2   4 -14    1.02    0.20
  -1  -4  14    1.88    0.32
  -1   4  14    2.96    0.40
   0  -4  14    3.53    0.43
   0   4 -14    3.83    0.37
   0   4  14    3.61    0.45
   1  -4  14    4.11    0.43
  -1   4 -14    4.79    0.37
   1   4  14    4.57    0.44
   1   4  14    4.38    0.38
   2  -4  14   11.47    0.74
  -2   4 -14   10.47    0.58
   2   4  14   11.37    0.62
  -3  -5  14    0.04    0.15
  -3   5  14    0.78    0.26
  -2  -5  14    7.18    0.52
   2   5 -14    6.99    0.44
  -1  -5  14    1.92    0.33
  -1   5  14    2.29    0.39
   1   5 -14    2.54    0.30
   0  -5  14    3.17    0.42
   0   5 -14    4.11    0.40
   0   5  14    2.84    0.41
   1  -5  14    5.18    0.49
  -1   5 -14    4.57    0.38
   1   5  14    4.61    0.39
  -5   0  15   11.06    0.72
   5   0 -15   10.57    0.61
   4   0 -15    3.88    0.40
  -4   0  15    4.08    0.49
   3   0 -15    9.70    0.54
  -3   0  15    9.49    0.63
  -2   0  15   -0.04    0.11
  -1   0  15    6.26    0.48
   0   0  15    1.84    0.32
   1   0  15    0.28    0.17
   2   0  15    0.00    0.13
   5  -1 -15    1.07    0.24
  -5  -1  15    1.19    0.29
  -5   1  15    1.31    0.32
   5   1 -15    1.13    0.25
   4  -1 -15    1.57    0.27
  -4  -1  15    1.35    0.29
  -4   1  15    1.60    0.32
   4   1 -15    1.15    0.24
   3   1 -15    5.23    0.39
  -3   1  15    4.22    0.43
  -2  -1  15   12.53    0.71
  -2   1  15   12.64    0.73
  -1  -1  15    0.51    0.18
  -1   1  15    0.90    0.23
   0  -1  15    1.18    0.26
   0   1  15    0.92    0.24
   1  -1  15    1.47    0.29
   1   1  15    1.06    0.26
   2  -1  15    5.46    0.49
   2   1  15    5.26    0.41
   5  -2 -15    7.86    0.52
   5   2 -15    6.97    0.50
   4  -2 -15    8.93    0.54
  -4  -2  15    9.01    0.61
  -4   2  15    9.56    0.67
   4   2 -15    8.54    0.52
  -3  -2  15    4.85    0.43
   3   2 -15    4.78    0.38
  -2  -2  15    0.50    0.19
   2   2 -15    0.64    0.18
  -2   2  15    0.71    0.23
  -1  -2  15    4.80    0.42
  -1   2  15    5.29    0.46
   0  -2  15    2.32    0.35
   0   2  15    1.17    0.26
   1  -2  15    0.02    0.15
   1   2  15    0.40    0.18
   2  -2  15    1.43    0.32
   2   2  15    1.30    0.28
   2   2  15    0.99    0.24
   4  -3 -15    3.24    0.38
  -4  -3  15    2.24    0.36
   4   3 -15    2.02    0.31
  -4   3  15    2.79    0.45
  -3  -3  15    4.23    0.41
  -3   3  15    4.36    0.46
   3   3 -15    4.29    0.36
   2   3 -15    9.96    0.53
  -1  -3  15    0.66    0.21
   1   3 -15    0.65    0.17
  -1   3  15    0.36    0.19
   1   3 -15    0.43    0.16
   0  -3  15    2.01    0.35
   0   3  15    2.54    0.38
   0   3 -15    2.81    0.31
   1  -3  15    1.05    0.27
  -1   3 -15    1.17    0.22
   1   3  15    1.41    0.30
  -3  -4  15    0.23    0.17
  -3   4  15    0.33    0.22
   3   4 -15    0.26    0.17
  -2  -4  15    0.48    0.19
  -2   4  15    0.63    0.24
  -1  -4  15    3.02    0.41
  -1   4  15    2.45    0.40
   1   4 -15    2.57    0.31
   0  -4  15    3.08    0.43
   0   4 -15    3.97    0.38
   0   4  15    3.74    0.48
  -1   4 -15    0.83    0.20
  -4   0  16    0.43    0.23
   4   0 -16    0.09    0.15
  -3   0  16    1.11    0.27
   3   0 -16    1.14    0.25
  -2   0  16    0.22    0.16
  -1   0  16    1.60    0.30
   0   0  16    4.17    0.42
   1   0  16    0.07    0.15
  -4  -1  16    3.34    0.46
   4  -1 -16    3.32    0.39
   4   1 -16    3.01    0.37
  -4   1  16    3.41    0.48
  -3  -1  16    2.57    0.39
   3  -1 -16    3.54    0.40
   3   1 -16    3.37    0.38
  -3   1  16    4.22    0.51
  -2  -1  16    0.42    0.20
  -2   1  16    0.67    0.23
  -1  -1  16    0.06    0.13
  -1   1  16    0.14    0.15
   0  -1  16    0.71    0.23
   0   1  16    0.86    0.24
   1  -1  16    0.13    0.15
   1   1  16    0.23    0.18
  -3  -2  16    0.46    0.20
  -3   2  16    0.45    0.21
   3   2 -16    0.85    0.21
  -2  -2  16    0.44    0.19
   2   2 -16    0.51    0.18
  -2   2  16    0.72    0.25
  -1  -2  16    1.64    0.31
  -1   2  16    1.78    0.33
   0  -2  16    4.29    0.42
   0   2 -16    3.86    0.37
   3   3 -16    2.97    0.36
  -2  -3  16    0.56    0.22
   2   3 -16    0.57    0.18
  -2   3  16    0.44    0.21
  -1  -3  16   -0.03    0.12
  -1   3  16    0.13    0.18
   0   3 -16    0.05    0.12
   0   0   0    0.00    0.00
;
_shelx_hkl_checksum              86293
_olex2_submission_special_instructions 'No special instructions were received'
loop_
_space_group_symop_operation_xyz
'x, y, z'
'-x, y+1/2, -z'
loop_
_atom_site_label
_atom_site_type_symbol
_atom_site_fract_x
_atom_site_fract_y
_atom_site_fract_z
_atom_site_U_iso_or_equiv
_atom_site_adp_type
_atom_site_occupancy
_atom_site_site_symmetry_order
_atom_site_calc_flag
_atom_site_refinement_flags_posn
_atom_site_refinement_flags_adp
_atom_site_refinement_flags_occupancy
_atom_site_disorder_assembly
_atom_site_disorder_group
S1 S 0.93111(8) 0.40707(11) 0.90515(4) 0.02478(15) Uani 1 1 d . . . . .
N1 N 0.6133(3) 0.5053(2) 0.73704(17) 0.0210(4) Uani 1 1 d . . . . .
C1 C 0.5225(4) 0.5404(3) 0.6302(2) 0.0197(4) Uani 1 1 d . . . . .
H1 H 0.3731 0.5904 0.6150 0.024 Uiso 1 1 calc R . . . .
C2 C 0.6316(3) 0.5091(3) 0.53604(18) 0.0161(4) Uani 1 1 d . . . . .
C3 C 0.5282(4) 0.5499(3) 0.42180(19) 0.0190(4) Uani 1 1 d . . . . .
H3 H 0.3804 0.6028 0.4060 0.023 Uiso 1 1 calc R . . . .
C4 C 0.6407(4) 0.5133(3) 0.33454(19) 0.0202(4) Uani 1 1 d . . . . .
H4 H 0.5702 0.5419 0.2584 0.024 Uiso 1 1 calc R . . . .
C5 C 0.8610(3) 0.4334(3) 0.35536(18) 0.0184(4) Uani 1 1 d . . . . .
C6 C 0.9639(3) 0.3944(3) 0.46578(16) 0.0164(4) Uani 1 1 d . . . . .
H6 H 1.1117 0.3413 0.4801 0.020 Uiso 1 1 calc R . . . .
C7 C 0.8526(3) 0.4322(3) 0.55861(17) 0.0156(4) Uani 1 1 d . . . . .
C8 C 0.9516(3) 0.3957(4) 0.67361(16) 0.0173(4) Uani 1 1 d . . . . .
H8 H 1.1002 0.3446 0.6924 0.021 Uiso 1 1 calc R . . . .
C9 C 0.8296(3) 0.4352(3) 0.75803(18) 0.0183(4) Uani 1 1 d . . . . .
C10 C 1.2319(4) 0.3642(3) 0.91323(19) 0.0249(5) Uani 1 1 d . . . . .
H10A H 1.2552 0.2379 0.8870 0.030 Uiso 1 1 calc R . . . .
H10B H 1.2947 0.4511 0.8632 0.030 Uiso 1 1 calc R . . . .
C11 C 1.3534(4) 0.3880(5) 1.03597(19) 0.0301(5) Uani 1 1 d . . . . .
H11A H 1.3282 0.5127 1.0617 0.045 Uiso 1 1 calc GR . . . .
H11B H 1.5171 0.3674 1.0408 0.045 Uiso 1 1 calc GR . . . .
H11C H 1.2935 0.2992 1.0847 0.045 Uiso 1 1 calc GR . . . .
C12 C 0.9775(4) 0.3926(4) 0.25646(17) 0.0229(4) Uani 1 1 d . . . . .
H12A H 1.1241 0.3328 0.2846 0.034 Uiso 1 1 calc GR . . . .
H12B H 1.0030 0.5074 0.2179 0.034 Uiso 1 1 calc GR . . . .
H12C H 0.8812 0.3111 0.2025 0.034 Uiso 1 1 calc GR . . . .
loop_
_atom_site_aniso_label
_atom_site_aniso_U_11
_atom_site_aniso_U_22
_atom_site_aniso_U_33
_atom_site_aniso_U_23
_atom_site_aniso_U_13
_atom_site_aniso_U_12
S1 0.0206(2) 0.0355(3) 0.0194(2) 0.0014(3) 0.00669(16) 0.0017(3)
N1 0.0176(9) 0.0199(9) 0.0269(10) -0.0015(8) 0.0074(7) -0.0004(7)
C1 0.0141(9) 0.0178(10) 0.0279(11) -0.0021(8) 0.0062(8) 0.0003(8)
C2 0.0139(9) 0.0125(9) 0.0221(10) 0.0001(7) 0.0039(7) -0.0004(7)
C3 0.0135(9) 0.0166(9) 0.0260(11) 0.0003(8) 0.0012(8) 0.0010(7)
C4 0.0183(10) 0.0180(10) 0.0229(10) 0.0008(8) 0.0001(8) -0.0003(8)
C5 0.0176(9) 0.0164(11) 0.0211(9) -0.0009(9) 0.0030(7) -0.0023(8)
C6 0.0133(7) 0.0157(9) 0.0203(8) -0.0006(10) 0.0033(6) 0.0002(9)
C7 0.0132(8) 0.0134(10) 0.0201(9) 0.0010(8) 0.0028(6) -0.0012(8)
C8 0.0138(7) 0.0168(9) 0.0209(9) 0.0001(10) 0.0018(6) 0.0005(8)
C9 0.0177(9) 0.0180(12) 0.0199(9) 0.0002(8) 0.0052(7) -0.0016(8)
C10 0.0206(10) 0.0344(14) 0.0202(10) -0.0013(8) 0.0048(8) 0.0001(9)
C11 0.0254(10) 0.0429(15) 0.0211(10) -0.0008(11) 0.0022(8) -0.0002(12)
C12 0.0252(10) 0.0250(11) 0.0188(9) -0.0008(11) 0.0046(7) 0.0046(11)
loop_
_atom_type_symbol
_atom_type_description
_atom_type_scat_dispersion_real
_atom_type_scat_dispersion_imag
_atom_type_scat_source
C C 0.0033 0.0016 'International Tables Vol C Tables 4.2.6.8 and 6.1.1.4'
H H 0.0000 0.0000 'International Tables Vol C Tables 4.2.6.8 and 6.1.1.4'
N N 0.0061 0.0033 'International Tables Vol C Tables 4.2.6.8 and 6.1.1.4'
S S 0.1246 0.1234 'International Tables Vol C Tables 4.2.6.8 and 6.1.1.4'
loop_
_geom_angle_atom_site_label_1
_geom_angle_atom_site_label_2
_geom_angle_atom_site_label_3
_geom_angle
_geom_angle_site_symmetry_1
_geom_angle_site_symmetry_3
C9 S1 C10 103.26(10) . .
C1 N1 C9 117.19(19) . .
N1 C1 H1 117.7 . .
N1 C1 C2 124.6(2) . .
C2 C1 H1 117.7 . .
C1 C2 C3 122.99(19) . .
C7 C2 C1 117.60(19) . .
C7 C2 C3 119.41(18) . .
C2 C3 H3 119.9 . .
C4 C3 C2 120.15(19) . .
C4 C3 H3 119.9 . .
C3 C4 H4 119.4 . .
C3 C4 C5 121.2(2) . .
C5 C4 H4 119.4 . .
C4 C5 C12 119.49(19) . .
C6 C5 C4 119.25(19) . .
C6 C5 C12 121.26(19) . .
C5 C6 H6 119.5 . .
C5 C6 C7 120.98(19) . .
C7 C6 H6 119.5 . .
C2 C7 C6 118.97(18) . .
C8 C7 C2 117.89(18) . .
C8 C7 C6 123.14(18) . .
C7 C8 H8 120.5 . .
C9 C8 C7 119.05(18) . .
C9 C8 H8 120.5 . .
N1 C9 S1 111.45(15) . .
N1 C9 C8 123.60(19) . .
C8 C9 S1 124.94(15) . .
S1 C10 H10A 109.9 . .
S1 C10 H10B 109.9 . .
H10A C10 H10B 108.3 . .
C11 C10 S1 108.96(16) . .
C11 C10 H10A 109.9 . .
C11 C10 H10B 109.9 . .
C10 C11 H11A 109.5 . .
C10 C11 H11B 109.5 . .
C10 C11 H11C 109.5 . .
H11A C11 H11B 109.5 . .
H11A C11 H11C 109.5 . .
H11B C11 H11C 109.5 . .
C5 C12 H12A 109.5 . .
C5 C12 H12B 109.5 . .
C5 C12 H12C 109.5 . .
H12A C12 H12B 109.5 . .
H12A C12 H12C 109.5 . .
H12B C12 H12C 109.5 . .
loop_
_geom_bond_atom_site_label_1
_geom_bond_atom_site_label_2
_geom_bond_distance
_geom_bond_site_symmetry_2
S1 C9 1.758(2) .
S1 C10 1.809(2) .
N1 C1 1.314(3) .
N1 C9 1.369(3) .
C1 H1 0.9500 .
C1 C2 1.416(3) .
C2 C3 1.419(3) .
C2 C7 1.414(3) .
C3 H3 0.9500 .
C3 C4 1.365(3) .
C4 H4 0.9500 .
C4 C5 1.418(3) .
C5 C6 1.376(3) .
C5 C12 1.505(3) .
C6 H6 0.9500 .
C6 C7 1.419(3) .
C7 C8 1.414(3) .
C8 H8 0.9500 .
C8 C9 1.377(3) .
C10 H10A 0.9900 .
C10 H10B 0.9900 .
C10 C11 1.518(3) .
C11 H11A 0.9800 .
C11 H11B 0.9800 .
C11 H11C 0.9800 .
C12 H12A 0.9800 .
C12 H12B 0.9800 .
C12 H12C 0.9800 .
loop_
_geom_torsion_atom_site_label_1
_geom_torsion_atom_site_label_2
_geom_torsion_atom_site_label_3
_geom_torsion_atom_site_label_4
_geom_torsion
_geom_torsion_site_symmetry_1
_geom_torsion_site_symmetry_2
_geom_torsion_site_symmetry_3
_geom_torsion_site_symmetry_4
N1 C1 C2 C3 -179.6(2) . . . .
N1 C1 C2 C7 0.9(3) . . . .
C1 N1 C9 S1 176.98(16) . . . .
C1 N1 C9 C8 -1.9(3) . . . .
C1 C2 C3 C4 -178.8(2) . . . .
C1 C2 C7 C6 178.3(2) . . . .
C1 C2 C7 C8 -1.4(3) . . . .
C2 C3 C4 C5 0.4(3) . . . .
C2 C7 C8 C9 0.3(3) . . . .
C3 C2 C7 C6 -1.2(3) . . . .
C3 C2 C7 C8 179.1(2) . . . .
C3 C4 C5 C6 -0.8(3) . . . .
C3 C4 C5 C12 179.0(2) . . . .
C4 C5 C6 C7 0.2(3) . . . .
C5 C6 C7 C2 0.8(3) . . . .
C5 C6 C7 C8 -179.6(2) . . . .
C6 C7 C8 C9 -179.3(2) . . . .
C7 C2 C3 C4 0.6(3) . . . .
C7 C8 C9 S1 -177.33(18) . . . .
C7 C8 C9 N1 1.4(3) . . . .
C9 S1 C10 C11 164.85(19) . . . .
C9 N1 C1 C2 0.7(3) . . . .
C10 S1 C9 N1 -167.73(15) . . . .
C10 S1 C9 C8 11.1(2) . . . .
C12 C5 C6 C7 -179.6(2) . . . .
