#------------------------------------------------------------------------------
#$Date: 2018-08-14 15:13:30 +0300 (Tue, 14 Aug 2018) $
#$Revision: 209676 $
#$URL: file:///home/coder/svn-repositories/cod/cif/7/11/86/7118643.cif $
#------------------------------------------------------------------------------
#
# This file is available in the Crystallography Open Database (COD),
# http://www.crystallography.net/
#
# All data on this site have been placed in the public domain by the
# contributors.
#
data_7118643
loop_
_publ_author_name
'Bushuyev, Oleksandr S.'
'Tomberg, Anna'
'Vinden, Joanna R.'
'Moitessier, Nicolas'
'Barrett, Christopher J.'
'Fri\<s\<ci\'c, Tomislav'
_publ_section_title
;
 Azo&#x22EF;phenyl stacking: a persistent self-assembly motif guides the
 assembly of fluorinated cis-azobenzenes into photo-mechanical needle crystals
;
_journal_coden_ASTM              CHCOFS
_journal_issue                   10
_journal_name_full
;
 Chemical Communications (Cambridge, United Kingdom)
;
_journal_page_first              2103
_journal_page_last               2106
_journal_paper_doi               10.1039/c5cc08590j
_journal_volume                  52
_journal_year                    2016
_chemical_formula_sum            'C6 F5 N'
_chemical_formula_weight         181.07
_space_group_crystal_system      monoclinic
_space_group_IT_number           5
_space_group_name_Hall           'C 2y'
_space_group_name_H-M_alt        'C 1 2 1'
_symmetry_space_group_name_Hall  'C 2y'
_symmetry_space_group_name_H-M   'C 1 2 1'
_audit_creation_method           SHELXL-2014/6
_audit_update_record
;
2015-10-13 deposited with the CCDC.
2015-12-04 downloaded from the CCDC.
;
_cell_angle_alpha                90
_cell_angle_beta                 127.333(4)
_cell_angle_gamma                90
_cell_formula_units_Z            4
_cell_length_a                   13.770(6)
_cell_length_b                   5.569(3)
_cell_length_c                   9.822(4)
_cell_measurement_temperature    100(2)
_cell_volume                     598.9(5)
_computing_cell_refinement       'Bruker SAINT'
_computing_data_collection       'Bruker APEX2'
_computing_data_reduction        'Bruker SAINT'
_computing_molecular_graphics    'Bruker SHELXTL'
_computing_publication_material  'Bruker SHELXTL'
_computing_structure_refinement  'SHELXL-2014/6 (Sheldrick, 2014)'
_computing_structure_solution    'SHELXL-2014/6 (Sheldrick, 2014)'
_diffrn_ambient_temperature      100(2)
_diffrn_measured_fraction_theta_full 1.000
_diffrn_measured_fraction_theta_max 0.964
_diffrn_measurement_device_type  'Bruker APEX-II CCD'
_diffrn_measurement_method       '\f and \w scans'
_diffrn_radiation_type           MoK\a
_diffrn_radiation_wavelength     0.71073
_diffrn_reflns_av_R_equivalents  0.0282
_diffrn_reflns_av_unetI/netI     0.0355
_diffrn_reflns_Laue_measured_fraction_full 1.000
_diffrn_reflns_Laue_measured_fraction_max 0.964
_diffrn_reflns_limit_h_max       17
_diffrn_reflns_limit_h_min       -18
_diffrn_reflns_limit_k_max       7
_diffrn_reflns_limit_k_min       -7
_diffrn_reflns_limit_l_max       12
_diffrn_reflns_limit_l_min       -12
_diffrn_reflns_number            3440
_diffrn_reflns_point_group_measured_fraction_full 0.994
_diffrn_reflns_point_group_measured_fraction_max 0.932
_diffrn_reflns_theta_full        25.000
_diffrn_reflns_theta_max         28.164
_diffrn_reflns_theta_min         2.608
_exptl_absorpt_coefficient_mu    0.231
_exptl_absorpt_correction_T_max  0.7457
_exptl_absorpt_correction_T_min  0.5733
_exptl_absorpt_correction_type   multi-scan
_exptl_absorpt_process_details   SADABS
_exptl_crystal_colour            yellow
_exptl_crystal_density_diffrn    2.008
_exptl_crystal_description       needle
_exptl_crystal_F_000             352
_exptl_crystal_recrystallization_method 'Re-crystallisation from solvent: '
_exptl_crystal_size_max          0.896
_exptl_crystal_size_mid          0.177
_exptl_crystal_size_min          0.076
_refine_diff_density_max         0.256
_refine_diff_density_min         -0.173
_refine_diff_density_rms         0.051
_refine_ls_abs_structure_details
;
 Flack x determined using 464 quotients [(I+)-(I-)]/[(I+)+(I-)]
 (Parsons, Flack and Wagner, Acta Cryst. B69 (2013) 249-259).
;
_refine_ls_abs_structure_Flack   0.5(6)
_refine_ls_extinction_method     none
_refine_ls_goodness_of_fit_ref   1.049
_refine_ls_hydrogen_treatment    undef
_refine_ls_matrix_type           full
_refine_ls_number_parameters     109
_refine_ls_number_reflns         1370
_refine_ls_number_restraints     1
_refine_ls_restrained_S_all      1.049
_refine_ls_R_factor_all          0.0432
_refine_ls_R_factor_gt           0.0360
_refine_ls_shift/su_max          0.000
_refine_ls_shift/su_mean         0.000
_refine_ls_structure_factor_coef Fsqd
_refine_ls_weighting_details
'w=1/[\s^2^(Fo^2^)+(0.0390P)^2^+0.2217P] where P=(Fo^2^+2Fc^2^)/3'
_refine_ls_weighting_scheme      calc
_refine_ls_wR_factor_gt          0.0808
_refine_ls_wR_factor_ref         0.0842
_reflns_Friedel_coverage         0.754
_reflns_Friedel_fraction_full    0.987
_reflns_Friedel_fraction_max     0.892
_reflns_number_gt                1206
_reflns_number_total             1370
_reflns_threshold_expression     'I > 2\s(I)'
_cod_data_source_file            c5cc08590j2.cif
_cod_data_source_block           AB112_0m
_cod_database_code               7118643
#BEGIN Tags that were not found in dictionaries:
_shelx_space_group_comment
;
The symmetry employed for this shelxl refinement is uniquely defined
by the following loop, which should always be used as a source of
symmetry information in preference to the above space-group names.
They are only intended as comments.
;
_exptl_absorpt_special_details   SADABS
_shelxl_version_number           2014/6
_shelx_res_file
;
TITL AB112_0m in C2
CELL 0.71073 13.7696 5.5690 9.8217 90.000 127.333 90.000
ZERR 4.00 0.0061 0.0025 0.0043 0.000 0.004 0.000
LATT -7
SYMM -x, y, -z
SFAC C N F
UNIT 24 4 20
TEMP -173.000
ACTA 50
L.S. 10
FMAP 2
PLAN 5
CONF
WGHT    0.039000    0.221700
FVAR       0.24747
F1    3    0.640264    0.434366    0.075808    11.00000    0.03522    0.03900 =
         0.03140    0.00394    0.01344    0.00578
F2    3    0.577959    0.099919    0.212311    11.00000    0.02829    0.06034 =
         0.04034   -0.00096    0.02142   -0.00053
F3    3    0.732407   -0.268335    0.398480    11.00000    0.04069    0.04598 =
         0.03965    0.00493    0.02598   -0.01137
F4    3    1.008180    0.030114    0.304074    11.00000    0.02553    0.04590 =
         0.02493    0.00355    0.01567    0.00002
F5    3    0.853347    0.393272    0.119565    11.00000    0.03599    0.04052 =
         0.02552    0.01027    0.01465   -0.00460
N1    2    0.943112   -0.341108    0.441039    11.00000    0.03693    0.02437 =
         0.02908   -0.00050    0.01891   -0.00113
C1    1    0.716067    0.251446    0.167581    11.00000    0.02993    0.02597 =
         0.01910   -0.00365    0.00968    0.00005
C2    1    0.684293    0.083225    0.237295    11.00000    0.02553    0.03642 =
         0.02309   -0.00782    0.01396   -0.00524
C3    1    0.763603   -0.103237    0.331104    11.00000    0.03286    0.03048 =
         0.02189   -0.00317    0.01676   -0.00981
C4    1    0.875507   -0.124774    0.361071    11.00000    0.02775    0.02263 =
         0.01755   -0.00442    0.01060   -0.00504
C5    1    0.904269    0.047307    0.287151    11.00000    0.02294    0.02937 =
         0.01747   -0.00526    0.01060   -0.00635
C6    1    0.825188    0.232860    0.191459    11.00000    0.02921    0.02623 =
         0.01711   -0.00163    0.01021   -0.00785
HKLF 4 1 1 0 0 0 1 0 0 0 1

REM  AB112_0m in C2
REM R1 =  0.0360 for    1206 Fo > 4sig(Fo)  and  0.0432 for all    1370 data
REM    109 parameters refined using      1 restraints

END

WGHT      0.0390      0.2217

REM Highest difference peak  0.256,  deepest hole -0.173,  1-sigma level  0.051
Q1    1   0.8729  0.1955  0.2718  11.00000  0.05    0.26
Q2    1   0.7121 -0.0668  0.2423  11.00000  0.05    0.25
Q3    1   0.7730  0.2273  0.1775  11.00000  0.05    0.24
Q4    1   0.8196 -0.1040  0.3467  11.00000  0.05    0.24
Q5    1   0.7388  0.0240  0.3182  11.00000  0.05    0.22
;
_shelx_res_checksum              53700
_shelx_hkl_file
;
   2   0   0   72.60    2.50
   2   0   0   76.23    2.51
  -2   0   0   71.79    2.48
  -2   0   0   76.75    2.50
  -4   0   0    9.82    0.46
   4   0   0   10.38    0.48
  -4   0   0    9.62    0.42
   4   0   0    9.75    0.46
  -6   0   0   -0.02    0.11
  -6   0   0    0.01    0.11
   6   0   0    0.00    0.15
   6   0   0    0.28    0.18
  -8   0   0   14.78    0.68
  -8   0   0   14.18    0.75
   8   0   0   14.27    0.79
   8   0   0   15.59    0.76
 -10   0   0    1.57    0.35
  10   0   0    1.27    0.38
  10   0   0    0.37    0.31
 -12   0   0    4.84    0.62
  12   0   0    3.75    0.58
 -14   0   0    3.38    0.59
   1  -1   0   67.93    2.47
  -1  -1   0   72.59    2.48
  -1   1   0   73.47    2.51
   1   1   0   72.05    2.50
  -1   1   0   75.07    2.48
   1   1   0   81.19    2.53
  -1   1   0   70.80    2.51
   3  -1   0   14.89    0.65
  -3  -1   0   14.60    0.62
   3  -1   0   14.28    0.59
  -3  -1   0   15.28    0.60
   3   1   0   17.00    0.68
  -3   1   0   15.50    0.65
  -5  -1   0   28.45    1.10
   5  -1   0   30.02    1.17
   5  -1   0   27.20    1.10
  -5  -1   0   28.87    1.11
  -5   1   0   29.41    1.17
   5   1   0   30.04    1.09
   5   1   0   29.43    1.20
   7  -1   0   70.42    2.54
  -7  -1   0   67.50    2.45
   7  -1   0   69.34    2.50
  -7  -1   0   67.85    2.49
   7   1   0   69.70    2.45
  -7   1   0   71.26    2.57
   7   1   0   66.96    2.59
  -9  -1   0   42.37    1.64
   9  -1   0   43.87    1.75
   9  -1   0   40.56    1.72
  -9  -1   0   41.60    1.70
  -9   1   0   42.97    1.78
   9   1   0   42.15    1.83
 -11  -1   0    1.53    0.33
  11  -1   0    1.47    0.43
 -11  -1   0    1.01    0.47
  11   1   0    1.19    0.40
 -11   1   0    1.62    0.38
 -13   1   0    0.79    0.40
  13   1   0    0.57    0.45
   0   2   0   17.35    0.73
   0   2   0   17.58    0.74
   0   2   0   18.82    0.76
   0   2   0   18.31    0.73
   2  -2   0  272.06    8.97
  -2  -2   0  264.74    8.96
  -2   2   0  273.91    8.96
  -2   2   0  269.81    9.03
  -2   2   0  268.75    9.03
   2   2   0  272.70    9.06
   2   2   0  267.56    9.01
  -4  -2   0   88.59    3.10
  -4  -2   0   88.08    3.05
   4  -2   0   90.08    3.14
   4  -2   0   86.61    3.05
   4   2   0   89.14    3.19
  -4   2   0   91.60    3.16
  -6  -2   0   45.76    1.70
   6  -2   0   45.65    1.70
  -6  -2   0   45.69    1.73
   6  -2   0   46.40    1.79
   6   2   0   45.03    1.86
  -6   2   0   47.40    1.83
   8  -2   0   58.98    2.22
  -8  -2   0   60.38    2.23
   8  -2   0   60.96    2.32
  -8  -2   0   58.46    2.21
  -8   2   0   60.11    2.37
   8   2   0   57.17    2.40
  10  -2   0   13.73    0.91
 -10  -2   0   14.59    0.80
 -10  -2   0   13.80    0.82
 -10   2   0   13.06    0.92
  10   2   0   15.14    1.03
  12  -2   0    9.11    0.88
 -12  -2   0    9.92    0.74
 -12   2   0    8.55    0.83
  12   2   0    8.30    0.94
  14   2   0    2.10    0.69
  -1  -3   0   91.13    3.14
   1   3   0   85.88    3.13
  -1   3   0   88.98    3.18
  -1   3   0   93.61    3.18
   1   3   0   92.34    3.23
  -1   3   0   89.74    3.14
   1   3   0   87.23    3.16
  -3  -3   0   54.07    1.93
   3  -3   0   52.24    1.92
  -3   3   0   54.37    2.03
   3   3   0   52.92    2.06
  -3   3   0   52.23    1.91
  -5  -3   0    0.23    0.18
   5  -3   0    0.39    0.16
  -5  -3   0    0.09    0.15
   5  -3   0    0.67    0.24
   5   3   0    0.44    0.21
  -5   3   0    0.22    0.20
  -7  -3   0    8.91    0.58
  -7  -3   0    7.58    0.52
   7  -3   0    7.96    0.63
  -7   3   0    8.38    0.65
   7   3   0    7.40    0.68
  -9  -3   0    3.75    0.49
   9  -3   0    3.22    0.51
   9   3   0    3.88    0.61
  -9   3   0    3.27    0.52
 -11  -3   0    2.33    0.48
  11  -3   0    1.74    0.49
  11   3   0    0.47    0.42
 -11   3   0    1.14    0.40
 -13  -3   0    0.80    0.44
  13   3   0    1.41    0.78
   0   4   0    7.71    0.53
   0   4   0    8.46    0.54
   0   4   0    8.23    0.56
   0   4   0    7.62    0.54
  -2  -4   0   21.82    0.94
   2  -4   0   20.52    0.93
  -2   4   0   21.24    1.01
  -2   4   0   20.70    0.94
   2   4   0   21.83    1.00
   2   4   0   21.03    1.05
  -2   4   0   19.99    1.00
   2   4   0   19.57    0.92
   4  -4   0   40.29    1.55
  -4  -4   0   40.85    1.55
  -4  -4   0   39.98    1.61
   4  -4   0   38.77    1.65
   4   4   0   37.70    1.73
  -4   4   0   40.44    1.70
  -6  -4   0    1.27    0.32
   6  -4   0    1.42    0.37
  -6   4   0    1.66    0.38
   6   4   0    1.54    0.38
   8  -4   0    1.67    0.45
  -8  -4   0    1.82    0.38
   8   4   0    1.65    0.42
  -8   4   0    2.40    0.45
  10  -4   0   24.15    1.38
 -10  -4   0   23.62    1.26
 -10   4   0   25.58    1.47
  -1  -5   0   15.63    0.84
   1   5   0   14.99    0.90
  -1   5   0   14.16    0.84
   1   5   0   15.86    0.89
  -1   5   0   15.06    0.88
  -1   5   0   15.54    0.89
   3  -5   0    5.53    0.60
  -3  -5   0    5.57    0.51
  -3   5   0    4.20    0.51
   3   5   0    4.18    0.56
   5  -5   0    2.03    0.42
  -5  -5   0    1.57    0.38
   5   5   0    2.05    0.48
  -5   5   0    2.09    0.46
  -7  -5   0    0.84    0.35
   7  -5   0    0.65    0.37
  -7   5   0    1.09    0.40
   7   5   0    1.08    0.40
   9  -5   0    1.05    0.51
  -9  -5   0    1.43    0.46
   9   5   0    1.56    0.52
  -9   5   0    1.18    0.47
   0   6   0   40.18    2.27
   2  -6   0   16.93    0.98
  -2  -6   0   16.63    0.94
  -2   6   0   17.56    1.08
   2   6   0   16.31    1.07
   4  -6   0    0.75    0.35
  -4  -6   0    1.46    0.38
   4   6   0    0.59    0.36
  -4   6   0    0.66    0.38
  -6  -6   0    0.28    0.34
   6  -6   0    0.15    0.34
  -6   6   0    0.24    0.37
   6   6   0   -0.04    0.32
  -1  -7   0    1.01    0.40
  -3  -7   0    0.04    0.34
   3   7   0    0.63    0.41
 -12   0   1    0.24    0.25
  12   0  -1   -0.25    0.33
  12   0  -1    0.71    0.35
 -10   0   1    2.47    0.37
  10   0  -1    2.02    0.39
 -10   0   1    2.49    0.34
  10   0  -1    2.40    0.40
  -8   0   1   18.71    0.82
   8   0  -1   20.12    0.91
   8   0  -1   18.58    0.88
  -8   0   1   19.40    0.88
  -6   0   1  341.38   11.33
   6   0  -1  338.07   11.38
  -6   0   1  337.30   11.36
   6   0  -1  349.18   11.36
   4   0  -1  243.36    7.58
   4   0  -1  221.03    7.57
  -4   0   1  220.85    7.56
  -4   0   1  226.16    7.55
  -2   0   1   46.19    1.53
  -2   0   1   44.15    1.53
   2   0  -1   42.95    1.54
   2   0  -1   47.53    1.53
   0   0  -1    6.01    0.27
   0   0   1    6.35    0.27
   0   0  -1    5.34    0.26
  -2   0  -1    4.17    0.28
   2   0   1    3.35    0.26
   2   0   1    4.06    0.27
   4   0   1  178.52    6.04
   4   0   1  186.27    6.10
  -4   0  -1  173.48    5.99
  -4   0  -1  181.87    6.08
   6   0   1    0.21    0.18
  -6   0  -1    0.13    0.13
   6   0   1   -0.01    0.15
  -6   0  -1   -0.03    0.11
   8   0   1    1.84    0.38
   8   0   1    2.26    0.36
  -8   0  -1    1.94    0.33
  10   0   1    1.04    0.39
 -10   0  -1    1.31    0.34
  12   0   1    0.08    0.36
 -12   0  -1   -0.29    0.26
 -15   1   1    1.98    0.52
  13  -1  -1    6.57    0.76
 -13   1   1    5.13    0.67
  13   1  -1    5.82    0.76
 -11  -1   1    1.55    0.31
  11  -1  -1    1.61    0.44
 -11  -1   1    1.38    0.33
  11   1  -1    1.73    0.42
 -11   1   1    1.45    0.36
  -9  -1   1   17.24    0.85
  -9  -1   1   17.97    0.87
   9  -1  -1   18.77    0.95
   9  -1  -1   18.09    0.89
  -9   1   1   19.35    0.83
   9   1  -1   20.05    0.90
   9   1  -1   18.44    1.00
  -9   1   1   19.34    0.97
  -7  -1   1   17.41    0.75
   7  -1  -1   17.64    0.76
  -7  -1   1   16.72    0.75
   7  -1  -1   17.30    0.82
  -7   1   1   16.86    0.73
   7   1  -1   17.71    0.87
  -7   1   1   17.85    0.83
   7   1  -1   17.80    0.77
   5  -1  -1   55.19    1.97
  -5  -1   1   53.58    1.93
  -5  -1   1   53.52    1.90
   5  -1  -1   51.65    1.89
  -5   1   1   56.13    1.99
   5   1  -1   54.66    1.92
  -5   1   1   54.57    1.90
   5   1  -1   57.23    2.02
  -3  -1   1   32.57    1.13
   3  -1  -1   33.57    1.21
  -3  -1   1   32.24    1.18
   3  -1  -1   30.89    1.12
   3   1  -1   36.36    1.25
  -3   1   1   34.63    1.22
   3   1  -1   32.07    1.17
  -3   1   1   32.36    1.17
  -1  -1   1  108.65    3.72
   1  -1  -1  109.26    3.73
   1   1  -1  106.22    3.77
  -1   1   1  114.00    3.77
  -1   1   1  108.12    3.76
   1   1  -1  118.78    3.79
  -1   1   1  127.27    3.74
   1   1  -1  104.13    3.72
  -1  -1  -1  125.30    4.22
   1  -1   1  117.12    4.21
   1   1   1  123.76    4.23
  -1   1  -1  123.76    4.25
  -1   1  -1  128.79    4.23
   1   1   1  135.30    4.25
  -3  -1  -1   28.75    1.08
   3  -1   1   26.92    1.07
  -3  -1  -1   28.40    1.07
   3   1   1   28.77    1.14
  -3   1  -1   29.70    1.11
  -5  -1  -1   61.17    2.24
  -5  -1  -1   64.04    2.29
   5  -1   1   64.30    2.31
   5  -1   1   62.17    2.29
  -5   1  -1   65.33    2.34
   5   1   1   64.71    2.37
  -7  -1  -1   35.72    1.47
   7  -1   1   35.12    1.48
  -7  -1  -1   34.13    1.38
   7  -1   1   37.66    1.50
   7   1   1   35.19    1.55
   7   1   1   39.49    1.54
  -7   1  -1   35.50    1.51
  -9  -1  -1   66.50    2.47
   9  -1   1   70.74    2.61
  -9  -1  -1   68.23    2.59
   9  -1   1   67.23    2.63
   9   1   1   64.61    2.71
  -9   1  -1   69.06    2.68
 -11  -1  -1    1.87    0.39
  11  -1   1    1.93    0.49
  11  -1   1    1.50    0.50
  11   1   1    1.50    0.47
 -11   1  -1    2.26    0.45
 -13   1  -1    0.60    0.40
  13   1   1    0.59    0.48
  14  -2  -1   -0.49    0.48
 -14   2   1    0.59    0.42
  14   2  -1    0.46    0.47
 -12  -2   1    1.84    0.41
  12  -2  -1    2.01    0.52
 -12   2   1    1.27    0.41
  12   2  -1    2.06    0.55
 -10  -2   1   35.96    1.45
  10  -2  -1   34.63    1.55
  10   2  -1   30.76    1.61
 -10   2   1   35.11    1.59
  -8  -2   1   40.90    1.57
   8  -2  -1   38.81    1.50
   8  -2  -1   38.90    1.62
  -8  -2   1   40.11    1.51
   8   2  -1   37.27    1.70
  -8   2   1   39.19    1.66
   8   2  -1   39.35    1.51
  -8   2   1   40.78    1.49
   6  -2  -1    8.82    0.55
  -6  -2   1    8.99    0.44
   6  -2  -1    8.70    0.43
  -6  -2   1    8.77    0.50
   6   2  -1    8.81    0.46
   6   2  -1    8.46    0.58
  -6   2   1    9.47    0.56
  -6   2   1    9.31    0.46
   4  -2  -1    6.06    0.41
  -4  -2   1    5.53    0.36
   4  -2  -1    5.37    0.28
  -4  -2   1    5.17    0.29
   4   2  -1    5.46    0.34
  -4   2   1    6.42    0.41
  -4   2   1    5.58    0.35
   4   2  -1    5.81    0.42
   2  -2  -1   43.07    1.59
  -2  -2   1   42.59    1.58
  -2   2   1   43.82    1.63
   2   2  -1   43.05    1.61
  -2   2   1   45.18    1.61
  -2   2   1   45.86    1.57
   2   2  -1   46.54    1.67
   0  -2  -1  110.81    3.63
   0   2  -1  103.98    3.65
   0   2   1  107.29    3.64
   0   2  -1  106.04    3.58
   0   2  -1   95.48    3.60
   0   2   1  104.89    3.64
   0   2  -1  112.92    3.66
   2  -2   1  101.79    3.65
  -2  -2  -1  105.73    3.65
   2   2   1  108.22    3.70
  -2   2  -1  108.40    3.74
   2   2   1  111.80    3.75
  -2   2  -1  105.81    3.70
  -4  -2  -1   18.82    0.81
   4  -2   1   18.09    0.80
  -4  -2  -1   18.45    0.82
   4  -2   1   18.81    0.87
   4   2   1   19.68    0.92
  -4   2  -1   20.15    0.89
  -6  -2  -1   11.19    0.61
   6  -2   1   11.13    0.67
  -6  -2  -1   11.07    0.59
   6  -2   1   10.20    0.60
   6   2   1   10.13    0.70
  -6   2  -1   11.19    0.67
  -8  -2  -1   11.32    0.68
   8  -2   1   10.96    0.77
  -8  -2  -1   10.88    0.64
   8  -2   1   10.59    0.70
   8   2   1   10.19    0.80
  -8   2  -1    9.66    0.73
 -10  -2  -1    4.32    0.51
 -10  -2  -1    4.22    0.50
  10  -2   1    3.82    0.58
 -10   2  -1    2.96    0.53
  10   2   1    5.09    0.71
  12  -2   1    3.47    0.69
  12   2   1    2.31    0.61
 -12   2  -1    2.77    0.57
 -13  -3   1    0.29    0.36
  13  -3  -1    0.24    0.46
  13   3  -1    0.42    0.46
 -13   3   1    0.65    0.43
 -11  -3   1    0.40    0.31
  11  -3  -1    0.42    0.39
  11   3  -1    0.37    0.37
 -11   3   1    0.40    0.36
   9  -3  -1   13.35    0.89
  -9  -3   1   15.62    0.84
   9   3  -1   13.96    0.98
  -9   3   1   13.57    0.92
  -7  -3   1    9.36    0.59
   7  -3  -1    8.95    0.64
   7   3  -1    8.42    0.67
  -7   3   1    9.97    0.68
  -5  -3   1   16.20    0.77
   5  -3  -1   16.19    0.81
   5  -3  -1   16.51    0.69
  -5  -3   1   16.82    0.70
  -5   3   1   17.24    0.75
   5   3  -1   15.72    0.74
   5   3  -1   14.56    0.85
  -5   3   1   17.24    0.86
  -3  -3   1   85.83    3.02
   3  -3  -1   84.32    3.04
  -3  -3   1   89.32    2.98
  -3   3   1   86.75    3.03
   3   3  -1   84.84    3.03
   3   3  -1   84.72    3.14
  -3   3   1   86.48    3.10
  -1   3   1   21.42    0.89
  -1   3   1   22.34    0.93
   1   3  -1   21.64    0.97
  -1   3   1   21.96    0.93
  -1   3   1   21.98    0.95
   1   3  -1   21.63    0.91
   1   3  -1   22.02    0.95
   1   3  -1   20.11    0.89
   1  -3   1    8.72    0.49
  -1  -3  -1    9.35    0.51
  -1   3  -1    8.44    0.44
  -1   3  -1    8.52    0.54
   1   3   1    8.65    0.53
   1   3   1    8.16    0.52
  -1   3  -1    8.87    0.51
   3  -3   1   34.77    1.39
  -3  -3  -1   37.38    1.41
  -3   3  -1   37.74    1.51
   3   3   1   34.50    1.51
   3   3   1   37.17    1.48
  -3   3  -1   35.88    1.49
   5  -3   1    0.33    0.27
  -5  -3  -1    0.07    0.18
   5  -3   1    0.18    0.18
  -5  -3  -1    0.36    0.20
   5   3   1    0.07    0.20
  -5   3  -1    0.21    0.22
   7  -3   1    7.18    0.56
  -7  -3  -1    7.48    0.57
   7  -3   1    7.28    0.65
  -7  -3  -1    6.91    0.55
  -7   3  -1    7.83    0.66
   7   3   1    6.55    0.66
   9  -3   1    0.06    0.35
  -9  -3  -1   -0.19    0.24
  -9   3  -1    0.26    0.30
   9   3   1    0.14    0.32
 -11  -3  -1   11.18    0.83
  11  -3   1   10.26    0.97
 -11   3  -1   10.41    0.97
  11   3   1   10.98    1.02
  12  -4  -1    5.91    0.80
 -12  -4   1    7.91    0.80
 -12   4   1    5.28    0.79
  12   4  -1    6.79    0.92
 -10  -4   1   26.54    1.26
  10  -4  -1   24.39    1.34
 -10   4   1   22.82    1.38
  10   4  -1   22.43    1.43
  -8  -4   1    2.70    0.43
   8  -4  -1    1.96    0.44
   8   4  -1    2.04    0.47
  -8   4   1    1.31    0.39
  -6  -4   1    1.26    0.31
   6  -4  -1    0.88    0.31
   6   4  -1    0.64    0.32
  -6   4   1    0.95    0.32
  -4  -4   1   12.03    0.64
  -4  -4   1   11.35    0.66
   4  -4  -1   11.44    0.60
   4  -4  -1   11.68    0.70
   4   4  -1   11.38    0.77
  -4   4   1   12.37    0.75
  -4   4   1   11.91    0.66
   4   4  -1   12.51    0.66
   2  -4  -1    4.18    0.40
  -2  -4   1    3.74    0.36
  -2  -4   1    5.42    0.39
  -2   4   1    3.09    0.40
   2   4  -1    4.23    0.41
   2   4  -1    4.16    0.48
  -2   4   1    4.38    0.47
  -2   4   1    4.83    0.40
   0  -4  -1    3.47    0.41
   0   4  -1    2.86    0.39
   0   4   1    2.46    0.36
   0   4   1    3.27    0.41
   0   4  -1    2.99    0.35
   0   4   1    2.22    0.29
   0   4  -1    2.26    0.32
   0   4  -1    2.79    0.38
  -2  -4  -1    1.86    0.30
   2  -4   1    1.93    0.31
  -2   4  -1    0.80    0.24
   2   4   1    1.08    0.31
  -2   4  -1    1.91    0.36
  -2   4  -1    1.53    0.35
   2   4   1    1.81    0.35
  -4  -4  -1   16.72    0.83
  -4  -4  -1   16.24    0.86
   4  -4   1   17.57    0.83
  -4   4  -1   17.06    0.95
   4   4   1   15.43    0.95
  -6  -4  -1   22.40    1.07
   6  -4   1   20.59    1.13
   6   4   1   20.05    1.19
  -6   4  -1   21.28    1.20
   8  -4   1    7.97    0.82
  -8  -4  -1    6.75    0.63
  -8   4  -1    4.80    0.66
   8   4   1    4.78    0.69
  10  -4   1   15.49    1.15
 -10  -4  -1   15.55    1.00
  -9  -5   1    1.52    0.42
   9  -5  -1    1.09    0.46
  -9   5   1    0.78    0.46
   9   5  -1    0.74    0.42
  -7  -5   1    0.54    0.30
   7  -5  -1    0.64    0.36
  -7   5   1    0.71    0.37
   7   5  -1    0.47    0.34
   5  -5  -1    7.17    0.62
  -5  -5   1    8.51    0.62
   5   5  -1    5.61    0.67
  -5   5   1    7.76    0.70
   3  -5  -1    3.42    0.43
  -3  -5   1    3.77    0.46
   3   5  -1    2.25    0.43
  -3   5   1    3.23    0.49
  -3   5   1    3.00    0.43
  -1  -5   1   52.49    1.99
   1  -5  -1   51.90    2.10
   1  -5  -1   52.54    1.99
   1   5  -1   53.70    2.17
   1   5  -1   53.84    2.09
   1   5  -1   40.94    2.22
  -1   5   1   54.51    2.10
  -1   5   1   51.58    2.08
   1  -5   1    0.98    0.31
  -1  -5  -1    0.68    0.27
   1   5   1    0.72    0.29
   1   5   1    0.64    0.35
  -1   5  -1    0.30    0.31
  -1   5  -1    0.46    0.26
   3  -5   1    6.59    0.55
  -3  -5  -1    5.95    0.54
   3   5   1    5.70    0.66
  -3   5  -1    5.32    0.62
  -5  -5  -1    8.86    0.67
   5  -5   1    7.58    0.71
   5   5   1    6.33    0.74
  -5   5  -1    7.13    0.73
  -7  -5  -1    1.29    0.39
   7  -5   1    0.89    0.42
   7   5   1   -0.01    0.31
  -7   5  -1    0.88    0.41
  -9  -5  -1    4.83    0.72
  -9   5  -1    2.69    0.63
   9   5   1    2.35    0.84
  -8  -6   1    4.35    0.66
   8  -6  -1    3.44    0.65
  -8   6   1    3.23    0.62
   8   6  -1    3.35    0.67
  -6  -6   1    7.91    0.71
   6  -6  -1    7.81    0.77
  -6   6   1    8.38    0.84
   6   6  -1    7.00    0.86
   4  -6  -1    1.55    0.39
  -4  -6   1    1.25    0.38
   4   6  -1    0.89    0.40
  -4   6   1    1.21    0.43
   2  -6  -1    9.36    0.77
  -2  -6   1    9.17    0.67
  -2   6   1    9.57    0.76
   2   6  -1    8.79    0.79
   0  -6  -1    7.90    0.71
   0   6  -1    7.76    0.74
   0   6   1    8.95    0.78
  -2   6  -1    8.06    0.82
   2   6   1   11.25    0.86
  -4  -6  -1    1.93    0.46
   4  -6   1    2.33    0.49
  -4   6  -1    1.70    0.46
   4   6   1    1.52    0.46
  -6  -6  -1    0.91    0.41
   6  -6   1    1.29    0.46
  -6   6  -1    0.75    0.45
   6   6   1    0.88    0.45
  -5  -7   1    0.46    0.56
  -5   7   1    0.70    0.54
   3  -7  -1    1.88    0.77
  -3  -7   1    2.29    0.49
   3   7  -1    1.85    0.54
  -1  -7  -1    1.18    0.37
   3  -7   1    1.46    0.42
  14   0  -2    3.57    0.64
 -12   0   2   24.37    1.14
  12   0  -2   21.06    1.59
  12   0  -2   24.90    1.24
 -12   0   2   26.72    1.26
  10   0  -2   51.88    2.06
 -10   0   2   53.90    2.00
 -10   0   2   53.27    2.06
  10   0  -2   53.33    2.09
  -8   0   2    7.17    0.45
   8   0  -2    6.31    0.49
  -8   0   2    6.81    0.44
   8   0  -2    7.50    0.48
  -6   0   2    4.21    0.32
   6   0  -2    4.10    0.31
  -6   0   2    4.56    0.30
   6   0  -2    4.72    0.37
   4   0  -2   32.35    1.23
   4   0  -2   34.29    1.20
  -4   0   2   34.51    1.22
  -4   0   2   33.71    1.20
   2   0  -2   62.19    2.17
  -2   0   2   62.38    2.15
  -2   0   2   66.16    2.16
   2   0  -2   64.46    2.16
   0   0   2  399.97   12.85
   0   0  -2  371.60   12.84
   0   0  -2  395.67   12.85
   2   0   2   74.03    2.57
  -2   0  -2   70.39    2.53
  -2   0  -2   75.94    2.57
  -4   0  -2   63.31    2.26
   4   0   2   61.36    2.28
   4   0   2   60.98    2.20
   6   0   2    0.77    0.26
  -6   0  -2    0.75    0.21
   6   0   2    1.11    0.24
  -8   0  -2   16.96    0.91
   8   0   2   16.00    0.98
 -10   0  -2   18.72    1.07
  10   0   2   17.14    1.15
 -12   0  -2    2.86    0.56
  12   0   2    2.52    0.61
  15  -1  -2    1.33    0.60
 -15   1   2    0.90    0.45
 -13  -1   2    9.45    0.72
  13  -1  -2    7.93    0.82
 -13   1   2    8.75    0.77
  13   1  -2    8.99    0.83
 -11  -1   2    3.08    0.42
 -11  -1   2    3.40    0.40
  11  -1  -2    2.95    0.49
 -11   1   2    2.32    0.40
  11   1  -2    3.40    0.46
  11   1  -2    2.77    0.48
 -11   1   2    2.65    0.37
   9  -1  -2    2.61    0.31
   9  -1  -2    2.69    0.39
  -9  -1   2    2.33    0.29
  -9  -1   2    2.43    0.33
  -9   1   2    2.76    0.37
   9   1  -2    2.24    0.34
  -9   1   2    2.74    0.32
   9   1  -2    2.32    0.38
  -7  -1   2   54.74    2.01
  -7  -1   2   55.71    2.06
   7  -1  -2   59.93    2.02
   7  -1  -2   58.86    2.12
   7   1  -2   56.23    2.15
  -7   1   2   57.67    2.06
  -7   1   2   58.20    2.13
   7   1  -2   57.37    2.08
   5  -1  -2  233.53    7.71
  -5  -1   2  219.74    7.67
   5   1  -2  224.51    7.68
  -5   1   2  228.12    7.67
   5   1  -2  238.79    7.76
  -5   1   2  236.90    7.73
   3  -1  -2   69.84    2.42
  -3  -1   2   69.73    2.40
  -3   1   2   74.55    2.46
   3   1  -2   66.09    2.43
   3   1  -2   74.54    2.48
  -3   1   2   69.10    2.43
   1  -1  -2  854.10   27.14
  -1  -1   2  823.44   27.29
   1   1  -2  805.95   27.15
   1   1  -2  805.19   27.19
  -1   1   2  846.51   27.16
  -1   1   2  811.87   27.14
  -1  -1  -2  546.15   18.03
   1  -1   2  515.77   18.03
  -1   1  -2  565.98   18.04
  -1   1  -2  551.47   18.07
   1   1   2  530.86   18.04
   1   1   2  567.11   18.06
   3  -1   2   80.12    2.79
  -3  -1  -2   78.84    2.78
   3   1   2   77.27    2.77
  -3   1  -2   76.91    2.81
  -3   1  -2   80.22    2.81
   3   1   2   82.21    2.85
  -5  -1  -2   27.08    1.14
  -5  -1  -2   26.19    1.07
   5  -1   2   26.75    1.15
   5  -1   2   28.73    1.16
  -5   1  -2   27.28    1.17
   5   1   2   27.56    1.22
  -7  -1  -2   13.19    0.67
  -7  -1  -2   13.05    0.77
   7  -1   2   13.72    0.79
   7  -1   2   14.16    0.83
   7   1   2   13.49    0.85
  -7   1  -2   13.69    0.79
   9  -1   2   35.37    1.67
  -9  -1  -2   34.70    1.60
   9  -1   2   38.86    1.63
  -9   1  -2   37.58    1.69
   9   1   2   35.87    1.76
 -11  -1  -2    1.32    0.38
  11  -1   2    1.24    0.44
  11   1   2    1.78    0.50
 -11   1  -2    0.76    0.38
 -14  -2   2    0.31    0.41
  14  -2  -2    0.61    0.50
  14   2  -2    1.02    0.52
 -14   2   2    1.03    0.43
  12  -2  -2   13.60    0.97
 -12  -2   2   14.11    0.86
  12   2  -2   13.89    1.02
 -12   2   2   15.67    0.99
 -10  -2   2   50.89    1.90
  10  -2  -2   47.79    1.98
 -10   2   2   45.84    2.01
 -10   2   2   48.64    1.89
  10   2  -2   45.95    2.06
  10   2  -2   48.29    1.89
  -8  -2   2   11.96    0.55
   8  -2  -2   11.85    0.71
  -8  -2   2   12.58    0.65
   8   2  -2   12.20    0.64
  -8   2   2   11.85    0.60
   8   2  -2   12.85    0.77
  -8   2   2   12.42    0.73
  -6  -2   2    0.57    0.19
   6  -2  -2    1.06    0.23
   6   2  -2    0.85    0.24
   6   2  -2    0.48    0.17
  -6   2   2    0.75    0.21
  -6   2   2    1.04    0.20
   4  -2  -2  141.69    4.81
   4  -2  -2  150.60    4.94
  -4  -2   2  148.36    4.91
  -4   2   2  144.99    4.93
  -4   2   2  150.89    4.99
   4   2  -2  133.97    4.92
   4   2  -2  145.91    5.02
   2  -2  -2    5.28    0.31
  -2  -2   2    5.26    0.29
  -2   2   2    5.35    0.36
   2   2  -2    4.52    0.27
  -2   2   2    5.82    0.30
   2   2  -2    5.11    0.38
  -2   2   2    5.92    0.39
   2   2  -2    5.06    0.38
   0  -2  -2  111.51    3.72
   0  -2   2  111.31    3.71
   0   2  -2  102.79    3.69
   0   2   2  110.08    3.72
   0   2  -2  105.54    3.75
   0   2   2  105.77    3.73
  -2  -2  -2   98.33    3.34
   2  -2   2   93.55    3.33
   2   2   2   97.27    3.41
  -2   2  -2   95.19    3.36
  -2   2  -2   94.37    3.40
   2   2   2   96.07    3.37
  -4  -2  -2    3.33    0.36
   4  -2   2    2.74    0.32
  -4  -2  -2    3.75    0.36
  -4   2  -2    2.42    0.33
  -4   2  -2    3.09    0.37
   4   2   2    3.08    0.40
   6  -2   2   12.52    0.73
  -6  -2  -2   12.62    0.71
   6  -2   2   12.30    0.76
  -6  -2  -2   12.20    0.67
   6   2   2   11.62    0.79
  -6   2  -2   12.06    0.75
   8  -2   2    0.11    0.30
  -8  -2  -2    0.48    0.26
  -8  -2  -2    0.15    0.22
   8  -2   2   -0.05    0.31
   8   2   2    0.63    0.33
  -8   2  -2    0.33    0.27
  10  -2   2    1.33    0.47
 -10  -2  -2    1.86    0.41
  10   2   2    2.24    0.51
 -10   2  -2    1.64    0.44
  13  -3  -2    0.35    0.46
 -13  -3   2    0.08    0.35
 -13   3   2    0.35    0.39
  13   3  -2    0.91    0.50
 -11  -3   2   30.48    1.36
  11  -3  -2   27.57    1.44
 -11   3   2   29.67    1.52
  11   3  -2   29.12    1.58
  -9  -3   2   68.28    2.51
   9  -3  -2   62.77    2.55
  -9   3   2   69.12    2.65
   9   3  -2   63.83    2.69
  -7  -3   2    7.86    0.53
   7  -3  -2    7.71    0.59
  -7   3   2    8.13    0.51
   7   3  -2    8.77    0.53
   7   3  -2    8.78    0.65
  -7   3   2    8.91    0.63
   5  -3  -2   44.82    1.54
  -5  -3   2   43.40    1.54
  -5  -3   2   44.56    1.66
   5  -3  -2   44.59    1.70
  -5   3   2   43.11    1.67
  -5   3   2   46.00    1.76
   5   3  -2   40.50    1.78
   5   3  -2   41.40    1.66
   3  -3  -2  116.91    3.92
  -3  -3   2  114.95    3.90
  -3   3   2  119.12    4.02
   3   3  -2  106.11    4.02
  -3   3   2  111.19    3.88
   3   3  -2  112.26    3.97
  -3   3   2  112.27    3.96
  -1  -3   2    7.72    0.39
   1  -3  -2    7.69    0.49
   1   3  -2    6.98    0.49
  -1   3   2    7.38    0.48
  -1   3   2    6.69    0.44
   1   3  -2    6.44    0.41
   1   3  -2    7.24    0.50
   1  -3   2    6.74    0.44
  -1  -3  -2    6.43    0.44
   1   3   2    6.43    0.47
  -1   3  -2    5.89    0.48
  -1   3  -2    6.95    0.46
   1   3   2    6.53    0.47
   3  -3   2   26.13    1.14
  -3  -3  -2   26.53    1.14
  -3   3  -2   26.96    1.21
  -3   3  -2   29.26    1.28
   3   3   2   27.68    1.21
   3   3   2   27.31    1.25
   5  -3   2   21.08    1.08
  -5  -3  -2   19.12    0.98
  -5  -3  -2   21.37    0.99
   5  -3   2   20.85    0.98
   5   3   2   18.63    1.09
  -5   3  -2   21.60    1.09
  -7  -3  -2    4.94    0.52
   7  -3   2    4.59    0.58
  -7  -3  -2    5.03    0.55
   7  -3   2    4.27    0.53
   7   3   2    3.78    0.59
  -7   3  -2    3.27    0.52
  -9  -3  -2    0.13    0.29
   9  -3   2    0.59    0.42
   9   3   2   -0.02    0.33
  -9   3  -2    0.47    0.36
  11  -3   2   -0.73    0.44
 -12  -4   2    0.15    0.35
  12  -4  -2   -0.49    0.40
 -12   4   2   -0.17    0.35
  12   4  -2    0.00    0.41
 -10  -4   2    6.77    0.64
  10  -4  -2    6.08    0.69
 -10   4   2    7.87    0.76
  10   4  -2    6.04    0.74
  -8  -4   2    2.51    0.40
   8  -4  -2    1.43    0.39
   8   4  -2    1.99    0.45
  -8   4   2    1.79    0.42
  -6  -4   2   19.52    0.96
   6  -4  -2   19.08    1.01
  -6   4   2   20.66    1.08
   6   4  -2   18.21    1.09
   6   4  -2   24.11    1.12
  -6   4   2   19.67    0.96
   4  -4  -2    3.71    0.41
  -4  -4   2    3.69    0.40
   4   4  -2    3.73    0.43
  -4   4   2    3.73    0.43
  -4   4   2    4.33    0.51
   4   4  -2    3.83    0.51
  -2  -4   2   19.30    0.85
   2  -4  -2   18.58    0.96
   2  -4  -2   19.02    0.86
  -2   4   2   19.90    0.95
   2   4  -2   19.33    0.96
  -2   4   2   20.33    0.91
   2   4  -2   19.88    1.01
   2   4  -2   17.63    0.87
   0  -4   2   41.43    1.50
   0  -4   2   39.51    1.60
   0  -4  -2   40.94    1.63
   0   4  -2   42.08    1.69
   0   4  -2   34.13    1.57
   0   4   2   41.48    1.67
   0   4   2   38.70    1.63
  -2  -4  -2    4.40    0.44
   2  -4   2    4.35    0.43
   2   4   2    4.64    0.53
  -2   4  -2    3.20    0.42
   2   4   2    2.63    0.40
  -2   4  -2    4.80    0.57
   4  -4   2    2.05    0.35
  -4  -4  -2    2.66    0.42
  -4   4  -2    1.70    0.36
  -4   4  -2    1.89    0.41
   4   4   2    1.65    0.36
  -6  -4  -2    0.52    0.30
   6  -4   2    0.66    0.37
  -6  -4  -2    0.27    0.28
   6   4   2    0.22    0.29
  -6   4  -2    0.54    0.30
   8  -4   2    3.02    0.57
  -8  -4  -2    1.78    0.43
  -8   4  -2    1.25    0.45
   8   4   2    1.37    0.47
 -10  -4  -2    0.38    0.39
  11  -5  -2    1.22    0.49
 -11  -5   2    2.82    0.57
 -11   5   2    2.84    0.62
  11   5  -2    2.33    0.62
   9  -5  -2    5.21    0.68
  -9  -5   2    6.38    0.70
   9   5  -2    4.14    0.66
  -9   5   2    4.77    0.65
   7  -5  -2   10.41    0.80
  -7  -5   2   11.35    0.75
  -7   5   2   10.79    0.86
   7   5  -2   10.51    0.88
  -5  -5   2    2.44    0.41
   5  -5  -2    2.08    0.39
  -5   5   2    1.38    0.35
   5   5  -2    1.24    0.38
  -5   5   2    0.89    0.35
   3  -5  -2   14.40    0.82
  -3  -5   2   15.80    0.81
   3   5  -2   15.52    0.89
   3   5  -2   14.67    0.94
  -3   5   2   15.64    0.91
  -3   5   2   15.25    0.96
   1  -5  -2   57.61    2.29
  -1  -5   2   54.97    2.12
   1   5  -2   55.64    2.33
   1   5  -2   58.47    2.30
  -1   5   2   57.81    2.29
  -1   5   2   56.30    2.26
  -1  -5  -2    2.40    0.40
   1  -5   2    1.81    0.36
  -1   5  -2    2.07    0.49
   1   5   2    2.15    0.41
   1   5   2    2.03    0.44
  -1   5  -2    1.42    0.34
   3  -5   2    5.39    0.53
  -3  -5  -2    5.66    0.59
  -3   5  -2    4.87    0.65
   3   5   2    5.92    0.69
   3   5   2    4.06    0.56
  -3   5  -2    3.76    0.54
  -5  -5  -2    2.85    0.53
   5  -5   2    2.55    0.52
   5   5   2    1.59    0.44
  -5   5  -2    2.24    0.50
  -7  -5  -2    1.27    0.43
   7  -5   2    1.71    0.48
  -7   5  -2    0.91    0.43
   7   5   2    0.65    0.40
  -8  -6   2    7.32    0.75
   8  -6  -2    5.07    0.71
  -8   6   2    5.14    0.72
   8   6  -2    3.27    0.67
  -6  -6   2    1.74    0.43
   6  -6  -2    1.33    0.44
  -6   6   2    1.36    0.44
   6   6  -2    0.39    0.37
  -4  -6   2    0.78    0.32
  -4   6   2    0.04    0.37
   4   6  -2    0.47    0.33
  -4   6   2    0.44    0.39
   2  -6  -2    1.15    0.41
  -2   6   2    1.52    0.45
   2   6  -2    1.91    0.48
   0  -6  -2   10.99    0.81
   0  -6   2   10.63    0.78
   0   6  -2    9.06    0.89
   0   6   2   10.01    0.86
  -2   6  -2    0.24    0.38
   2   6   2    1.10    0.38
   2   6   2    0.76    0.41
  -4  -6  -2    0.69    0.39
   4  -6   2    0.27    0.36
   4   6   2    0.62    0.39
  -4   6  -2    0.70    0.42
  -6   6  -2    0.06    0.44
  -5  -7   2    0.05    0.36
   5   7  -2    0.14    0.47
   3  -7  -2    0.50    0.47
   3   7  -2    1.08    0.50
  -1   7   2    0.10    0.45
  14   0  -3    0.15    0.43
 -14   0   3    0.33    0.29
  12   0  -3    0.61    0.36
 -12   0   3    0.03    0.26
 -12   0   3    0.17    0.23
 -10   0   3   56.57    2.17
 -10   0   3   57.40    2.19
  10   0  -3   60.78    2.24
  10   0  -3   58.03    2.21
   8   0  -3   84.50    3.03
  -8   0   3   84.76    3.00
  -8   0   3   87.57    3.00
   8   0  -3   83.98    3.00
   6   0  -3   26.95    1.07
  -6   0   3   26.70    1.05
  -6   0   3   27.11    1.02
  -4   0   3    0.79    0.15
   4   0  -3    0.70    0.14
  -4   0   3    0.59    0.11
   4   0  -3    0.41    0.15
  -2   0   3    1.92    0.18
  -2   0   3    1.84    0.17
   2   0  -3    1.82    0.20
   2   0  -3    1.87    0.20
   0   0  -3    0.05    0.12
   0   0   3    0.08    0.10
   2   0   3   42.99    1.61
  -2   0  -3   40.59    1.56
  -2   0  -3   44.10    1.60
   4   0   3   69.06    2.50
   4   0   3   65.27    2.38
  -4   0  -3   66.10    2.45
   6   0   3    0.78    0.29
  -6   0  -3    1.24    0.28
  -8   0  -3   43.67    1.85
   8   0   3   42.11    1.92
 -10   0  -3    0.55    0.31
  10   0   3    0.54    0.44
 -15  -1   3    1.11    0.41
  15  -1  -3    1.17    0.57
  13  -1  -3    7.51    0.79
 -13  -1   3    8.01    0.69
  13   1  -3    7.31    0.72
 -13   1   3    8.00    0.71
  13   1  -3    6.88    0.78
 -13   1   3    8.66    0.62
 -11  -1   3    7.68    0.58
  11  -1  -3    6.31    0.66
 -11   1   3    8.26    0.62
 -11   1   3    7.18    0.55
  11   1  -3    6.51    0.62
  11   1  -3    7.44    0.63
   9  -1  -3    7.90    0.45
  -9  -1   3    7.70    0.51
   9  -1  -3    7.63    0.58
  -9  -1   3    7.98    0.45
  -9   1   3    8.42    0.50
   9   1  -3    7.93    0.54
   9   1  -3    8.60    0.58
  -9   1   3    8.39    0.55
  -7  -1   3   84.05    2.90
  -7  -1   3   86.36    2.98
   7  -1  -3   85.95    3.02
   7   1  -3   82.89    3.00
   7   1  -3   87.10    3.06
  -7   1   3   86.19    3.03
  -7   1   3   84.77    2.97
   5  -1  -3  170.66    5.88
  -5  -1   3  178.24    5.86
  -5   1   3  170.56    5.88
  -5   1   3  181.57    5.92
   5   1  -3  170.06    5.89
   5   1  -3  178.16    5.94
  -3  -1   3   98.94    3.30
   3  -1  -3  100.71    3.32
  -3  -1   3   95.94    3.24
   3  -1  -3   94.53    3.26
  -3   1   3   95.16    3.30
   3   1  -3   98.76    3.21
   3   1  -3   94.77    3.31
  -3   1   3   90.44    3.22
   1  -1  -3  982.01   32.14
  -1  -1   3  988.66   32.32
   1   1  -3 1000.00   32.15
  -1   1   3  950.12   32.14
  -1   1   3  978.69   32.26
   1   1  -3  958.04   32.17
   1  -1   3   30.08    1.16
  -1  -1  -3   30.81    1.17
   1   1   3   27.88    1.15
  -1   1  -3   30.65    1.17
  -1   1  -3   28.68    1.20
   1   1   3   30.25    1.18
  -3  -1  -3   57.03    2.09
   3  -1   3   57.69    2.10
  -3   1  -3   57.16    2.11
   3   1   3   54.78    2.14
   3   1   3   55.31    2.05
  -3   1  -3   56.85    2.12
  -5  -1  -3   22.12    0.93
   5  -1   3   22.98    1.05
  -5  -1  -3   21.35    1.01
   5  -1   3   22.77    1.03
   5   1   3   21.15    1.08
  -5   1  -3   21.50    1.03
  -7  -1  -3   10.73    0.72
   7  -1   3    9.55    0.75
   7  -1   3   10.40    0.72
   7   1   3   10.73    0.82
  -7   1  -3   10.96    0.73
   9  -1   3   11.57    0.91
  -9  -1  -3   11.04    0.81
  -9   1  -3   10.45    0.83
   9   1   3   10.56    0.90
 -11  -1  -3    2.25    0.50
  11  -1   3    3.23    0.66
 -11   1  -3    1.84    0.58
  11   1   3    3.53    0.72
 -16  -2   3    2.79    0.61
 -16   2   3    2.92    0.67
 -14  -2   3    2.59    0.51
  14  -2  -3    2.48    0.57
  14   2  -3    2.39    0.59
 -14   2   3    1.75    0.50
 -12  -2   3    1.11    0.36
  12  -2  -3    0.82    0.40
  12   2  -3    0.71    0.36
 -12   2   3    1.01    0.37
  12   2  -3    1.02    0.41
 -10  -2   3   18.32    0.92
  10  -2  -3   18.20    1.01
  10   2  -3   19.81    0.94
 -10   2   3   16.76    0.97
  10   2  -3   17.59    1.03
 -10   2   3   18.64    0.89
   8  -2  -3   15.16    0.81
  -8  -2   3   15.72    0.75
   8   2  -3   14.87    0.74
  -8   2   3   15.50    0.81
   8   2  -3   14.66    0.85
  -8   2   3   15.19    0.72
  -6  -2   3    5.77    0.39
   6  -2  -3    5.54    0.44
  -6   2   3    5.62    0.42
   6   2  -3    5.73    0.45
  -6   2   3    4.64    0.37
   6   2  -3    4.87    0.40
  -4  -2   3   83.06    2.88
   4  -2  -3   83.48    2.91
  -4   2   3   86.90    2.82
   4   2  -3   79.24    2.95
   4   2  -3   83.28    3.01
  -4   2   3   85.96    2.99
  -4   2   3   83.92    2.95
   2  -2  -3   11.32    0.60
  -2  -2   3   10.93    0.47
  -2  -2   3   11.93    0.58
  -2   2   3   11.45    0.59
   2   2  -3   10.82    0.49
  -2   2   3   11.56    0.52
   2   2  -3   12.05    0.63
   0  -2  -3   89.19    3.07
   0  -2   3   88.31    3.06
   0   2   3   85.71    3.06
   0   2  -3   87.06    3.12
   0   2   3   84.41    3.08
   0   2  -3   86.77    3.04
   2  -2   3   11.90    0.62
  -2  -2  -3   12.06    0.64
   2   2   3   12.23    0.68
   2   2   3   11.60    0.64
  -2   2  -3   11.82    0.68
  -2   2  -3   13.13    0.66
  -4  -2  -3    5.62    0.48
   4  -2   3    4.56    0.44
  -4   2  -3    5.88    0.50
  -4   2  -3    4.59    0.45
   4   2   3    5.29    0.50
   6  -2   3   44.23    1.82
  -6  -2  -3   40.55    1.75
   6  -2   3   44.46    1.80
  -6  -2  -3   43.17    1.69
  -6   2  -3   42.74    1.84
   6   2   3   40.15    1.87
   8  -2   3    0.27    0.35
  -8  -2  -3    0.31    0.27
   8  -2   3    0.12    0.32
   8   2   3    0.39    0.33
  -8   2  -3    0.63    0.31
 -10  -2  -3    3.25    0.55
 -10   2  -3    1.93    0.49
  10   2   3    1.61    0.54
 -15  -3   3    0.82    0.65
 -15   3   3    0.62    0.46
  15   3  -3    1.05    0.58
 -13  -3   3    1.13    0.42
  13  -3  -3    1.05    0.50
  13   3  -3    1.12    0.49
 -13   3   3    1.73    0.48
 -11  -3   3   56.46    2.21
  11  -3  -3   54.99    2.30
  11   3  -3   52.92    2.42
 -11   3   3   57.06    2.37
   9  -3  -3   76.39    2.90
  -9  -3   3   75.85    2.82
  -9   3   3   78.46    2.81
   9   3  -3   75.49    2.81
  -9   3   3   77.34    2.96
   9   3  -3   73.41    3.02
  -7  -3   3    0.35    0.21
   7  -3  -3    0.28    0.24
   7   3  -3    0.41    0.20
  -7   3   3    0.56    0.23
   7   3  -3    0.31    0.23
  -7   3   3    0.59    0.23
  -5  -3   3    6.05    0.41
   5  -3  -3    6.58    0.46
   5   3  -3    5.11    0.44
  -5   3   3    6.54    0.50
  -5   3   3    5.77    0.44
   5   3  -3    6.08    0.50
   3  -3  -3   92.30    3.19
   3  -3  -3   88.49    3.31
  -3  -3   3   94.33    3.18
  -3   3   3   90.26    3.29
  -3   3   3   95.51    3.21
   3   3  -3   90.06    3.36
   3   3  -3   92.92    3.32
  -1  -3   3    9.31    0.55
   1  -3  -3    8.53    0.56
   1   3  -3    9.28    0.60
  -1   3   3    9.78    0.58
   1   3  -3    8.59    0.49
  -1   3   3    9.67    0.53
   1  -3   3   33.10    1.34
  -1  -3  -3   33.57    1.35
  -1   3  -3   32.11    1.35
  -1   3  -3   32.90    1.42
   1   3   3   33.54    1.40
   1   3   3   30.73    1.38
  -3  -3  -3    7.09    0.53
   3  -3   3    6.62    0.51
  -3   3  -3    6.67    0.56
   3   3   3    6.81    0.58
  -3   3  -3    7.03    0.62
   3   3   3    6.98    0.57
  -5  -3  -3   17.87    0.90
   5  -3   3   17.02    0.91
  -5  -3  -3   16.67    0.91
   5  -3   3   16.91    1.00
   5   3   3   15.47    1.00
  -5   3  -3   16.61    0.99
   7  -3   3    4.05    0.58
  -7  -3  -3    5.63    0.57
   7  -3   3    4.36    0.58
  -7  -3  -3    4.88    0.58
   7   3   3    2.91    0.53
  -7   3  -3    3.47    0.56
   9  -3   3    1.43    0.52
  -9  -3  -3    2.85    0.51
  -9   3  -3    1.72    0.50
   9   3   3    1.31    0.48
  14   4  -3    0.78    0.67
 -12  -4   3    0.04    0.33
  12  -4  -3    0.18    0.41
 -12   4   3    0.30    0.39
  12   4  -3    0.65    0.46
 -10  -4   3    0.60    0.31
  10  -4  -3    0.28    0.34
  10   4  -3    0.90    0.42
 -10   4   3    0.43    0.34
  -8  -4   3    1.35    0.34
   8  -4  -3    1.17    0.35
  -8   4   3    1.43    0.35
  -8   4   3    1.45    0.34
   8   4  -3    0.70    0.35
   6  -4  -3   11.03    0.71
  -6  -4   3   10.09    0.63
  -6   4   3   11.35    0.68
  -6   4   3   11.23    0.76
   6   4  -3   10.53    0.78
   6   4  -3   10.14    0.68
   4  -4  -3    4.66    0.45
  -4  -4   3    5.12    0.42
   4   4  -3    4.99    0.49
  -4   4   3    6.19    0.54
  -4   4   3    4.75    0.46
   4   4  -3    5.92    0.63
  -2  -4   3  102.77    3.72
   2  -4  -3   99.96    3.74
  -2  -4   3  101.98    3.57
   2   4  -3  100.88    3.75
  -2   4   3  105.85    3.69
  -2   4   3  106.26    3.74
   0  -4   3    3.16    0.41
   0  -4  -3    2.93    0.42
   0   4   3    2.87    0.40
   0   4  -3    1.97    0.32
   0   4   3    2.75    0.44
   0   4  -3    2.62    0.43
  -2  -4  -3   13.94    0.79
   2  -4   3   13.79    0.78
   2   4   3   11.86    0.83
   2   4   3   12.95    0.85
  -2   4  -3   14.41    0.94
  -2   4  -3   13.97    0.83
   4  -4   3    6.23    0.56
  -4  -4  -3    5.84    0.55
  -4   4  -3    6.53    0.65
   4   4   3    4.58    0.58
  -4   4  -3    5.29    0.66
   6  -4   3    1.23    0.44
  -6  -4  -3    1.32    0.36
  -6  -4  -3    0.91    0.37
  -6   4  -3    0.97    0.39
   6   4   3    1.40    0.41
  -8  -4  -3    0.60    0.39
   8  -4   3    1.75    0.52
  -8   4  -3    0.06    0.39
   8   4   3    0.68    0.39
 -11  -5   3    1.03    0.40
  11  -5  -3    0.08    0.41
 -11   5   3    0.56    0.39
  11   5  -3    0.46    0.44
   9  -5  -3    2.64    0.51
  -9  -5   3    3.82    0.56
   9   5  -3    2.39    0.53
  -9   5   3    2.29    0.50
   7  -5  -3    1.89    0.43
  -7  -5   3    3.48    0.49
  -7   5   3    1.86    0.45
  -7   5   3    2.44    0.43
   7   5  -3    2.04    0.47
  -5  -5   3    7.76    0.60
   5  -5  -3    8.02    0.65
  -5   5   3    9.91    0.77
  -5   5   3    8.56    0.67
   5   5  -3    7.72    0.74
   5   5  -3    7.71    0.64
  -3  -5   3    7.54    0.54
   3  -5  -3    6.92    0.65
  -3   5   3    9.38    0.71
   3   5  -3    7.32    0.70
   3   5  -3    7.70    0.68
  -1  -5   3   11.85    0.77
   1  -5  -3   11.88    0.80
  -1   5   3   10.59    0.81
   1   5  -3   12.65    0.85
  -1  -5  -3    0.53    0.29
   1  -5   3    0.26    0.25
  -1   5  -3   -0.01    0.22
   1   5   3    0.42    0.26
   1   5   3    0.67    0.34
  -1   5  -3    0.00    0.32
  -3  -5  -3   17.85    0.98
   3  -5   3   17.25    0.96
   3   5   3   14.56    1.03
  -3   5  -3   17.33    1.08
  -5  -5  -3    0.64    0.38
   5  -5   3    0.25    0.40
  -5   5  -3    0.54    0.40
   5   5   3    0.26    0.34
  -7  -5  -3    0.80    0.51
  -7   5  -3   -0.02    0.42
  10  -6  -3    0.08    0.46
   8  -6  -3   -0.45    0.34
  -8  -6   3    0.09    0.34
   8   6  -3    0.55    0.41
  -8   6   3    0.49    0.42
  -6  -6   3    1.41    0.37
  -6   6   3    1.15    0.47
   6   6  -3    0.80    0.41
  -4  -6   3    5.76    0.61
   4  -6  -3    5.09    0.69
   4   6  -3    4.32    0.65
  -4   6   3    3.81    0.60
   2  -6  -3    2.56    0.52
  -2  -6   3    1.74    0.43
   2   6  -3    1.75    0.46
  -2   6   3    1.43    0.45
   0  -6  -3    7.74    0.73
   0  -6   3    7.57    0.69
   0   6  -3    7.63    0.91
   0   6   3    7.89    0.84
   2   6   3    0.65    0.43
   2   6   3    0.58    0.36
  -2   6  -3    0.70    0.43
   4  -6   3    1.00    0.49
  -4  -6  -3    0.82    0.58
  -4   6  -3    0.07    0.44
   4   6   3    0.12    0.36
   5  -7  -3    1.64    0.56
   3  -7  -3    0.49    0.44
  -3  -7   3    0.52    0.38
  -3   7   3    0.26    0.45
  -1  -7   3    1.63    0.50
  -1   7   3    2.25    0.72
  16   0  -4    1.45    0.56
  14   0  -4   13.68    0.97
 -14   0   4   12.11    0.81
 -12   0   4   20.56    1.00
 -12   0   4   19.25    0.99
  12   0  -4   18.88    1.06
 -10   0   4   49.42    1.87
  10   0  -4   49.37    1.92
  10   0  -4   48.85    1.87
 -10   0   4   47.46    1.85
  -8   0   4   14.02    0.65
   8   0  -4   14.22    0.73
  -8   0   4   15.47    0.69
   8   0  -4   14.11    0.66
   6   0  -4   12.23    0.62
  -6   0   4   12.97    0.60
  -4   0   4    1.11    0.17
  -4   0   4    1.27    0.16
   4   0  -4    1.40    0.18
   4   0  -4    1.10    0.19
  -2   0   4  122.79    4.08
   2   0  -4  117.95    4.09
  -2   0   4  118.57    4.06
   2   0  -4  121.04    4.08
   0   0  -4   51.20    1.92
   0   0  -4   52.96    1.94
   0   0   4   56.34    1.96
  -2   0  -4   46.48    1.82
   2   0   4   49.26    1.85
  -2   0  -4   49.43    1.80
  -4   0  -4    1.54    0.28
   4   0   4    1.98    0.34
   4   0   4    1.51    0.39
   6   0   4    0.64    0.30
  -6   0  -4    0.51    0.25
  -8   0  -4   64.07    2.58
   8   0   4   61.94    2.65
 -10   0  -4    7.62    0.95
  10   0   4    6.74    0.91
 -17  -1   4   -0.01    0.45
  15  -1  -4    3.71    0.68
 -15  -1   4    3.33    0.56
  15   1  -4    4.23    0.61
  13  -1  -4    0.49    0.41
 -13  -1   4    0.92    0.35
  13   1  -4    1.14    0.43
  13   1  -4    1.14    0.38
 -13   1   4    0.56    0.30
 -13   1   4    0.60    0.28
 -11  -1   4    1.71    0.35
  11  -1  -4    1.99    0.42
  11   1  -4    1.74    0.35
  11   1  -4    1.70    0.36
 -11   1   4    1.98    0.33
 -11   1   4    1.97    0.35
  -9  -1   4    7.60    0.41
  -9  -1   4    8.12    0.51
   9  -1  -4    7.93    0.58
   9   1  -4    7.65    0.55
  -9   1   4    7.79    0.50
   9   1  -4    8.58    0.57
  -9   1   4    8.01    0.52
   7  -1  -4   85.74    3.09
  -7  -1   4   88.51    3.07
  -7   1   4   89.39    3.10
  -7   1   4   88.73    3.08
   7   1  -4   89.54    3.13
   7   1  -4   84.13    3.09
  -5  -1   4   37.32    1.31
   5  -1  -4   34.95    1.36
   5  -1  -4   35.42    1.33
   5   1  -4   37.67    1.39
   5   1  -4   35.00    1.36
  -5   1   4   34.37    1.33
  -5   1   4   32.92    1.22
  -3  -1   4   39.39    1.41
   3  -1  -4   38.80    1.43
  -3  -1   4   36.86    1.34
  -3   1   4   38.05    1.41
   3   1  -4   37.55    1.34
   3   1  -4   37.23    1.44
  -3   1   4   35.84    1.35
   1  -1  -4    1.64    0.24
  -1  -1   4    2.04    0.25
   1   1  -4    1.82    0.27
   1   1  -4    1.80    0.24
  -1   1   4    1.65    0.23
  -1   1   4    2.03    0.26
   1  -1   4   16.63    0.77
  -1  -1  -4   16.59    0.77
  -1   1  -4   15.63    0.79
   1   1   4   16.30    0.79
   1   1   4   16.32    0.75
  -1   1  -4   16.68    0.77
  -3  -1  -4   10.35    0.61
   3  -1   4    9.85    0.60
   3   1   4    8.75    0.61
  -3   1  -4    9.87    0.61
   3   1   4    9.85    0.54
  -3   1  -4    9.72    0.60
  -5  -1  -4    5.63    0.59
   5  -1   4    5.71    0.56
   5  -1   4    6.61    0.58
   5   1   4    5.32    0.59
  -5   1  -4    4.90    0.50
   7  -1   4    0.46    0.35
  -7  -1  -4    0.94    0.33
  -7   1  -4    0.95    0.33
   7   1   4    0.90    0.36
   9  -1   4    3.96    0.67
  -9  -1  -4    6.16    0.74
  -9   1  -4    5.27    0.67
   9   1   4    4.16    0.69
 -16  -2   4    1.47    0.54
  16  -2  -4    1.57    0.67
 -16   2   4    1.36    0.47
 -14  -2   4    0.28    0.35
  14  -2  -4    0.46    0.47
 -14   2   4    0.31    0.33
  14   2  -4    0.98    0.47
  12  -2  -4    0.67    0.41
 -12  -2   4    0.65    0.31
  12   2  -4    1.52    0.37
 -12   2   4    1.93    0.44
  12   2  -4    1.29    0.42
 -12   2   4    1.09    0.32
  10  -2  -4   72.34    2.76
 -10  -2   4   72.54    2.68
  10   2  -4   70.83    2.69
  10   2  -4   70.40    2.83
 -10   2   4   74.65    2.78
 -10   2   4   72.98    2.67
   8  -2  -4    8.60    0.59
  -8  -2   4    8.12    0.51
   8   2  -4    7.64    0.53
   8   2  -4    8.10    0.60
  -8   2   4    8.51    0.52
  -8   2   4    8.38    0.57
   6  -2  -4   43.82    1.64
  -6  -2   4   43.85    1.61
   6   2  -4   40.34    1.65
  -6   2   4   43.83    1.66
  -6   2   4   45.00    1.71
   6   2  -4   43.62    1.73
   4  -2  -4   71.66    2.69
   4  -2  -4   72.75    2.59
  -4  -2   4   77.18    2.68
  -4  -2   4   74.14    2.57
   4   2  -4   72.28    2.69
  -4   2   4   75.98    2.56
  -4   2   4   77.21    2.68
  -2  -2   4   23.12    0.97
   2  -2  -4   21.42    0.98
  -2   2   4   22.17    0.99
  -2   2   4   24.34    0.94
   2   2  -4   23.43    1.03
   2   2  -4   21.69    0.89
   0  -2   4  158.79    5.30
   0  -2  -4  152.45    5.30
   0   2  -4  151.70    5.35
   0   2   4  150.66    5.31
   0   2  -4  153.69    5.28
   0   2   4  155.84    5.32
   2  -2   4    2.89    0.35
  -2  -2  -4    3.30    0.39
  -2   2  -4    3.23    0.42
   2   2   4    2.97    0.37
   2   2   4    2.46    0.37
  -2   2  -4    3.06    0.37
   4  -2   4   32.69    1.42
  -4  -2  -4   33.56    1.41
   4   2   4   30.67    1.48
  -4   2  -4   31.84    1.45
  -4   2  -4   31.79    1.43
  -6  -2  -4    4.41    0.55
   6  -2   4    4.38    0.56
   6  -2   4    6.20    0.65
   6   2   4    3.54    0.53
  -6   2  -4    4.16    0.56
  -8  -2  -4    0.25    0.29
   8  -2   4    0.28    0.38
  -8   2  -4    0.10    0.32
   8   2   4   -0.10    0.31
 -15  -3   4    1.19    0.52
  15  -3  -4    1.29    0.58
 -15   3   4    1.28    0.53
  15   3  -4    2.00    0.66
  13  -3  -4    2.25    0.57
 -13  -3   4    1.66    0.45
  13   3  -4    1.59    0.52
 -13   3   4    1.76    0.48
 -11  -3   4    9.48    0.71
  11  -3  -4   10.31    0.84
 -11   3   4   10.95    0.70
 -11   3   4    9.83    0.80
  11   3  -4    9.94    0.71
  11   3  -4    9.16    0.87
   9  -3  -4   36.87    1.64
  -9  -3   4   38.72    1.57
  -9   3   4   37.42    1.67
   9   3  -4   38.51    1.60
  -9   3   4   40.02    1.59
   9   3  -4   36.85    1.73
  -7  -3   4    6.98    0.49
   7  -3  -4    7.14    0.55
  -7   3   4    6.60    0.55
  -7   3   4    6.97    0.51
   7   3  -4    6.17    0.52
   7   3  -4    6.34    0.57
  -5  -3   4   36.48    1.39
   5  -3  -4   37.21    1.42
  -5   3   4   34.54    1.47
  -5   3   4   37.95    1.54
   5   3  -4   34.79    1.56
   5   3  -4   36.18    1.50
  -3  -3   4    2.76    0.35
  -3  -3   4    2.46    0.24
   3  -3  -4    1.91    0.31
   3   3  -4    1.72    0.21
   3   3  -4    2.90    0.39
  -3   3   4    2.30    0.34
  -3   3   4    2.39    0.27
  -1  -3   4   11.70    0.64
   1  -3  -4   10.46    0.65
   1   3  -4   10.45    0.59
  -1   3   4   11.08    0.63
   1   3  -4   11.68    0.71
  -1   3   4   10.92    0.66
   1  -3   4    0.22    0.20
  -1  -3  -4   -0.26    0.20
  -1   3  -4   -0.03    0.21
   1   3   4    0.34    0.23
   1   3   4    0.40    0.22
  -1   3  -4    0.15    0.17
   3  -3   4    5.94    0.53
  -3  -3  -4    5.27    0.54
   3   3   4    5.87    0.55
  -3   3  -4    5.80    0.65
  -3   3  -4    6.57    0.57
   3   3   4    5.43    0.62
  -5  -3  -4   20.44    1.07
   5  -3   4   19.54    1.06
  -5  -3  -4   19.77    1.02
  -5   3  -4   19.57    1.13
   5   3   4   17.78    1.14
  -7  -3  -4    2.08    0.46
   7  -3   4    2.96    0.56
  -7  -3  -4    3.85    0.81
   7  -3   4    2.32    0.53
  -7   3  -4    2.19    0.48
   7   3   4    0.97    0.41
  -9  -3  -4    1.42    0.45
   9  -3   4    1.59    0.58
  14  -4  -4    0.87    0.83
 -14   4   4    0.45    0.43
  14   4  -4    0.75    0.56
 -12  -4   4    5.33    0.64
  12  -4  -4    4.22    0.66
 -12   4   4    4.37    0.62
  12   4  -4    4.73    0.76
  10  -4  -4    5.56    0.64
 -10  -4   4    6.84    0.62
 -10   4   4    7.85    0.73
  10   4  -4    6.17    0.76
 -10   4   4    7.60    0.61
   8  -4  -4   19.95    1.09
  -8  -4   4   20.49    1.01
   8   4  -4   21.93    1.08
  -8   4   4   21.31    1.05
  -8   4   4   19.37    1.12
   8   4  -4   18.48    1.16
   6  -4  -4    3.09    0.42
  -6  -4   4    3.87    0.45
   6   4  -4    3.71    0.53
  -6   4   4    3.81    0.53
  -6   4   4    3.16    0.45
   6   4  -4    4.06    0.51
   4  -4  -4   19.48    1.05
  -4  -4   4   21.23    0.92
  -4   4   4   21.56    1.04
   4   4  -4   18.91    1.09
   4   4  -4   21.27    1.07
   2  -4  -4   41.08    1.78
  -2  -4   4   41.93    1.76
  -2   4   4   41.81    1.72
  -2   4   4   43.77    1.80
   2   4  -4   45.79    1.85
   0  -4   4   20.70    1.03
   0  -4  -4   22.04    1.06
   0   4  -4   21.84    1.17
   0   4   4   20.87    1.11
   0   4  -4   19.52    1.01
   0   4   4   18.62    1.03
  -2  -4  -4    7.85    0.62
   2  -4   4    7.20    0.59
   2   4   4    7.55    0.67
   2   4   4    8.81    0.72
  -2   4  -4    7.80    0.77
  -2   4  -4    7.25    0.65
  -4  -4  -4    1.48    0.43
   4  -4   4    1.91    0.39
   4   4   4    1.71    0.44
  -4   4  -4    2.08    0.51
  -4   4  -4    1.31    0.41
   6  -4   4    2.11    0.53
  -6  -4  -4    2.25    0.48
   6  -4   4    4.72    0.70
  -6  -4  -4    3.10    0.55
  -6   4  -4    2.18    0.52
   6   4   4    1.78    0.49
 -11  -5   4    3.09    0.55
  11  -5  -4    3.03    0.59
  11   5  -4    3.00    0.65
 -11   5   4    2.96    0.55
   9  -5  -4    2.35    0.51
  -9  -5   4    2.84    0.48
  -9   5   4    2.17    0.47
   9   5  -4    3.25    0.61
  -7  -5   4   10.64    0.74
   7   5  -4   12.04    0.83
   7   5  -4   10.76    0.90
  -7   5   4   12.52    0.92
  -7   5   4   11.97    0.81
  -5  -5   4    0.57    0.29
   5  -5  -4    0.93    0.37
   5   5  -4    0.52    0.35
  -5   5   4    0.33    0.29
   5   5  -4    0.72    0.31
  -3  -5   4    2.73    0.46
   3  -5  -4    2.04    0.46
   3   5  -4    2.48    0.50
  -3   5   4    2.38    0.46
  -1  -5   4    1.02    0.34
   1  -5  -4    0.31    0.29
  -1   5   4    1.08    0.40
   1   5  -4    0.84    0.41
  -1  -5  -4    0.64    0.32
   1  -5   4    0.77    0.30
  -1   5  -4    0.67    0.41
   1   5   4    0.80    0.32
   1   5   4    0.96    0.39
  -3  -5  -4    4.27    0.61
   3  -5   4    3.55    0.54
  -3   5  -4    1.46    0.44
  -3   5  -4    2.23    0.55
   3   5   4    2.23    0.48
   3   5   4    2.83    0.53
  -5  -5  -4    2.17    0.49
   5  -5   4    1.43    0.51
   5   5   4    1.03    0.45
  -5   5  -4    1.85    0.52
 -10  -6   4   -1.11    0.46
  10  -6  -4   -0.23    0.44
  -8  -6   4   -0.20    0.29
  -8   6   4    0.15    0.42
   8   6  -4    0.70    0.42
  -6  -6   4    4.87    0.60
   6  -6  -4    6.93    0.82
   6   6  -4    7.17    0.88
  -6   6   4    5.83    0.71
  -4  -6   4    4.20    0.63
   4  -6  -4    3.53    0.60
   4   6  -4    3.44    0.60
  -4   6   4    2.73    0.55
   2  -6  -4   -0.28    0.30
  -2  -6   4    0.25    0.33
   2   6  -4    0.84    0.37
  -2   6   4    0.05    0.36
   0  -6  -4    2.52    0.51
   0  -6   4    3.08    0.53
   0   6  -4    3.14    0.67
   0   6   4    2.84    0.59
  -2  -6  -4    3.15    0.69
  -2   6  -4    2.58    0.61
   2   6   4    2.65    0.56
   3  -7  -4    1.01    0.51
  -3  -7   4    0.52    0.62
  16   0  -5    0.54    0.51
 -16   0   5    0.73    0.37
 -14   0   5    2.85    0.47
  14   0  -5    1.76    0.49
  12   0  -5    0.59    0.38
 -12   0   5    0.90    0.30
 -10   0   5   -0.07    0.13
  10   0  -5   -0.05    0.16
 -10   0   5   -0.13    0.17
  10   0  -5   -0.07    0.25
  -8   0   5   48.17    1.81
   8   0  -5   50.61    1.89
  -8   0   5   51.10    1.86
   6   0  -5  337.21   11.24
   6   0  -5  333.76   11.18
  -6   0   5  325.20   11.17
  -6   0   5  350.14   11.21
   4   0  -5    9.04    0.51
   4   0  -5    8.44    0.45
  -4   0   5    8.92    0.44
  -4   0   5    9.03    0.46
  -2   0   5    0.70    0.17
   2   0  -5    0.80    0.19
  -2   0   5    0.88    0.17
   0   0   5    0.41    0.17
   0   0  -5    1.17    0.23
   0   0  -5    0.51    0.17
  -2   0  -5   90.67    3.29
  -2   0  -5   92.11    3.25
   2   0   5   90.79    3.31
  -4   0  -5   19.87    1.00
   4   0   5   18.96    1.05
   6   0   5    0.51    0.32
  -6   0  -5   -0.37    0.19
  -8   0  -5   20.32    1.20
   8   0   5   19.90    1.30
  17  -1  -5    0.06    0.57
 -17  -1   5    0.38    0.40
  17   1  -5    0.68    0.61
 -15  -1   5    4.13    0.60
  15  -1  -5    6.76    0.85
 -15   1   5    6.53    0.61
  15   1  -5    6.58    0.75
  13  -1  -5   22.35    1.25
 -13  -1   5   22.26    1.14
  13   1  -5   23.38    1.20
 -13   1   5   24.20    1.20
 -13   1   5   21.93    1.10
 -11  -1   5   27.38    1.21
  11  -1  -5   27.00    1.29
  11   1  -5   25.67    1.24
 -11   1   5   26.46    1.21
  11   1  -5   27.03    1.26
 -11   1   5   27.70    1.20
  -9  -1   5    1.04    0.25
   9  -1  -5    1.54    0.32
   9   1  -5    1.21    0.27
  -9   1   5    1.00    0.23
   9   1  -5    1.35    0.28
  -9   1   5    1.75    0.28
  -7  -1   5    9.12    0.50
   7  -1  -5    8.61    0.52
   7  -1  -5    8.20    0.53
  -7   1   5    8.14    0.49
   7   1  -5    8.88    0.53
   7   1  -5    8.58    0.53
  -7   1   5    7.15    0.34
  -5  -1   5   53.42    1.82
   5  -1  -5   51.88    1.89
   5  -1  -5   51.13    1.84
  -5  -1   5   52.09    1.85
  -5   1   5   47.57    1.77
   5   1  -5   47.30    1.76
   5   1  -5   50.52    1.89
  -5   1   5   51.09    1.87
  -3  -1   5   26.14    1.05
  -3  -1   5   24.72    0.96
   3  -1  -5   27.14    1.07
  -3   1   5   25.45    1.05
   3   1  -5   25.76    1.00
   3   1  -5   26.56    1.11
  -3   1   5   24.72    1.01
   1  -1  -5   74.41    2.65
  -1  -1   5   73.37    2.65
  -1   1   5   75.99    2.67
  -1   1   5   72.04    2.64
   1   1  -5   74.80    2.63
   1   1  -5   71.13    2.68
   1  -1   5   57.09    2.13
  -1  -1  -5   54.47    2.11
  -1   1  -5   55.99    2.12
   1   1   5   55.89    2.16
  -1   1  -5   56.79    2.16
   1   1   5   55.33    2.08
   3  -1   5    5.55    0.51
  -3  -1  -5    5.25    0.54
   3   1   5    4.72    0.41
  -3   1  -5    5.08    0.49
   3   1   5    5.69    0.54
  -3   1  -5    5.54    0.54
  -5  -1  -5    0.87    0.31
   5  -1   5    0.98    0.36
   5   1   5    0.24    0.31
  -5   1  -5    1.04    0.33
  -7  -1  -5    3.64    0.58
   7  -1   5    3.43    0.59
   7   1   5    2.87    0.56
  -7   1  -5    4.06    0.56
 -16  -2   5    0.99    0.45
  16  -2  -5    0.74    0.58
  14  -2  -5    5.65    0.75
 -14  -2   5    4.48    0.60
 -14   2   5    4.76    0.58
  14   2  -5    5.32    0.64
 -14   2   5    4.43    0.63
  14   2  -5    5.82    0.76
 -12  -2   5   38.83    1.65
  12  -2  -5   38.99    1.76
  12   2  -5   40.07    1.69
 -12   2   5   35.91    1.69
 -12   2   5   38.86    1.63
  12   2  -5   37.98    1.78
 -10  -2   5   79.41    2.96
  10  -2  -5   78.59    3.02
  10   2  -5   82.25    3.10
 -10   2   5   82.64    2.98
 -10   2   5   80.61    3.04
  10   2  -5   81.44    3.01
  -8  -2   5   36.95    1.45
   8  -2  -5   37.38    1.50
   8   2  -5   37.76    1.52
  -8   2   5   35.61    1.47
   8   2  -5   35.87    1.56
  -8   2   5   35.38    1.51
   6  -2  -5    4.73    0.49
  -6  -2   5    4.58    0.36
   6  -2  -5    4.24    0.40
   6   2  -5    3.80    0.40
   6   2  -5    4.43    0.43
  -6   2   5    4.58    0.39
  -4  -2   5   58.91    2.16
   4  -2  -5   57.18    2.19
  -4  -2   5   57.94    2.05
  -4   2   5   58.60    2.17
  -4   2   5   59.19    2.08
   4   2  -5   57.80    2.04
   4   2  -5   58.25    2.21
  -2  -2   5  113.07    3.90
   2  -2  -5  103.90    3.89
  -2   2   5  113.28    3.87
   2   2  -5  107.77    3.95
   2   2  -5  113.86    3.84
  -2   2   5  112.09    3.92
   0  -2  -5  161.45    5.60
   0  -2   5  166.65    5.60
   0   2  -5  160.35    5.58
   0   2  -5  158.87    5.67
   0   2   5  159.50    5.61
   0   2   5  163.26    5.63
   2  -2   5    3.74    0.46
  -2  -2  -5    3.55    0.46
  -2   2  -5    3.72    0.46
  -2   2  -5    3.39    0.47
   2   2   5    4.04    0.46
   2   2   5    3.73    0.50
   4  -2   5    1.20    0.36
  -4  -2  -5    0.87    0.32
  -4   2  -5    1.19    0.32
   4   2   5    0.64    0.32
  -4   2  -5    1.53    0.37
   6  -2   5    5.21    0.65
  -6  -2  -5    6.06    0.69
   6  -2   5    5.63    0.67
   6   2   5    3.53    0.56
  -6   2  -5    5.33    0.66
   8  -2   5    0.96    0.48
  -8  -2  -5    1.20    0.45
  15  -3  -5    3.47    0.70
 -15  -3   5    2.52    0.55
  15   3  -5    1.63    0.60
 -15   3   5    2.48    0.58
  13  -3  -5    4.72    0.69
 -13  -3   5    5.64    0.65
 -13   3   5    5.41    0.69
  13   3  -5    6.51    0.80
 -13   3   5    5.30    0.64
  13   3  -5    6.03    0.71
 -11  -3   5   12.29    0.81
  11  -3  -5   12.68    0.91
  11   3  -5   14.24    0.86
 -11   3   5   13.32    0.82
  11   3  -5   12.48    0.95
 -11   3   5   11.38    0.86
   9  -3  -5    5.20    0.57
  -9  -3   5    4.85    0.51
  -9   3   5    4.12    0.49
   9   3  -5    5.68    0.64
   9   3  -5    3.86    0.49
  -9   3   5    3.68    0.52
  -7  -3   5   28.89    1.17
   7  -3  -5   28.56    1.22
  -7   3   5   27.78    1.24
   7   3  -5   27.32    1.33
  -7   3   5   27.91    1.30
   7   3  -5   25.55    1.25
   5  -3  -5   12.15    0.64
  -5  -3   5   12.28    0.70
   5  -3  -5   12.11    0.75
  -5  -3   5   12.87    0.61
  -5   3   5   12.24    0.71
   5   3  -5   12.78    0.76
  -3  -3   5    4.18    0.40
   3  -3  -5    4.43    0.45
  -3   3   5    4.39    0.36
   3   3  -5    5.42    0.56
  -3   3   5    4.86    0.52
   1  -3  -5  111.03    4.05
  -1  -3   5  119.50    4.07
  -1   3   5  114.97    4.09
   1   3  -5  113.61    4.01
  -1   3   5  108.80    4.05
   1   3  -5  112.35    4.13
   1  -3   5    4.43    0.51
  -1  -3  -5    4.71    0.55
  -1   3  -5    4.30    0.55
  -1   3  -5    3.38    0.45
   1   3   5    3.49    0.48
   1   3   5    3.51    0.48
   3  -3   5    2.66    0.45
  -3  -3  -5    2.75    0.46
  -3   3  -5    1.94    0.39
  -3   3  -5    2.37    0.50
   3   3   5    2.45    0.45
   3   3   5    2.74    0.46
   5  -3   5    0.25    0.32
  -5  -3  -5    0.24    0.28
   5  -3   5    0.54    0.39
  -5  -3  -5    0.77    0.37
  -5   3  -5    0.32    0.29
   5   3   5    0.70    0.33
   7  -3   5    3.51    0.63
  -7  -3  -5    2.70    0.54
   7  -3   5    3.37    0.62
  -7   3  -5    2.35    0.56
   7   3   5    2.53    0.64
  14  -4  -5    0.69    0.54
 -14  -4   5    0.22    0.39
 -14   4   5    0.87    0.46
  14   4  -5    0.31    0.53
  12  -4  -5    0.06    0.42
 -12  -4   5   -0.02    0.31
 -12   4   5    1.05    0.63
 -12   4   5    0.15    0.31
  12   4  -5   -0.05    0.41
  10  -4  -5   31.26    1.55
 -10  -4   5   33.62    1.48
  10   4  -5   35.31    1.55
 -10   4   5   33.30    1.49
 -10   4   5   30.54    1.59
  10   4  -5   30.28    1.65
   8  -4  -5    6.79    0.66
  -8  -4   5    6.68    0.57
   8   4  -5    8.38    0.67
   8   4  -5    5.91    0.68
  -8   4   5    7.36    0.62
  -8   4   5    7.11    0.66
  -6  -4   5   10.96    0.64
   6  -4  -5   10.18    0.77
   6  -4  -5   11.39    0.70
   6   4  -5   10.73    0.81
   6   4  -5   11.13    0.77
  -6   4   5   10.70    0.72
  -4  -4   5    9.00    0.66
   4  -4  -5    8.32    0.68
   4   4  -5   10.35    0.73
  -4   4   5   10.63    0.70
  -2  -4   5   67.31    2.73
   2  -4  -5   68.98    2.77
   2   4  -5   77.60    2.87
  -2   4   5   74.35    2.81
   0  -4   5    1.59    0.34
   0  -4  -5    1.30    0.38
   0   4  -5    2.81    0.53
   0   4   5    2.28    0.44
   0   4  -5    1.02    0.29
   0   4   5    1.81    0.38
  -2  -4  -5    4.83    0.59
   2  -4   5    4.50    0.54
  -2   4  -5    3.37    0.63
   2   4   5    4.01    0.58
  -2   4  -5    2.71    0.49
   2   4   5    3.50    0.54
   4  -4   5    5.63    0.67
  -4  -4  -5    5.30    0.66
  -4   4  -5    4.31    0.63
   4   4   5    4.22    0.66
  -4   4  -5    4.94    0.72
  -6  -4  -5    1.13    0.48
   6  -4   5    0.86    0.45
  -6  -4  -5    0.99    0.42
   6  -4   5    2.58    0.62
  -6   4  -5    1.48    0.51
  11  -5  -5    1.28    0.53
 -11  -5   5    1.70    0.47
 -11   5   5    1.35    0.45
  11   5  -5    1.62    0.53
   9  -5  -5    4.30    0.62
  -9  -5   5    5.40    0.61
  -9   5   5    5.06    0.63
  -9   5   5    4.40    0.62
   9   5  -5    6.32    0.98
   9   5  -5    3.86    0.62
  -7  -5   5    0.14    0.28
   7  -5  -5    0.45    0.34
   7   5  -5    0.43    0.32
   7   5  -5   -0.28    0.30
  -7   5   5    0.25    0.31
  -5  -5   5    0.74    0.31
   5  -5  -5    1.23    0.41
  -5   5   5    1.13    0.36
   5   5  -5    0.92    0.36
  -3  -5   5   18.35    1.05
   3  -5  -5   19.25    1.11
   3   5  -5   20.25    1.18
  -3   5   5   19.57    1.13
  -1  -5   5    0.56    0.31
   1  -5  -5    0.06    0.30
   1   5  -5    0.19    0.38
  -1   5   5   -0.29    0.29
  -1  -5  -5   -0.32    0.30
   1  -5   5    0.19    0.30
  -1   5  -5   -0.52    0.34
   1   5   5    0.38    0.35
   1   5   5   -0.16    0.25
   3  -5   5    0.57    0.38
  -3  -5  -5    1.72    0.48
   3   5   5    1.33    0.46
  -3   5  -5    1.74    0.48
   3   5   5    1.33    0.47
  -3   5  -5    1.19    0.51
 -10  -6   5   -0.44    0.37
  -8  -6   5   -0.24    0.32
   8  -6  -5    0.59    0.43
  -8   6   5   -0.20    0.31
   8   6  -5   -0.11    0.39
  -6  -6   5   -0.02    0.30
   6  -6  -5    0.07    0.36
  -6   6   5    0.13    0.34
   6   6  -5    0.06    0.35
  -4  -6   5    2.14    0.49
   4  -6  -5    1.94    0.53
  -4   6   5    1.22    0.47
   4   6  -5    2.08    0.54
   2  -6  -5    1.62    0.47
  -2  -6   5    1.82    0.46
   2   6  -5    2.96    0.63
  -2   6   5    1.98    0.53
   0  -6   5    1.23    0.40
   0  -6  -5    2.05    0.51
   0   6   5    2.07    0.55
   0   6  -5    1.65    0.61
  -2  -6  -5    6.56    0.80
   2  -6   5    6.79    1.09
 -18   0   6    1.33    0.53
 -16   0   6    0.55    0.35
  16   0  -6    0.67    0.46
  14   0  -6    1.23    0.45
 -14   0   6    1.82    0.41
  12   0  -6   23.39    1.17
 -12   0   6   22.38    1.09
 -10   0   6    0.76    0.25
  10   0  -6    0.60    0.29
  -8   0   6    3.94    0.35
   8   0  -6    4.20    0.33
  -8   0   6    4.01    0.28
   8   0  -6    4.02    0.41
  -6   0   6    1.71    0.24
   6   0  -6    1.98    0.25
   6   0  -6    1.52    0.28
  -6   0   6    1.36    0.19
   4   0  -6   70.17    2.50
   4   0  -6   69.16    2.54
  -4   0   6   70.73    2.50
  -4   0   6   71.32    2.51
   2   0  -6   59.97    2.22
  -2   0   6   60.96    2.22
  -2   0   6   60.10    2.16
   2   0  -6   59.09    2.21
   0   0  -6    4.49    0.46
   0   0   6    4.39    0.47
   0   0  -6    4.34    0.44
  -2   0  -6   20.62    1.06
   2   0   6   23.76    1.13
   4   0   6    1.41    0.39
  -4   0  -6    1.25    0.36
  -6   0  -6    0.06    0.26
   6   0   6    0.28    0.32
  17  -1  -6    0.82    0.58
 -17  -1   6    0.07    0.33
  17   1  -6    1.10    0.49
 -17   1   6    0.88    0.33
  15  -1  -6    4.83    0.70
 -15  -1   6    3.31    0.53
 -15   1   6    4.04    0.54
  15   1  -6    4.67    0.66
 -13  -1   6    7.71    0.65
  13  -1  -6    8.25    0.81
  13   1  -6    7.99    0.73
 -13   1   6    7.52    0.66
 -13   1   6    8.49    0.64
 -11  -1   6   36.28    1.54
  11  -1  -6   36.48    1.61
 -11   1   6   38.10    1.56
  11   1  -6   36.50    1.57
  11   1  -6   39.48    1.61
 -11   1   6   36.62    1.55
  -9  -1   6    1.50    0.28
   9  -1  -6    1.50    0.34
   9  -1  -6    2.44    0.35
   9   1  -6    1.52    0.31
  -9   1   6    1.45    0.28
   9   1  -6    1.67    0.31
   7  -1  -6   33.35    1.35
   7  -1  -6   33.80    1.36
  -7  -1   6   34.96    1.31
  -7  -1   6   34.27    1.32
  -7   1   6   31.24    1.22
  -7   1   6   33.74    1.35
   7   1  -6   34.05    1.39
  -5  -1   6   36.71    1.39
   5  -1  -6   38.85    1.48
  -5  -1   6   38.66    1.46
   5  -1  -6   37.52    1.44
   5   1  -6   37.59    1.51
  -5   1   6   36.49    1.46
   5   1  -6   37.26    1.38
  -5   1   6   36.38    1.39
  -3  -1   6    5.11    0.40
   3  -1  -6    5.80    0.44
   3   1  -6    5.34    0.46
  -3   1   6    5.68    0.39
  -3   1   6    5.63    0.40
   3   1  -6    4.79    0.38
  -1  -1   6    7.63    0.51
   1  -1  -6    7.15    0.53
  -1   1   6    7.13    0.52
  -1   1   6    7.57    0.48
   1   1  -6    6.63    0.48
   1   1  -6    7.30    0.54
  -1  -1  -6   13.66    0.79
   1  -1   6   14.20    0.80
  -1   1  -6   13.52    0.78
  -1   1  -6   13.91    0.81
   1   1   6   14.13    0.73
   1   1   6   14.86    0.84
  -3  -1  -6    7.00    0.63
   3  -1   6    6.64    0.61
  -3   1  -6    7.72    0.60
   3   1   6    6.67    0.62
  -3   1  -6    6.49    0.58
  -5  -1  -6    1.29    0.39
   5  -1   6    0.70    0.34
   5   1   6    0.96    0.35
  -5   1  -6    1.08    0.38
   7  -1   6    7.66    0.86
  -7  -1  -6    7.77    0.78
  -7   1  -6    9.46    1.36
   7   1   6    6.84    1.11
  16  -2  -6    3.72    0.73
 -16  -2   6    3.12    0.59
 -16   2   6    2.47    0.48
  16   2  -6    3.76    0.62
  14  -2  -6    0.82    0.49
 -14  -2   6    0.86    0.38
 -14   2   6    1.38    0.37
 -14   2   6    0.77    0.37
  14   2  -6    1.71    0.44
  14   2  -6    0.72    0.49
 -12  -2   6    6.17    0.62
  12  -2  -6    6.56    0.71
  12   2  -6    4.99    0.62
  12   2  -6    4.90    0.62
 -12   2   6    5.72    0.63
 -12   2   6    6.24    0.58
 -10  -2   6   27.80    1.26
  10  -2  -6   29.35    1.34
  10   2  -6   29.08    1.38
 -10   2   6   29.21    1.29
 -10   2   6   28.04    1.31
  10   2  -6   29.56    1.35
   8  -2  -6   20.14    1.03
   8  -2  -6   20.80    1.00
  -8  -2   6   21.46    0.95
   8   2  -6   20.67    1.07
   8   2  -6   22.44    1.04
  -8   2   6   20.75    1.00
  -6  -2   6   81.40    2.90
   6  -2  -6   79.12    2.83
  -6  -2   6   80.57    2.81
   6  -2  -6   74.29    2.92
  -6   2   6   80.27    2.91
   6   2  -6   82.05    2.96
   4  -2  -6   20.62    0.99
  -4  -2   6   21.40    0.96
   4   2  -6   20.42    0.86
  -4   2   6   20.73    0.97
  -4   2   6   19.75    0.89
   4   2  -6   20.66    1.01
  -2  -2   6   38.88    1.52
   2  -2  -6   37.41    1.53
  -2   2   6   36.28    1.50
   2   2  -6   36.58    1.46
  -2   2   6   34.81    1.50
   2   2  -6   35.79    1.56
   0  -2  -6    6.05    0.54
   0  -2   6    5.47    0.48
   0   2   6    5.16    0.54
   0   2   6    5.20    0.50
   0   2  -6    4.79    0.47
   0   2  -6    6.38    0.64
  -2  -2  -6    0.52    0.31
   2  -2   6    0.55    0.28
  -2   2  -6    1.27    0.32
   2   2   6    0.72    0.28
   2   2   6    0.61    0.30
  -2   2  -6    0.54    0.29
   4  -2   6   17.48    1.05
  -4  -2  -6   17.88    1.04
  -4   2  -6   17.25    1.04
   4   2   6   16.91    1.10
  -4   2  -6   19.26    1.08
  -6  -2  -6    0.95    0.39
   6  -2   6    0.37    0.42
  -6   2  -6    0.90    0.37
   6   2   6    0.55    0.37
 -15  -3   6   -0.08    0.39
  15  -3  -6   -0.02    0.48
 -15   3   6   -0.09    0.38
 -15   3   6    0.58    0.76
  15   3  -6   -0.13    0.46
 -13  -3   6    3.13    0.54
  13  -3  -6    2.50    0.57
  13   3  -6    2.28    0.55
 -13   3   6    2.22    0.49
 -13   3   6    3.94    0.56
  13   3  -6    3.51    0.58
 -11  -3   6    0.67    0.34
  11  -3  -6    0.45    0.39
  11   3  -6    0.68    0.32
 -11   3   6    0.88    0.34
 -11   3   6    0.62    0.30
  11   3  -6    0.51    0.35
   9  -3  -6    7.91    0.66
  -9  -3   6    6.41    0.57
   9   3  -6    7.96    0.66
   9   3  -6    7.01    0.68
  -9   3   6    7.18    0.64
  -9   3   6    7.03    0.59
  -7  -3   6   -0.17    0.16
   7  -3  -6   -0.26    0.23
  -7  -3   6   -0.18    0.21
   7  -3  -6    0.08    0.26
  -7   3   6    0.19    0.21
   7   3  -6    0.08    0.24
  -5  -3   6    7.22    0.53
  -5  -3   6    6.35    0.46
   5  -3  -6    6.14    0.57
  -5   3   6    7.53    0.58
   5   3  -6    7.13    0.62
   3  -3  -6   32.21    1.48
  -3  -3   6   34.13    1.46
   3   3  -6   36.57    1.56
  -3   3   6   33.70    1.42
  -3   3   6   34.25    1.49
   1  -3  -6    6.35    0.58
  -1  -3   6    6.48    0.56
  -1   3   6    6.32    0.56
   1   3  -6    6.89    0.68
  -1   3   6    6.18    0.58
   1   3  -6    6.90    0.55
  -1  -3  -6    9.48    0.73
   1  -3   6    9.87    0.70
  -1   3  -6    9.80    0.72
   1   3   6    9.07    0.71
   1   3   6   10.07    0.77
  -1   3  -6    8.97    0.78
   3  -3   6    4.78    0.61
  -3  -3  -6    3.98    0.57
  -3   3  -6    4.06    0.59
   3   3   6    4.42    0.64
  -3   3  -6    3.95    0.62
   3   3   6    3.71    0.55
   5  -3   6   14.18    1.05
  -5  -3  -6   13.14    0.95
   5  -3   6   12.26    0.95
  -5   3  -6   12.12    0.96
   5   3   6   11.35    1.01
  14  -4  -6    2.96    0.66
 -14  -4   6    4.03    0.67
  14   4  -6    3.06    0.75
 -14   4   6    3.39    0.65
  12  -4  -6    0.51    0.45
 -12  -4   6    0.92    0.40
  12   4  -6    1.50    0.49
  12   4  -6    1.66    0.48
 -12   4   6    1.19    0.41
 -12   4   6    0.94    0.39
 -10  -4   6   21.42    1.10
  10  -4  -6   21.27    1.18
 -10   4   6   20.87    1.13
  10   4  -6   24.92    1.22
  10   4  -6   17.89    1.25
 -10   4   6   20.02    1.21
  -8  -4   6   22.68    1.10
   8  -4  -6   21.37    1.25
   8  -4  -6   24.37    1.18
   8   4  -6   21.37    1.31
  -8   4   6   24.96    1.21
   8   4  -6   26.61    1.27
  -6  -4   6    1.86    0.37
  -6  -4   6    2.47    0.35
   6  -4  -6    1.99    0.41
  -6   4   6    2.41    0.43
   6   4  -6    2.35    0.47
  -4  -4   6    0.73    0.28
   4  -4  -6    0.79    0.31
   4   4  -6    1.06    0.34
  -4   4   6    1.10    0.34
   2  -4  -6    2.92    0.46
  -2  -4   6    3.52    0.49
  -2   4   6    2.88    0.49
   2   4  -6    3.83    0.60
   0  -4  -6    1.92    0.42
   0  -4   6    1.98    0.40
   0   4   6    1.10    0.37
   0   4  -6    2.04    0.49
   0   4   6    1.82    0.44
  -2  -4  -6    4.85    0.60
   2  -4   6    4.35    0.60
   2   4   6    4.53    0.67
  -2   4  -6    4.06    0.61
   2   4   6    4.98    0.68
  -2   4  -6    4.65    0.72
   4  -4   6    0.30    0.39
  -4  -4  -6    0.76    0.45
  -4  -4  -6    1.60    0.41
   4   4   6    0.67    0.43
  -4   4  -6    0.51    0.38
  -4   4  -6   -0.24    0.38
  13  -5  -6   -0.25    0.49
 -11  -5   6    0.19    0.36
  11  -5  -6    0.63    0.48
 -11   5   6    0.08    0.35
  11   5  -6    0.60    0.49
 -11   5   6    0.76    0.44
  -9  -5   6    3.32    0.51
   9  -5  -6    4.58    0.70
   9   5  -6    4.96    0.68
   9   5  -6    4.40    0.72
  -9   5   6    3.35    0.55
  -7  -5   6    5.78    0.67
   7  -5  -6    5.26    0.70
  -7   5   6    6.68    0.72
   7   5  -6    5.90    0.71
  -5  -5   6    6.10    0.71
   5  -5  -6    4.49    0.66
  -5   5   6    4.85    0.63
   5   5  -6    5.51    0.70
  -3  -5   6    3.49    0.53
   3  -5  -6    2.36    0.49
  -3   5   6    3.39    0.58
   3   5  -6    3.44    0.64
   1  -5  -6    2.85    0.51
  -1  -5   6    1.98    0.44
  -1   5   6    2.60    0.52
   1   5  -6    2.98    0.58
   1  -5   6    2.61    0.52
  -1  -5  -6    2.90    0.56
   1   5   6    1.93    0.66
  -1   5  -6    2.38    0.60
   1   5   6    2.81    0.55
   3  -5   6    2.71    0.56
  -3  -5  -6    2.72    0.62
   3   5   6    1.86    0.54
 -10  -6   6   -0.32    0.38
 -10   6   6    0.28    0.37
  -8  -6   6    0.58    0.44
   8  -6  -6    0.22    0.41
  -8   6   6    0.99    0.45
   8   6  -6    1.72    0.53
  -6  -6   6    2.15    0.54
   6  -6  -6    2.03    0.54
  -6   6   6    2.46    0.56
   6   6  -6    2.47    0.59
   4  -6  -6    0.41    0.39
  -4  -6   6    0.21    0.34
  -4   6   6    0.09    0.39
   4   6  -6    0.30    0.38
   2  -6  -6    0.18    0.38
  -2  -6   6   -0.03    0.33
   2   6  -6    0.30    0.42
  -2   6   6    0.23    0.49
   0  -6   6    2.44    0.66
 -16   0   7    4.69    0.59
  16   0  -7    5.91    0.74
  14   0  -7    0.19    0.35
 -14   0   7    0.20    0.27
 -12   0   7    0.63    0.27
  12   0  -7    1.62    0.42
  10   0  -7   10.92    0.71
 -10   0   7   10.52    0.63
   8   0  -7   18.82    0.91
  -8   0   7   19.08    0.87
  -8   0   7   17.33    0.78
   8   0  -7   18.12    0.81
  -6   0   7   11.92    0.60
   6   0  -7   12.80    0.62
   6   0  -7   11.76    0.69
  -6   0   7   12.80    0.63
  -4   0   7   58.21    2.14
   4   0  -7   58.17    2.13
  -4   0   7   56.34    2.10
   4   0  -7   56.32    2.16
  -2   0   7    5.49    0.40
   2   0  -7    5.71    0.50
  -2   0   7    6.07    0.47
   2   0  -7    5.37    0.47
   0   0   7    0.60    0.26
   0   0  -7    0.27    0.27
  -2   0  -7    6.00    0.58
   2   0   7    6.32    0.65
   4   0   7    1.92    0.44
  -4   0  -7    2.94    0.54
  17  -1  -7    0.35    0.56
 -17  -1   7    0.54    0.40
 -17   1   7    1.01    0.38
  17   1  -7    1.14    0.49
  15  -1  -7    1.28    0.53
 -15  -1   7    0.52    0.33
  15   1  -7    0.68    0.39
 -15   1   7    0.94    0.35
 -13  -1   7    5.51    0.58
  13  -1  -7    4.19    0.59
  13   1  -7    5.67    0.62
 -13   1   7    4.11    0.52
 -11  -1   7   95.28    3.44
  11  -1  -7   95.11    3.55
  11  -1  -7   97.71    3.51
 -11  -1   7   92.26    3.46
  11   1  -7   99.05    3.57
 -11   1   7   99.59    3.52
   9  -1  -7   11.29    0.72
   9  -1  -7   11.69    0.68
  -9  -1   7   12.15    0.67
  -9  -1   7   12.32    0.63
   9   1  -7   12.70    0.75
  -9   1   7   11.86    0.70
  -7  -1   7   13.46    0.66
   7  -1  -7   13.12    0.72
   7  -1  -7   12.88    0.71
  -7  -1   7   13.38    0.67
   7   1  -7   13.46    0.75
  -7   1   7   13.67    0.72
  -5  -1   7   29.17    1.13
   5  -1  -7   28.42    1.18
  -5  -1   7   28.74    1.20
   5  -1  -7   28.24    1.22
  -5   1   7   28.22    1.21
  -5   1   7   27.90    1.16
   5   1  -7   28.46    1.26
   5   1  -7   28.71    1.14
   3  -1  -7   34.98    1.42
   3  -1  -7   29.78    1.32
  -3  -1   7   36.22    1.41
  -3   1   7   32.77    1.37
  -3   1   7   34.63    1.39
   3   1  -7   33.55    1.45
   3   1  -7   32.96    1.36
   1  -1  -7    0.56    0.28
  -1  -1   7    0.70    0.25
   1   1  -7    0.54    0.24
   1   1  -7    0.80    0.28
  -1   1   7    0.34    0.24
  -1   1   7    0.40    0.19
   1  -1   7   13.36    0.82
  -1  -1  -7   13.48    0.83
  -1   1  -7   13.58    0.82
   1   1   7   11.55    0.82
  -1   1  -7   12.61    0.81
  -3  -1  -7   11.15    0.80
   3  -1   7   11.59    0.81
   3   1   7    9.66    0.81
  -3   1  -7   10.08    0.77
   5  -1   7    1.21    0.45
  -5  -1  -7    0.70    0.37
  -5   1  -7    0.46    0.31
   5   1   7    0.55    0.37
  16  -2  -7    1.70    0.61
 -16  -2   7    0.81    0.44
  16   2  -7    2.51    0.56
 -16   2   7    1.24    0.42
 -14  -2   7    0.37    0.34
  14  -2  -7    0.91    0.46
 -14   2   7    1.33    0.38
  14   2  -7    1.50    0.45
 -14   2   7    0.31    0.32
 -12  -2   7    5.90    0.61
  12  -2  -7    6.00    0.68
 -12   2   7    6.23    0.59
  12   2  -7    6.64    0.71
  12   2  -7    5.81    0.67
 -12   2   7    5.76    0.63
  10  -2  -7   12.93    0.82
 -10  -2   7   12.22    0.75
 -10  -2   7   12.23    0.72
  10  -2  -7   12.95    0.82
 -10   2   7   13.18    0.79
  10   2  -7   12.21    0.83
  -8  -2   7    7.64    0.52
   8  -2  -7    7.21    0.58
  -8  -2   7    7.21    0.52
   8  -2  -7    7.57    0.58
  -8   2   7    7.26    0.57
   8   2  -7    8.83    0.64
  -6  -2   7   11.67    0.61
   6  -2  -7   12.65    0.66
   6  -2  -7   12.97    0.76
  -6  -2   7   12.33    0.70
   6   2  -7   13.29    0.79
  -6   2   7   12.21    0.72
  -4  -2   7    1.05    0.25
   4  -2  -7    1.09    0.31
  -4   2   7    1.40    0.26
   4   2  -7    1.33    0.33
  -4   2   7    1.37    0.30
  -2  -2   7   11.75    0.72
   2  -2  -7   10.94    0.75
   2   2  -7   10.15    0.65
   2   2  -7   11.76    0.78
  -2   2   7   11.42    0.72
  -2   2   7   11.30    0.69
   0  -2   7    4.70    0.57
   0  -2  -7    4.77    0.56
   0   2   7    4.45    0.54
   0   2  -7    4.04    0.55
   0   2   7    4.97    0.57
   0   2  -7    4.28    0.51
   2  -2   7    7.31    0.66
  -2  -2  -7    7.34    0.70
   2   2   7    6.20    0.71
  -2   2  -7    7.92    0.79
  -2   2  -7    7.72    0.65
  -4  -2  -7    1.90    0.47
   4  -2   7    1.61    0.46
  -4   2  -7    1.64    0.41
   4   2   7    1.30    0.44
  15  -3  -7    2.06    0.62
 -15  -3   7    2.32    0.55
 -15   3   7    1.35    0.48
  15   3  -7    2.22    0.58
  15   3  -7    2.75    0.59
 -15   3   7    2.97    0.56
  13  -3  -7    4.75    0.71
 -13  -3   7    6.42    0.71
 -13   3   7    6.61    0.73
 -13   3   7    5.53    0.69
  13   3  -7    5.78    0.75
  13   3  -7    7.50    0.76
  11  -3  -7   -0.05    0.35
 -11  -3   7    0.05    0.29
  11   3  -7    0.02    0.29
  11   3  -7    0.39    0.35
 -11   3   7    0.16    0.26
   9  -3  -7   11.08    0.82
  -9  -3   7   11.76    0.74
  -9  -3   7   11.11    0.72
   9  -3  -7   11.11    0.78
  -9   3   7   12.03    0.78
   9   3  -7   12.54    0.85
  -7  -3   7    3.62    0.47
   7  -3  -7    2.73    0.45
  -7  -3   7    4.13    0.42
   7  -3  -7    3.14    0.47
   7   3  -7    5.03    0.61
  -7   3   7    3.22    0.46
   5  -3  -7    1.01    0.33
  -5  -3   7    1.26    0.31
   5   3  -7    1.44    0.35
  -5   3   7    0.30    0.25
  -3  -3   7   46.16    1.90
   3  -3  -7   43.17    1.90
  -3   3   7   49.88    2.00
   3   3  -7   46.28    1.98
  -3   3   7   44.63    1.91
   1  -3  -7  113.47    4.27
  -1  -3   7  118.03    4.26
  -1   3   7  113.90    4.29
   1   3  -7  116.54    4.25
  -1   3   7  118.49    4.30
   1   3  -7  119.83    4.37
   1  -3   7    2.17    0.44
  -1  -3  -7    2.32    0.48
   1   3   7    2.22    0.45
  -1   3  -7    1.38    0.36
   1   3   7    2.75    0.50
  -1   3  -7    2.65    0.51
  -3  -3  -7    2.38    0.52
   3  -3   7    2.17    0.49
  -3   3  -7    2.16    0.51
   3   3   7    3.02    0.56
  -3   3  -7    1.35    0.41
 -14  -4   7    0.47    0.43
  14  -4  -7    0.86    0.55
  14   4  -7    1.23    0.55
 -14   4   7    0.76    0.42
  14   4  -7    0.78    0.49
 -14   4   7    0.31    0.47
 -12  -4   7    1.63    0.43
  12  -4  -7    1.94    0.57
  12   4  -7    2.01    0.56
 -12   4   7    2.93    0.52
 -12   4   7    0.87    0.44
  12   4  -7    1.98    0.53
 -10  -4   7   10.45    0.77
  10  -4  -7   11.57    0.85
  10  -4  -7    8.77    0.86
  10   4  -7    9.07    0.92
 -10   4   7    9.03    0.76
  10   4  -7   11.57    0.88
  -8  -4   7    5.99    0.66
   8  -4  -7    5.39    0.67
  -8  -4   7    5.35    0.54
  -8   4   7    5.97    0.67
   8   4  -7    6.67    0.73
   6  -4  -7    1.49    0.41
  -6  -4   7    1.78    0.37
   6   4  -7    2.52    0.51
  -6   4   7    2.34    0.44
   4  -4  -7    2.00    0.43
  -4  -4   7    1.80    0.38
  -4   4   7    1.96    0.41
   4   4  -7    2.68    0.54
  -2  -4   7    1.16    0.33
   2  -4  -7    1.94    0.43
  -2   4   7    1.48    0.41
   2   4  -7    1.50    0.47
   0  -4   7    7.32    0.66
   0  -4  -7    6.11    0.71
   0   4   7    5.82    0.70
   0   4  -7    7.94    0.86
   0   4   7    8.34    0.77
   2  -4   7    0.52    0.40
  -2  -4  -7    0.24    0.41
  -2   4  -7    0.58    0.46
  -2   4  -7    0.86    0.45
   2   4   7    0.88    0.45
   2   4   7    0.60    0.40
  13  -5  -7    3.37    0.70
 -13   5   7    2.61    0.55
  11  -5  -7    3.38    0.64
 -11  -5   7    2.80    0.53
  11   5  -7    2.40    0.65
  11   5  -7    2.82    0.60
 -11   5   7    2.87    0.55
  -9  -5   7    7.75    0.83
   9  -5  -7    5.82    0.75
   9   5  -7    9.59    0.88
  -9   5   7    7.11    0.80
   7  -5  -7    2.62    0.59
  -7  -5   7    3.01    0.49
  -7   5   7    3.33    0.56
   7   5  -7    3.48    0.61
  -5  -5   7    2.08    0.46
   5  -5  -7    2.38    0.51
  -5   5   7    2.22    0.46
   5   5  -7    2.21    0.53
   3  -5  -7    2.42    0.52
  -3  -5   7    2.45    0.48
   3   5  -7    3.62    0.66
  -3   5   7    2.82    0.57
  -1  -5   7    0.65    0.36
   1  -5  -7    0.74    0.41
   1   5  -7    0.44    0.42
  -1   5   7    0.77    0.43
   1  -5   7   10.26    1.40
   8   6  -7    1.77    0.53
   6   6  -7    1.15    0.53
 -16   0   8    4.26    0.56
  16   0  -8    6.62    0.76
 -14   0   8    0.23    0.25
  14   0  -8    0.82    0.38
 -12   0   8   24.32    1.17
  12   0  -8   26.67    1.28
  10   0  -8   21.98    1.12
 -10   0   8   23.28    1.08
  -8   0   8    0.58    0.22
  -8   0   8    0.23    0.15
   8   0  -8    0.47    0.23
   8   0  -8   -0.02    0.22
  -6   0   8    9.67    0.59
   6   0  -8   10.84    0.61
  -6   0   8   10.40    0.59
   6   0  -8   10.36    0.67
   4   0  -8   48.42    1.99
   4   0  -8   53.66    1.99
  -4   0   8   49.06    1.92
  -4   0   8   52.91    2.00
  -2   0   8   16.22    0.89
   2   0  -8   15.99    0.89
   0   0  -8    8.65    0.69
   0   0   8    8.71    0.69
   2   0   8    0.36    0.31
  -2   0  -8    0.80    0.33
 -17  -1   8    3.75    0.59
  17  -1  -8    4.27    0.72
  17   1  -8    3.63    0.65
 -17   1   8    4.01    0.62
 -15  -1   8    1.04    0.36
  15  -1  -8    1.87    0.50
  15   1  -8    1.37    0.46
 -15   1   8    1.31    0.38
 -13  -1   8   12.26    0.79
  13  -1  -8   12.40    0.90
 -13   1   8   13.01    0.81
  13   1  -8   13.71    0.91
 -11  -1   8   42.88    1.79
  11  -1  -8   46.52    2.20
  11  -1  -8   46.30    1.89
 -11   1   8   45.83    1.85
  11   1  -8   43.00    1.90
   9  -1  -8    4.26    0.48
  -9  -1   8    4.42    0.42
   9  -1  -8    4.95    0.48
  -9  -1   8    5.34    0.41
  -9   1   8    5.10    0.49
   9   1  -8    4.20    0.52
   7  -1  -8   26.94    1.18
  -7  -1   8   27.25    1.16
   7  -1  -8   25.70    1.18
  -7  -1   8   25.36    1.11
  -7   1   8   25.93    1.18
   7   1  -8   28.01    1.27
  -5  -1   8    1.82    0.32
   5  -1  -8    1.63    0.35
  -5  -1   8    2.19    0.29
   5  -1  -8    1.13    0.28
   5   1  -8    1.45    0.35
  -5   1   8    1.63    0.28
  -5   1   8    1.65    0.30
   5   1  -8    1.68    0.29
   3  -1  -8   -0.14    0.26
  -3  -1   8    0.55    0.24
   3   1  -8    0.50    0.24
  -3   1   8    0.19    0.20
  -3   1   8    0.37    0.20
   3   1  -8    0.19    0.25
  -1  -1   8    5.34    0.61
   1  -1  -8    5.24    0.58
   1   1  -8    5.09    0.59
   1   1  -8    5.26    0.57
  -1   1   8    4.25    0.53
  -1  -1  -8    7.56    0.74
   1  -1   8    7.22    0.66
  -1   1  -8    6.57    0.63
   1   1   8    7.73    0.78
   3  -1   8    4.04    0.64
  -3  -1  -8    4.42    0.62
   3   1   8    3.42    0.59
  -3   1  -8    3.34    0.58
 -16  -2   8    0.47    0.35
  16  -2  -8    0.13    0.48
  16   2  -8   -0.06    0.39
 -16   2   8    0.53    0.34
 -14  -2   8   11.99    0.85
  14  -2  -8   14.59    1.06
  14   2  -8   14.66    1.01
 -14   2   8   12.66    0.88
  12  -2  -8    0.14    0.37
 -12  -2   8    0.24    0.27
 -12  -2   8    0.30    0.20
  12  -2  -8    0.81    0.34
  12   2  -8   -0.11    0.29
 -12   2   8    0.14    0.25
  10  -2  -8    6.21    0.62
 -10  -2   8    5.43    0.51
  10  -2  -8    6.31    0.61
 -10  -2   8    5.85    0.49
 -10   2   8    6.24    0.65
  10   2  -8    5.93    0.65
   8  -2  -8    7.69    0.59
  -8  -2   8    8.49    0.57
  -8  -2   8    8.04    0.53
   8  -2  -8    7.61    0.64
  -8   2   8    7.89    0.61
   8   2  -8    7.84    0.68
   6  -2  -8    0.90    0.32
  -6  -2   8    0.62    0.23
   6   2  -8    0.50    0.32
  -6   2   8    1.16    0.28
  -4  -2   8    2.47    0.40
   4  -2  -8    1.85    0.38
  -4   2   8    1.74    0.34
   4   2  -8    1.79    0.40
  -4   2   8    2.50    0.36
  -2  -2   8   50.14    2.00
   2  -2  -8   46.39    2.00
  -2   2   8   49.13    2.02
   2   2  -8   46.51    2.03
  -2   2   8   47.43    1.96
   2   2  -8   48.59    1.95
   0  -2  -8    5.34    0.63
   0  -2   8    4.22    0.56
   0   2  -8    4.75    0.60
   0   2  -8    5.26    0.61
   0   2   8    4.33    0.59
   2  -2   8    0.56    0.33
  -2  -2  -8   -0.22    0.31
  -2   2  -8    0.34    0.28
   2   2   8   -0.04    0.30
  15  -3  -8    1.74    0.60
 -15  -3   8    1.13    0.47
 -15   3   8    2.21    0.50
 -15   3   8    1.73    0.50
  15   3  -8    2.01    0.57
  13  -3  -8    0.72    0.45
 -13  -3   8    0.32    0.35
  13  -3  -8    0.32    0.41
  13   3  -8    1.48    0.44
 -13   3   8    0.60    0.33
  13   3  -8    0.87    0.44
 -11  -3   8    2.93    0.46
 -11  -3   8    2.72    0.43
  11  -3  -8    2.19    0.46
  11  -3  -8    3.20    0.54
 -11   3   8    2.40    0.45
  11   3  -8    3.51    0.58
   9  -3  -8   19.79    1.13
  -9  -3   8   18.63    1.03
   9  -3  -8   21.17    1.06
  -9  -3   8   20.03    0.99
  -9   3   8   20.29    1.08
   9   3  -8   21.00    1.16
  -7  -3   8   19.55    1.06
   7  -3  -8   21.32    1.16
  -7   3   8   21.71    1.12
   7   3  -8   23.54    1.21
   5  -3  -8    6.86    0.65
  -5  -3   8    7.81    0.61
   5   3  -8    8.35    0.75
  -5   3   8    8.18    0.67
  -3  -3   8    4.27    0.55
   3  -3  -8    4.08    0.55
   3   3  -8    4.46    0.61
  -3   3   8    5.01    0.59
  -1  -3   8   12.22    0.83
   1  -3  -8   12.04    0.89
   1   3  -8   13.22    0.99
  -1   3   8   13.63    0.91
  -1   3   8   12.21    0.89
   1  -3   8    0.72    0.34
  -1  -3  -8    0.72    0.42
   1   3   8    0.76    0.36
  -1   3  -8    0.60    0.31
  -1   3  -8    0.63    0.39
  -3   3  -8    2.34    0.67
  14  -4  -8    3.48    0.70
 -14  -4   8    3.57    0.64
  14  -4  -8    4.81    0.74
  14   4  -8    3.61    0.70
 -14   4   8    3.78    0.62
  14   4  -8    3.84    0.77
  12  -4  -8    1.86    0.54
 -12  -4   8    1.77    0.43
 -12  -4   8    1.52    0.45
  12  -4  -8    1.96    0.52
  12   4  -8    1.71    0.57
 -12   4   8    2.10    0.49
  12   4  -8    2.66    0.55
  10  -4  -8    1.45    0.47
 -10  -4   8    2.29    0.43
 -10  -4   8    1.37    0.39
 -10   4   8    1.68    0.45
  10   4  -8    1.99    0.47
  -8  -4   8    5.60    0.63
   8  -4  -8    5.77    0.70
   8   4  -8    4.99    0.70
  -8   4   8    5.85    0.66
  -6  -4   8    0.88    0.30
   6  -4  -8    1.46    0.45
  -6   4   8    1.57    0.38
   6   4  -8    1.62    0.46
  -4  -4   8    3.77    0.54
   4  -4  -8    2.98    0.52
  -4   4   8    4.70    0.62
   4   4  -8    3.22    0.59
   2  -4  -8    2.31    0.52
  -2  -4   8    2.52    0.47
  -2   4   8    2.65    0.51
   2   4  -8    3.63    0.65
   0  -4  -8    4.42    0.65
   0  -4   8    4.71    0.63
   0   4   8    5.47    0.74
   0   4  -8    4.67    0.71
   0   4   8    3.84    0.74
  11  -5  -8    4.19    0.73
 -11  -5   8    4.48    0.67
 -11   5   8    3.72    0.65
  11   5  -8    6.29    0.84
  -9  -5   8    4.45    0.62
   9  -5  -8    4.39    0.69
   9   5  -8    7.50    0.87
  -9   5   8    6.49    0.73
  -7  -5   8    1.01    0.39
   7  -5  -8    0.77    0.42
  -7   5   8    1.18    0.41
   7   5  -8    0.96    0.44
  -5  -5   8    0.73    0.34
   5  -5  -8    0.09    0.36
  -5   5   8    1.21    0.42
   5   5  -8    1.45    0.47
   3  -5  -8    3.64    0.65
  -3  -5   8    3.99    0.62
  -3   5   8    4.50    0.70
   3   5  -8    5.36    0.82
 -16   0   9    0.69    0.30
  16   0  -9    1.17    0.45
 -14   0   9   -0.28    0.20
  14   0  -9    0.33    0.34
 -12   0   9   15.72    0.90
  12   0  -9   16.52    0.99
 -10   0   9   54.00    2.12
  10   0  -9   54.36    2.21
  -8   0   9   11.85    0.69
  -8   0   9   11.57    0.65
   8   0  -9   12.15    0.77
  -6   0   9   10.10    0.62
  -6   0   9    9.74    0.61
   6   0  -9    9.35    0.66
   6   0  -9    8.95    0.68
  -4   0   9    5.50    0.51
   4   0  -9    5.98    0.56
  -2   0   9    0.01    0.24
   2   0  -9    0.20    0.29
   0   0   9    0.68    0.36
   0   0  -9    0.90    0.38
   2   0   9    2.91    0.62
  -2   0  -9    2.92    0.57
 -17  -1   9    2.37    0.52
  17  -1  -9    3.77    0.76
  17   1  -9    3.70    0.64
 -17   1   9    3.04    0.54
 -15  -1   9    1.17    0.36
  15  -1  -9    2.09    0.52
  15   1  -9    1.45    0.44
 -15   1   9    1.12    0.34
  13  -1  -9    2.28    0.47
 -13  -1   9    1.03    0.32
 -13   1   9    1.23    0.35
  13   1  -9    2.50    0.52
  11  -1  -9    9.87    0.74
 -11  -1   9    9.65    0.64
  11   1  -9   10.81    0.80
 -11   1   9    9.34    0.69
   9  -1  -9    1.11    0.30
  -9  -1   9    0.98    0.27
  -9  -1   9    0.96    0.24
   9  -1  -9    1.16    0.33
   9   1  -9    1.07    0.33
  -9   1   9    1.72    0.36
  -7  -1   9   14.05    0.72
   7  -1  -9   13.60    0.80
  -7  -1   9   14.98    0.78
   7  -1  -9   13.29    0.80
   7   1  -9   13.42    0.87
  -7   1   9   13.97    0.79
   5  -1  -9   11.46    0.76
  -5  -1   9   11.42    0.71
  -5   1   9   12.03    0.71
   5   1  -9   11.26    0.93
  -5   1   9   11.82    0.71
   5   1  -9   11.45    0.81
   3  -1  -9    2.95    0.49
  -3  -1   9    2.72    0.44
   3   1  -9    2.42    0.43
   3   1  -9    2.69    0.43
  -3   1   9    2.52    0.43
   1  -1  -9   12.96    0.89
  -1  -1   9   14.54    0.91
  -1   1   9   13.24    0.91
   1   1  -9   12.07    0.85
  -1  -1  -9    5.70    0.70
   1  -1   9    5.86    0.71
  -1   1  -9    6.65    0.75
   1   1   9    4.96    0.68
 -16  -2   9    1.62    0.45
  16  -2  -9    2.79    0.66
  16   2  -9    2.74    0.61
 -16   2   9    2.70    0.56
 -14  -2   9    0.53    0.30
  14  -2  -9    0.54    0.41
 -14   2   9    0.89    0.35
  14   2  -9    0.71    0.42
  12  -2  -9    0.64    0.34
  12  -2  -9    0.02    0.33
 -12  -2   9    0.38    0.23
 -12  -2   9    0.17    0.26
 -12   2   9    0.73    0.31
  12   2  -9    0.66    0.37
  10  -2  -9    3.78    0.48
  10  -2  -9    4.64    0.57
 -10  -2   9    4.96    0.51
 -10  -2   9    3.54    0.45
 -10   2   9    4.01    0.53
  10   2  -9    4.68    0.61
   8  -2  -9   12.50    0.83
  -8  -2   9   13.35    0.83
  -8  -2   9   12.44    0.75
   8   2  -9   13.82    0.90
  -8   2   9   12.50    0.81
   6  -2  -9    4.90    0.59
  -6  -2   9    5.07    0.56
   6   2  -9    5.17    0.62
  -6   2   9    5.93    0.60
  -4  -2   9   11.71    0.76
   4  -2  -9    9.55    0.79
   4   2  -9   11.07    0.83
  -4   2   9   10.82    0.73
  -4   2   9   11.65    0.77
  -2  -2   9   38.93    1.70
   2  -2  -9   35.31    1.69
   2   2  -9   34.32    1.72
  -2   2   9   36.47    1.71
   2   2  -9   38.99    1.75
   0  -2  -9    1.58    0.47
   0  -2   9    1.20    0.40
   0   2   9    1.54    0.45
   0   2  -9    1.62    0.41
  15  -3  -9    1.14    0.57
 -15  -3   9    0.94    0.40
 -15   3   9    0.74    0.40
  15   3  -9    1.23    0.48
 -13  -3   9    1.85    0.40
 -13  -3   9    2.31    0.44
  13  -3  -9    1.54    0.50
  13  -3  -9    1.85    0.54
 -13   3   9    2.14    0.47
  13   3  -9    1.98    0.52
  11  -3  -9    6.56    0.66
  11  -3  -9    5.24    0.68
 -11  -3   9    3.68    0.50
 -11  -3   9    4.83    0.52
  11   3  -9    6.11    0.73
 -11   3   9    4.82    0.61
   9  -3  -9    3.33    0.53
  -9  -3   9    2.45    0.41
  -9   3   9    3.22    0.48
   9   3  -9    4.42    0.63
  -7  -3   9    3.16    0.47
   7  -3  -9    3.62    0.53
  -7   3   9    2.46    0.46
   7   3  -9    3.57    0.58
  -5  -3   9    0.52    0.27
   5  -3  -9    0.41    0.36
  -5   3   9    0.77    0.35
   5   3  -9    0.22    0.34
   3  -3  -9    0.94    0.42
  -3  -3   9    1.15    0.37
   3   3  -9    1.04    0.43
  -3   3   9    1.18    0.37
  -1  -3   9    0.78    0.35
   1  -3  -9    0.70    0.45
  -1   3   9    0.85    0.37
   1   3  -9    0.83    0.41
  -1   3  -9   -0.12    0.43
 -14  -4   9    3.70    0.63
 -14  -4   9    4.66    0.66
  14  -4  -9    4.55    0.74
  14  -4  -9    4.91    0.80
  14   4  -9    5.79    1.15
 -12  -4   9    0.03    0.24
 -12  -4   9    0.13    0.36
  12  -4  -9    0.27    0.44
 -12   4   9    0.53    0.35
  12   4  -9    0.60    0.42
 -10  -4   9    0.21    0.21
  10  -4  -9   -0.03    0.37
  10   4  -9    0.08    0.32
 -10   4   9    0.15    0.29
  -8  -4   9   -0.03    0.20
   8  -4  -9   -0.14    0.34
  -8   4   9    0.41    0.32
   8   4  -9    0.40    0.38
  -6  -4   9    0.13    0.25
   6  -4  -9   -0.12    0.33
  -6   4   9    0.27    0.31
   6   4  -9    0.62    0.37
  -4  -4   9    0.68    0.34
   4  -4  -9    1.12    0.46
   4   4  -9    1.37    0.48
  -4   4   9    1.42    0.41
  -2  -4   9    7.56    0.98
   2  -4  -9    8.92    1.41
   2   4  -9   10.13    0.99
  -2   4   9   10.70    0.91
 -16   0  10    1.55    0.40
  16   0 -10    1.70    0.51
 -14   0  10    1.15    0.34
  14   0 -10    1.36    0.41
 -12   0  10   73.92    2.88
  12   0 -10   77.45    3.01
  10   0 -10    3.33    0.50
 -10   0  10    3.76    0.46
  -8   0  10    0.51    0.26
   8   0 -10    0.43    0.29
  -6   0  10    0.28    0.25
   6   0 -10    0.21    0.33
   6   0 -10    0.07    0.28
   4   0 -10    6.11    0.65
  -4   0  10    6.14    0.64
   2   0 -10    0.88    0.36
  -2   0  10    0.58    0.31
   0   0  10    1.81    0.57
   0   0 -10    1.85    0.48
  15  -1 -10    1.55    0.46
 -15  -1  10    0.95    0.32
 -15   1  10    1.26    0.38
  15   1 -10    1.64    0.49
  13  -1 -10    0.46    0.35
 -13  -1  10    1.03    0.29
  13   1 -10    0.70    0.39
 -13   1  10    0.22    0.26
 -11  -1  10   12.05    0.76
  11  -1 -10   12.46    0.87
  11   1 -10   14.76    0.95
 -11   1  10   12.65    0.83
   9  -1 -10    1.26    0.35
  -9  -1  10    1.94    0.34
   9  -1 -10    1.55    0.41
  -9  -1  10    2.29    0.35
  -9   1  10    1.67    0.36
   9   1 -10    1.76    0.44
   7  -1 -10    0.61    0.35
  -7  -1  10    0.53    0.25
   7   1 -10    0.19    0.29
  -7   1  10    0.97    0.28
  -5  -1  10   11.95    0.79
   5  -1 -10   11.10    0.83
  -5   1  10   11.29    0.77
   5   1 -10   11.76    0.87
   3  -1 -10   16.67    1.05
  -3  -1  10   17.29    1.01
   3   1 -10   16.95    0.99
  -3   1  10   17.55    1.05
   1  -1 -10    7.33    0.79
  -1  -1  10    8.41    0.84
   1   1 -10    7.46    0.79
  -1   1  10    7.95    0.85
  16  -2 -10    1.27    0.56
 -16  -2  10    0.81    0.38
  14  -2 -10    9.18    0.86
 -14  -2  10    7.85    0.70
  14   2 -10   10.31    0.90
 -14   2  10    9.25    0.78
  12  -2 -10    1.87    0.42
 -12  -2  10    1.08    0.30
  12   2 -10    0.79    0.39
 -12   2  10    0.84    0.35
 -10  -2  10    4.85    0.49
  10  -2 -10    4.03    0.58
 -10  -2  10    5.56    0.48
  10   2 -10    5.71    0.70
 -10   2  10    5.15    0.61
   8  -2 -10    7.63    0.69
  -8  -2  10    7.16    0.59
  -8   2  10    7.11    0.63
   8   2 -10    7.19    0.78
  -6  -2  10    4.95    0.56
   6  -2 -10    4.99    0.63
  -6   2  10    4.87    0.56
   6   2 -10    4.78    0.65
  -4  -2  10    3.33    0.52
   4  -2 -10    3.06    0.56
   4   2 -10    2.03    0.47
   2  -2 -10    9.56    0.89
  -2  -2  10   11.09    0.84
  -2   2  10   10.14    0.86
 -15  -3  10    1.97    0.49
  15  -3 -10    3.19    0.62
  13  -3 -10    3.89    0.66
 -13  -3  10    3.07    0.47
 -13  -3  10    3.61    0.53
  13  -3 -10    4.16    0.63
  13   3 -10    4.73    0.76
 -13   3  10    3.21    0.56
 -11  -3  10    1.43    0.36
  11  -3 -10    2.00    0.51
  11   3 -10    2.85    0.60
 -11   3  10    2.13    0.45
   9  -3 -10    3.17    0.56
  -9  -3  10    3.73    0.51
  -9   3  10    4.06    0.56
   9   3 -10    4.89    0.67
   7  -3 -10    0.43    0.41
  -7  -3  10    1.16    0.33
  -7   3  10    0.50    0.32
   7   3 -10    1.37    0.47
   5  -3 -10    0.99    0.45
  -5  -3  10    1.73    0.40
   5   3 -10    1.76    0.47
  -5   3  10    1.10    0.37
   3  -3 -10    0.93    0.45
  -3  -3  10    0.63    0.36
  -3   3  10    0.65    0.45
   3   3 -10    0.72    0.46
 -12  -4  10    0.28    0.31
  12  -4 -10   -0.34    0.41
 -10  -4  10    0.17    0.26
  10  -4 -10    0.68    0.44
  10   4 -10    0.49    0.42
 -10   4  10   -0.01    0.30
   8  -4 -10    2.96    0.56
  -8  -4  10    2.55    0.45
   8   4 -10    3.70    0.66
  -8   4  10    3.33    0.56
   6  -4 -10    0.58    0.45
  -6  -4  10    1.15    0.37
  -6   4  10    1.53    0.46
   6   4 -10    0.67    0.45
  -4   4  10    0.03    0.36
 -16   0  11    0.76    0.39
  16   0 -11    1.19    0.50
  14   0 -11    0.33    0.36
 -14   0  11    0.38    0.29
  12   0 -11   11.09    0.88
 -12   0  11   10.05    0.74
  10   0 -11    1.19    0.40
 -10   0  11    0.86    0.32
   8   0 -11    3.68    0.54
  -6   0  11    3.53    0.51
   4   0 -11    0.30    0.36
  -4   0  11   -0.40    0.25
   2   0 -11    2.46    0.54
  15  -1 -11    0.57    0.40
 -15  -1  11    0.51    0.32
 -15   1  11    0.28    0.30
  15   1 -11    0.32    0.39
  13  -1 -11    0.77    0.39
 -13  -1  11    0.56    0.27
  13   1 -11    0.47    0.38
 -13   1  11    0.66    0.33
 -11  -1  11   17.35    0.96
  11  -1 -11   17.36    1.08
 -11   1  11   17.56    1.04
  11   1 -11   20.87    1.19
  -9  -1  11    2.74    0.43
  -9   1  11    3.01    0.48
   9   1 -11    3.67    0.57
   7  -1 -11    1.63    0.46
  -7  -1  11    1.54    0.37
   7   1 -11    2.05    0.47
   5  -1 -11    3.79    0.58
  -5  -1  11    4.14    0.57
  -3  -1  11   19.68    1.18
   3  -1 -11   17.08    1.15
  -3   1  11   19.08    1.19
 -14  -2  11    0.20    0.25
  14  -2 -11    0.47    0.36
 -14   2  11    0.69    0.35
  14   2 -11    0.46    0.43
 -12  -2  11    2.86    0.43
 -12   2  11    2.79    0.51
  12   2 -11    3.62    0.63
 -10  -2  11    1.47    0.34
  10  -2 -11    0.37    0.40
 -10   2  11    1.31    0.38
  10   2 -11    1.59    0.48
   8  -2 -11    1.89    0.48
  -8  -2  11    1.76    0.38
   8   2 -11    1.90    0.49
  -8   2  11    3.89    0.55
  -6  -2  11    2.36    0.46
   6  -2 -11    2.13    0.53
   6   2 -11    2.33    0.52
  -6   2  11    2.21    0.52
   4  -2 -11    2.62    0.58
  -4  -2  11    2.82    0.52
  13  -3 -11    1.56    0.86
  11  -3 -11    0.46    0.43
 -11  -3  11    0.83    0.33
  11   3 -11    1.09    0.49
 -11   3  11    1.09    0.38
  -9  -3  11    1.89    0.40
   9  -3 -11    2.52    0.55
   9   3 -11    2.70    0.61
  -9   3  11    1.86    0.47
   7  -3 -11    0.46    0.44
  -7  -3  11    0.20    0.29
   7   3 -11    1.35    0.54
  -7   3  11    0.88    0.39
  -5   3  11    1.94    0.49
   5   3 -11    1.78    0.53
 -14   0  12    1.67    0.40
  14   0 -12    1.85    0.51
 -12   0  12    2.49    0.45
  12   0 -12    1.60    0.45
  10   0 -12    1.26    0.47
  -6   0  12    0.25    0.31
 -15  -1  12    0.69    0.41
  15  -1 -12    0.48    0.46
 -13  -1  12    3.95    0.52
  13  -1 -12    4.60    0.67
  13   1 -12    6.16    0.82
 -13   1  12    4.58    0.62
 -11   1  12   13.88    0.93
  11   1 -12   14.57    1.08
   9   1 -12    6.19    0.75
   7  -1 -12    0.50    0.58
  -7  -1  12    0.42    0.34
   5  -1 -12    1.31    0.57
 -14  -2  12    1.37    0.36
 -12   2  12    4.34    0.60
  12   2 -12    6.93    0.97
 -10  -2  12    3.33    0.50
  10   2 -12    4.05    0.70
 -10   2  12    4.11    0.59
   8  -2 -12    0.48    0.45
  -8  -2  12    0.63    0.32
  -8   2  12    1.32    0.42
   8   2 -12    0.49    0.43
   0   0   0    0.00    0.00
;
_shelx_hkl_checksum              24865
#END Tags that were not found in dictionaries
loop_
_space_group_symop_operation_xyz
'x, y, z'
'-x, y, -z'
'x+1/2, y+1/2, z'
'-x+1/2, y+1/2, -z'
loop_
_atom_site_label
_atom_site_type_symbol
_atom_site_fract_x
_atom_site_fract_y
_atom_site_fract_z
_atom_site_U_iso_or_equiv
_atom_site_adp_type
_atom_site_occupancy
_atom_site_site_symmetry_order
_atom_site_calc_flag
F1 F 0.64026(17) 0.4344(4) 0.0758(2) 0.0395(5) Uani 1 1 d
F2 F 0.57796(17) 0.0999(4) 0.2123(2) 0.0426(6) Uani 1 1 d
F3 F 0.73241(18) -0.2683(4) 0.3985(2) 0.0411(5) Uani 1 1 d
F4 F 1.00818(15) 0.0301(3) 0.3041(2) 0.0319(5) Uani 1 1 d
F5 F 0.85335(16) 0.3933(4) 0.1196(2) 0.0366(5) Uani 1 1 d
N1 N 0.9431(2) -0.3411(5) 0.4410(3) 0.0308(6) Uani 1 1 d
C1 C 0.7161(3) 0.2514(6) 0.1676(4) 0.0283(7) Uani 1 1 d
C2 C 0.6843(3) 0.0832(6) 0.2373(4) 0.0288(7) Uani 1 1 d
C3 C 0.7636(3) -0.1032(6) 0.3311(3) 0.0283(7) Uani 1 1 d
C4 C 0.8755(3) -0.1248(5) 0.3611(3) 0.0246(6) Uani 1 1 d
C5 C 0.9043(3) 0.0473(6) 0.2872(3) 0.0243(6) Uani 1 1 d
C6 C 0.8252(3) 0.2329(6) 0.1915(3) 0.0266(7) Uani 1 1 d
loop_
_atom_site_aniso_label
_atom_site_aniso_U_11
_atom_site_aniso_U_22
_atom_site_aniso_U_33
_atom_site_aniso_U_23
_atom_site_aniso_U_13
_atom_site_aniso_U_12
F1 0.0352(10) 0.0390(12) 0.0314(9) 0.0039(9) 0.0134(8) 0.0058(10)
F2 0.0283(11) 0.0603(15) 0.0403(11) -0.0010(11) 0.0214(9) -0.0005(10)
F3 0.0407(11) 0.0460(12) 0.0396(11) 0.0049(9) 0.0260(10) -0.0114(10)
F4 0.0255(9) 0.0459(12) 0.0249(8) 0.0035(8) 0.0157(8) 0.0000(8)
F5 0.0360(10) 0.0405(11) 0.0255(8) 0.0103(9) 0.0146(8) -0.0046(9)
N1 0.0369(15) 0.0244(14) 0.0291(13) -0.0005(11) 0.0189(11) -0.0011(11)
C1 0.0299(16) 0.0260(17) 0.0191(14) -0.0037(12) 0.0097(13) 0.0000(13)
C2 0.0255(17) 0.0364(18) 0.0231(13) -0.0078(13) 0.0140(13) -0.0052(15)
C3 0.0329(16) 0.0305(17) 0.0219(13) -0.0032(14) 0.0168(13) -0.0098(15)
C4 0.0277(15) 0.0226(16) 0.0175(12) -0.0044(12) 0.0106(11) -0.0050(12)
C5 0.0229(15) 0.0294(17) 0.0175(12) -0.0053(11) 0.0106(12) -0.0064(13)
C6 0.0292(16) 0.0262(16) 0.0171(14) -0.0016(12) 0.0102(13) -0.0079(13)
loop_
_atom_type_symbol
_atom_type_description
_atom_type_scat_dispersion_real
_atom_type_scat_dispersion_imag
_atom_type_scat_source
C C 0.0033 0.0016 'International Tables Vol C Tables 4.2.6.8 and 6.1.1.4'
N N 0.0061 0.0033 'International Tables Vol C Tables 4.2.6.8 and 6.1.1.4'
F F 0.0171 0.0103 'International Tables Vol C Tables 4.2.6.8 and 6.1.1.4'
loop_
_geom_angle_atom_site_label_1
_geom_angle_atom_site_label_2
_geom_angle_atom_site_label_3
_geom_angle
_geom_angle_site_symmetry_1
N1 N1 C4 122.38(16) 2_756
F1 C1 C6 119.7(3) .
F1 C1 C2 119.9(3) .
C6 C1 C2 120.4(3) .
F2 C2 C3 120.8(3) .
F2 C2 C1 120.3(3) .
C3 C2 C1 118.8(3) .
F3 C3 C2 118.9(3) .
F3 C3 C4 118.8(3) .
C2 C3 C4 122.3(3) .
C3 C4 C5 117.3(3) .
C3 C4 N1 117.3(3) .
C5 C4 N1 124.6(3) .
F4 C5 C6 118.8(3) .
F4 C5 C4 120.3(3) .
C6 C5 C4 120.9(3) .
F5 C6 C5 120.0(3) .
F5 C6 C1 119.8(3) .
C5 C6 C1 120.2(3) .
loop_
_geom_bond_atom_site_label_1
_geom_bond_atom_site_label_2
_geom_bond_distance
_geom_bond_site_symmetry_2
F1 C1 1.341(4) .
F2 C2 1.333(3) .
F3 C3 1.346(3) .
F4 C5 1.340(3) .
F5 C6 1.334(3) .
N1 N1 1.263(5) 2_756
N1 C4 1.431(4) .
C1 C6 1.377(4) .
C1 C2 1.379(5) .
C2 C3 1.378(5) .
C3 C4 1.388(4) .
C4 C5 1.397(4) .
C5 C6 1.377(4) .
loop_
_geom_torsion_atom_site_label_1
_geom_torsion_atom_site_label_2
_geom_torsion_atom_site_label_3
_geom_torsion_atom_site_label_4
_geom_torsion
_geom_torsion_site_symmetry_1
F1 C1 C2 F2 0.8(4) .
C6 C1 C2 F2 -179.2(3) .
F1 C1 C2 C3 180.0(3) .
C6 C1 C2 C3 0.0(4) .
F2 C2 C3 F3 -0.4(4) .
C1 C2 C3 F3 -179.6(3) .
F2 C2 C3 C4 -179.3(3) .
C1 C2 C3 C4 1.5(4) .
F3 C3 C4 C5 179.0(2) .
C2 C3 C4 C5 -2.1(4) .
F3 C3 C4 N1 8.9(4) .
C2 C3 C4 N1 -172.2(3) .
N1 N1 C4 C3 -137.1(4) 2_756
N1 N1 C4 C5 53.6(5) 2_756
C3 C4 C5 F4 -176.7(2) .
N1 C4 C5 F4 -7.4(4) .
C3 C4 C5 C6 1.3(4) .
N1 C4 C5 C6 170.6(3) .
F4 C5 C6 F5 -0.9(4) .
C4 C5 C6 F5 -178.9(3) .
F4 C5 C6 C1 178.1(2) .
C4 C5 C6 C1 0.1(4) .
F1 C1 C6 F5 -1.7(4) .
C2 C1 C6 F5 178.2(3) .
F1 C1 C6 C5 179.2(3) .
C2 C1 C6 C5 -0.8(4) .
