#------------------------------------------------------------------------------
#$Date: 2016-05-06 03:15:52 +0300 (Fri, 06 May 2016) $
#$Revision: 182603 $
#$URL: svn://www.crystallography.net/cod/cif/7/11/89/7118917.cif $
#------------------------------------------------------------------------------
#
# This file is available in the Crystallography Open Database (COD),
# http://www.crystallography.net/
#
# All data on this site have been placed in the public domain by the
# contributors.
#
data_7118917
loop_
_publ_author_name
'Tomakinian, Terry'
'Guillot, R\'egis'
'Kouklovsky, Cyrille'
'Vincent, Guillaume'
_publ_section_title
;
 Synthesis of benzofuro[3,2-b]indoline amines via deamination-interrupted
 Fischer indolization and their unexpected reactivity towards
 nucleophiles.
;
_journal_issue                   31
_journal_name_full
'Chemical communications (Cambridge, England)'
_journal_page_first              5443
_journal_page_last               5446
_journal_paper_doi               10.1039/c6cc00365f
_journal_volume                  52
_journal_year                    2016
_chemical_formula_moiety         'C16 H13 F3 N2 O'
_chemical_formula_sum            'C16 H13 F3 N2 O'
_chemical_formula_weight         306.28
_space_group_crystal_system      triclinic
_space_group_IT_number           2
_space_group_name_Hall           '-P 1'
_space_group_name_H-M_alt        'P -1'
_symmetry_cell_setting           triclinic
_symmetry_Int_Tables_number      2
_symmetry_space_group_name_Hall  '-P 1'
_symmetry_space_group_name_H-M   'P -1'
_atom_sites_solution_hydrogens   mixed
_audit_creation_method           SHELXL-2013
_audit_update_record
;
2015-12-04 deposited with the CCDC.
2016-03-15 downloaded from the CCDC.
;
_cell_angle_alpha                114.682(2)
_cell_angle_beta                 98.556(2)
_cell_angle_gamma                98.672(2)
_cell_formula_units_Z            2
_cell_length_a                   5.4475(4)
_cell_length_b                   12.1951(11)
_cell_length_c                   12.2971(10)
_cell_measurement_reflns_used    3388
_cell_measurement_temperature    100(1)
_cell_measurement_theta_max      31.56
_cell_measurement_theta_min      3.21
_cell_volume                     713.13(10)
_computing_cell_refinement       'Bruker SAINT'
_computing_data_collection       'Bruker APEX2'
_computing_data_reduction        'Bruker SAINT'
_computing_structure_refinement  'SHELXL-2013 (Sheldrick, 2013)'
_computing_structure_solution    'SHELXS-97 (Sheldrick, 2008)'
_diffrn_ambient_temperature      100(1)
_diffrn_measured_fraction_theta_full 0.941
_diffrn_measured_fraction_theta_max 0.801
_diffrn_measurement_device_type  'Bruker APEX-II CCD'
_diffrn_measurement_method       '\f and \w scans'
_diffrn_radiation_monochromator  graphite
_diffrn_radiation_probe          x-ray
_diffrn_radiation_type           MoK\a
_diffrn_radiation_wavelength     0.71073
_diffrn_reflns_av_R_equivalents  0.0244
_diffrn_reflns_av_unetI/netI     0.0321
_diffrn_reflns_limit_h_max       8
_diffrn_reflns_limit_h_min       -6
_diffrn_reflns_limit_k_max       15
_diffrn_reflns_limit_k_min       -17
_diffrn_reflns_limit_l_max       18
_diffrn_reflns_limit_l_min       -16
_diffrn_reflns_number            9568
_diffrn_reflns_theta_full        25.000
_diffrn_reflns_theta_max         31.728
_diffrn_reflns_theta_min         1.875
_diffrn_source_type              'kappa X8 APEX II Bruker ICMMO'
_exptl_absorpt_coefficient_mu    0.117
_exptl_absorpt_correction_T_max  0.9904
_exptl_absorpt_correction_T_min  0.9658
_exptl_absorpt_correction_type   multi-scan
_exptl_absorpt_process_details   SADABS
_exptl_crystal_colour            colorless
_exptl_crystal_density_diffrn    1.426
_exptl_crystal_description       bloc
_exptl_crystal_F_000             316
_exptl_crystal_size_max          0.290
_exptl_crystal_size_mid          0.210
_exptl_crystal_size_min          0.080
_refine_diff_density_max         0.457
_refine_diff_density_min         -0.344
_refine_diff_density_rms         0.054
_refine_ls_extinction_method     none
_refine_ls_goodness_of_fit_ref   1.039
_refine_ls_hydrogen_treatment    mixed
_refine_ls_matrix_type           full
_refine_ls_number_parameters     208
_refine_ls_number_reflns         3862
_refine_ls_number_restraints     0
_refine_ls_restrained_S_all      1.039
_refine_ls_R_factor_all          0.0627
_refine_ls_R_factor_gt           0.0457
_refine_ls_shift/su_max          0.000
_refine_ls_shift/su_mean         0.000
_refine_ls_structure_factor_coef Fsqd
_refine_ls_weighting_details
'w=1/[\s^2^(Fo^2^)+(0.0532P)^2^+0.3534P] where P=(Fo^2^+2Fc^2^)/3'
_refine_ls_weighting_scheme      calc
_refine_ls_wR_factor_gt          0.1127
_refine_ls_wR_factor_ref         0.1247
_reflns_Friedel_coverage         0.000
_reflns_number_gt                3003
_reflns_number_total             3862
_reflns_threshold_expression     'I > 2\s(I)'
_cod_data_source_file            c6cc00365f2.cif
_cod_data_source_block           4e
_cod_depositor_comments
'Adding full bibliography for 7118917--7118919.cif.'
_cod_database_code               7118917
_shelx_space_group_comment
;
The symmetry employed for this shelxl refinement is uniquely defined
by the following loop, which should always be used as a source of
symmetry information in preference to the above space-group names.
They are only intended as comments.
;
_shelx_estimated_absorpt_t_min   0.967
_shelx_estimated_absorpt_t_max   0.991
_shelxl_version_number           2013-4
_shelx_res_file
;
TITL 2097_0m in P-1
CELL  0.71073   5.4475  12.1951  12.2971  114.682   98.556   98.672
ZERR     2.00   0.0004   0.0011   0.0010    0.002    0.002    0.002
LATT   1
SFAC  C    H    N    O    F
UNIT  32   26   4    2    6
MERG   2
OMIT     1  -3   1
OMIT     0   3   2
OMIT     2  -5   4
FMAP   2
PLAN   20
SIZE     0.080   0.210   0.290
ACTA    50.00
BOND
WPDB  -2
L.S.  40
TEMP    20.00
WGHT    0.053200    0.353400
FVAR       0.34263
H100  2   -0.360961    0.016295    0.361534    11.00000    0.04531
H101  2   -0.418648   -0.116214    0.284912    11.00000    0.03856
MOLE    1
F2    5    0.792527    0.372874    0.224058    11.00000    0.04134    0.05514 =
         0.05478    0.03640    0.02734    0.01460
F3    5    0.422777    0.369975    0.134871    11.00000    0.05372    0.05276 =
         0.04646    0.03822    0.00699    0.00332
F1    5    0.593571    0.508278    0.320338    11.00000    0.10079    0.02173 =
         0.05014    0.01359    0.04345    0.01109
O2    4    0.048656   -0.093956    0.106226    11.00000    0.02712    0.02439 =
         0.01442    0.00893    0.00951    0.00738
N2    3   -0.302974   -0.052932    0.343604    11.00000    0.01497    0.03781 =
         0.02042    0.01621    0.00807    0.00994
N1    3    0.128392    0.058032    0.411229    11.00000    0.02239    0.02415 =
         0.01245    0.00943    0.00205    0.00397
AFIX  43
H1A   2    0.158704    0.061177    0.483264    11.00000   -1.20000
AFIX   0
C6    1    0.011626   -0.163187    0.253326    11.00000    0.01218    0.02417 =
         0.01460    0.00812    0.00172    0.00336
C7    1   -0.063070   -0.040397    0.305627    11.00000    0.01259    0.02606 =
         0.01362    0.00993    0.00434    0.00620
C10   1    0.152264    0.120784    0.260699    11.00000    0.01691    0.02331 =
         0.01446    0.00890    0.00554    0.00859
C14   1    0.443263    0.303470    0.290537    11.00000    0.02996    0.02241 =
         0.02270    0.01130    0.01146    0.00792
C11   1    0.254267    0.144778    0.382658    11.00000    0.01859    0.02173 =
         0.01435    0.00757    0.00570    0.00812
C15   1    0.243235    0.200507    0.214659    11.00000    0.02447    0.02553 =
         0.01773    0.01079    0.00896    0.01193
AFIX  43
H15   2    0.172486    0.185757    0.134768    11.00000   -1.20000
AFIX   0
C2    1    0.170402   -0.285922    0.077438    11.00000    0.02632    0.02486 =
         0.01920    0.00410    0.00736    0.00509
AFIX  43
H2    2    0.216614   -0.297907    0.004180    11.00000   -1.20000
AFIX   0
C8    1   -0.048270    0.001051    0.198820    11.00000    0.01599    0.02611 =
         0.01343    0.01000    0.00556    0.00835
C1    1    0.078703   -0.183545    0.143074    11.00000    0.01509    0.02121 =
         0.01576    0.00681    0.00265    0.00125
C13   1    0.547773    0.326068    0.411316    11.00000    0.03040    0.02247 =
         0.02280    0.00749    0.00536    0.00124
AFIX  43
H13   2    0.681919    0.394967    0.460551    11.00000   -1.20000
AFIX   0
C5    1    0.027069   -0.249062    0.299236    11.00000    0.02452    0.02658 =
         0.01819    0.01088    0.00260    0.00524
AFIX  43
H5    2   -0.021991   -0.237473    0.371810    11.00000   -1.20000
AFIX   0
C16   1    0.559965    0.388079    0.243216    11.00000    0.03941    0.02387 =
         0.02586    0.01025    0.01444    0.00701
C4    1    0.117336   -0.352815    0.234628    11.00000    0.03193    0.02272 =
         0.02594    0.01003    0.00152    0.00618
AFIX  43
H4    2    0.129007   -0.411085    0.264268    11.00000   -1.20000
AFIX   0
C12   1    0.454527    0.247431    0.458628    11.00000    0.02741    0.02552 =
         0.01605    0.00709    0.00290    0.00529
AFIX  43
H12   2    0.523858    0.262844    0.538892    11.00000   -1.20000
AFIX   0
C3    1    0.190346   -0.369912    0.125777    11.00000    0.03122    0.02151 =
         0.02637    0.00338    0.00450    0.00816
AFIX  43
H3    2    0.253632   -0.438807    0.084649    11.00000   -1.20000
AFIX   0
C9    1   -0.298768    0.006780    0.132082    11.00000    0.01797    0.04773 =
         0.02454    0.02354    0.00318    0.00857
AFIX 137
H9A   2   -0.270625    0.028156    0.067397    11.00000   -1.50000
H9B   2   -0.367731    0.068535    0.189007    11.00000   -1.50000
H9C   2   -0.417072   -0.072712    0.097449    11.00000   -1.50000
AFIX   0
HKLF    4

REM  2097_0m in P-1
REM R1 =  0.0457 for    3003 Fo > 4sig(Fo)  and  0.0627 for all    3862 data
REM    208 parameters refined using      0 restraints

END

WGHT      0.0528      0.3545

REM Highest difference peak  0.457,  deepest hole -0.344,  1-sigma level  0.054
Q1    1   0.2160  0.1333  0.3232  11.00000  0.05    0.46
Q2    1   0.0348 -0.1741  0.1959  11.00000  0.05    0.37
Q3    1  -0.0677 -0.0219  0.2549  11.00000  0.05    0.37
Q4    1   0.5137  0.3149  0.3488  11.00000  0.05    0.35
Q5    1   0.7519  0.4974  0.3603  11.00000  0.05    0.34
Q6    1   0.5334  0.3442  0.2752  11.00000  0.05    0.31
Q7    1   0.1000 -0.2459  0.1046  11.00000  0.05    0.28
Q8    1   0.0360 -0.2008  0.2835  11.00000  0.05    0.27
Q9    1  -0.0259 -0.1039  0.2805  11.00000  0.05    0.26
Q10   1   0.1257 -0.3551  0.1759  11.00000  0.05    0.25
Q11   1   0.4792  0.4326  0.2130  11.00000  0.05    0.25
Q12   1  -0.2022 -0.0436  0.3130  11.00000  0.05    0.25
Q13   1   0.2418  0.1655  0.2454  11.00000  0.05    0.25
Q14   1   0.1760 -0.3179  0.1113  11.00000  0.05    0.24
Q15   1  -0.1776 -0.0021  0.1659  11.00000  0.05    0.23
Q16   1   0.0707 -0.3061  0.2637  11.00000  0.05    0.23
Q17   1   0.5245  0.2658  0.4208  11.00000  0.05    0.23
Q18   1   0.2038  0.1012  0.3913  11.00000  0.05    0.21
Q19   1   0.2807  0.2042  0.4195  11.00000  0.05    0.21
Q20   1   0.1179  0.0548  0.2332  11.00000  0.05    0.20
;
_shelx_res_checksum              61192
_shelx_hkl_file
;
  -1   0   0   57.40    1.24
  -1   0   0   56.38    1.24
   1   0   0   56.87    1.24
   1   0   0   57.49    1.24
  -2   0   0   40.22    0.93
  -2   0   0   40.25    0.92
   2   0   0   40.68    0.93
   2   0   0   41.15    0.92
   2   0   0   39.65    0.91
  -3   0   0    8.89    0.27
  -3   0   0    8.80    0.26
   3   0   0    9.13    0.26
   3   0   0    8.83    0.26
   3   0   0    8.62    0.26
   4   0   0    7.38    0.25
   4   0   0    7.10    0.26
   5   0   0    0.81    0.10
   5   0   0    0.87    0.11
   6   0   0    1.26    0.12
   6  -1   0    5.87    0.23
   5  -1   0   14.46    0.42
   5  -1   0   14.01    0.42
   4  -1   0    0.07    0.06
   4  -1   0   -0.02    0.05
   3  -1   0   48.37    1.12
   3  -1   0   48.86    1.13
   3  -1   0   47.79    1.10
   3  -1   0   48.60    1.11
  -3   1   0   48.06    1.12
   2  -1   0  140.29    3.06
   2  -1   0  140.51    3.03
   2  -1   0  140.29    3.06
   2  -1   0  139.77    3.07
  -2   1   0  141.58    3.05
  -2   1   0  141.70    3.05
   1  -1   0  433.18    9.33
   1  -1   0  428.41    9.42
   1  -1   0  420.83    9.14
  -1   1   0  439.26    9.26
  -1   1   0  430.77    9.35
   0  -1   0  107.00    2.19
   0  -1   0   90.00    2.19
   0  -1   0  102.84    2.25
   0   1   0  106.46    2.20
  -1  -1   0  533.33   11.37
  -1  -1   0  526.79   11.54
   1   1   0  533.15   11.51
   1   1   0  537.05   11.60
   1   1   0  532.25   11.45
  -2  -1   0   90.09    1.97
  -2  -1   0   90.46    2.00
   2   1   0   88.51    1.97
   2   1   0   91.21    1.97
   2   1   0   86.77    1.99
  -3  -1   0   93.60    2.10
  -3  -1   0   94.10    2.07
   3   1   0   96.15    2.07
   3   1   0   94.46    2.09
   3   1   0   91.39    2.10
   4   1   0   11.48    0.34
   5   1   0   17.16    0.48
   5   1   0   18.06    0.52
   6   1   0    6.38    0.26
   6  -2   0    2.83    0.17
   5  -2   0   22.75    0.62
   5  -2   0   22.39    0.62
   4  -2   0   64.66    1.49
   4  -2   0   62.52    1.44
   4  -2   0   62.38    1.47
   4  -2   0   62.83    1.47
  -4   2   0   63.33    1.46
   3  -2   0    1.03    0.10
   3  -2   0    1.11    0.14
   3  -2   0    1.27    0.12
   3  -2   0    1.10    0.11
  -3   2   0    1.06    0.13
  -3   2   0    1.14    0.14
   2  -2   0   30.09    0.79
   2  -2   0   29.20    0.72
   2  -2   0   29.82    0.75
  -2   2   0   29.65    0.78
  -2   2   0   29.13    0.77
   1  -2   0  497.54   10.51
   1  -2   0  504.84   10.80
   1  -2   0  489.25   10.91
  -1   2   0  501.66   10.82
  -1   2   0  488.30   10.69
   0  -2   0    2.38    0.16
   0  -2   0    2.57    0.15
   0  -2   0    2.47    0.11
   0   2   0    2.08    0.14
   0   2   0    2.18    0.15
  -1  -2   0  349.64    7.27
  -1  -2   0  343.83    7.28
   1   2   0  340.26    7.27
   1   2   0  346.00    7.26
   1   2   0  325.58    7.52
  -2  -2   0  131.39    2.90
  -2  -2   0  131.09    2.92
   2   2   0  132.24    2.88
   2   2   0  129.72    2.88
   2   2   0  129.86    2.91
  -3  -2   0  121.99    2.76
  -3  -2   0  121.20    2.72
   3   2   0  123.71    2.70
   3   2   0  120.44    2.70
  -4  -2   0    1.92    0.17
   4   2   0    2.55    0.16
   4   2   0    2.28    0.14
   4   2   0    2.45    0.17
   6   2   0    2.47    0.19
   7  -3   0   -0.03    0.08
   6  -3   0    0.29    0.09
   5  -3   0   14.92    0.47
   4  -3   0    0.92    0.15
   4  -3   0    0.80    0.11
   4  -3   0    0.74    0.10
   4  -3   0    0.62    0.11
  -4   3   0    0.77    0.13
  -4   3   0    0.89    0.15
   3  -3   0    7.31    0.35
   3  -3   0    7.66    0.31
   3  -3   0    6.94    0.26
  -3   3   0    6.55    0.32
  -3   3   0    7.00    0.33
   2  -3   0    2.70    0.15
   2  -3   0    3.11    0.22
   2  -3   0    2.51    0.18
  -2   3   0    2.87    0.20
  -2   3   0    2.79    0.21
   1  -3   0    7.06    0.24
   1  -3   0    7.30    0.30
   1  -3   0    6.73    0.32
  -1   3   0    7.23    0.30
  -1   3   0    7.57    0.33
   0  -3   0  204.90    4.59
   0  -3   0  210.41    4.63
   0  -3   0  214.77    4.60
   0   3   0  211.38    4.59
   0   3   0  210.83    4.62
  -1  -3   0   30.29    0.85
  -1  -3   0   30.84    0.84
  -1  -3   0   30.58    0.74
   1   3   0   29.82    0.84
   1   3   0   31.15    0.83
  -2  -3   0    2.58    0.20
  -2  -3   0    2.59    0.20
   2   3   0    2.60    0.19
   2   3   0    2.70    0.20
   2   3   0    2.63    0.14
  -3  -3   0   26.25    0.78
  -3  -3   0   25.25    0.79
   3   3   0   26.99    0.68
   3   3   0   25.76    0.74
   3   3   0   25.84    0.78
  -4  -3   0   10.44    0.44
   4   3   0   10.50    0.43
   4   3   0    9.88    0.34
   7  -4   0    0.15    0.09
   6  -4   0    0.80    0.13
   5  -4   0    8.52    0.34
   4  -4   0   14.67    0.59
   4  -4   0   15.01    0.47
   4  -4   0   13.88    0.46
   4  -4   0   13.78    0.50
  -4   4   0   14.66    0.54
  -4   4   0   13.92    0.56
   3  -4   0  125.90    2.83
   3  -4   0  120.01    2.89
   3  -4   0  123.73    2.77
  -3   4   0  117.90    2.85
  -3   4   0  123.96    2.87
   2  -4   0   21.40    0.68
   2  -4   0   21.51    0.60
   2  -4   0   22.62    0.74
  -2   4   0   21.07    0.69
  -2   4   0   21.04    0.71
   1  -4   0   10.12    0.42
   1  -4   0   10.39    0.45
   1  -4   0   10.60    0.34
  -1   4   0   11.04    0.43
  -1   4   0   10.38    0.44
   0  -4   0   26.17    0.81
   0  -4   0   25.61    0.77
   0  -4   0   25.10    0.66
   0   4   0   25.84    0.80
   0   4   0   24.50    0.76
  -1  -4   0    4.26    0.29
  -1  -4   0    5.03    0.21
  -1  -4   0    4.85    0.29
   1   4   0    4.93    0.30
   1   4   0    5.15    0.28
  -2  -4   0    5.52    0.33
  -2  -4   0    5.75    0.33
   2   4   0    6.06    0.24
   2   4   0    5.56    0.30
   2   4   0    5.22    0.31
  -3  -4   0    1.20    0.19
  -3  -4   0    1.32    0.20
   3   4   0    1.52    0.21
   3   4   0    1.51    0.19
   3   4   0    1.73    0.15
  -4  -4   0    1.77    0.24
   7   4   0    0.30    0.12
   7  -5   0    0.07    0.10
   6  -5   0    7.72    0.34
   5  -5   0    0.07    0.11
   5  -5   0    0.00    0.09
  -5   5   0    0.02    0.11
   4  -5   0    9.54    0.37
   4  -5   0    9.07    0.43
  -4   5   0    9.68    0.46
   3  -5   0   31.00    0.93
   3  -5   0   28.52    0.81
  -3   5   0   30.40    0.96
   2  -5   0    0.07    0.07
   2  -5   0   -0.08    0.08
  -2   5   0   -0.01    0.09
   1  -5   0   94.45    2.27
   1  -5   0   93.48    2.14
  -1   5   0   90.04    2.29
   0  -5   0    3.87    0.20
   0  -5   0    3.67    0.28
   0   5   0    3.69    0.29
  -1  -5   0    3.28    0.19
  -1  -5   0    3.47    0.27
   1   5   0    3.34    0.27
  -2  -5   0   32.88    1.04
   2   5   0   33.96    1.04
  -3  -5   0    0.29    0.15
   3   5   0    0.41    0.15
   7  -6   0   -0.01    0.11
   6  -6   0    1.38    0.18
   5  -6   0    0.40    0.15
   5  -6   0    0.19    0.11
  -5   6   0    0.23    0.14
   4  -6   0   20.83    0.77
   4  -6   0   21.66    0.67
  -4   6   0   21.25    0.80
   3  -6   0    3.59    0.23
   3  -6   0    3.58    0.29
  -3   6   0    3.51    0.35
   2  -6   0    3.58    0.21
   2  -6   0    3.22    0.32
  -2   6   0    3.93    0.31
   1  -6   0   14.68    0.61
   1  -6   0   14.80    0.48
  -1   6   0   14.72    0.64
   0  -6   0   30.07    0.98
   0  -6   0   28.71    0.81
   0   6   0   30.81    1.01
  -1  -6   0    1.09    0.20
  -1  -6   0    0.69    0.12
   1   6   0    0.64    0.17
  -2  -6   0   -0.04    0.10
   2   6   0    0.20    0.13
  -3  -6   0   -0.05    0.14
   3   6   0    0.37    0.16
   7  -7   0    1.61    0.21
   6  -7   0    8.54    0.40
   5  -7   0    2.55    0.25
   5  -7   0    2.80    0.33
  -5   7   0    2.71    0.35
   4  -7   0   13.41    0.51
   4  -7   0   13.25    0.62
  -4   7   0   12.11    0.62
   3  -7   0    1.21    0.17
   3  -7   0    1.30    0.23
  -3   7   0    1.24    0.25
   2  -7   0    1.99    0.28
   2  -7   0    1.68    0.18
  -2   7   0    1.92    0.29
   1  -7   0   33.99    1.13
   1  -7   0   33.94    0.95
  -1   7   0   35.87    1.18
   0  -7   0   42.39    1.32
   0  -7   0   42.11    1.11
   0   7   0   42.16    1.34
  -1  -7   0    2.41    0.32
  -1  -7   0    1.96    0.19
   1   7   0    2.32    0.31
  -2  -7   0    1.96    0.30
   2   7   0    2.07    0.30
  -3  -7   0    4.08    0.44
   3   7   0    4.77    0.39
   7  -8   0   -0.22    0.12
   6  -8   0    0.81    0.17
   5  -8   0   20.78    0.86
   5  -8   0   20.37    0.70
  -5   8   0   20.06    0.87
   4  -8   0    9.74    0.44
   4  -8   0   10.73    0.59
  -4   8   0   10.21    0.60
   3  -8   0    0.09    0.11
   3  -8   0   -0.12    0.12
  -3   8   0   -0.05    0.13
   2  -8   0    8.51    0.52
   2  -8   0    8.99    0.40
  -2   8   0    8.59    0.54
   1  -8   0    1.81    0.21
   1  -8   0    1.70    0.28
  -1   8   0    1.56    0.28
   0  -8   0   34.76    0.97
   0  -8   0   32.30    1.17
   0   8   0   34.41    1.22
  -1  -8   0    5.17    0.30
  -1  -8   0    4.75    0.47
   1   8   0    5.40    0.43
  -2  -8   0    1.48    0.30
   2   8   0    2.24    0.34
  -3  -8   0    1.54    0.32
   3   8   0    1.85    0.32
   7  -9   0    0.01    0.13
   6  -9   0    0.08    0.14
   5  -9   0    0.02    0.16
   5  -9   0    0.18    0.13
  -5   9   0   -0.01    0.17
   4  -9   0    3.66    0.29
   4  -9   0    3.25    0.42
  -4   9   0    4.03    0.47
   3  -9   0   15.87    0.78
   3  -9   0   16.61    0.61
  -3   9   0   16.26    0.81
   2  -9   0    0.19    0.13
   2  -9   0    0.05    0.15
  -2   9   0    0.28    0.18
   1  -9   0    1.26    0.20
   1  -9   0    1.62    0.29
  -1   9   0    1.37    0.28
   0  -9   0   25.87    0.81
   0  -9   0   23.59    1.01
   0   9   0   25.00    1.04
  -1  -9   0    0.26    0.21
   1   9   0    0.42    0.22
  -2  -9   0    1.14    0.31
   2   9   0    0.86    0.26
  -3  -9   0    3.40    0.46
   3   9   0    2.78    0.42
   7 -10   0   -0.07    0.14
   6 -10   0    0.45    0.18
   5 -10   0    1.20    0.22
   5 -10   0    1.73    0.36
  -5  10   0    1.02    0.29
   4 -10   0    0.49    0.17
   4 -10   0    0.52    0.22
  -4  10   0    0.32    0.22
   3 -10   0    0.09    0.16
   3 -10   0    0.03    0.14
  -3  10   0    0.14    0.19
   2 -10   0   29.23    0.92
   2 -10   0   26.61    1.13
  -2  10   0   28.21    1.18
   1 -10   0    0.44    0.15
   1 -10   0    0.32    0.20
  -1  10   0    0.46    0.21
   0 -10   0   -0.16    0.15
   0 -10   0    0.06    0.14
   0  10   0   -0.12    0.15
  -1 -10   0   12.38    0.76
   1  10   0   15.07    0.81
  -2 -10   0   11.18    0.73
   2  10   0   10.82    0.70
  -3 -10   0   -0.21    0.19
   3  10   0    0.14    0.21
   7 -11   0    1.18    0.24
   6 -11   0    1.29    0.24
   5 -11   0    2.83    0.45
   5 -11   0    2.54    0.31
  -5  11   0    3.30    0.49
   4 -11   0    0.42    0.24
   4 -11   0    0.43    0.18
  -4  11   0    0.50    0.26
   3 -11   0    2.77    0.31
   3 -11   0    3.19    0.45
  -3  11   0    3.29    0.48
   2 -11   0    0.36    0.17
   2 -11   0   -0.07    0.14
  -2  11   0   -0.01    0.17
   1 -11   0   11.92    0.75
   1 -11   0   11.37    0.54
  -1  11   0   11.05    0.74
   0 -11   0    0.46    0.24
   0  11   0    1.08    0.31
   1  11   0   13.12    0.80
  -2 -11   0    0.31    0.23
   2  11   0    0.22    0.24
   6 -12   0    0.66    0.22
   5 -12   0    0.19    0.19
   5 -12   0    0.12    0.23
  -5  12   0   -0.15    0.23
   4 -12   0   -0.12    0.14
   4 -12   0    0.38    0.25
  -4  12   0    0.20    0.26
   3 -12   0    6.05    0.66
   3 -12   0    7.20    0.45
  -3  12   0    7.01    0.70
   2 -12   0    9.72    0.53
   2 -12   0    8.19    0.67
  -2  12   0   10.29    0.75
   1 -12   0    5.76    0.64
   1 -12   0    7.47    0.45
  -1  12   0    6.58    0.69
   0 -12   0    0.18    0.23
   0  12   0    0.22    0.23
  -1 -12   0    5.92    0.66
   1  12   0    4.86    0.61
  -2 -12   0   22.63    1.18
   2  12   0   22.74    1.16
   6 -13   0    0.17    0.20
   5 -13   0    0.31    0.21
   5 -13   0    0.13    0.28
  -5  13   0    0.70    0.35
   4 -13   0    0.16    0.19
   4 -13   0   -0.02    0.24
  -4  13   0    0.28    0.30
   3 -13   0   -0.04    0.17
   3 -13   0   -0.03    0.20
  -3  13   0   -0.02    0.20
   2 -13   0    0.65    0.22
   2 -13   0    0.40    0.26
  -2  13   0    0.09    0.22
   1 -13   0    3.96    0.56
  -1  13   0    4.32    0.59
   0 -13   0    0.07    0.21
   0  13   0   -0.25    0.20
  -1 -13   0    0.31    0.28
   1  13   0    0.12    0.25
  -2 -13   0    0.33    0.35
   2  13   0    0.68    0.33
   5 -14   0   -0.15    0.21
   4 -14   0    0.56    0.25
   3 -14   0    0.42    0.25
   3 -14   0   -0.08    0.24
  -3  14   0    0.15    0.25
   2 -14   0   25.19    0.97
  -2  14   0   21.25    1.21
   1 -14   0    4.61    0.66
  -1  14   0    5.43    0.71
   0 -14   0    0.01    0.25
   0  14   0   -0.15    0.23
   4 -15   0   -0.14    0.23
   3 -15   0    0.44    0.28
   4 -16   1    1.14    0.33
   2 -15   1    0.13    0.25
   3 -15   1   22.28    0.95
   4 -15   1    3.82    0.45
   5 -15   1    0.45    0.26
   1  14  -1    4.18    0.60
  -1 -14   1    3.26    0.57
   0  14  -1    1.10    0.38
   0 -14   1    1.43    0.41
  -1  14  -1   14.10    0.95
  -2  14  -1    0.46    0.27
   2 -14   1    0.27    0.29
   2 -14   1    0.67    0.23
  -3  14  -1    0.31    0.27
   3 -14   1    0.37    0.28
   3 -14   1    0.03    0.19
  -4  14  -1    1.87    0.47
   4 -14   1    1.40    0.41
   4 -14   1    1.30    0.31
  -5  14  -1    1.51    0.43
   5 -14   1    0.78    0.35
   5 -14   1    1.00    0.28
   2  13  -1    9.15    0.86
  -2 -13   1    7.63    0.84
   1  13  -1    9.67    0.77
  -1 -13   1    8.60    0.86
   0  13  -1    3.90    0.58
   0 -13   1    2.89    0.52
  -1  13  -1    0.28    0.25
   1 -13   1    0.28    0.24
   1 -13   1    0.55    0.22
  -2  13  -1    3.51    0.52
   2 -13   1    4.21    0.57
   2 -13   1    5.29    0.41
  -3  13  -1    3.33    0.51
   3 -13   1    3.01    0.49
   3 -13   1    2.80    0.35
  -4  13  -1    4.75    0.61
   4 -13   1    4.25    0.41
   4 -13   1    3.21    0.52
  -5  13  -1    7.29    0.74
   5 -13   1    9.13    0.73
   5 -13   1    8.34    0.52
   6 -13   1   -0.08    0.17
   2  12  -1    0.16    0.23
  -2 -12   1   -0.06    0.25
   1  12  -1    0.58    0.28
  -1 -12   1    0.72    0.32
   0  12  -1   12.39    0.81
   0 -12   1   10.60    0.76
  -1  12  -1   10.53    0.74
   1 -12   1    9.70    0.72
   1 -12   1   11.26    0.55
  -2  12  -1   10.13    0.72
   2 -12   1   10.92    0.54
   2 -12   1    8.58    0.68
  -3  12  -1    5.22    0.60
   3 -12   1    7.27    0.71
  -4  12  -1    4.70    0.58
   4 -12   1    5.38    0.40
   4 -12   1    5.61    0.62
  -5  12  -1    3.86    0.54
   5 -12   1    2.93    0.47
   5 -12   1    3.42    0.36
   6 -12   1    0.75    0.22
   3  11  -1    3.44    0.51
  -3 -11   1    3.14    0.53
   2  11  -1    1.28    0.31
  -2 -11   1    1.38    0.35
   1  11  -1    5.96    0.62
  -1 -11   1    4.78    0.58
   0  11  -1   92.55    2.71
  -1  11  -1    0.14    0.16
   1 -11   1    0.21    0.21
   1 -11   1    0.12    0.16
  -2  11  -1    0.18    0.19
   2 -11   1    0.21    0.20
   2 -11   1    0.76    0.20
  -3  11  -1    7.38    0.60
   3 -11   1    7.21    0.43
   3 -11   1    7.08    0.58
  -4  11  -1    1.72    0.36
   4 -11   1    0.89    0.20
   4 -11   1    1.17    0.31
  -5  11  -1    0.15    0.22
   5 -11   1    0.11    0.16
   5 -11   1   -0.12    0.18
   6 -11   1    0.93    0.22
   7 -11   1    0.43    0.18
   3  10  -1    2.40    0.41
  -3 -10   1    1.95    0.41
   2  10  -1    0.45    0.22
  -2 -10   1    0.20    0.22
   1  10  -1    1.16    0.28
  -1 -10   1    1.21    0.31
   0  10  -1   44.33    1.54
   0 -10   1   43.03    1.23
   0 -10   1   42.76    1.52
  -1  10  -1   33.70    1.30
   1 -10   1   34.27    1.30
   1 -10   1   34.38    1.03
  -2  10  -1    4.27    0.49
   2 -10   1    2.83    0.41
   2 -10   1    2.99    0.29
  -3  10  -1    8.12    0.59
   3 -10   1    8.54    0.43
   3 -10   1    8.86    0.60
  -4  10  -1   -0.21    0.15
   4 -10   1    0.05    0.13
   4 -10   1   -0.04    0.15
  -5  10  -1    3.36    0.44
   5 -10   1    3.20    0.43
   5 -10   1    3.46    0.29
   6 -10   1    1.05    0.21
   7 -10   1    2.93    0.30
   3   9  -1   -0.08    0.17
  -3  -9   1    0.15    0.22
   2   9  -1   12.11    0.69
  -2  -9   1   11.93    0.70
   1   9  -1   13.38    0.71
  -1  -9   1   11.68    0.68
  -1  -9   1   12.99    0.52
   0   9  -1    0.30    0.17
   0  -9   1    0.01    0.12
   0  -9   1    0.28    0.17
  -1   9  -1    3.82    0.44
   1  -9   1    3.24    0.40
   1  -9   1    4.46    0.29
  -2   9  -1   -0.05    0.13
   2  -9   1    0.12    0.15
   2  -9   1   -0.05    0.09
  -3   9  -1   16.13    0.78
   3  -9   1   17.16    0.79
   3  -9   1   15.63    0.59
  -4   9  -1    4.17    0.46
   4  -9   1    3.73    0.28
   4  -9   1    3.53    0.41
  -5   9  -1    4.12    0.44
   5  -9   1    2.95    0.39
   5  -9   1    3.70    0.29
   6  -9   1    1.36    0.21
   7  -9   1    0.33    0.15
   3   8  -1    5.15    0.51
  -3  -8   1    4.91    0.52
   2   8  -1   -0.01    0.13
  -2  -8   1    0.06    0.16
   1   8  -1    1.57    0.28
  -1  -8   1    0.79    0.21
  -1  -8   1    1.43    0.19
   0   8  -1    5.37    0.41
   0  -8   1    5.78    0.31
   0  -8   1    5.62    0.42
  -1   8  -1    2.17    0.31
   1  -8   1    1.67    0.28
   1  -8   1    1.98    0.20
  -2   8  -1    0.90    0.22
   2  -8   1    0.85    0.15
   2  -8   1    0.93    0.20
  -3   8  -1    0.72    0.21
   3  -8   1    0.32    0.15
   3  -8   1    0.62    0.14
  -4   8  -1    1.94    0.31
   4  -8   1    2.29    0.32
   4  -8   1    1.95    0.22
  -5   8  -1    1.07    0.25
   5  -8   1    0.80    0.16
   5  -8   1    0.82    0.22
   6  -8   1    1.64    0.21
   7  -8   1    0.45    0.15
   3   7  -1    1.19    0.26
  -3  -7   1    1.26    0.28
   2   7  -1    7.90    0.48
  -2  -7   1    7.68    0.49
   1   7  -1    6.69    0.44
  -1  -7   1    7.36    0.46
  -1  -7   1    7.10    0.32
   0   7  -1   10.93    0.56
   0  -7   1   12.02    0.58
   0  -7   1   11.42    0.42
  -1   7  -1    3.71    0.37
   1  -7   1    3.52    0.35
   1  -7   1    3.61    0.22
  -2   7  -1    6.23    0.42
   2  -7   1    6.01    0.29
   2  -7   1    6.15    0.40
  -3   7  -1    4.77    0.36
   3  -7   1    4.96    0.27
   3  -7   1    4.11    0.33
  -4   7  -1    0.34    0.16
   4  -7   1    0.39    0.16
   4  -7   1    0.31    0.12
   5  -7   1    0.32    0.11
   6  -7   1    3.83    0.26
   7  -7   1    0.96    0.16
   4   6  -1    0.49    0.19
  -4  -6   1    0.65    0.23
   3   6  -1    6.19    0.42
  -3  -6   1    5.93    0.43
   2   6  -1    1.80    0.26
  -2  -6   1    1.61    0.17
  -2  -6   1    1.46    0.24
   1   6  -1    9.23    0.48
  -1  -6   1    8.28    0.46
  -1  -6   1    9.05    0.35
   0   6  -1    8.36    0.45
   0  -6   1    7.80    0.43
   0  -6   1    7.95    0.31
  -1   6  -1    5.00    0.34
   1  -6   1    4.92    0.33
   1  -6   1    4.62    0.23
  -2   6  -1   25.72    0.88
   2  -6   1   25.62    0.72
   2  -6   1   25.61    0.85
  -3   6  -1    2.07    0.26
   3  -6   1    1.35    0.15
   3  -6   1    1.59    0.22
  -4   6  -1   -0.07    0.10
   4  -6   1    0.13    0.09
   4  -6   1   -0.03    0.09
   5  -6   1    7.54    0.33
   6  -6   1    3.04    0.22
   7  -6   1    1.51    0.17
   4   5  -1    6.61    0.42
  -4  -5   1    5.55    0.41
   3   5  -1    2.93    0.31
  -3  -5   1    2.22    0.28
   2   5  -1   18.25    0.69
  -2  -5   1   18.46    0.71
   1   5  -1   -0.01    0.08
  -1  -5   1    0.14    0.10
  -1  -5   1   -0.09    0.05
   0   5  -1    9.76    0.45
   0   5  -1   10.47    0.44
   0  -5   1   10.83    0.46
   0  -5   1   10.24    0.35
   0  -5   1    9.93    0.46
  -1   5  -1    8.83    0.42
  -1   5  -1    8.79    0.40
   1  -5   1    9.21    0.44
   1  -5   1    8.66    0.41
   1  -5   1    8.37    0.31
  -2   5  -1   54.97    1.44
  -2   5  -1   54.43    1.47
   2  -5   1   57.03    1.46
   2  -5   1   56.05    1.34
   2  -5   1   55.77    1.50
  -3   5  -1   22.10    0.74
  -3   5  -1   23.01    0.76
   3  -5   1   22.94    0.79
   3  -5   1   23.22    0.64
   3  -5   1   23.13    0.74
  -4   5  -1    0.60    0.15
  -4   5  -1    0.59    0.14
   4  -5   1    0.31    0.14
   4  -5   1    0.78    0.12
   4  -5   1    0.49    0.13
   5  -5   1    1.06    0.14
   6  -5   1    2.01    0.17
   7  -5   1    2.47    0.17
   7   4  -1    1.84    0.22
  -4  -4   1    4.84    0.35
   3   4  -1   18.09    0.61
   3   4  -1   17.75    0.52
   3   4  -1   18.22    0.67
  -3  -4   1   17.16    0.67
  -3  -4   1   17.63    0.64
   2   4  -1    7.49    0.36
   2   4  -1    7.64    0.37
  -2  -4   1    7.51    0.37
  -2  -4   1    6.46    0.36
   1   4  -1    1.86    0.20
   1   4  -1    2.01    0.22
  -1  -4   1    1.89    0.21
  -1  -4   1    1.68    0.13
  -1  -4   1    1.91    0.21
   0   4  -1   83.73    1.95
   0   4  -1   81.95    1.98
   0  -4   1   82.95    1.97
   0  -4   1   78.50    1.86
   0  -4   1   82.47    1.98
  -1   4  -1    3.04    0.22
  -1   4  -1    2.66    0.20
   1  -4   1    2.55    0.14
   1  -4   1    2.85    0.25
   1  -4   1    2.29    0.21
  -2   4  -1   15.63    0.51
  -2   4  -1   14.97    0.52
   2  -4   1   14.92    0.54
   2  -4   1   14.72    0.51
   2  -4   1   14.08    0.42
  -3   4  -1   24.95    0.73
  -3   4  -1   23.47    0.72
   3  -4   1   24.36    0.76
   3  -4   1   25.39    0.72
   3  -4   1   24.00    0.64
  -4   4  -1    3.19    0.21
  -4   4  -1    3.24    0.24
   4  -4   1    3.25    0.21
   4  -4   1    3.57    0.25
   4  -4   1    3.60    0.19
   5  -4   1    0.73    0.11
   6  -4   1    0.64    0.11
   7  -4   1    1.06    0.10
   7   3  -1   -0.01    0.11
   4   3  -1    2.77    0.18
   4   3  -1    3.08    0.25
  -4  -3   1    3.10    0.29
   3   3  -1    0.11    0.06
   3   3  -1    0.05    0.07
   3   3  -1    0.02    0.09
  -3  -3   1    0.01    0.10
  -3  -3   1    0.22    0.09
   2   3  -1   24.45    0.75
   2   3  -1   25.38    0.65
   2   3  -1   25.48    0.73
  -2  -3   1   25.49    0.77
  -2  -3   1   25.24    0.74
   1   3  -1   18.00    0.56
   1   3  -1   17.71    0.55
  -1  -3   1   18.12    0.57
  -1  -3   1   17.25    0.47
  -1  -3   1   17.25    0.55
   0   3  -1   60.96    1.45
   0   3  -1   62.00    1.47
   0  -3   1   59.47    1.46
   0  -3   1   58.88    1.38
   0  -3   1   63.16    1.47
  -1   3  -1    3.04    0.17
  -1   3  -1    3.39    0.20
   1  -3   1    3.06    0.14
   1  -3   1    3.14    0.19
   1  -3   1    3.07    0.18
  -2   3  -1   23.51    0.64
  -2   3  -1   23.36    0.66
   2  -3   1   23.12    0.64
   2  -3   1   22.79    0.58
   2  -3   1   24.97    0.68
  -3   3  -1   44.62    1.11
  -3   3  -1   45.41    1.10
   3  -3   1   44.93    1.05
   3  -3   1   44.59    1.13
   3  -3   1   44.91    1.08
  -4   3  -1    1.39    0.13
  -4   3  -1    1.25    0.11
   4  -3   1    1.24    0.13
   4  -3   1    1.16    0.11
   4  -3   1    1.51    0.13
   4  -3   1    1.41    0.12
   5  -3   1   45.27    1.08
   5  -3   1   43.02    1.05
   6  -3   1    5.22    0.20
   7   2  -1    0.61    0.13
   6   2  -1    0.56    0.13
   4   2  -1    0.13    0.08
   4   2  -1    0.06    0.08
   4   2  -1    0.08    0.06
  -4  -2   1    0.02    0.10
  -4  -2   1    0.07    0.08
   3   2  -1    2.13    0.21
   3   2  -1    1.56    0.13
   3   2  -1    1.97    0.18
  -3  -2   1    1.67    0.17
  -3  -2   1    1.57    0.19
   2   2  -1   17.64    0.47
   2   2  -1   17.93    0.53
   2   2  -1   17.01    0.55
  -2  -2   1   18.14    0.54
  -2  -2   1   16.66    0.55
   1   2  -1   81.12    1.85
   1   2  -1   79.46    1.86
  -1  -2   1   81.64    1.81
  -1  -2   1   82.49    1.85
  -1  -2   1   80.46    1.87
   0   2  -1  134.65    2.94
   0   2  -1  131.01    2.94
   0  -2   1  132.12    2.93
   0  -2   1  140.23    2.94
  -1   2  -1  140.80    3.00
  -1   2  -1  136.38    3.01
   1  -2   1  138.35    3.06
   1  -2   1  138.52    3.01
   1  -2   1  139.93    3.02
  -2   2  -1   52.02    1.17
  -2   2  -1   50.71    1.17
   2  -2   1   50.43    1.15
   2  -2   1   51.22    1.19
   2  -2   1   51.98    1.16
  -3   2  -1   12.82    0.34
   3  -2   1   12.93    0.34
   3  -2   1   13.35    0.35
   4  -2   1    0.36    0.07
   4  -2   1    0.38    0.06
   5  -2   1    0.08    0.05
   5  -2   1   -0.01    0.06
   7   1  -1    0.31    0.10
   6   1  -1    2.93    0.21
   5   1  -1    0.13    0.09
   4   1  -1    4.94    0.23
   4   1  -1    4.61    0.24
   4   1  -1    4.98    0.22
  -4  -1   1    4.94    0.26
  -4  -1   1    4.96    0.23
   3   1  -1   13.69    0.40
   3   1  -1   13.67    0.47
   3   1  -1   13.94    0.45
  -3  -1   1   14.18    0.48
  -3  -1   1   13.75    0.44
   2   1  -1   57.90    1.34
   2   1  -1   54.96    1.29
   2   1  -1   54.78    1.34
  -2  -1   1   57.35    1.33
  -2  -1   1   57.19    1.36
   1   1  -1  129.96    2.85
   1   1  -1  127.34    2.84
   1   1  -1  132.86    2.85
  -1  -1   1  129.51    2.85
  -1  -1   1  130.77    2.84
   0   1  -1    1.79    0.10
   0   1  -1    1.97    0.10
   0  -1   1    1.95    0.11
   0  -1   1    2.06    0.08
  -1   1  -1  940.04   19.26
   1  -1   1  832.57   19.27
   1  -1   1  962.59   19.28
   4  -1   1   34.56    0.80
   7   0  -1    6.20    0.26
   6   0  -1   -0.04    0.09
   5   0  -1    1.91    0.17
   5   0  -1    1.61    0.16
   4   0  -1    5.92    0.25
   4   0  -1    5.64    0.26
   4   0  -1    5.90    0.26
   4   0  -1    6.08    0.26
  -4   0   1    6.26    0.28
  -4   0   1    6.37    0.26
   3   0  -1   15.94    0.46
   3   0  -1   16.14    0.50
   3   0  -1   15.36    0.44
   3   0  -1   16.42    0.51
  -3   0   1   16.26    0.51
  -3   0   1   16.40    0.50
   2   0  -1   96.02    2.16
   2   0  -1   97.11    2.19
   2   0  -1   98.83    2.20
  -2   0   1   96.44    2.19
  -2   0   1   98.36    2.20
   1   0  -1  226.63    4.68
   1   0  -1  226.07    4.67
   1   0  -1  183.65    4.74
   1   0  -1  213.69    4.81
  -1   0   1  226.06    4.68
  -1   0   1  230.21    4.67
   0   0  -1   -0.99    0.03
   0   0  -1   -1.06    0.04
   0   0  -1   -0.98    0.04
   0   0   1   -0.99    0.03
   0   0   1   -1.01    0.04
  -1   0  -1   29.81    0.66
  -1   0  -1   29.50    0.65
   1   0   1   29.29    0.66
   1   0   1   29.56    0.64
   4   0   1    2.77    0.11
   7  -1  -1    7.19    0.29
   6  -1  -1    3.27    0.21
   5  -1  -1    2.77    0.19
   5  -1  -1    2.47    0.19
   4  -1  -1   19.51    0.57
   4  -1  -1   20.37    0.59
   4  -1  -1   20.51    0.58
   4  -1  -1   20.07    0.62
  -4   1   1   20.05    0.61
  -4   1   1   20.48    0.62
   3  -1  -1  115.46    2.66
   3  -1  -1  118.88    2.61
   3  -1  -1  118.39    2.63
   3  -1  -1  116.39    2.62
  -3   1   1  117.00    2.65
  -3   1   1  113.28    2.64
   2  -1  -1   67.54    1.59
   2  -1  -1   68.24    1.62
   2  -1  -1   68.92    1.54
   2  -1  -1   66.51    1.55
  -2   1   1   68.00    1.61
  -2   1   1   67.89    1.61
   1  -1  -1  109.53    2.45
   1  -1  -1  108.59    2.43
   1  -1  -1  109.46    2.42
  -1   1   1  110.30    2.44
  -1   1   1  108.20    2.45
   0  -1  -1   35.72    0.83
   0  -1  -1   37.33    0.90
   0  -1  -1   36.77    0.87
   0   1   1   36.27    0.89
   0   1   1   35.70    0.87
  -1  -1  -1  555.07   12.13
  -1  -1  -1  573.15   11.93
   1   1   1  560.51   12.31
   1   1   1  570.61   12.01
   1   1   1  570.59   12.17
  -2  -1  -1  193.23    4.21
  -2  -1  -1  198.35    4.21
   2   1   1  197.87    4.20
   2   1   1  197.95    4.25
   2   1   1  195.93    4.20
  -3  -1  -1   85.24    1.87
   3   1   1   86.37    1.90
   4   1   1   20.70    0.52
   5   1   1    0.10    0.06
   7  -2  -1    2.14    0.18
   6  -2  -1    0.49    0.12
   5  -2  -1   21.60    0.64
   4  -2  -1    1.94    0.22
   4  -2  -1    2.10    0.17
   4  -2  -1    2.18    0.17
   4  -2  -1    1.93    0.17
  -4   2   1    1.50    0.19
  -4   2   1    2.03    0.21
   3  -2  -1    4.99    0.26
   3  -2  -1    4.88    0.29
   3  -2  -1    4.67    0.22
   3  -2  -1    4.48    0.21
  -3   2   1    4.76    0.27
  -3   2   1    4.81    0.28
   2  -2  -1  404.49    9.53
   2  -2  -1  453.05    9.43
   2  -2  -1  444.93    9.55
   2  -2  -1  449.40    9.47
  -2   2   1  452.75    9.46
  -2   2   1  443.35    9.44
   1  -2  -1 1000.00   21.13
   1  -2  -1  939.78   21.46
   1  -2  -1  980.88   21.15
  -1   2   1  979.02   20.89
  -1   2   1  996.79   21.29
   0  -2  -1   92.09    2.12
   0  -2  -1   91.74    2.08
   0  -2  -1   95.12    2.16
   0   2   1   97.22    2.13
   0   2   1   91.64    2.15
  -1  -2  -1   45.14    1.13
  -1  -2  -1   44.04    1.09
   1   2   1   45.77    1.04
   1   2   1   43.65    1.11
   1   2   1   45.40    1.10
  -2  -2  -1  112.98    2.51
  -2  -2  -1  110.80    2.52
   2   2   1  112.32    2.46
   2   2   1  111.71    2.49
   2   2   1  109.25    2.50
  -3  -2  -1  128.83    2.92
  -3  -2  -1  134.15    2.94
   3   2   1  132.92    2.90
   3   2   1  129.79    2.89
   3   2   1  130.66    2.92
   4   2   1   88.63    2.00
   6   2   1    0.90    0.11
   7  -3  -1    2.31    0.19
   6  -3  -1    7.39    0.33
   5  -3  -1   19.32    0.61
   5  -3  -1   19.35    0.60
  -5   3   1   19.07    0.65
   4  -3  -1   46.95    1.17
   4  -3  -1   44.32    1.20
   4  -3  -1   44.86    1.15
   4  -3  -1   45.26    1.29
  -4   3   1   47.25    1.26
  -4   3   1   46.69    1.28
   3  -3  -1   84.28    2.06
   3  -3  -1   81.78    1.92
   3  -3  -1   80.49    1.91
   3  -3  -1   81.04    1.98
  -3   3   1   82.15    2.03
  -3   3   1   83.45    2.03
   2  -3  -1  215.31    4.77
   2  -3  -1  214.46    4.83
   2  -3  -1  215.93    4.78
  -2   3   1  219.67    4.80
  -2   3   1  215.68    4.82
   1  -3  -1  216.73    4.91
   1  -3  -1  226.83    4.87
   1  -3  -1  212.93    4.85
  -1   3   1  222.29    4.88
  -1   3   1  227.63    4.92
   0  -3  -1    1.49    0.12
   0  -3  -1    1.61    0.18
   0  -3  -1    1.17    0.18
   0   3   1    1.20    0.17
   0   3   1    1.22    0.16
  -1  -3  -1   55.51    1.28
  -1  -3  -1   55.74    1.38
  -1  -3  -1   54.02    1.42
   1   3   1   57.29    1.39
   1   3   1   54.67    1.40
  -2  -3  -1   24.12    0.73
  -2  -3  -1   24.83    0.75
   2   3   1   23.70    0.71
   2   3   1   24.84    0.63
   2   3   1   22.88    0.71
  -3  -3  -1    1.38    0.18
  -3  -3  -1    1.29    0.17
   3   3   1    1.31    0.16
   3   3   1    1.49    0.18
   3   3   1    0.86    0.10
   8  -4  -1    4.42    0.24
   7  -4  -1    1.93    0.21
   6  -4  -1   -0.02    0.10
   5  -4  -1    0.71    0.14
   5  -4  -1    0.78    0.16
  -5   4   1    0.90    0.19
   4  -4  -1    8.27    0.34
   4  -4  -1    7.38    0.33
   4  -4  -1    7.95    0.39
  -4   4   1    7.24    0.41
   3  -4  -1    7.50    0.38
   3  -4  -1    7.01    0.30
   3  -4  -1    6.43    0.41
  -3   4   1    7.60    0.41
  -3   4   1    6.99    0.40
   2  -4  -1  351.74    7.69
   2  -4  -1  350.42    7.66
   2  -4  -1  348.59    7.73
  -2   4   1  348.29    7.68
  -2   4   1  358.82    7.73
   1  -4  -1   54.61    1.41
   1  -4  -1   53.20    1.30
   1  -4  -1   52.22    1.46
  -1   4   1   53.50    1.42
  -1   4   1   56.14    1.47
   0  -4  -1   41.58    1.13
   0  -4  -1   40.06    1.01
   0  -4  -1   41.79    1.19
   0   4   1   41.02    1.17
   0   4   1   41.09    1.14
  -1  -4  -1  179.49    4.02
  -1  -4  -1  173.87    3.93
  -1  -4  -1  177.91    4.07
   1   4   1  175.94    4.04
   1   4   1  182.04    4.02
  -2  -4  -1   24.39    0.81
  -2  -4  -1   24.51    0.78
   2   4   1   24.73    0.66
   2   4   1   23.94    0.78
   2   4   1   23.66    0.76
  -3  -4  -1   15.10    0.60
  -3  -4  -1   16.23    0.61
   3   4   1   14.58    0.57
   3   4   1   15.51    0.47
   3   4   1   14.81    0.56
   7  -5  -1    8.98    0.40
   6  -5  -1    0.10    0.12
   5  -5  -1    0.32    0.14
   5  -5  -1    0.20    0.11
  -5   5   1    0.07    0.13
   4  -5  -1    6.36    0.38
   4  -5  -1    6.94    0.33
  -4   5   1    5.91    0.40
   3  -5  -1   23.65    0.72
   3  -5  -1   23.69    0.82
  -3   5   1   25.58    0.90
   2  -5  -1   18.12    0.68
   2  -5  -1   18.59    0.57
  -2   5   1   17.90    0.72
   1  -5  -1  166.57    3.73
   1  -5  -1  168.62    3.85
  -1   5   1  163.69    3.90
   0  -5  -1  142.00    3.25
   0  -5  -1  145.68    3.38
   0   5   1  145.95    3.43
  -1  -5  -1    8.43    0.32
  -1  -5  -1    8.95    0.45
   1   5   1   10.64    0.49
  -2  -5  -1    1.02    0.19
   2   5   1    0.75    0.17
  -3  -5  -1   10.95    0.53
   3   5   1   10.51    0.51
   7  -6  -1    1.63    0.21
   6  -6  -1    0.10    0.12
   5  -6  -1   15.58    0.66
   5  -6  -1   14.94    0.56
  -5   6   1   15.20    0.69
   4  -6  -1   20.48    0.68
   4  -6  -1   20.78    0.79
  -4   6   1   20.84    0.85
   3  -6  -1    5.52    0.30
   3  -6  -1    5.26    0.37
  -3   6   1    5.51    0.40
   2  -6  -1    2.08    0.28
   2  -6  -1    2.14    0.18
  -2   6   1    1.64    0.27
   1  -6  -1   13.08    0.59
   1  -6  -1   11.84    0.43
  -1   6   1   13.18    0.62
   0  -6  -1   -0.03    0.07
   0  -6  -1    0.17    0.11
   0   6   1    0.06    0.11
  -1  -6  -1   19.46    0.59
  -1  -6  -1   19.45    0.76
   1   6   1   19.61    0.78
  -2  -6  -1    1.48    0.25
   2   6   1    1.43    0.24
  -3  -6  -1    2.40    0.32
   3   6   1    1.94    0.28
   7  -7  -1    4.56    0.32
   6  -7  -1    1.11    0.19
   5  -7  -1    1.02    0.19
   5  -7  -1    0.83    0.21
  -5   7   1    1.26    0.28
   4  -7  -1   57.34    1.51
   4  -7  -1   56.76    1.67
  -4   7   1   57.04    1.73
   3  -7  -1    2.44    0.24
   3  -7  -1    2.42    0.32
  -3   7   1    2.40    0.34
   2  -7  -1   14.84    0.54
   2  -7  -1   15.52    0.69
  -2   7   1   16.49    0.75
   1  -7  -1   -0.06    0.08
   1  -7  -1   -0.12    0.08
  -1   7   1    0.08    0.12
   0  -7  -1   13.62    0.64
   0  -7  -1   13.81    0.49
   0   7   1   13.76    0.67
  -1  -7  -1    0.08    0.09
  -1  -7  -1    0.02    0.12
   1   7   1    0.42    0.16
  -2  -7  -1    5.74    0.43
   2   7   1    5.37    0.42
  -3  -7  -1    0.40    0.21
   3   7   1    0.22    0.17
   7  -8  -1    0.70    0.19
   6  -8  -1    2.68    0.28
   5  -8  -1    3.98    0.31
   5  -8  -1    3.75    0.43
  -5   8   1    4.43    0.48
   4  -8  -1    2.32    0.25
   4  -8  -1    3.11    0.38
  -4   8   1    2.46    0.37
   3  -8  -1    0.24    0.16
   3  -8  -1    0.14    0.13
  -3   8   1   -0.13    0.13
   2  -8  -1    0.37    0.14
   2  -8  -1    0.19    0.15
  -2   8   1    0.29    0.18
   1  -8  -1    4.01    0.28
   1  -8  -1    3.47    0.40
  -1   8   1    3.76    0.43
   0  -8  -1    0.14    0.14
   0  -8  -1    0.61    0.14
   0   8   1    1.00    0.25
  -1  -8  -1   17.32    0.81
   1   8   1   17.43    0.82
  -2  -8  -1    1.14    0.27
   2   8   1    0.67    0.22
  -3  -8  -1   -0.03    0.18
   3   8   1    0.06    0.18
   7  -9  -1   -0.01    0.14
   6  -9  -1    0.22    0.15
   5  -9  -1    4.05    0.47
   5  -9  -1    4.10    0.32
  -5   9   1    4.31    0.51
   4  -9  -1    0.52    0.17
   4  -9  -1    0.36    0.20
  -4   9   1    0.69    0.26
   3  -9  -1   20.56    0.73
   3  -9  -1   19.39    0.90
  -3   9   1   19.05    0.94
   2  -9  -1    0.65    0.17
   2  -9  -1    0.31    0.19
  -2   9   1    0.28    0.19
   1  -9  -1    1.21    0.27
   1  -9  -1    1.57    0.21
  -1   9   1    2.49    0.38
   0  -9  -1    5.93    0.35
   0  -9  -1    5.84    0.56
   0   9   1    5.80    0.58
  -1  -9  -1    0.42    0.21
   1   9   1    0.98    0.27
  -2  -9  -1    0.31    0.21
   2   9   1    0.55    0.22
  -3  -9  -1    0.10    0.24
   3   9   1    0.25    0.22
   7 -10  -1    0.00    0.16
   6 -10  -1    0.85    0.21
   5 -10  -1    1.38    0.24
   5 -10  -1    0.83    0.28
  -5  10   1    1.71    0.39
   4 -10  -1    0.62    0.24
   4 -10  -1    0.22    0.15
  -4  10   1    0.09    0.18
   3 -10  -1    0.17    0.20
   3 -10  -1    0.08    0.15
  -3  10   1    0.14    0.20
   2 -10  -1    3.06    0.30
   2 -10  -1    3.14    0.43
  -2  10   1    3.44    0.47
   1 -10  -1    2.26    0.26
   1 -10  -1    1.88    0.34
  -1  10   1    2.17    0.38
   0 -10  -1    3.43    0.46
   0  10   1    2.02    0.37
  -1 -10  -1    0.09    0.20
   1  10   1   -0.02    0.16
  -2 -10  -1    1.08    0.31
   2  10   1    1.28    0.34
   6 -11  -1    3.04    0.35
   5 -11  -1    0.09    0.22
   5 -11  -1    0.03    0.16
  -5  11   1    0.13    0.25
   4 -11  -1    0.18    0.21
   4 -11  -1   -0.07    0.15
  -4  11   1   -0.15    0.19
   3 -11  -1    1.59    0.35
   3 -11  -1    1.41    0.25
  -3  11   1    0.92    0.31
   2 -11  -1    0.50    0.24
   2 -11  -1    0.38    0.18
  -2  11   1    0.42    0.23
   1 -11  -1    1.43    0.33
   1 -11  -1    0.97    0.21
  -1  11   1    1.55    0.38
   0 -11  -1    7.68    0.62
   0  11   1    7.10    0.70
  -1 -11  -1    0.35    0.26
   1  11   1    0.62    0.26
  -2 -11  -1    0.41    0.28
   2  11   1    0.11    0.24
   6 -12  -1    1.76    0.30
   5 -12  -1    0.78    0.33
   5 -12  -1    1.46    0.29
  -5  12   1    1.21    0.38
   4 -12  -1    0.93    0.25
   4 -12  -1    0.60    0.28
  -4  12   1    1.00    0.33
   3 -12  -1    0.36    0.26
   3 -12  -1   -0.05    0.16
  -3  12   1    0.08    0.21
   2 -12  -1    1.00    0.23
   2 -12  -1    0.63    0.28
  -2  12   1    0.83    0.31
   1 -12  -1    1.92    0.40
  -1  12   1    2.87    0.48
   0 -12  -1   -0.11    0.19
   0  12   1    0.09    0.21
  -1 -12  -1    8.83    0.73
   1  12   1   10.40    0.77
  -2 -12  -1    0.75    0.34
   2  12   1    0.63    0.32
   6 -13  -1   -0.08    0.20
   5 -13  -1    0.31    0.31
   5 -13  -1    0.20    0.23
  -5  13   1    0.84    0.38
   4 -13  -1    0.07    0.20
   4 -13  -1    0.18    0.27
  -4  13   1    0.16    0.29
   3 -13  -1   -0.09    0.21
   3 -13  -1    0.24    0.22
  -3  13   1    0.23    0.27
   2 -13  -1    0.24    0.26
   2 -13  -1    0.33    0.21
  -2  13   1    0.44    0.28
   1 -13  -1    2.28    0.47
  -1  13   1    3.04    0.54
   0 -13  -1    4.81    0.65
   0  13   1    4.53    0.65
  -1 -13  -1    0.84    0.37
   1  13   1    0.60    0.34
   5 -14  -1    0.22    0.24
   4 -14  -1    0.30    0.26
   3 -14  -1    1.28    0.31
   4 -15  -1    1.26    0.34
   3 -15  -1    3.71    0.47
   3 -16   2    0.91    0.31
   4 -16   2    0.33    0.27
  -1  15  -2    0.21    0.30
  -2  15  -2   14.05    1.00
   2 -15   2   14.59    1.02
   2 -15   2   15.01    0.76
  -3  15  -2    0.05    0.26
   3 -15   2    0.13    0.28
   3 -15   2    0.18    0.23
   4 -15   2    0.70    0.26
   5 -15   2   -0.10    0.21
   1  14  -2    0.11    0.27
  -1 -14   2    0.86    0.37
   0  14  -2    1.05    0.35
   0 -14   2    1.25    0.40
  -1  14  -2    7.33    0.78
   1 -14   2    7.70    0.80
   1 -14   2    9.36    0.56
  -2  14  -2    1.21    0.36
   2 -14   2    0.99    0.35
   2 -14   2    1.38    0.30
  -3  14  -2    0.77    0.35
   3 -14   2    0.48    0.32
   3 -14   2    0.73    0.24
  -4  14  -2    0.60    0.30
   4 -14   2    1.24    0.39
   4 -14   2    0.44    0.23
   5 -14   2    3.50    0.40
   2  13  -2    6.51    0.71
  -2 -13   2    5.70    0.71
   1  13  -2   -0.04    0.21
  -1 -13   2    0.07    0.24
   0  13  -2   -0.03    0.22
   0 -13   2    0.45    0.26
  -1  13  -2   17.10    0.99
   1 -13   2   16.87    0.74
   1 -13   2   17.98    1.03
  -2  13  -2   13.92    0.87
   2 -13   2   10.71    0.80
   2 -13   2   13.17    0.63
  -3  13  -2    1.45    0.38
   3 -13   2    2.22    0.31
   3 -13   2    1.35    0.36
  -4  13  -2   -0.02    0.22
   4 -13   2    0.30    0.26
   4 -13   2    0.30    0.19
   5 -13   2    4.59    0.39
   6 -13   2    0.08    0.17
   3  12  -2    6.21    0.68
  -3 -12   2    4.49    0.61
   2  12  -2    2.20    0.43
  -2 -12   2    2.55    0.50
   1  12  -2   18.16    0.98
   0  12  -2    1.26    0.33
   0 -12   2    1.05    0.31
   0 -12   2    1.00    0.23
  -1  12  -2    4.92    0.57
   1 -12   2    4.54    0.56
   1 -12   2    5.39    0.38
  -2  12  -2    4.33    0.54
   2 -12   2    5.29    0.39
   2 -12   2    4.54    0.55
  -3  12  -2   16.03    0.90
   3 -12   2   14.97    0.88
   3 -12   2   15.90    0.67
  -4  12  -2    1.25    0.34
   4 -12   2    1.49    0.35
   4 -12   2    1.94    0.27
   5 -12   2    0.48    0.19
   6 -12   2    1.88    0.27
   3  11  -2    1.52    0.36
  -3 -11   2    1.22    0.36
   2  11  -2   16.12    0.89
  -2 -11   2   13.47    0.86
   1  11  -2    0.16    0.19
  -1 -11   2   -0.01    0.18
   0  11  -2    1.54    0.35
   0 -11   2    1.39    0.34
   0 -11   2    2.16    0.29
  -1  11  -2   44.09    1.58
   1 -11   2   42.54    1.57
  -2  11  -2   17.47    0.90
   2 -11   2   18.73    0.70
   2 -11   2   17.48    0.91
  -3  11  -2    5.72    0.57
   3 -11   2    5.17    0.56
   3 -11   2    5.77    0.38
  -4  11  -2    0.84    0.26
   4 -11   2    0.76    0.27
   4 -11   2    0.76    0.19
   5 -11   2    1.71    0.24
   6 -11   2    1.67    0.24
   7 -11   2    0.88    0.20
   3  10  -2    7.70    0.60
  -3 -10   2    7.56    0.72
   2  10  -2    3.52    0.45
  -2 -10   2    2.52    0.41
   1  10  -2  124.34    3.25
  -1 -10   2  116.46    3.24
   0  10  -2    3.57    0.45
   0 -10   2    3.58    0.28
   0 -10   2    2.78    0.40
  -1  10  -2   34.65    1.29
   1 -10   2   32.78    1.28
   1 -10   2   35.34    1.04
  -2  10  -2   18.36    0.89
   2 -10   2   19.69    0.70
   2 -10   2   19.90    0.91
  -3  10  -2    0.31    0.19
   3 -10   2    0.24    0.18
   3 -10   2    0.09    0.13
  -4  10  -2    0.42    0.21
   4 -10   2    0.80    0.18
   4 -10   2    1.18    0.29
   5 -10   2    2.40    0.26
   6 -10   2    0.61    0.18
   7 -10   2    0.10    0.14
   3   9  -2    6.41    0.52
  -3  -9   2    5.04    0.56
   2   9  -2   42.75    1.46
  -2  -9   2   39.91    1.46
   1   9  -2   40.11    1.38
  -1  -9   2   38.71    1.11
  -1  -9   2   38.01    1.37
   0   9  -2   44.29    1.47
   0  -9   2   43.53    1.48
   0  -9   2   44.71    1.22
  -1   9  -2    8.37    0.53
   1  -9   2    7.99    0.38
   1  -9   2    6.63    0.49
  -2   9  -2   35.09    1.24
   2  -9   2   34.87    1.23
   2  -9   2   34.65    1.01
  -3   9  -2   10.46    0.61
   3  -9   2   12.37    0.48
   3  -9   2    9.75    0.59
  -4   9  -2    0.44    0.20
   4  -9   2    0.62    0.21
   4  -9   2    0.54    0.15
   5  -9   2    5.74    0.34
   6  -9   2    0.51    0.16
   7  -9   2    1.48    0.21
   3   8  -2   16.61    0.81
  -3  -8   2   16.05    0.81
   2   8  -2    5.25    0.51
  -2  -8   2    5.64    0.54
   1   8  -2    2.09    0.31
  -1  -8   2    1.08    0.24
  -1  -8   2    1.81    0.21
   0   8  -2   20.89    0.86
   0  -8   2   21.50    0.88
   0  -8   2   20.97    0.67
  -1   8  -2    0.73    0.20
   1  -8   2    1.13    0.17
   1  -8   2    0.68    0.19
  -2   8  -2    7.94    0.49
   2  -8   2    7.70    0.48
   2  -8   2    7.22    0.34
  -3   8  -2    0.69    0.19
   3  -8   2    0.60    0.18
   3  -8   2    0.76    0.15
  -4   8  -2   31.19    1.08
   4  -8   2   32.23    1.09
   4  -8   2   32.23    0.92
   5  -8   2    1.48    0.19
   6  -8   2    0.47    0.14
   7  -8   2    0.21    0.12
   4   7  -2    3.65    0.43
  -4  -7   2    3.77    0.46
   3   7  -2    0.10    0.15
  -3  -7   2   -0.03    0.17
   2   7  -2   21.99    0.88
  -2  -7   2   23.03    0.92
  -2  -7   2   22.69    0.70
   1   7  -2   10.80    0.56
  -1  -7   2   11.22    0.42
  -1  -7   2   10.53    0.57
   0   7  -2   10.25    0.53
   0  -7   2   10.86    0.55
   0  -7   2   10.73    0.41
  -1   7  -2    7.60    0.45
   1  -7   2    7.64    0.33
   1  -7   2    8.18    0.47
  -2   7  -2   64.48    1.74
   2  -7   2   61.19    1.53
   2  -7   2   62.09    1.72
  -3   7  -2    0.15    0.11
   3  -7   2    0.20    0.12
   3  -7   2    0.27    0.10
  -4   7  -2   20.65    0.76
   4  -7   2   19.74    0.62
   4  -7   2   19.96    0.75
   5  -7   2    0.44    0.12
   6  -7   2    0.23    0.11
   7  -7   2    1.03    0.16
   4   6  -2    6.68    0.47
  -4  -6   2    6.64    0.49
   3   6  -2    5.88    0.41
  -3  -6   2    5.48    0.42
   2   6  -2   38.24    1.20
  -2  -6   2   38.85    1.02
  -2  -6   2   37.57    1.22
   1   6  -2   83.66    2.15
  -1  -6   2   85.00    2.17
  -1  -6   2   81.30    1.97
   0   6  -2    0.15    0.10
   0  -6   2    0.06    0.07
   0  -6   2    0.17    0.11
  -1   6  -2    1.40    0.21
   1  -6   2    0.71    0.11
   1  -6   2    0.92    0.18
  -2   6  -2    0.10    0.10
   2  -6   2    0.14    0.08
   2  -6   2    0.00    0.08
  -3   6  -2   -0.01    0.09
   3  -6   2    0.20    0.11
   3  -6   2    0.30    0.09
  -4   6  -2    2.29    0.26
  -4   6  -2    2.24    0.24
   4  -6   2    1.81    0.17
   4  -6   2    2.12    0.24
   4  -6   2    1.58    0.24
   5  -6   2    1.03    0.14
   6  -6   2    1.32    0.15
   7  -6   2    3.03    0.19
   7   5  -2    1.20    0.22
  -4  -5   2    0.03    0.16
   3   5  -2    2.22    0.29
  -3  -5   2    2.56    0.32
   2   5  -2    0.88    0.18
  -2  -5   2    0.90    0.12
  -2  -5   2    0.77    0.18
   1   5  -2    3.42    0.25
   1   5  -2    3.61    0.27
  -1  -5   2    3.62    0.29
  -1  -5   2    3.31    0.19
  -1  -5   2    3.09    0.25
   0   5  -2    7.98    0.40
   0   5  -2    8.07    0.39
   0  -5   2    8.34    0.41
   0  -5   2    7.40    0.39
   0  -5   2    7.79    0.29
  -1   5  -2   38.11    1.10
  -1   5  -2   38.75    1.07
   1  -5   2   38.69    1.10
   1  -5   2   40.03    0.97
   1  -5   2   38.00    1.10
  -2   5  -2   25.65    0.79
  -2   5  -2   25.60    0.77
   2  -5   2   24.93    0.78
   2  -5   2   25.24    0.80
   2  -5   2   25.11    0.67
  -3   5  -2   24.96    0.76
  -3   5  -2   25.20    0.75
   3  -5   2   25.11    0.66
   3  -5   2   24.04    0.75
   3  -5   2   24.11    0.79
  -4   5  -2    0.08    0.09
  -4   5  -2    0.08    0.08
   4  -5   2    0.02    0.09
   4  -5   2    0.06    0.07
   4  -5   2    0.03    0.10
   5  -5   2    4.68    0.22
   6  -5   2    0.26    0.09
   7   4  -2    0.18    0.15
   4   4  -2    0.24    0.14
  -4  -4   2    0.42    0.17
   3   4  -2   11.60    0.54
   3   4  -2   12.07    0.41
   3   4  -2   12.02    0.50
  -3  -4   2   13.23    0.53
  -3  -4   2   12.45    0.56
   2   4  -2   57.61    1.48
   2   4  -2   54.69    1.50
  -2  -4   2   57.51    1.49
  -2  -4   2   58.12    1.54
   1   4  -2    3.91    0.27
   1   4  -2    4.61    0.27
  -1  -4   2    4.11    0.20
  -1  -4   2    4.01    0.26
  -1  -4   2    4.34    0.29
   0   4  -2    5.41    0.29
   0   4  -2    5.66    0.29
   0  -4   2    5.64    0.22
   0  -4   2    5.32    0.29
   0  -4   2    5.19    0.30
  -1   4  -2    1.62    0.17
  -1   4  -2    0.73    0.13
   1  -4   2    0.74    0.13
   1  -4   2    1.43    0.17
   1  -4   2    0.70    0.09
  -2   4  -2   36.23    0.96
  -2   4  -2   35.31    0.94
   2  -4   2   35.66    0.87
   2  -4   2   35.51    0.97
   2  -4   2   37.09    0.97
  -3   4  -2    1.00    0.14
  -3   4  -2    1.42    0.15
   3  -4   2    1.19    0.11
   3  -4   2    1.31    0.15
   3  -4   2    1.39    0.17
  -4   4  -2   -0.09    0.06
  -4   4  -2   -0.08    0.06
   4  -4   2    0.11    0.07
   4  -4   2    0.01    0.06
   4  -4   2   -0.06    0.07
   5  -4   2    1.97    0.13
   5  -4   2    1.85    0.15
   6  -4   2   -0.01    0.05
   7   3  -2    5.23    0.32
   6   3  -2    1.52    0.22
   4   3  -2    0.11    0.10
   4   3  -2   -0.01    0.11
  -4  -3   2    0.02    0.12
  -4  -3   2    0.03    0.10
   3   3  -2    0.61    0.10
   3   3  -2    0.56    0.13
   3   3  -2    0.82    0.17
  -3  -3   2    0.70    0.16
  -3  -3   2    0.64    0.14
   2   3  -2   13.86    0.51
   2   3  -2   13.82    0.53
  -2  -3   2   13.42    0.50
  -2  -3   2   13.50    0.53
   1   3  -2  253.76    5.51
   1   3  -2  248.27    5.52
  -1  -3   2  249.15    5.51
  -1  -3   2  254.32    5.50
  -1  -3   2  256.80    5.54
   0   3  -2    0.15    0.08
   0   3  -2    0.15    0.08
   0  -3   2    0.06    0.08
   0  -3   2    0.12    0.06
   0  -3   2    0.12    0.08
  -1   3  -2   80.64    1.86
  -1   3  -2   81.34    1.85
   1  -3   2   81.73    1.87
   1  -3   2   79.46    1.85
   1  -3   2   78.95    1.80
  -2   3  -2    1.83    0.13
  -2   3  -2    2.06    0.14
   2  -3   2    2.22    0.15
   2  -3   2    1.95    0.11
   2  -3   2    2.13    0.15
  -3   3  -2    0.34    0.07
  -3   3  -2    0.39    0.07
   3  -3   2    0.47    0.06
   3  -3   2    0.46    0.08
   3  -3   2    0.45    0.08
   4  -3   2    0.13    0.05
   7   2  -2    1.63    0.20
   6   2  -2    7.44    0.37
   5   2  -2    2.90    0.24
   4   2  -2    1.33    0.14
   4   2  -2    1.11    0.18
   4   2  -2    1.37    0.18
  -4  -2   2    1.24    0.20
  -4  -2   2    1.04    0.15
   3   2  -2    0.10    0.09
   3   2  -2   -0.02    0.08
   3   2  -2    0.03    0.06
  -3  -2   2    0.04    0.10
  -3  -2   2    0.23    0.09
   2   2  -2   52.39    1.36
   2   2  -2   53.15    1.35
   2   2  -2   53.60    1.26
  -2  -2   2   52.86    1.38
  -2  -2   2   54.43    1.34
   1   2  -2   82.75    1.94
   1   2  -2   81.69    1.95
  -1  -2   2   83.35    1.96
  -1  -2   2   82.43    1.93
  -1  -2   2   84.33    1.88
   0   2  -2  108.30    2.43
   0   2  -2  110.15    2.43
   0  -2   2  111.91    2.44
   0  -2   2  105.85    2.39
   0  -2   2  104.94    2.41
  -1   2  -2   11.93    0.36
  -1   2  -2   12.21    0.37
   1  -2   2   11.96    0.31
   1  -2   2   11.87    0.37
   1  -2   2   12.01    0.36
  -2   2  -2   32.58    0.74
  -2   2  -2   32.86    0.77
   2  -2   2   32.26    0.76
   2  -2   2   31.62    0.76
   2  -2   2   32.98    0.73
   3  -2   2    0.04    0.03
   7   1  -2    0.32    0.12
   6   1  -2    0.32    0.12
   5   1  -2    3.45    0.24
   4   1  -2    6.68    0.30
   4   1  -2    6.18    0.28
   4   1  -2    6.22    0.33
   4   1  -2    6.19    0.33
  -4  -1   2    6.40    0.35
  -4  -1   2    6.55    0.32
   3   1  -2   10.87    0.44
   3   1  -2   10.39    0.43
   3   1  -2   11.22    0.36
  -3  -1   2   10.26    0.42
  -3  -1   2   10.45    0.44
   2   1  -2    0.38    0.10
   2   1  -2    0.42    0.10
   2   1  -2    0.47    0.08
  -2  -1   2    0.34    0.10
  -2  -1   2    0.38    0.11
   1   1  -2  383.19    7.99
   1   1  -2  371.74    7.99
  -1  -1   2  363.10    8.18
  -1  -1   2  367.81    7.98
  -1  -1   2  381.80    8.00
   0   1  -2   67.68    1.53
   0   1  -2   64.62    1.52
   0   1  -2   62.77    1.48
   0  -1   2   65.64    1.53
   0  -1   2   68.45    1.52
   0  -1   2   66.33    1.48
  -1   1  -2   14.16    0.38
  -1   1  -2   14.06    0.39
   1  -1   2   13.82    0.34
   1  -1   2   13.82    0.39
   1  -1   2   13.82    0.35
   1  -1   2   14.20    0.38
   7   0  -2    0.33    0.13
   6   0  -2    3.99    0.26
   5   0  -2    1.13    0.16
   4   0  -2    4.56    0.29
   4   0  -2    3.86    0.22
   4   0  -2    4.36    0.27
   4   0  -2    3.95    0.23
  -4   0   2    3.97    0.27
  -4   0   2    4.44    0.28
   3   0  -2   24.73    0.67
   3   0  -2   23.45    0.67
   3   0  -2   25.15    0.76
   3   0  -2   25.06    0.77
  -3   0   2   24.13    0.76
  -3   0   2   24.79    0.75
   2   0  -2   23.41    0.71
   2   0  -2   23.16    0.62
   2   0  -2   22.46    0.61
   2   0  -2   24.55    0.71
  -2   0   2   24.05    0.72
  -2   0   2   23.24    0.70
   1   0  -2    0.85    0.14
   1   0  -2    0.86    0.13
   1   0  -2    0.95    0.10
  -1   0   2    0.98    0.10
  -1   0   2    0.82    0.13
  -1   0   2    0.80    0.13
   0   0  -2  814.26   17.28
   0   0  -2  820.67   17.74
   0   0  -2  809.70   17.46
   0   0   2  820.44   17.50
   0   0   2  824.40   17.16
   0   0   2  801.32   17.79
  -1   0  -2  213.37    4.55
  -1   0  -2  216.17    4.57
   1   0   2  212.98    4.57
   1   0   2  212.64    4.57
   1   0   2  213.19    4.61
   1   0   2  210.57    4.61
  -2   0  -2    2.89    0.11
   2   0   2    3.03    0.11
   2   0   2    3.06    0.11
   7  -1  -2    0.62    0.14
   6  -1  -2    0.34    0.12
   5  -1  -2    2.49    0.23
   5  -1  -2    2.55    0.22
  -5   1   2    2.99    0.28
   4  -1  -2   10.02    0.37
   4  -1  -2   10.12    0.43
   4  -1  -2   10.36    0.46
   4  -1  -2   10.20    0.39
  -4   1   2    9.98    0.45
  -4   1   2    9.56    0.45
   3  -1  -2   71.85    1.75
   3  -1  -2   74.85    1.75
   3  -1  -2   75.17    1.87
   3  -1  -2   75.13    1.83
  -3   1   2   73.84    1.85
  -3   1   2   74.98    1.85
   2  -1  -2   30.76    0.88
   2  -1  -2   29.94    0.80
   2  -1  -2   30.90    0.90
  -2   1   2   30.80    0.89
  -2   1   2   32.92    0.91
   1  -1  -2  175.68    3.90
   1  -1  -2  179.25    3.95
   1  -1  -2  178.23    3.93
  -1   1   2  176.09    3.94
  -1   1   2  179.65    3.93
  -1   1   2  173.58    3.88
   0  -1  -2  125.89    2.83
   0  -1  -2  125.64    2.78
   0  -1  -2  128.39    2.82
   0   1   2  127.13    2.84
   0   1   2  125.47    2.82
   0   1   2  122.04    2.78
  -1  -1  -2   21.83    0.62
  -1  -1  -2   22.64    0.59
   1   1   2   21.01    0.54
   1   1   2   21.63    0.61
   1   1   2   20.85    0.53
   1   1   2   21.58    0.60
  -2  -1  -2   23.42    0.60
  -2  -1  -2   23.06    0.63
   2   1   2   23.71    0.57
   2   1   2   23.06    0.61
   2   1   2   23.27    0.62
   3   1   2   64.36    1.45
   4   1   2   33.21    0.79
   8  -2  -2    6.89    0.31
   7  -2  -2    0.93    0.17
   6  -2  -2    1.67    0.20
   5  -2  -2    6.56    0.35
   5  -2  -2    6.94    0.33
  -5   2   2    6.92    0.38
   4  -2  -2    7.01    0.31
   4  -2  -2    6.24    0.30
   4  -2  -2    6.09    0.34
   4  -2  -2    6.48    0.40
  -4   2   2    6.90    0.39
  -4   2   2    6.66    0.39
   3  -2  -2   21.18    0.70
   3  -2  -2   19.87    0.73
   3  -2  -2   21.13    0.61
   3  -2  -2   21.35    0.62
  -3   2   2   20.34    0.72
  -3   2   2   20.67    0.73
   2  -2  -2  108.64    2.54
   2  -2  -2  111.81    2.62
   2  -2  -2  111.33    2.65
  -2   2   2  113.58    2.66
  -2   2   2  111.94    2.63
   1  -2  -2    1.43    0.13
   1  -2  -2    0.83    0.14
   1  -2  -2    1.17    0.17
  -1   2   2    1.25    0.17
  -1   2   2    1.12    0.17
   0  -2  -2    4.00    0.25
   0  -2  -2    4.09    0.24
   0  -2  -2    4.40    0.18
   0   2   2    4.66    0.27
   0   2   2    3.77    0.23
  -1  -2  -2  258.17    5.45
  -1  -2  -2  253.10    5.51
   1   2   2  253.80    5.49
   1   2   2  256.98    5.48
   1   2   2  235.26    5.47
  -2  -2  -2  109.84    2.49
  -2  -2  -2  110.56    2.54
   2   2   2  111.82    2.52
   2   2   2  108.07    2.50
   2   2   2  111.43    2.47
  -3  -2  -2    0.04    0.08
  -3  -2  -2    0.09    0.08
   3   2   2    0.13    0.08
   3   2   2    0.00    0.05
   3   2   2    0.08    0.07
   4   2   2    0.66    0.09
   8  -3  -2    6.15    0.31
   7  -3  -2   -0.12    0.11
   6  -3  -2    1.20    0.18
   5  -3  -2    2.28    0.23
   5  -3  -2    1.94    0.24
  -5   3   2    2.04    0.27
   4  -3  -2   28.95    0.86
   4  -3  -2   32.29    0.89
   4  -3  -2   33.07    0.98
  -4   3   2   31.67    1.01
   3  -3  -2   11.38    0.55
   3  -3  -2   12.06    0.51
   3  -3  -2   12.88    0.45
  -3   3   2   12.34    0.55
  -3   3   2   12.84    0.56
   2  -3  -2    0.03    0.09
   2  -3  -2   -0.12    0.09
   2  -3  -2   -0.11    0.06
  -2   3   2    0.17    0.11
  -2   3   2   -0.04    0.10
   1  -3  -2  166.21    3.81
   1  -3  -2  167.94    3.75
   1  -3  -2  167.38    3.87
  -1   3   2  166.38    3.86
  -1   3   2  172.14    3.84
   0  -3  -2    0.26    0.10
   0  -3  -2    0.27    0.12
   0  -3  -2    0.36    0.08
   0   3   2    0.26    0.11
   0   3   2    0.16    0.10
  -1  -3  -2   27.57    0.88
  -1  -3  -2   29.41    0.84
   1   3   2   28.75    0.86
   1   3   2   28.19    0.87
  -2  -3  -2    0.06    0.09
  -2  -3  -2    0.19    0.09
   2   3   2    0.14    0.09
   2   3   2    0.12    0.08
   2   3   2    0.34    0.08
  -3  -3  -2   11.31    0.47
  -3  -3  -2   11.11    0.45
   3   3   2   11.29    0.44
   3   3   2   11.74    0.38
   3   3   2   11.47    0.46
   8  -4  -2    0.38    0.15
   7  -4  -2    2.24    0.24
   6  -4  -2    3.40    0.26
   5  -4  -2    0.14    0.11
   5  -4  -2    0.13    0.12
  -5   4   2    0.09    0.15
   4  -4  -2   11.38    0.46
   4  -4  -2   12.99    0.55
  -4   4   2   11.72    0.57
   3  -4  -2  381.91    8.41
   3  -4  -2  383.42    8.39
  -3   4   2  382.79    8.46
   2  -4  -2    0.17    0.11
   2  -4  -2    0.25    0.09
  -2   4   2    0.24    0.13
   1  -4  -2    1.46    0.15
   1  -4  -2    1.08    0.18
  -1   4   2    1.75    0.25
   0  -4  -2   66.74    1.69
   0  -4  -2   64.29    1.55
   0   4   2   65.00    1.74
  -1  -4  -2    0.01    0.06
  -1  -4  -2    0.05    0.09
   1   4   2    0.10    0.11
  -2  -4  -2    0.08    0.09
   2   4   2    0.14    0.10
   2   4   2    0.08    0.07
  -3  -4  -2    5.71    0.35
   3   4   2    5.74    0.34
   7  -5  -2   -0.19    0.11
   6  -5  -2    0.21    0.13
   5  -5  -2    0.48    0.14
   5  -5  -2    0.24    0.15
  -5   5   2    0.42    0.19
   4  -5  -2   74.49    1.99
   4  -5  -2   76.88    1.88
  -4   5   2   72.69    2.06
   3  -5  -2    9.02    0.39
   3  -5  -2    9.53    0.49
  -3   5   2    9.21    0.53
   2  -5  -2    3.71    0.35
   2  -5  -2    3.03    0.22
  -2   5   2    2.82    0.34
   1  -5  -2  114.27    2.69
   1  -5  -2  119.63    2.85
  -1   5   2  116.01    2.92
   0  -5  -2   74.91    1.79
   0  -5  -2   73.62    1.95
   0   5   2   78.51    2.04
  -1  -5  -2    5.93    0.36
  -1  -5  -2    5.14    0.25
   1   5   2    5.41    0.37
  -2  -5  -2    4.28    0.32
   2   5   2    3.93    0.37
  -3  -5  -2    5.53    0.38
   3   5   2    5.42    0.37
   7  -6  -2    0.15    0.14
   6  -6  -2    0.32    0.14
   5  -6  -2    5.73    0.42
   5  -6  -2    5.49    0.34
  -5   6   2    5.31    0.51
   4  -6  -2  123.16    3.09
   4  -6  -2  125.09    2.95
  -4   6   2  123.07    3.17
   3  -6  -2   25.82    0.80
   3  -6  -2   26.10    0.95
  -3   6   2   26.34    1.02
   2  -6  -2    0.49    0.13
   2  -6  -2    0.28    0.15
  -2   6   2    0.39    0.17
   1  -6  -2   27.13    0.98
   1  -6  -2   28.68    0.82
  -1   6   2   29.10    1.06
   0  -6  -2  128.45    2.94
   0  -6  -2  127.09    3.12
   0   6   2  126.92    3.19
  -1  -6  -2    5.86    0.40
  -1  -6  -2    5.83    0.28
   1   6   2    6.28    0.43
  -2  -6  -2    5.57    0.40
   2   6   2    5.26    0.40
  -3  -6  -2   27.37    0.99
   3   6   2   26.78    0.97
   7  -7  -2    2.36    0.27
   6  -7  -2    1.96    0.26
   5  -7  -2   39.54    1.21
   5  -7  -2   42.58    1.38
  -5   7   2   44.65    1.47
   4  -7  -2    0.78    0.22
   4  -7  -2    0.52    0.17
  -4   7   2    0.93    0.26
   3  -7  -2   24.54    0.96
   3  -7  -2   24.69    0.80
  -3   7   2   23.57    1.00
   2  -7  -2   16.03    0.74
   2  -7  -2   15.85    0.58
  -2   7   2   16.35    0.79
   1  -7  -2   90.75    2.43
   1  -7  -2   91.60    2.21
  -1   7   2   91.46    2.51
   0  -7  -2    3.66    0.25
   0  -7  -2    3.51    0.38
   0   7   2    3.70    0.42
  -1  -7  -2   10.51    0.58
   1   7   2   10.79    0.61
  -2  -7  -2   22.14    0.91
   2   7   2   23.07    0.93
  -3  -7  -2    0.39    0.21
   3   7   2    0.02    0.16
   7  -8  -2    1.21    0.23
   6  -8  -2    0.47    0.17
   5  -8  -2    3.22    0.32
   5  -8  -2    4.05    0.47
  -5   8   2    3.38    0.45
   4  -8  -2    6.42    0.39
   4  -8  -2    5.91    0.48
  -4   8   2    6.23    0.61
   3  -8  -2    2.21    0.35
   3  -8  -2    2.12    0.25
  -3   8   2    2.22    0.39
   2  -8  -2   23.02    0.98
   2  -8  -2   24.64    0.80
  -2   8   2   23.85    1.04
   1  -8  -2   21.96    0.93
   1  -8  -2   21.56    0.73
  -1   8   2   22.75    0.99
   0  -8  -2   13.97    0.53
   0  -8  -2   12.62    0.68
   0   8   2   14.61    0.76
  -1  -8  -2    2.00    0.32
   1   8   2    2.60    0.37
  -2  -8  -2    0.14    0.17
   2   8   2   -0.03    0.16
  -3  -8  -2    0.22    0.23
   3   8   2    0.20    0.20
   7  -9  -2    0.70    0.20
   6  -9  -2    0.44    0.18
   5  -9  -2   11.24    0.70
   5  -9  -2   11.17    0.55
  -5   9   2   10.11    0.71
   4  -9  -2    0.04    0.17
   4  -9  -2   -0.04    0.14
  -4   9   2    0.10    0.21
   3  -9  -2    0.27    0.15
   3  -9  -2    0.11    0.16
  -3   9   2    0.17    0.20
   2  -9  -2    0.56    0.22
   2  -9  -2    0.47    0.17
  -2   9   2    0.54    0.23
   1  -9  -2    8.07    0.57
   1  -9  -2   10.18    0.46
  -1   9   2    8.15    0.60
   0  -9  -2    2.62    0.39
   0  -9  -2    1.45    0.22
   0   9   2    2.61    0.41
  -1  -9  -2    5.24    0.55
   1   9   2    5.98    0.60
  -2  -9  -2    2.45    0.40
   2   9   2    2.02    0.37
   7 -10  -2    0.13    0.18
   6 -10  -2    2.71    0.33
   5 -10  -2   -0.06    0.16
   5 -10  -2    0.53    0.27
  -5  10   2    0.32    0.26
   4 -10  -2    0.27    0.22
   4 -10  -2   -0.07    0.14
  -4  10   2   -0.05    0.21
   3 -10  -2    2.84    0.32
   3 -10  -2    2.96    0.43
  -3  10   2    3.33    0.48
   2 -10  -2   -0.22    0.14
   2 -10  -2    0.06    0.17
  -2  10   2    0.21    0.19
   1 -10  -2    0.08    0.17
   1 -10  -2   -0.01    0.14
  -1  10   2   -0.04    0.16
   0 -10  -2    3.25    0.47
   0  10   2    2.59    0.44
  -1 -10  -2   -0.11    0.19
   1  10   2   -0.03    0.18
  -2 -10  -2    0.06    0.23
   2  10   2    0.20    0.22
   6 -11  -2    4.15    0.41
   5 -11  -2    0.23    0.25
   5 -11  -2    0.00    0.17
  -5  11   2   -0.05    0.25
   4 -11  -2    0.78    0.30
   4 -11  -2    1.20    0.25
  -4  11   2    0.72    0.30
   3 -11  -2    0.02    0.20
   3 -11  -2    0.49    0.20
  -3  11   2    0.22    0.22
   2 -11  -2    1.98    0.28
   2 -11  -2    1.74    0.37
  -2  11   2    1.69    0.39
   1 -11  -2    0.33    0.18
   1 -11  -2    0.23    0.21
  -1  11   2    0.39    0.25
   0 -11  -2    0.53    0.25
   0  11   2    0.98    0.32
  -1 -11  -2    0.56    0.29
   1  11   2    0.44    0.28
  -2 -11  -2    0.19    0.27
   2  11   2    0.16    0.25
   6 -12  -2    1.57    0.31
   5 -12  -2    0.42    0.30
   5 -12  -2    0.68    0.24
  -5  12   2    0.68    0.35
   4 -12  -2    0.94    0.34
   4 -12  -2    0.86    0.25
  -4  12   2    0.24    0.27
   3 -12  -2    0.15    0.23
   3 -12  -2    0.03    0.18
  -3  12   2    0.14    0.25
   2 -12  -2    1.44    0.26
   2 -12  -2    0.84    0.32
  -2  12   2    1.41    0.38
   1 -12  -2    2.41    0.45
  -1  12   2    2.39    0.45
   0 -12  -2    0.91    0.33
   0  12   2    0.74    0.32
  -1 -12  -2    0.36    0.29
   1  12   2   -0.13    0.23
  -2 -12  -2    0.52    0.34
   2  12   2    0.38    0.32
   5 -13  -2    8.07    0.56
   4 -13  -2    2.20    0.35
  -4  13   2    2.03    0.50
   3 -13  -2    0.32    0.29
   3 -13  -2   -0.03    0.19
  -3  13   2    0.03    0.28
   2 -13  -2   -0.05    0.21
  -2  13   2   -0.12    0.23
   1 -13  -2    1.15    0.40
  -1  13   2    0.94    0.38
   0 -13  -2   -0.03    0.27
   0  13   2    0.08    0.30
   5 -14  -2    0.16    0.25
   4 -14  -2    1.21    0.32
   3 -14  -2   -0.28    0.20
   3 -17   3   -0.18    0.25
   2 -16   3    0.18    0.25
   3 -16   3    1.33    0.34
   4 -16   3    0.01    0.24
   0  15  -3    0.13    0.28
   0 -15   3   -0.03    0.28
  -1  15  -3    0.41    0.32
   1 -15   3   -0.08    0.28
  -2  15  -3    4.89    0.68
   2 -15   3    6.17    0.77
   2 -15   3    7.33    0.53
  -3  15  -3    2.08    0.48
   3 -15   3    1.90    0.35
   3 -15   3    2.51    0.54
  -4  15  -3    2.63    0.52
   4 -15   3    2.24    0.36
   4 -15   3    1.51    0.45
   5 -15   3    0.16    0.22
   2  14  -3    0.67    0.36
  -2 -14   3    0.20    0.30
   1  14  -3    0.32    0.28
  -1 -14   3    0.39    0.32
   0  14  -3    1.24    0.35
   0 -14   3    0.60    0.33
  -1  14  -3    4.17    0.58
   1 -14   3    3.99    0.60
   1 -14   3    4.93    0.46
  -2  14  -3    0.73    0.33
   2 -14   3    0.25    0.28
   2 -14   3    0.51    0.24
  -3  14  -3    0.15    0.25
   3 -14   3   -0.01    0.19
   3 -14   3    0.06    0.23
  -4  14  -3   -0.12    0.23
   4 -14   3    0.33    0.31
   4 -14   3    0.09    0.20
   5 -14   3    0.86    0.25
   3  13  -3    4.29    0.62
  -3 -13   3    2.64    0.56
   2  13  -3   -0.09    0.22
  -2 -13   3    0.03    0.26
   1  13  -3    0.83    0.30
  -1 -13   3    0.90    0.36
   0  13  -3   -0.07    0.18
   0 -13   3   -0.03    0.19
  -1  13  -3   11.00    0.77
   1 -13   3   11.12    0.58
   1 -13   3   10.24    0.77
  -2  13  -3    7.43    0.73
   2 -13   3    6.58    0.72
   2 -13   3    7.63    0.48
  -3  13  -3   -0.04    0.20
   3 -13   3   -0.02    0.19
   3 -13   3   -0.17    0.14
  -4  13  -3   10.26    0.74
   4 -13   3    9.70    0.54
   4 -13   3   11.40    0.79
   6 -13   3    1.36    0.26
   3  12  -3    0.38    0.26
  -3 -12   3    0.60    0.36
   2  12  -3    3.81    0.55
  -2 -12   3    4.16    0.60
   1  12  -3    9.60    0.71
  -1 -12   3    8.05    0.79
   0  12  -3    3.37    0.48
   0 -12   3    4.16    0.34
  -1  12  -3    8.83    0.66
   1 -12   3   10.19    0.53
   1 -12   3    9.36    0.69
  -2  12  -3    5.98    0.63
   2 -12   3    6.29    0.40
   2 -12   3    5.39    0.60
  -3  12  -3   -0.02    0.19
   3 -12   3   -0.20    0.14
   3 -12   3   -0.03    0.16
  -4  12  -3    0.37    0.25
   4 -12   3    0.41    0.18
   4 -12   3    0.05    0.21
   5 -12   3    1.04    0.22
   6 -12   3    1.73    0.27
   3  11  -3    0.14    0.23
  -3 -11   3    0.24    0.27
   2  11  -3    0.48    0.24
  -2 -11   3    0.99    0.32
   1  11  -3    2.38    0.39
  -1 -11   3    1.64    0.37
   0  11  -3  212.77    5.19
   0 -11   3  205.74    5.21
  -1  11  -3    9.46    0.64
   1 -11   3    8.25    0.62
   1 -11   3    9.20    0.46
  -2  11  -3    5.23    0.56
   2 -11   3    4.96    0.35
   2 -11   3    4.82    0.55
  -3  11  -3    6.69    0.54
   3 -11   3    6.32    0.61
   3 -11   3    7.01    0.41
  -4  11  -3    0.25    0.20
   4 -11   3    0.10    0.14
   4 -11   3    0.23    0.20
   5 -11   3    0.13    0.14
   6 -11   3    0.23    0.16
   7 -11   3    2.42    0.28
   3  10  -3    2.23    0.40
  -3 -10   3    2.27    0.43
   2  10  -3    4.69    0.53
  -2 -10   3    4.39    0.55
   1  10  -3   28.31    1.17
  -1 -10   3   29.24    0.93
  -1 -10   3   28.14    1.20
   0  10  -3    0.14    0.17
   0 -10   3    0.23    0.14
   0 -10   3    0.48    0.21
  -1  10  -3   25.55    1.07
   1 -10   3   27.92    1.12
   1 -10   3   25.40    0.84
  -2  10  -3    4.07    0.46
   2 -10   3    4.48    0.32
   2 -10   3    3.79    0.45
  -3  10  -3   51.01    1.65
   3 -10   3   52.34    1.67
   3 -10   3   50.76    1.40
  -4  10  -3    5.85    0.48
   4 -10   3    5.24    0.34
   4 -10   3    5.88    0.47
   5 -10   3    3.48    0.28
   6 -10   3    5.22    0.33
   7 -10   3    5.21    0.34
   4   9  -3    9.54    0.66
  -4  -9   3    8.84    0.67
   3   9  -3    0.88    0.26
  -3  -9   3    0.86    0.28
   2   9  -3    0.30    0.17
  -2  -9   3    0.16    0.19
   1   9  -3   39.56    1.38
  -1  -9   3   39.95    1.14
  -1  -9   3   39.25    1.41
   0   9  -3    3.85    0.44
   0  -9   3    3.73    0.27
   0  -9   3    4.35    0.46
  -1   9  -3   79.19    2.21
   1  -9   3   79.71    2.23
   1  -9   3   75.86    1.94
  -2   9  -3   36.56    1.27
   2  -9   3   38.67    1.07
   2  -9   3   36.28    1.28
  -3   9  -3   13.37    0.68
   3  -9   3   12.82    0.51
   3  -9   3   13.92    0.69
  -4   9  -3    8.44    0.53
   4  -9   3    9.20    0.41
   4  -9   3    9.22    0.55
   5  -9   3    1.07    0.18
   6  -9   3   10.85    0.46
   7  -9   3    1.71    0.22
   4   8  -3    4.84    0.53
  -4  -8   3    4.49    0.55
   3   8  -3   15.61    0.79
  -3  -8   3   15.84    0.82
   2   8  -3   12.15    0.66
  -2  -8   3   13.85    0.72
   1   8  -3   54.09    1.66
  -1  -8   3   54.64    1.43
  -1  -8   3   54.98    1.70
   0   8  -3    3.26    0.37
   0  -8   3    2.96    0.23
   0  -8   3    3.12    0.37
  -1   8  -3   41.37    1.33
   1  -8   3   41.41    1.34
   1  -8   3   41.65    1.12
  -2   8  -3   20.20    0.81
   2  -8   3   20.04    0.64
   2  -8   3   19.65    0.81
  -3   8  -3   15.79    0.69
   3  -8   3   15.05    0.53
   3  -8   3   15.13    0.68
  -4   8  -3   50.75    1.45
   4  -8   3   47.98    1.27
   4  -8   3   47.41    1.44
   5  -8   3    2.24    0.22
   6  -8   3    5.70    0.31
   7  -8   3    2.31    0.22
   4   7  -3    0.46    0.21
  -4  -7   3    0.03    0.20
   3   7  -3   85.28    2.33
  -3  -7   3   81.42    2.33
   2   7  -3    3.61    0.39
  -2  -7   3    2.92    0.37
  -2  -7   3    3.01    0.24
   1   7  -3    0.61    0.18
  -1  -7   3    0.52    0.12
  -1  -7   3    0.50    0.17
   0   7  -3   82.35    2.15
   0  -7   3   79.67    1.94
   0  -7   3   80.85    2.17
  -1   7  -3   71.21    1.94
   1  -7   3   74.88    1.77
   1  -7   3   71.35    1.95
  -2   7  -3    8.19    0.45
   2  -7   3    8.25    0.46
   2  -7   3    7.63    0.33
  -3   7  -3    2.28    0.27
   3  -7   3    1.77    0.25
   3  -7   3    1.77    0.18
  -4   7  -3    0.54    0.16
   4  -7   3    0.63    0.17
   4  -7   3    0.59    0.12
   5  -7   3   13.59    0.47
   6  -7   3    1.16    0.15
   7  -7   3    4.12    0.23
  -4  -6   3   26.09    1.04
   3   6  -3   15.04    0.69
  -3  -6   3   13.45    0.68
   2   6  -3   -0.13    0.08
  -2  -6   3   -0.06    0.10
  -2  -6   3    0.12    0.09
   1   6  -3   58.13    1.64
  -1  -6   3   59.98    1.47
  -1  -6   3   58.14    1.66
   0   6  -3    4.33    0.32
   0  -6   3    5.20    0.25
   0  -6   3    4.72    0.34
  -1   6  -3    0.15    0.11
   1  -6   3    0.10    0.10
   1  -6   3    0.19    0.08
  -2   6  -3  111.11    2.68
   2  -6   3  110.59    2.55
   2  -6   3  112.27    2.70
  -3   6  -3    3.54    0.26
  -3   6  -3    4.00    0.27
   3  -6   3    3.53    0.29
   3  -6   3    3.42    0.26
   3  -6   3    3.52    0.20
  -4   6  -3    6.60    0.35
   4  -6   3    6.51    0.35
   4  -6   3    6.95    0.29
   5  -6   3    0.26    0.09
   6  -6   3    0.47    0.11
   7   5  -3    0.28    0.17
   4   5  -3   39.16    1.28
  -4  -5   3   40.22    1.32
   3   5  -3    0.59    0.18
  -3  -5   3    0.75    0.20
   2   5  -3    1.70    0.25
  -2  -5   3    1.44    0.24
  -2  -5   3    2.16    0.18
   1   5  -3   57.77    1.58
  -1  -5   3   57.64    1.43
  -1  -5   3   60.56    1.62
   0   5  -3  211.67    4.72
   0   5  -3  207.65    4.75
   0  -5   3  209.33    4.66
   0  -5   3  213.82    4.73
  -1   5  -3   39.78    1.09
  -1   5  -3   39.99    1.11
   1  -5   3   39.31    0.98
   1  -5   3   36.69    1.11
   1  -5   3   39.97    1.10
  -2   5  -3   13.46    0.52
  -2   5  -3   14.12    0.50
   2  -5   3   14.34    0.53
   2  -5   3   14.62    0.54
   2  -5   3   14.63    0.43
  -3   5  -3   13.84    0.49
  -3   5  -3   14.14    0.51
   3  -5   3   14.14    0.42
   3  -5   3   14.64    0.52
   3  -5   3   14.63    0.53
  -4   5  -3   15.72    0.52
   4  -5   3   16.41    0.47
   4  -5   3   16.71    0.53
   5  -5   3    1.59    0.13
   6  -5   3    1.29    0.12
   7   4  -3    2.06    0.27
   6   4  -3    4.18    0.32
   4   4  -3   15.67    0.68
  -4  -4   3   15.41    0.69
  -3  -4   3    0.91    0.20
   2   4  -3   33.24    1.04
   2   4  -3   35.07    1.02
  -2  -4   3   32.56    0.88
  -2  -4   3   34.17    1.01
  -2  -4   3   32.34    1.05
   1   4  -3  122.45    2.83
   1   4  -3  118.05    2.84
  -1  -4   3  117.05    2.72
  -1  -4   3  119.94    2.86
  -1  -4   3  123.15    2.82
   0   4  -3  136.42    3.11
   0   4  -3  134.46    3.09
   0  -4   3  132.44    3.08
   0  -4   3  134.92    3.02
   0  -4   3  134.78    3.12
  -1   4  -3   50.09    1.28
  -1   4  -3   50.66    1.27
   1  -4   3   49.54    1.30
   1  -4   3   48.17    1.18
   1  -4   3   49.55    1.27
  -2   4  -3   10.57    0.38
  -2   4  -3   10.12    0.40
   2  -4   3   10.24    0.40
   2  -4   3   10.98    0.33
   2  -4   3   10.98    0.40
  -3   4  -3   51.70    1.24
  -3   4  -3   52.29    1.28
   3  -4   3   53.45    1.28
   3  -4   3   52.70    1.22
   3  -4   3   51.17    1.28
   4  -4   3    5.28    0.20
   5  -4   3    9.46    0.29
   5  -4   3    9.91    0.30
   7   3  -3    0.80    0.20
   6   3  -3    0.43    0.15
   4   3  -3   34.89    1.11
  -4  -3   3   34.69    1.12
   3   3  -3    0.01    0.08
   3   3  -3    0.00    0.06
   3   3  -3    0.16    0.11
  -3  -3   3    0.04    0.10
  -3  -3   3    0.03    0.11
   2   3  -3    3.35    0.25
  -2  -3   3    3.15    0.31
  -2  -3   3    3.19    0.19
  -2  -3   3    3.10    0.24
   1   3  -3    0.69    0.13
   1   3  -3    0.72    0.14
  -1  -3   3    0.72    0.10
  -1  -3   3    0.54    0.13
  -1  -3   3    0.60    0.12
   0   3  -3  121.63    2.73
   0   3  -3  118.07    2.73
   0  -3   3  115.14    2.65
   0  -3   3  117.96    2.71
   0  -3   3  120.55    2.75
  -1   3  -3   92.81    2.17
  -1   3  -3   95.56    2.16
   1  -3   3   93.83    2.15
   1  -3   3   93.61    2.11
   1  -3   3   93.96    2.18
  -2   3  -3   26.20    0.67
  -2   3  -3   24.39    0.69
   2  -3   3   25.54    0.62
   2  -3   3   25.74    0.68
   2  -3   3   25.50    0.70
  -3   3  -3    1.19    0.09
   3  -3   3    1.08    0.09
   3  -3   3    1.15    0.09
   4  -3   3    2.66    0.12
   7   2  -3    0.08    0.13
   6   2  -3    1.13    0.19
   5   2  -3    5.43    0.32
   4   2  -3    1.15    0.20
   4   2  -3    0.97    0.18
   4   2  -3    1.22    0.15
  -4  -2   3    1.09    0.19
  -4  -2   3    1.41    0.23
   3   2  -3    4.65    0.32
   3   2  -3    5.12    0.25
   3   2  -3    5.47    0.33
  -3  -2   3    4.89    0.31
  -3  -2   3    5.45    0.35
   2   2  -3    3.14    0.25
   2   2  -3    3.29    0.25
  -2  -2   3    2.96    0.17
  -2  -2   3    3.12    0.24
  -2  -2   3    3.34    0.26
   1   2  -3   50.80    1.27
   1   2  -3   47.54    1.26
  -1  -2   3   48.47    1.28
  -1  -2   3   48.19    1.26
  -1  -2   3   45.65    1.15
   0   2  -3   70.03    1.67
   0   2  -3   68.77    1.66
   0  -2   3   67.84    1.58
   0  -2   3   69.94    1.66
   0  -2   3   68.38    1.67
  -1   2  -3   18.20    0.54
  -1   2  -3   18.97    0.55
   1  -2   3   18.53    0.48
   1  -2   3   18.20    0.55
   1  -2   3   18.94    0.54
  -2   2  -3  114.47    2.51
  -2   2  -3  114.40    2.49
   2  -2   3  115.31    2.52
   2  -2   3  115.57    2.49
   2  -2   3  113.59    2.51
   7   1  -3    0.40    0.15
   6   1  -3    0.34    0.14
   5   1  -3    0.12    0.11
   5   1  -3    0.14    0.11
  -5  -1   3    0.14    0.14
   4   1  -3   14.49    0.60
   4   1  -3   15.48    0.53
   4   1  -3   14.91    0.61
   4   1  -3   15.13    0.51
  -4  -1   3   14.32    0.61
  -4  -1   3   14.97    0.59
   3   1  -3   64.36    1.68
   3   1  -3   64.36    1.68
   3   1  -3   63.78    1.58
   3   1  -3   63.37    1.55
  -3  -1   3   66.20    1.71
  -3  -1   3   64.89    1.68
   2   1  -3   29.60    0.80
   2   1  -3   28.66    0.89
   2   1  -3   30.81    0.91
  -2  -1   3   29.06    0.91
  -2  -1   3   30.20    0.89
  -2  -1   3   29.84    0.77
   1   1  -3  103.13    2.41
   1   1  -3  103.49    2.42
   1   1  -3  102.64    2.34
  -1  -1   3  103.04    2.32
  -1  -1   3  100.04    2.40
  -1  -1   3  104.89    2.43
   0   1  -3    2.50    0.19
   0   1  -3    2.41    0.14
   0   1  -3    2.75    0.20
   0  -1   3    2.29    0.19
   0  -1   3    2.56    0.15
   0  -1   3    2.58    0.19
  -1   1  -3   26.38    0.70
  -1   1  -3   26.65    0.70
   1  -1   3   26.04    0.70
   1  -1   3   25.97    0.71
   1  -1   3   25.72    0.64
   1  -1   3   24.92    0.63
  -2   1  -3    0.07    0.05
  -2   1  -3    0.06    0.05
   2  -1   3    0.14    0.05
   2  -1   3    0.18    0.06
   2  -1   3    0.17    0.05
   2  -1   3    0.09    0.05
   7   0  -3    2.16    0.24
   6   0  -3   10.78    0.46
   5   0  -3    2.07    0.22
   5   0  -3    1.91    0.24
  -5   0   3    1.82    0.26
   4   0  -3    5.69    0.35
   4   0  -3    6.15    0.30
   4   0  -3    5.78    0.31
   4   0  -3    6.11    0.38
  -4   0   3    6.26    0.38
   3   0  -3   46.04    1.21
   3   0  -3   50.24    1.34
   3   0  -3   46.95    1.20
   3   0  -3   46.42    1.34
  -3   0   3   49.05    1.33
  -3   0   3   48.37    1.35
   2   0  -3   35.99    1.03
   2   0  -3   33.18    0.89
   2   0  -3   34.88    1.00
  -2   0   3   32.41    0.85
  -2   0   3   33.92    1.01
  -2   0   3   34.05    1.00
   1   0  -3   28.70    0.75
   1   0  -3   27.88    0.84
   1   0  -3   29.28    0.87
  -1   0   3   28.11    0.73
  -1   0   3   28.20    0.86
  -1   0   3   29.00    0.85
   0   0  -3   17.12    0.48
   0   0  -3   17.94    0.58
   0   0  -3   17.05    0.56
   0   0   3   18.05    0.58
   0   0   3   16.48    0.47
   0   0   3   16.81    0.56
  -1   0  -3   87.23    2.03
  -1   0  -3   87.57    2.00
   1   0   3   88.00    2.02
   1   0   3   86.65    1.96
   1   0   3   89.00    1.97
   1   0   3   86.02    2.02
  -2   0  -3   17.97    0.52
  -2   0  -3   18.70    0.49
   2   0   3   17.87    0.52
   2   0   3   19.06    0.48
   2   0   3   18.74    0.48
   2   0   3   18.63    0.51
   3   0   3    0.13    0.05
   8  -1  -3    3.97    0.28
   7  -1  -3    3.04    0.28
   6  -1  -3    0.51    0.15
   5  -1  -3    6.01    0.33
   5  -1  -3    5.67    0.36
  -5   1   3    6.21    0.40
   4  -1  -3   35.05    1.00
   4  -1  -3   36.61    0.99
   4  -1  -3   37.54    1.11
  -4   1   3   36.36    1.13
   3  -1  -3    0.64    0.12
   3  -1  -3    0.70    0.16
   3  -1  -3    0.64    0.17
  -3   1   3    0.49    0.15
  -3   1   3    0.81    0.18
   2  -1  -3    3.53    0.28
   2  -1  -3    4.01    0.28
   2  -1  -3    3.94    0.22
  -2   1   3    3.93    0.28
  -2   1   3    4.18    0.29
  -2   1   3    3.59    0.19
   1  -1  -3    8.27    0.41
   1  -1  -3    8.27    0.40
   1  -1  -3    8.72    0.32
  -1   1   3    8.53    0.40
  -1   1   3    8.24    0.30
  -1   1   3    8.39    0.41
   0  -1  -3    6.82    0.33
   0  -1  -3    6.43    0.24
   0  -1  -3    5.89    0.32
   0   1   3    6.20    0.32
   0   1   3    6.86    0.34
   0   1   3    6.17    0.24
  -1  -1  -3    2.20    0.17
  -1  -1  -3    2.08    0.21
   1   1   3    2.26    0.14
   1   1   3    2.34    0.14
   1   1   3    2.17    0.21
   1   1   3    1.99    0.20
  -2  -1  -3  275.78    6.05
  -2  -1  -3  282.96    5.99
   2   1   3  275.11    6.07
   2   1   3  280.74    6.04
   2   1   3  281.57    6.02
  -3  -1  -3   57.31    1.33
  -3  -1  -3   58.38    1.35
   3   1   3   59.50    1.35
   3   1   3   59.68    1.36
   3   1   3   56.67    1.32
   4   1   3   26.87    0.67
   8  -2  -3   -0.15    0.12
   7  -2  -3    0.75    0.17
   6  -2  -3    1.10    0.19
   5  -2  -3   -0.07    0.11
   5  -2  -3   -0.09    0.08
  -5   2   3   -0.07    0.13
   4  -2  -3    0.01    0.10
   4  -2  -3    0.01    0.08
  -4   2   3    0.08    0.13
   3  -2  -3   81.81    2.10
   3  -2  -3   84.08    2.00
  -3   2   3   81.71    2.14
   2  -2  -3   24.72    0.80
   2  -2  -3   23.92    0.83
   2  -2  -3   21.63    0.67
  -2   2   3   23.08    0.81
  -2   2   3   22.09    0.81
   1  -2  -3    9.61    0.46
   1  -2  -3    9.31    0.43
   1  -2  -3    9.24    0.34
  -1   2   3    8.58    0.32
  -1   2   3    8.45    0.42
  -1   2   3    8.66    0.44
   0  -2  -3    5.88    0.24
   0  -2  -3    5.83    0.35
   0  -2  -3    5.57    0.31
   0   2   3    5.12    0.32
   0   2   3    6.03    0.34
  -1  -2  -3   43.34    1.16
  -1  -2  -3   45.93    1.23
   1   2   3   42.82    1.20
   1   2   3   45.22    1.20
  -2  -2  -3    2.76    0.20
  -2  -2  -3    3.01    0.24
   2   2   3    2.68    0.21
   2   2   3    2.43    0.23
   2   2   3    2.67    0.17
  -3  -2  -3   35.33    0.95
  -3  -2  -3   34.36    0.91
   3   2   3   33.97    0.94
   3   2   3   33.26    0.90
   3   2   3   34.54    0.87
   4   2   3   39.09    0.97
   8  -3  -3   -0.10    0.12
   7  -3  -3    2.20    0.25
   6  -3  -3   12.03    0.51
   5  -3  -3    0.06    0.11
   5  -3  -3   -0.02    0.11
  -5   3   3    0.01    0.14
   4  -3  -3    3.09    0.33
   4  -3  -3    4.09    0.27
  -4   3   3    4.04    0.40
   3  -3  -3    0.77    0.19
   3  -3  -3    0.48    0.13
  -3   3   3    0.71    0.20
   2  -3  -3  142.84    3.39
   2  -3  -3  141.76    3.27
  -2   3   3  144.45    3.45
   1  -3  -3  180.44    4.09
   1  -3  -3  184.16    4.19
  -1   3   3  183.58    4.25
   0  -3  -3   10.98    0.37
   0  -3  -3   11.06    0.48
   0  -3  -3   11.93    0.54
   0   3   3   11.18    0.50
   0   3   3   10.92    0.51
  -1  -3  -3   22.13    0.73
  -1  -3  -3   22.25    0.80
   1   3   3   23.44    0.78
   1   3   3   23.82    0.79
  -2  -3  -3    4.35    0.32
  -2  -3  -3    4.33    0.27
   2   3   3    4.91    0.30
   2   3   3    4.64    0.31
   2   3   3    4.71    0.24
  -3  -3  -3    3.22    0.24
   3   3   3    3.22    0.20
   3   3   3    2.77    0.27
   3   3   3    3.02    0.23
   8  -4  -3   -0.19    0.12
   7  -4  -3    2.36    0.27
   6  -4  -3    0.05    0.12
   5  -4  -3    6.93    0.37
   5  -4  -3    6.26    0.42
  -5   4   3    5.95    0.45
   4  -4  -3    3.86    0.37
   4  -4  -3    3.19    0.27
  -4   4   3    3.55    0.40
   3  -4  -3   30.90    0.89
   3  -4  -3   29.51    1.01
  -3   4   3   29.60    1.07
   2  -4  -3   32.72    1.07
   2  -4  -3   32.76    0.93
  -2   4   3   34.48    1.14
   1  -4  -3   -0.06    0.07
   1  -4  -3    0.12    0.10
  -1   4   3   -0.11    0.08
   0  -4  -3   38.81    1.16
   0  -4  -3   40.02    1.01
   0   4   3   38.28    1.22
  -1  -4  -3    0.59    0.14
  -1  -4  -3    0.63    0.10
   1   4   3    1.09    0.21
  -2  -4  -3    0.10    0.10
   2   4   3    0.22    0.13
  -3  -4  -3   -0.07    0.11
   3   4   3    0.17    0.12
   7  -5  -3    2.55    0.28
   6  -5  -3    0.49    0.16
   5  -5  -3    0.10    0.14
   5  -5  -3    0.16    0.12
  -5   5   3    0.21    0.17
   4  -5  -3   -0.08    0.11
   4  -5  -3   -0.10    0.11
  -4   5   3    0.02    0.14
   3  -5  -3   62.32    1.79
   3  -5  -3   62.24    1.62
  -3   5   3   64.25    1.87
   2  -5  -3    8.15    0.49
   2  -5  -3   10.30    0.42
  -2   5   3    9.90    0.57
   1  -5  -3    0.93    0.14
   1  -5  -3    1.10    0.21
  -1   5   3    1.30    0.25
   0  -5  -3  110.87    2.57
   0  -5  -3  112.82    2.75
   0   5   3  107.38    2.81
  -1  -5  -3    1.89    0.18
  -1  -5  -3    1.99    0.27
   1   5   3    3.06    0.35
  -2  -5  -3   18.67    0.73
   2   5   3   18.05    0.74
  -3  -5  -3    0.08    0.14
   3   5   3    0.04    0.13
   7  -6  -3    0.10    0.15
   6  -6  -3    0.11    0.14
   5  -6  -3    1.40    0.28
   5  -6  -3    0.73    0.18
  -5   6   3    0.79    0.26
   4  -6  -3   52.02    1.63
   4  -6  -3   53.63    1.47
  -4   6   3   54.47    1.73
   3  -6  -3   16.88    0.62
   3  -6  -3   16.23    0.75
  -3   6   3   16.06    0.80
   2  -6  -3    1.71    0.28
   2  -6  -3    2.10    0.23
  -2   6   3    1.85    0.32
   1  -6  -3   75.14    1.79
   1  -6  -3   69.21    1.98
  -1   6   3   69.80    2.07
   0  -6  -3    3.22    0.23
   0  -6  -3    3.33    0.37
   0   6   3    3.91    0.44
  -1  -6  -3   30.87    1.09
   1   6   3   33.69    1.16
  -2  -6  -3   11.72    0.59
   2   6   3   10.45    0.58
  -3  -6  -3    2.18    0.32
   3   6   3    1.63    0.28
   7  -7  -3    1.22    0.23
   6  -7  -3    5.12    0.36
   5  -7  -3    8.66    0.58
   5  -7  -3    8.08    0.45
  -5   7   3    8.46    0.62
   4  -7  -3   16.24    0.80
   4  -7  -3   17.54    0.68
  -4   7   3   18.59    0.91
   3  -7  -3    1.20    0.21
   3  -7  -3    1.23    0.26
  -3   7   3    0.72    0.25
   2  -7  -3   12.79    0.67
   2  -7  -3   11.31    0.49
  -2   7   3   13.01    0.73
   1  -7  -3    1.70    0.30
   1  -7  -3    1.73    0.21
  -1   7   3    1.93    0.35
   0  -7  -3   10.82    0.61
   0  -7  -3   11.73    0.46
   0   7   3   10.90    0.65
  -1  -7  -3    3.48    0.40
   1   7   3    3.70    0.44
  -2  -7  -3    1.37    0.29
   2   7   3    1.32    0.28
   3   7   3    3.66    0.42
   7  -8  -3    0.06    0.15
   6  -8  -3   -0.19    0.12
   5  -8  -3   32.90    1.07
   5  -8  -3   32.16    1.25
  -5   8   3   32.32    1.33
   4  -8  -3   26.54    0.89
   4  -8  -3   22.98    1.03
  -4   8   3   24.37    1.12
   3  -8  -3    8.59    0.58
   3  -8  -3    8.93    0.47
  -3   8   3    8.38    0.64
   2  -8  -3   14.18    0.76
   2  -8  -3   13.65    0.58
  -2   8   3   14.45    0.82
   1  -8  -3   -0.08    0.12
   1  -8  -3    0.03    0.15
  -1   8   3   -0.06    0.16
   0  -8  -3    6.59    0.36
   0  -8  -3    5.52    0.54
   0   8   3    6.41    0.53
  -1  -8  -3    9.44    0.60
   1   8   3   10.14    0.64
  -2  -8  -3   11.54    0.68
   2   8   3   11.76    0.70
   7  -9  -3    0.66    0.22
   6  -9  -3   18.37    0.76
   5  -9  -3    5.25    0.57
   5  -9  -3    4.57    0.38
  -5   9   3    4.30    0.57
   4  -9  -3    1.30    0.24
   4  -9  -3    1.19    0.31
  -4   9   3    1.00    0.32
   3  -9  -3   48.79    1.68
   3  -9  -3   46.19    1.39
  -3   9   3   50.14    1.77
   2  -9  -3    6.70    0.40
   2  -9  -3    5.08    0.54
  -2   9   3    4.45    0.54
   1  -9  -3    5.80    0.36
   1  -9  -3    5.24    0.55
  -1   9   3    5.86    0.62
   0  -9  -3   39.42    1.45
   0   9   3   39.40    1.50
  -1  -9  -3    0.85    0.26
   1   9   3    1.41    0.32
  -2  -9  -3    1.18    0.30
   2   9   3    1.00    0.29
   6 -10  -3    5.93    0.45
   5 -10  -3    0.82    0.31
   5 -10  -3    0.75    0.22
  -5  10   3    1.04    0.36
   4 -10  -3    0.80    0.28
   4 -10  -3    0.79    0.23
  -4  10   3    1.43    0.38
   3 -10  -3   -0.04    0.16
   3 -10  -3    0.02    0.20
  -3  10   3   -0.06    0.19
   2 -10  -3    3.86    0.37
   2 -10  -3    3.00    0.45
  -2  10   3    2.77    0.46
   1 -10  -3   17.94    0.95
  -1  10   3   18.29    1.00
   0  10   3    8.82    0.68
  -1 -10  -3    0.76    0.27
   1  10   3    0.90    0.30
  -2 -10  -3    0.00    0.23
   2  10   3    0.15    0.23
   6 -11  -3    9.55    0.57
   5 -11  -3    6.99    0.72
   5 -11  -3    7.50    0.50
  -5  11   3    6.52    0.73
   4 -11  -3    1.60    0.30
   4 -11  -3    2.06    0.41
  -4  11   3    1.39    0.39
   3 -11  -3   -0.10    0.17
   3 -11  -3    0.26    0.25
  -3  11   3   -0.13    0.22
   2 -11  -3    0.33    0.24
   2 -11  -3    0.16    0.18
  -2  11   3    0.16    0.21
   1 -11  -3    0.42    0.24
  -1  11   3    0.41    0.26
   0 -11  -3   -0.08    0.21
   0  11   3    0.16    0.22
  -1 -11  -3    0.29    0.27
   1  11   3    0.19    0.25
  -2 -11  -3    0.06    0.29
   2  11   3    0.18    0.27
   6 -12  -3   -0.05    0.21
   4 -12  -3    6.04    0.46
   4 -12  -3    5.45    0.68
  -4  12   3    6.63    0.77
   3 -12  -3    0.17    0.20
   3 -12  -3    0.08    0.25
  -3  12   3   -0.03    0.24
   2 -12  -3   -0.17    0.19
   2 -12  -3   -0.07    0.18
  -2  12   3   -0.34    0.15
   1 -12  -3   -0.19    0.20
  -1  12   3    0.15    0.25
   0 -12  -3    0.98    0.35
   0  12   3    1.47    0.40
  -1 -12  -3    1.86    0.46
   1  12   3    3.08    0.55
   5 -13  -3    2.59    0.40
   4 -13  -3    0.69    0.29
   3 -13  -3    0.70    0.27
   4 -14  -3    5.41    0.55
   3 -17   4    0.46    0.30
   2 -16   4    0.08    0.24
   3 -16   4   -0.04    0.24
   4 -16   4    0.30    0.25
   0  15  -4    0.86    0.36
   0 -15   4    0.33    0.33
  -1  15  -4   -0.04    0.23
   1 -15   4    0.10    0.20
   1 -15   4    0.07    0.28
  -2  15  -4    0.09    0.27
   2 -15   4    0.08    0.30
   2 -15   4    0.16    0.23
  -3  15  -4    2.51    0.51
   3 -15   4    2.89    0.38
   3 -15   4    2.62    0.54
  -4  15  -4   -0.04    0.29
   4 -15   4    0.50    0.34
   4 -15   4   -0.04    0.20
   5 -15   4    0.16    0.22
   2  14  -4    2.68    0.52
  -2 -14   4    1.29    0.43
   1  14  -4    0.07    0.26
  -1 -14   4    0.34    0.31
   0  14  -4   -0.01    0.24
   0 -14   4    0.06    0.25
  -1  14  -4    0.08    0.22
   1 -14   4    0.05    0.18
   1 -14   4   -0.22    0.19
  -2  14  -4    0.17    0.24
   2 -14   4    0.05    0.19
   2 -14   4   -0.09    0.24
  -3  14  -4   -0.10    0.21
   3 -14   4   -0.25    0.22
   3 -14   4    0.11    0.20
  -4  14  -4    0.38    0.27
   4 -14   4    0.07    0.18
   4 -14   4    0.55    0.31
   5 -14   4    3.31    0.39
   3  13  -4    0.01    0.28
  -3 -13   4    0.17    0.34
   2  13  -4   -0.13    0.22
  -2 -13   4    0.01    0.26
   1  13  -4    1.63    0.39
  -1 -13   4    1.21    0.37
   0  13  -4    0.65    0.28
   0 -13   4    0.36    0.20
   0 -13   4    0.89    0.33
  -1  13  -4   -0.07    0.17
   1 -13   4   -0.07    0.19
   1 -13   4    0.10    0.19
  -2  13  -4    1.39    0.36
   2 -13   4    1.07    0.34
   2 -13   4    1.34    0.26
  -3  13  -4    0.42    0.26
   3 -13   4    0.11    0.16
   3 -13   4    0.13    0.23
  -4  13  -4   -0.15    0.21
   4 -13   4   -0.07    0.16
   4 -13   4   -0.14    0.20
   5 -13   4    0.60    0.21
   6 -13   4    2.55    0.33
   3  12  -4    1.43    0.37
  -3 -12   4    0.53    0.35
   2  12  -4    1.00    0.32
  -2 -12   4    1.34    0.36
   1  12  -4    4.85    0.61
  -1 -12   4    5.07    0.63
   0  12  -4    0.41    0.23
   0 -12   4    0.82    0.31
   0 -12   4    0.18    0.17
  -1  12  -4    7.23    0.68
   1 -12   4    6.01    0.41
   1 -12   4    6.09    0.66
  -2  12  -4    0.40    0.22
   2 -12   4    0.01    0.20
   2 -12   4    0.12    0.18
  -3  12  -4    0.01    0.18
   3 -12   4    0.02    0.15
   3 -12   4    0.02    0.18
  -4  12  -4    7.40    0.59
   4 -12   4    7.56    0.61
   4 -12   4    7.73    0.46
   5 -12   4    0.74    0.20
   6 -12   4    0.02    0.15
   3  11  -4    0.88    0.31
  -3 -11   4    1.46    0.37
   2  11  -4    1.60    0.35
  -2 -11   4    1.19    0.33
   1  11  -4    0.65    0.28
  -1 -11   4    0.31    0.24
   0  11  -4    0.49    0.25
   0 -11   4    0.34    0.23
   0 -11   4    0.67    0.22
  -1  11  -4    0.57    0.23
   1 -11   4    0.50    0.19
   1 -11   4    0.57    0.24
  -2  11  -4    3.51    0.45
   2 -11   4    3.80    0.35
   2 -11   4    3.66    0.48
  -3  11  -4    1.57    0.31
   3 -11   4    1.11    0.29
   3 -11   4    1.13    0.21
  -4  11  -4    0.30    0.21
   4 -11   4    0.44    0.16
   4 -11   4    0.32    0.22
   5 -11   4    3.17    0.31
   6 -11   4    0.49    0.17
   4  10  -4    2.58    0.45
  -4 -10   4    2.76    0.49
   3  10  -4    2.37    0.41
  -3 -10   4    1.41    0.35
   2  10  -4    0.02    0.18
  -2 -10   4    0.08    0.20
   1  10  -4   12.81    0.74
  -1 -10   4   12.34    0.55
  -1 -10   4   11.50    0.73
   0  10  -4    5.22    0.53
   0 -10   4    3.74    0.47
   0 -10   4    3.93    0.30
  -1  10  -4    8.50    0.58
   1 -10   4    8.71    0.59
   1 -10   4    8.48    0.42
  -2  10  -4   64.21    1.96
   2 -10   4   67.44    1.72
   2 -10   4   63.56    1.98
  -3  10  -4   13.18    0.70
   3 -10   4   12.17    0.52
   3 -10   4   13.52    0.72
  -4  10  -4    8.59    0.56
   4 -10   4    8.19    0.41
   4 -10   4    8.83    0.58
   5 -10   4    0.18    0.13
   6 -10   4   -0.04    0.12
   7 -10   4    0.13    0.13
   4   9  -4    0.12    0.22
  -4  -9   4    0.11    0.26
   3   9  -4    4.82    0.54
  -3  -9   4    4.76    0.56
   2   9  -4   20.43    0.94
  -2  -9   4   20.27    0.96
   1   9  -4   44.94    1.56
  -1  -9   4   49.09    1.33
  -1  -9   4   49.56    1.64
   0   9  -4    5.99    0.46
   0  -9   4    4.39    0.48
   0  -9   4    6.00    0.35
  -1   9  -4   12.33    0.65
   1  -9   4   10.78    0.64
   1  -9   4   12.77    0.50
  -2   9  -4   27.97    1.05
   2  -9   4   27.95    0.86
   2  -9   4   27.88    1.06
  -3   9  -4   55.88    1.71
   3  -9   4   58.78    1.52
   3  -9   4   59.63    1.75
  -4   9  -4   43.61    1.37
   4  -9   4   42.01    1.17
   4  -9   4   42.83    1.38
   5  -9   4   28.57    0.87
   6  -9   4   -0.03    0.11
   7  -9   4   -0.01    0.11
   4   8  -4    8.87    0.62
  -4  -8   4    8.53    0.64
   3   8  -4   13.52    0.74
  -3  -8   4   13.25    0.76
   2   8  -4   57.60    1.78
  -2  -8   4   57.46    1.52
  -2  -8   4   56.97    1.81
   1   8  -4   16.21    0.76
  -1  -8   4   17.00    0.80
  -1  -8   4   16.42    0.59
   0   8  -4    6.16    0.44
   0  -8   4    6.06    0.46
   0  -8   4    6.72    0.34
  -1   8  -4   16.89    0.74
   1  -8   4   16.57    0.57
   1  -8   4   16.17    0.75
  -2   8  -4   10.89    0.56
   2  -8   4   10.70    0.43
   2  -8   4   11.13    0.58
  -3   8  -4    0.20    0.13
   3  -8   4    0.15    0.13
   3  -8   4    0.25    0.11
  -4   8  -4   28.59    0.97
   4  -8   4   27.15    0.81
   4  -8   4   27.76    0.97
   5  -8   4    8.11    0.36
   6  -8   4    4.38    0.27
   7  -8   4    0.33    0.13
  -4  -7   4    0.90    0.29
   3   7  -4    5.80    0.48
  -3  -7   4    6.35    0.50
   2   7  -4   97.32    2.58
  -2  -7   4   96.25    2.34
  -2  -7   4   96.29    2.61
   1   7  -4   26.93    0.99
  -1  -7   4   25.59    0.99
  -1  -7   4   27.30    0.81
   0   7  -4   15.19    0.68
   0  -7   4   15.29    0.70
   0  -7   4   15.43    0.53
  -1   7  -4   19.57    0.77
   1  -7   4   19.36    0.79
   1  -7   4   20.32    0.63
  -2   7  -4   24.71    0.88
   2  -7   4   25.10    0.73
   2  -7   4   24.59    0.89
  -3   7  -4    1.58    0.23
   3  -7   4    1.57    0.24
   3  -7   4    1.74    0.17
  -4   7  -4    2.99    0.29
   4  -7   4    3.02    0.21
   4  -7   4    2.89    0.30
   5  -7   4   17.07    0.54
   6  -7   4    4.72    0.25
   7  -7   4    0.85    0.12
   7   6  -4    2.51    0.33
   4   6  -4   17.49    0.82
  -4  -6   4   19.26    0.88
   3   6  -4   28.95    1.08
  -3  -6   4   28.04    1.08
   2   6  -4    5.25    0.40
  -2  -6   4    5.13    0.29
  -2  -6   4    5.56    0.42
   1   6  -4  110.36    2.81
  -1  -6   4  114.52    2.63
  -1  -6   4  111.81    2.84
   0   6  -4   64.13    1.75
   0  -6   4   65.25    1.58
   0  -6   4   63.16    1.77
  -1   6  -4   17.11    0.66
   1  -6   4   17.10    0.53
   1  -6   4   16.42    0.67
  -2   6  -4   23.86    0.80
   2  -6   4   24.26    0.82
   2  -6   4   22.88    0.67
  -3   6  -4   10.56    0.43
  -3   6  -4    9.87    0.45
   3  -6   4    9.66    0.36
   3  -6   4   10.68    0.47
   3  -6   4   10.44    0.47
  -4   6  -4    8.00    0.38
   4  -6   4    6.82    0.29
   4  -6   4    7.47    0.37
   5  -6   4    6.08    0.26
   6  -6   4   24.12    0.65
   7   5  -4    0.06    0.16
   4   5  -4   28.41    1.07
  -4  -5   4   29.90    1.12
  -3  -5   4    0.75    0.21
   2   5  -4    1.41    0.23
  -2  -5   4    1.67    0.26
  -2  -5   4    1.77    0.18
   1   5  -4   26.10    0.90
  -1  -5   4   26.21    0.75
  -1  -5   4   25.68    0.91
   0   5  -4   50.07    1.35
   0   5  -4   48.54    1.37
   0  -5   4   47.11    1.38
   0  -5   4   47.65    1.33
   0  -5   4   48.60    1.21
  -1   5  -4    1.21    0.18
  -1   5  -4    1.34    0.20
   1  -5   4    1.08    0.17
   1  -5   4    0.78    0.16
   1  -5   4    1.23    0.14
  -2   5  -4    1.22    0.16
  -2   5  -4    1.15    0.17
   2  -5   4    1.40    0.14
   2  -5   4    1.52    0.20
   2  -5   4    1.25    0.17
  -3   5  -4    0.18    0.10
  -3   5  -4    0.19    0.09
   3  -5   4    0.18    0.10
   3  -5   4    0.12    0.09
   3  -5   4    0.16    0.07
  -4   5  -4    1.35    0.15
   4  -5   4    1.71    0.14
   4  -5   4    1.51    0.16
   5  -5   4   34.27    0.85
   7   4  -4    4.20    0.39
   6   4  -4    7.65    0.44
   4   4  -4   45.83    1.42
  -4  -4   4   45.24    1.44
   3   4  -4    0.02    0.10
  -3  -4   4   -0.01    0.13
  -2  -4   4   61.66    1.71
  -2  -4   4   60.23    1.50
   1   4  -4  115.45    2.76
   1   4  -4  116.26    2.80
  -1  -4   4  110.91    2.64
  -1  -4   4  115.56    2.81
  -1  -4   4  116.60    2.75
   0   4  -4   58.06    1.50
   0   4  -4   55.48    1.51
   0  -4   4   57.31    1.48
   0  -4   4   57.58    1.38
   0  -4   4   55.65    1.52
  -1   4  -4   36.39    1.01
  -1   4  -4   35.13    1.02
   1  -4   4   34.75    1.03
   1  -4   4   36.04    0.91
   1  -4   4   37.36    1.01
  -2   4  -4    2.18    0.18
  -2   4  -4    1.94    0.20
   2  -4   4    1.79    0.20
   2  -4   4    1.85    0.14
   2  -4   4    1.92    0.19
  -3   4  -4    2.25    0.15
  -3   4  -4    2.01    0.17
   3  -4   4    2.14    0.17
   3  -4   4    2.40    0.17
   3  -4   4    2.20    0.14
   4  -4   4    0.13    0.07
   7   3  -4    3.45    0.34
   6   3  -4    8.81    0.46
   5   3  -4   15.00    0.68
   5   3  -4   14.27    0.59
  -5  -3   4   15.10    0.71
   4   3  -4   25.81    0.94
  -4  -3   4   24.22    0.94
   3   3  -4    0.47    0.16
  -3  -3   4    0.77    0.20
   2   3  -4   59.42    1.56
   2   3  -4   56.18    1.56
  -2  -3   4   54.71    1.39
  -2  -3   4   58.41    1.55
  -2  -3   4   56.01    1.58
   1   3  -4  246.76    5.55
   1   3  -4  256.60    5.55
  -1  -3   4  244.29    5.57
  -1  -3   4  251.41    5.53
  -1  -3   4  243.62    5.48
   0   3  -4   81.62    1.98
   0  -3   4   80.34    1.97
   0  -3   4   80.49    1.88
   0  -3   4   80.29    2.00
  -1   3  -4   54.00    1.37
   1  -3   4   53.24    1.28
   1  -3   4   54.91    1.36
   1  -3   4   53.87    1.39
  -2   3  -4   59.25    1.40
  -2   3  -4   58.58    1.43
   2  -3   4   57.99    1.36
   2  -3   4   58.29    1.40
   2  -3   4   59.27    1.45
  -3   3  -4   12.67    0.35
   3  -3   4   12.73    0.36
   3  -3   4   12.32    0.36
   4  -3   4   27.31    0.66
   7   2  -4    5.40    0.37
   6   2  -4    0.25    0.14
   5   2  -4    7.74    0.47
   5   2  -4    7.13    0.39
  -5  -2   4    6.28    0.46
   4   2  -4    0.82    0.15
   4   2  -4    0.83    0.20
  -4  -2   4    0.56    0.19
   3   2  -4  223.85    5.05
  -3  -2   4  216.06    5.05
   2   2  -4    2.33    0.27
   2   2  -4    2.40    0.28
  -2  -2   4    2.12    0.25
  -2  -2   4    2.61    0.29
  -2  -2   4    2.41    0.17
   1   2  -4  140.10    3.30
   1   2  -4  145.54    3.32
  -1  -2   4  140.74    3.20
  -1  -2   4  142.89    3.33
   0   2  -4  118.97    2.69
   0   2  -4  114.65    2.67
   0   2  -4  110.44    2.59
   0  -2   4  115.28    2.69
   0  -2   4  112.25    2.58
  -1   2  -4   55.19    1.40
  -1   2  -4   58.68    1.41
   1  -2   4   54.50    1.41
   1  -2   4   53.61    1.31
   1  -2   4   57.11    1.40
  -2   2  -4    3.91    0.21
  -2   2  -4    3.79    0.20
   2  -2   4    3.67    0.17
   2  -2   4    3.76    0.21
   2  -2   4    3.92    0.20
   3  -2   4    8.94    0.27
   7   1  -4    0.96    0.21
   6   1  -4    3.46    0.29
   5   1  -4    2.69    0.33
   5   1  -4    2.85    0.28
  -5  -1   4    2.47    0.34
   4   1  -4   10.91    0.55
   4   1  -4   10.94    0.46
  -4  -1   4   11.32    0.57
   3   1  -4    0.41    0.12
   3   1  -4    0.48    0.16
  -3  -1   4    0.39    0.16
   2   1  -4    3.52    0.29
   2   1  -4    3.16    0.22
   2   1  -4    3.91    0.30
  -2  -1   4    3.14    0.32
  -2  -1   4    3.32    0.31
  -2  -1   4    3.51    0.20
   1   1  -4   50.11    1.35
   1   1  -4   48.29    1.22
   1   1  -4   50.26    1.36
  -1  -1   4   49.38    1.34
  -1  -1   4   47.84    1.20
  -1  -1   4   47.55    1.35
   0   1  -4  465.66   10.25
   0   1  -4  479.68   10.34
   0   1  -4  487.88   10.27
   0  -1   4  478.56   10.25
   0  -1   4  486.42   10.34
   0  -1   4  465.07   10.26
  -1   1  -4    0.13    0.08
  -1   1  -4    0.05    0.07
   1  -1   4    0.11    0.08
   1  -1   4    0.07    0.06
   1  -1   4    0.14    0.08
   1  -1   4    0.09    0.06
  -2   1  -4   66.59    1.54
  -2   1  -4   65.62    1.52
   2  -1   4   64.52    1.50
   2  -1   4   64.05    1.50
   2  -1   4   65.08    1.54
   3  -1   4    3.34    0.15
   3  -1   4    3.57    0.16
   7   0  -4    7.02    0.40
   6   0  -4   11.52    0.51
   5   0  -4   11.93    0.58
   5   0  -4   13.04    0.53
  -5   0   4   12.37    0.61
   4   0  -4    0.28    0.11
   4   0  -4    0.03    0.12
  -4   0   4    0.16    0.14
   3   0  -4   30.56    1.00
   3   0  -4   30.02    0.87
  -3   0   4   29.51    1.01
   2   0  -4   49.01    1.40
   2   0  -4   48.20    1.25
   2   0  -4   49.10    1.39
  -2   0   4   49.16    1.41
  -2   0   4   48.28    1.21
  -2   0   4   49.79    1.39
   1   0  -4    0.11    0.09
   1   0  -4    0.07    0.06
   1   0  -4    0.21    0.11
  -1   0   4    0.12    0.10
  -1   0   4    0.16    0.08
  -1   0   4    0.09    0.09
   0   0  -4   25.33    0.72
   0   0  -4   28.20    0.87
   0   0  -4   29.07    0.86
   0   0   4   27.13    0.73
   0   0   4   28.72    0.87
   0   0   4   27.85    0.86
  -1   0  -4   27.49    0.79
  -1   0  -4   26.77    0.81
   1   0   4   27.24    0.81
   1   0   4   25.96    0.70
   1   0   4   27.13    0.81
   1   0   4   25.47    0.69
  -2   0  -4    0.13    0.09
  -2   0  -4    0.11    0.07
   2   0   4    0.17    0.09
   2   0   4   -0.01    0.05
   2   0   4    0.04    0.07
   2   0   4   -0.03    0.05
   3   0   4    2.87    0.16
   3   0   4    2.93    0.13
   4   0   4    2.78    0.15
   8  -1  -4    0.80    0.20
   7  -1  -4    0.87    0.20
   6  -1  -4    7.89    0.42
   5  -1  -4   22.40    0.86
   5  -1  -4   22.69    0.77
  -5   1   4   23.64    0.91
   4  -1  -4    3.68    0.26
   4  -1  -4    4.00    0.38
  -4   1   4    4.87    0.44
   3  -1  -4    5.49    0.38
   3  -1  -4    5.23    0.30
  -3   1   4    5.45    0.39
  -3   1   4    5.74    0.27
   2  -1  -4    5.60    0.30
   2  -1  -4    5.66    0.37
  -2   1   4    6.35    0.41
  -2   1   4    6.02    0.27
   1  -1  -4   39.79    1.16
   1  -1  -4   37.01    0.99
   1  -1  -4   38.40    1.13
  -1   1   4   35.34    1.13
  -1   1   4   37.33    0.97
  -1   1   4   37.64    1.13
   0  -1  -4   32.10    0.98
   0  -1  -4   29.28    0.80
   0  -1  -4   32.67    0.96
   0   1   4   29.99    0.81
   0   1   4   30.79    0.96
   0   1   4   31.79    0.98
  -1  -1  -4   12.15    0.51
  -1  -1  -4   13.49    0.50
   1   1   4   12.48    0.51
   1   1   4   12.47    0.41
   1   1   4   11.23    0.49
  -2  -1  -4    6.37    0.34
  -2  -1  -4    6.48    0.30
   2   1   4    5.91    0.31
   2   1   4    6.23    0.33
   2   1   4    6.58    0.27
  -3  -1  -4   14.36    0.48
  -3  -1  -4   14.44    0.45
   3   1   4   14.46    0.45
   3   1   4   14.65    0.48
   3   1   4   14.51    0.45
   4   1   4    2.43    0.17
   8  -2  -4    0.18    0.16
   7  -2  -4    4.78    0.34
   6  -2  -4   -0.01    0.11
   5  -2  -4    0.76    0.21
   5  -2  -4    0.99    0.19
  -5   2   4    0.97    0.24
   4  -2  -4    0.43    0.16
   4  -2  -4    0.81    0.16
  -4   2   4    0.56    0.19
   3  -2  -4    6.57    0.42
   3  -2  -4    7.37    0.36
  -3   2   4    7.54    0.47
   2  -2  -4   41.13    1.11
   2  -2  -4   40.97    1.26
  -2   2   4   41.02    1.29
  -2   2   4   41.51    1.07
   1  -2  -4   14.69    0.61
   1  -2  -4   14.32    0.49
  -1   2   4   14.37    0.49
  -1   2   4   16.83    0.68
   0  -2  -4   22.81    0.79
   0  -2  -4   21.74    0.64
   0  -2  -4   23.23    0.83
   0   2   4   23.75    0.67
   0   2   4   20.88    0.80
   0   2   4   23.30    0.82
  -1  -2  -4   15.17    0.56
  -1  -2  -4   14.35    0.61
   1   2   4   14.69    0.60
   1   2   4   14.29    0.59
  -2  -2  -4    0.14    0.10
  -2  -2  -4    0.09    0.09
   2   2   4    0.09    0.10
   2   2   4    0.22    0.08
   2   2   4    0.28    0.12
  -3  -2  -4    6.01    0.30
   3   2   4    5.75    0.27
   3   2   4    6.45    0.31
   8  -3  -4    0.05    0.15
   7  -3  -4    1.69    0.25
   6  -3  -4    1.10    0.21
   5  -3  -4    0.29    0.17
   5  -3  -4    0.69    0.17
  -5   3   4    0.79    0.24
   4  -3  -4    3.01    0.35
   4  -3  -4    3.51    0.28
  -4   3   4    4.46    0.46
   3  -3  -4    2.53    0.32
   3  -3  -4    2.47    0.25
  -3   3   4    3.19    0.39
   2  -3  -4    2.23    0.22
   2  -3  -4    2.13    0.29
  -2   3   4    2.13    0.32
   1  -3  -4    5.37    0.38
   1  -3  -4    5.87    0.29
  -1   3   4    6.45    0.44
   0  -3  -4    3.91    0.22
   0  -3  -4    4.49    0.31
   0   3   4    4.49    0.34
  -1  -3  -4    6.89    0.38
   1   3   4    7.46    0.43
  -2  -3  -4    0.45    0.13
   2   3   4    0.44    0.11
   2   3   4    0.79    0.18
  -3  -3  -4    0.10    0.11
   3   3   4    0.17    0.11
   7  -4  -4    0.14    0.15
   6  -4  -4    0.03    0.14
   5  -4  -4   -0.04    0.14
   5  -4  -4    0.02    0.11
  -5   4   4    0.12    0.18
   4  -4  -4    1.02    0.19
   4  -4  -4    1.19    0.24
  -4   4   4    2.10    0.34
   3  -4  -4    3.46    0.28
   3  -4  -4    3.53    0.38
  -3   4   4    3.80    0.43
   2  -4  -4   32.67    0.96
   2  -4  -4   33.21    1.13
  -2   4   4   33.02    1.18
   1  -4  -4    0.39    0.12
   1  -4  -4    0.53    0.16
  -1   4   4    0.45    0.17
   0  -4  -4   13.21    0.61
   0  -4  -4   14.27    0.49
   0   4   4   15.17    0.69
  -1  -4  -4   21.74    0.63
  -1  -4  -4   22.48    0.80
   1   4   4   22.60    0.86
  -2  -4  -4    3.22    0.32
   2   4   4    4.16    0.38
  -3  -4  -4    0.07    0.12
   3   4   4   -0.02    0.12
   7  -5  -4    0.59    0.19
   6  -5  -4    0.67    0.19
   5  -5  -4    2.19    0.28
   5  -5  -4    2.19    0.34
  -5   5   4    3.29    0.45
   4  -5  -4    1.13    0.25
   4  -5  -4    1.29    0.22
  -4   5   4    1.36    0.30
   3  -5  -4    3.70    0.40
   3  -5  -4    3.32    0.27
  -3   5   4    2.43    0.36
   2  -5  -4    0.26    0.15
   2  -5  -4    0.23    0.12
  -2   5   4    0.19    0.16
   1  -5  -4   24.58    0.77
   1  -5  -4   25.03    0.95
  -1   5   4   25.27    1.01
   0  -5  -4   63.70    1.80
   0  -5  -4   63.14    1.58
   0   5   4   63.37    1.88
  -1  -5  -4   15.37    0.67
   1   5   4   15.31    0.72
  -2  -5  -4   23.29    0.87
   2   5   4   23.16    0.90
  -3  -5  -4    0.45    0.19
   3   5   4    0.58    0.19
   7  -6  -4   -0.21    0.13
   6  -6  -4    0.05    0.15
   5  -6  -4    3.40    0.34
   5  -6  -4    2.70    0.39
  -5   6   4    3.01    0.45
   4  -6  -4    4.39    0.48
   4  -6  -4    4.87    0.36
  -4   6   4    4.71    0.53
   3  -6  -4    5.97    0.36
   3  -6  -4    6.14    0.47
  -3   6   4    6.44    0.52
   2  -6  -4    0.91    0.23
   2  -6  -4    1.07    0.18
  -2   6   4    0.61    0.22
   1  -6  -4    3.01    0.37
   1  -6  -4    3.36    0.26
  -1   6   4    2.87    0.40
   0  -6  -4    6.17    0.45
   0  -6  -4    5.79    0.31
   0   6   4    7.37    0.53
  -1  -6  -4   31.75    1.11
   1   6   4   30.49    1.15
  -2  -6  -4    0.96    0.23
   2   6   4    1.31    0.27
   7  -7  -4   -0.25    0.13
   6  -7  -4    0.33    0.17
   5  -7  -4    3.95    0.38
   5  -7  -4    3.15    0.44
  -5   7   4    3.95    0.53
   4  -7  -4   11.48    0.70
   4  -7  -4   14.22    0.60
  -4   7   4   12.65    0.80
   3  -7  -4   12.43    0.56
   3  -7  -4   11.76    0.69
  -3   7   4   11.75    0.75
   2  -7  -4    0.05    0.14
   2  -7  -4    0.04    0.12
  -2   7   4    0.11    0.17
   1  -7  -4   16.22    0.60
   1  -7  -4   15.77    0.78
  -1   7   4   15.21    0.83
   0  -7  -4    1.94    0.31
   0  -7  -4    2.63    0.26
   0   7   4    2.22    0.37
  -1  -7  -4    6.93    0.49
   1   7   4    5.67    0.56
  -2  -7  -4    2.53    0.38
   2   7   4    2.96    0.41
   7  -8  -4   -0.05    0.16
   6  -8  -4    3.63    0.38
   5  -8  -4   15.72    0.85
   5  -8  -4   14.08    0.66
  -5   8   4   13.13    0.85
   4  -8  -4    0.10    0.16
   4  -8  -4    0.06    0.18
  -4   8   4    0.12    0.21
   3  -8  -4    8.98    0.48
   3  -8  -4    9.15    0.64
  -3   8   4    9.43    0.69
   2  -8  -4   22.26    0.78
   2  -8  -4   21.10    0.99
  -2   8   4   21.01    1.06
   1  -8  -4   11.05    0.68
   1  -8  -4   11.96    0.53
  -1   8   4   11.05    0.74
   0  -8  -4    1.61    0.31
   0   8   4    1.85    0.36
  -1  -8  -4    6.28    0.60
   1   8   4    7.00    0.66
  -2  -8  -4    5.69    0.58
   2   8   4    5.43    0.56
   7  -9  -4    1.34    0.27
   6  -9  -4    0.87    0.23
   5  -9  -4    4.00    0.40
   5  -9  -4    4.16    0.54
  -5   9   4    4.17    0.61
   4  -9  -4    0.08    0.19
   4  -9  -4    0.23    0.16
  -4   9   4    0.20    0.23
   3  -9  -4    0.64    0.20
   3  -9  -4    0.34    0.23
  -3   9   4    0.59    0.29
   2  -9  -4    0.29    0.20
   2  -9  -4    0.01    0.15
  -2   9   4    0.19    0.21
   1  -9  -4    0.10    0.18
   1  -9  -4    0.03    0.15
  -1   9   4    0.19    0.22
   0  -9  -4    6.85    0.57
   0   9   4    6.82    0.70
  -1  -9  -4    0.40    0.23
   1   9   4    0.16    0.22
  -2  -9  -4    0.06    0.22
   2   9   4   -0.06    0.21
   6 -10  -4   12.83    0.67
   5 -10  -4    0.01    0.19
   5 -10  -4    0.09    0.23
  -5  10   4    0.27    0.30
   4 -10  -4    0.31    0.26
   4 -10  -4    0.09    0.18
  -4  10   4    0.51    0.31
   3 -10  -4    6.01    0.64
   3 -10  -4    6.25    0.45
  -3  10   4    6.54    0.73
   2 -10  -4    0.51    0.19
   2 -10  -4    0.54    0.26
  -2  10   4    0.42    0.26
   1 -10  -4   -0.09    0.20
  -1  10   4    0.00    0.23
   0 -10  -4    0.45    0.24
   0  10   4    0.16    0.23
  -2 -10  -4    0.58    0.31
   2  10   4    0.68    0.32
   6 -11  -4   -0.13    0.19
   5 -11  -4    0.22    0.28
   5 -11  -4   -0.07    0.19
  -5  11   4   -0.28    0.26
   4 -11  -4    5.60    0.44
   4 -11  -4    5.50    0.68
  -4  11   4    5.49    0.72
   3 -11  -4   -0.07    0.18
   3 -11  -4    0.25    0.25
  -3  11   4    0.21    0.27
   2 -11  -4    0.24    0.23
   2 -11  -4    0.11    0.18
  -2  11   4    0.37    0.26
  -1  11   4    7.29    0.78
   0 -11  -4    0.97    0.35
   0  11   4    0.95    0.36
   5 -12  -4   15.46    0.79
   4 -12  -4   24.35    0.99
   3 -12  -4    0.07    0.25
   3 -12  -4   -0.29    0.17
  -3  12   4    0.11    0.27
   2 -12  -4    2.69    0.53
  -2  12   4    2.96    0.59
   1 -12  -4    6.15    0.74
  -1  12   4    4.04    0.64
   0 -12  -4    0.71    0.36
   0  12   4    1.72    0.47
   2 -17   5    3.07    0.47
   3 -17   5    1.07    0.32
   2 -16   5    3.27    0.45
   3 -16   5   -0.09    0.22
   4 -16   5    0.12    0.24
   1  15  -5    0.11    0.31
  -1 -15   5    0.50    0.36
   0  15  -5   -0.04    0.24
   0 -15   5    0.13    0.27
  -1  15  -5    0.14    0.27
   1 -15   5   -0.14    0.28
   1 -15   5   -0.13    0.18
  -2  15  -5    0.67    0.29
   2 -15   5    0.82    0.36
   2 -15   5    0.49    0.24
  -3  15  -5    1.62    0.41
   3 -15   5    1.44    0.44
   3 -15   5    2.04    0.35
  -4  15  -5    0.54    0.33
   4 -15   5    0.34    0.31
   4 -15   5    0.48    0.23
   5 -15   5    6.20    0.49
   2  14  -5    0.62    0.35
  -2 -14   5    0.55    0.37
   1  14  -5   12.06    0.88
   0  14  -5   -0.11    0.20
   0 -14   5    0.17    0.25
  -1  14  -5    2.66    0.50
   1 -14   5    3.60    0.40
   1 -14   5    3.02    0.55
  -2  14  -5    0.18    0.24
   2 -14   5    0.26    0.22
   2 -14   5    0.21    0.26
  -3  14  -5    0.35    0.25
   3 -14   5    0.60    0.23
   3 -14   5    0.43    0.30
  -4  14  -5    1.90    0.44
   4 -14   5    1.63    0.40
   4 -14   5    2.85    0.36
   5 -14   5    0.24    0.18
   3  13  -5    0.09    0.27
  -3 -13   5    0.45    0.36
   2  13  -5    3.55    0.56
  -2 -13   5    3.00    0.54
   1  13  -5    1.70    0.41
  -1 -13   5    2.23    0.47
   0  13  -5    3.22    0.49
   0 -13   5    3.74    0.39
   0 -13   5    3.51    0.55
  -1  13  -5   -0.03    0.18
   1 -13   5    0.25    0.26
   1 -13   5   -0.01    0.16
  -2  13  -5    9.26    0.71
   2 -13   5    9.77    0.75
   2 -13   5    9.35    0.53
  -3  13  -5    0.05    0.22
   3 -13   5    0.81    0.31
   3 -13   5    0.17    0.18
  -4  13  -5   -0.01    0.22
   4 -13   5   -0.16    0.21
   4 -13   5   -0.03    0.16
   5 -13   5   -0.11    0.14
   6 -13   5    0.70    0.22
   3  12  -5    0.64    0.31
  -3 -12   5    0.64    0.34
   2  12  -5   -0.01    0.21
  -2 -12   5    0.00    0.23
   1  12  -5    4.40    0.58
  -1 -12   5    3.54    0.53
   0  12  -5    2.73    0.46
   0 -12   5    3.53    0.37
   0 -12   5    2.84    0.48
  -1  12  -5    1.76    0.36
   1 -12   5    2.12    0.42
   1 -12   5    1.94    0.29
  -2  12  -5    0.70    0.27
   2 -12   5    1.10    0.32
   2 -12   5    0.57    0.19
  -3  12  -5    0.40    0.23
   3 -12   5    0.44    0.18
   3 -12   5    0.32    0.20
  -4  12  -5    0.02    0.19
   4 -12   5   -0.01    0.20
   4 -12   5    0.06    0.15
   5 -12   5    0.42    0.18
   6 -12   5    0.40    0.17
   4  11  -5   -0.12    0.22
  -4 -11   5    0.27    0.32
   3  11  -5    0.03    0.22
  -3 -11   5    0.02    0.26
   2  11  -5    0.31    0.23
  -2 -11   5    0.32    0.26
   1  11  -5   -0.03    0.16
  -1 -11   5   -0.13    0.15
  -1 -11   5    0.06    0.20
   0  11  -5    3.66    0.47
   0 -11   5    3.36    0.34
   0 -11   5    3.05    0.47
  -1  11  -5    8.62    0.63
   1 -11   5    9.98    0.69
   1 -11   5    9.81    0.50
  -2  11  -5    0.23    0.19
   2 -11   5    0.45    0.18
   2 -11   5    0.57    0.24
  -3  11  -5   -0.02    0.16
   3 -11   5    0.10    0.18
   3 -11   5    0.25    0.14
  -4  11  -5    0.06    0.20
   4 -11   5    0.05    0.19
   4 -11   5   -0.05    0.13
   5 -11   5    0.72    0.18
   6 -11   5    0.02    0.13
   4  10  -5    0.23    0.24
  -4 -10   5    0.05    0.27
   3  10  -5    0.79    0.29
  -3 -10   5    0.43    0.26
   2  10  -5   10.61    0.70
  -2 -10   5    8.50    0.66
   1  10  -5    1.50    0.31
  -1 -10   5    1.66    0.35
  -1 -10   5    1.47    0.23
   0  10  -5    6.56    0.52
   0 -10   5    5.78    0.36
   0 -10   5    6.18    0.61
  -1  10  -5    0.36    0.20
   1 -10   5    0.26    0.18
   1 -10   5    0.62    0.18
  -2  10  -5    1.34    0.29
   2 -10   5    1.18    0.28
   2 -10   5    1.20    0.21
  -3  10  -5    4.60    0.48
   3 -10   5    5.08    0.52
   3 -10   5    5.02    0.33
  -4  10  -5    5.55    0.46
   4 -10   5    6.24    0.36
   4 -10   5    5.27    0.52
   5 -10   5    4.18    0.30
   6 -10   5   -0.13    0.12
   7 -10   5    0.08    0.14
  -4  -9   5   -0.02    0.26
   3   9  -5    0.31    0.21
  -3  -9   5   -0.20    0.18
   2   9  -5    9.79    0.64
  -2  -9   5    9.76    0.66
   1   9  -5    1.72    0.33
  -1  -9   5    1.56    0.23
  -1  -9   5    1.30    0.30
   0   9  -5    1.22    0.26
   0  -9   5    1.00    0.26
   0  -9   5    1.54    0.21
  -1   9  -5   30.89    1.15
   1  -9   5   31.46    1.19
   1  -9   5   30.95    0.94
  -2   9  -5    3.67    0.41
   2  -9   5    4.14    0.29
   2  -9   5    3.38    0.41
  -3   9  -5   11.41    0.60
   3  -9   5   10.44    0.45
   3  -9   5    9.95    0.59
  -4   9  -5    1.47    0.27
   4  -9   5    1.00    0.24
   4  -9   5    1.63    0.21
   5  -9   5    1.83    0.22
   6  -9   5    0.48    0.15
   7  -9   5   -0.08    0.12
  -4  -8   5    6.53    0.65
   3   8  -5    7.26    0.56
  -3  -8   5    7.53    0.59
   2   8  -5    3.02    0.42
  -2  -8   5    2.24    0.25
  -2  -8   5    2.73    0.40
   1   8  -5    6.39    0.47
  -1  -8   5    6.18    0.35
  -1  -8   5    6.26    0.48
   0   8  -5   21.67    0.89
   0  -8   5   21.08    0.90
   0  -8   5   20.52    0.69
  -1   8  -5   16.31    0.74
   1  -8   5   16.16    0.57
   1  -8   5   16.10    0.75
  -2   8  -5    7.22    0.46
   2  -8   5    6.72    0.34
   2  -8   5    7.52    0.48
  -3   8  -5    8.56    0.49
   3  -8   5    9.39    0.52
   3  -8   5    8.77    0.39
  -4   8  -5   19.32    0.78
   4  -8   5   20.72    0.66
   4  -8   5   20.81    0.81
   5  -8   5    8.15    0.37
   6  -8   5    6.05    0.31
   7  -8   5    5.97    0.28
   4   7  -5    0.02    0.16
  -4  -7   5    0.23    0.22
   3   7  -5   71.80    2.14
  -3  -7   5   72.94    2.18
   2   7  -5   14.22    0.72
  -2  -7   5   14.97    0.56
  -2  -7   5   13.02    0.71
   1   7  -5    0.70    0.20
  -1  -7   5    0.82    0.22
  -1  -7   5    0.79    0.15
   0   7  -5    1.10    0.22
   0  -7   5    0.63    0.18
   0  -7   5    0.94    0.15
  -1   7  -5    7.58    0.46
   1  -7   5    8.91    0.37
   1  -7   5    7.75    0.47
  -2   7  -5    5.89    0.39
   2  -7   5    5.21    0.28
   2  -7   5    6.27    0.41
  -3   7  -5    0.21    0.13
   3  -7   5    0.48    0.16
   3  -7   5    0.52    0.12
  -4   7  -5    0.28    0.14
   4  -7   5    0.42    0.12
   4  -7   5    0.32    0.14
   5  -7   5   10.34    0.40
   6  -7   5   20.32    0.60
   7   6  -5    0.54    0.22
   4   6  -5   41.76    1.46
  -4  -6   5   43.54    1.51
  -3  -6   5    0.84    0.25
   2   6  -5    5.16    0.48
  -2  -6   5    4.04    0.26
  -2  -6   5    4.08    0.44
   1   6  -5   87.09    2.29
  -1  -6   5   83.50    2.06
  -1  -6   5   84.59    2.30
   0   6  -5   85.90    2.26
   0  -6   5   86.96    2.08
   0  -6   5   86.89    2.29
  -1   6  -5   57.18    1.60
   1  -6   5   57.01    1.62
   1  -6   5   56.88    1.43
  -2   6  -5    1.31    0.21
   2  -6   5    1.41    0.16
   2  -6   5    1.75    0.24
  -3   6  -5    2.82    0.23
  -3   6  -5    3.03    0.29
   3  -6   5    2.68    0.27
   3  -6   5    3.53    0.32
   3  -6   5    2.78    0.19
   4  -6   5    5.56    0.26
   5  -6   5    0.05    0.09
   6  -6   5    6.22    0.24
   7   5  -5   -0.12    0.15
   6   5  -5    0.04    0.15
   5   5  -5    4.30    0.48
  -5  -5   5    4.38    0.50
   4   5  -5   45.62    1.50
  -4  -5   5   44.99    1.52
   3   5  -5    5.46    0.43
  -3  -5   5    5.33    0.30
  -3  -5   5    6.12    0.46
  -2  -5   5    4.25    0.26
  -2  -5   5    5.21    0.41
   1   5  -5   59.09    1.67
  -1  -5   5   58.08    1.68
  -1  -5   5   57.10    1.46
   0   5  -5  226.76    5.17
   0  -5   5  228.52    5.19
   0  -5   5  222.43    5.04
  -1   5  -5   57.59    1.53
  -1   5  -5   57.61    1.57
   1  -5   5   58.99    1.59
   1  -5   5   54.92    1.40
   1  -5   5   57.04    1.52
  -2   5  -5   70.29    1.71
  -2   5  -5   66.42    1.75
   2  -5   5   65.74    1.62
   2  -5   5   68.34    1.71
   2  -5   5   68.34    1.77
  -3   5  -5   69.62    1.68
   3  -5   5   69.69    1.66
   3  -5   5   71.14    1.71
   3  -5   5   70.04    1.76
   4  -5   5    6.94    0.28
   5  -5   5    1.50    0.14
   7   4  -5    1.71    0.28
   6   4  -5    0.90    0.21
   5   4  -5   35.70    1.28
  -5  -4   5   37.91    1.34
   4   4  -5    9.33    0.58
  -4  -4   5    9.18    0.59
   3   4  -5   13.44    0.66
  -3  -4   5   12.87    0.67
  -3  -4   5   14.17    0.50
   2   4  -5   72.83    1.99
  -2  -4   5   72.28    2.02
  -2  -4   5   75.01    1.81
  -1  -4   5  279.89    6.20
   0   4  -5   13.23    0.55
   0  -4   5   11.88    0.43
   0  -4   5   12.40    0.53
   0  -4   5   12.64    0.56
  -1   4  -5   63.36    1.61
   1  -4   5   62.43    1.60
   1  -4   5   60.22    1.64
   1  -4   5   62.03    1.50
  -2   4  -5  136.67    3.07
  -2   4  -5  134.99    3.11
   2  -4   5  135.61    3.07
   2  -4   5  131.32    3.03
   2  -4   5  134.42    3.13
  -3   4  -5    5.16    0.27
  -3   4  -5    4.38    0.22
   3  -4   5    4.82    0.26
   3  -4   5    4.46    0.22
   3  -4   5    4.78    0.24
   4  -4   5   11.08    0.35
   7   3  -5    0.17    0.15
   6   3  -5    4.09    0.34
   5   3  -5    0.07    0.16
   5   3  -5    0.18    0.13
  -5  -3   5    0.05    0.18
   4   3  -5    5.14    0.48
   4   3  -5    5.27    0.33
  -4  -3   5    4.57    0.48
   3   3  -5   16.42    0.73
  -3  -3   5   16.42    0.75
  -3  -3   5   16.95    0.56
   2   3  -5    7.69    0.45
  -2  -3   5    8.04    0.34
  -2  -3   5    7.64    0.46
   1   3  -5   54.08    1.52
   1   3  -5   54.21    1.51
  -1  -3   5   53.79    1.51
  -1  -3   5   55.01    1.36
  -1  -3   5   54.47    1.55
   0   3  -5   40.11    1.15
   0   3  -5   39.50    1.16
   0   3  -5   38.16    1.02
   0  -3   5   39.41    1.14
   0  -3   5   39.55    1.18
   0  -3   5   39.07    1.02
  -1   3  -5   19.58    0.65
  -1   3  -5   18.23    0.65
   1  -3   5   17.62    0.65
   1  -3   5   18.31    0.64
   1  -3   5   17.82    0.54
  -2   3  -5    2.81    0.21
  -2   3  -5    2.79    0.22
   2  -3   5    2.56    0.24
   2  -3   5    2.85    0.21
   2  -3   5    2.77    0.17
  -3   3  -5    0.04    0.06
  -3   3  -5    0.02    0.05
   3  -3   5    0.07    0.06
   3  -3   5   -0.07    0.06
   3  -3   5    0.01    0.06
   4  -3   5   42.85    1.01
   7   2  -5    1.91    0.28
   6   2  -5    0.62    0.18
   5   2  -5   39.07    1.17
   5   2  -5   38.64    1.30
  -5  -2   5   38.93    1.33
   4   2  -5    0.92    0.22
   4   2  -5    0.88    0.18
  -4  -2   5    0.87    0.24
   3   2  -5   17.91    0.62
   3   2  -5   16.13    0.72
  -3  -2   5   16.44    0.55
  -3  -2   5   17.32    0.75
   2   2  -5    4.32    0.27
   2   2  -5    4.95    0.35
  -2  -2   5    4.39    0.24
  -2  -2   5    3.78    0.38
   1   2  -5   19.80    0.76
   1   2  -5   21.75    0.78
   1   2  -5   20.36    0.64
  -1  -2   5   21.22    0.63
  -1  -2   5   21.68    0.79
  -1  -2   5   21.08    0.76
   0   2  -5    2.39    0.17
   0   2  -5    2.37    0.26
   0   2  -5    2.51    0.27
   0  -2   5    2.16    0.26
   0  -2   5    2.58    0.27
   0  -2   5    2.31    0.18
  -1   2  -5   63.35    1.67
  -1   2  -5   68.87    1.69
   1  -2   5   67.06    1.70
   1  -2   5   64.69    1.57
  -2   2  -5   24.99    0.74
  -2   2  -5   24.31    0.74
   2  -2   5   25.47    0.76
   2  -2   5   24.26    0.66
   2  -2   5   24.68    0.73
  -3   2  -5    0.14    0.05
   3  -2   5    0.17    0.07
   3  -2   5    0.09    0.06
   4  -2   5   60.49    1.37
   7   1  -5    4.31    0.35
   6   1  -5   17.33    0.69
   5   1  -5   -0.12    0.13
   5   1  -5   -0.08    0.11
  -5  -1   5   -0.05    0.17
   4   1  -5   33.56    1.16
   4   1  -5   34.06    1.01
  -4  -1   5   33.11    1.18
   3   1  -5    8.23    0.48
   3   1  -5    8.20    0.39
  -3  -1   5    8.60    0.50
  -3  -1   5    6.84    0.33
   2   1  -5   76.25    1.90
   2   1  -5   77.22    2.06
  -2  -1   5   81.23    2.11
  -2  -1   5   77.39    1.87
   1   1  -5    0.45    0.15
   1   1  -5    0.48    0.16
   1   1  -5    0.30    0.10
  -1  -1   5    0.35    0.10
  -1  -1   5    0.52    0.16
  -1  -1   5    0.58    0.16
   0   1  -5   41.22    1.19
   0   1  -5   39.68    1.17
   0   1  -5   40.02    1.03
   0  -1   5   40.63    1.18
   0  -1   5   40.10    1.03
   0  -1   5   39.43    1.18
  -1   1  -5   86.94    2.12
  -1   1  -5   86.21    2.11
   1  -1   5   83.91    2.00
   1  -1   5   86.43    2.11
   1  -1   5   87.45    2.13
  -2   1  -5   20.19    0.64
  -2   1  -5   19.54    0.62
   2  -1   5   19.72    0.63
   2  -1   5   20.00    0.57
   2  -1   5   19.07    0.63
   2  -1   5   19.16    0.56
  -3   1  -5   27.48    0.66
   3  -1   5   26.40    0.68
   3  -1   5   27.37    0.72
   3  -1   5   26.99    0.70
   7   0  -5    1.12    0.23
   6   0  -5   15.28    0.64
   5   0  -5   11.70    0.62
   5   0  -5   12.53    0.55
  -5   0   5   11.76    0.65
   4   0  -5   14.90    0.59
   4   0  -5   16.59    0.73
  -4   0   5   14.64    0.72
   3   0  -5   13.52    0.64
   3   0  -5   12.96    0.51
  -3   0   5   13.90    0.47
  -3   0   5   12.10    0.63
   2   0  -5   62.51    1.57
   2   0  -5   62.53    1.74
  -2   0   5   61.50    1.76
  -2   0   5   61.56    1.53
   1   0  -5   19.14    0.75
   1   0  -5   20.05    0.62
  -1   0   5   20.46    0.78
  -1   0   5   18.89    0.60
   0   0  -5   47.57    1.20
   0   0  -5   49.17    1.36
   0   0  -5   47.08    1.37
   0   0   5   46.33    1.20
   0   0   5   48.30    1.37
   0   0   5   47.83    1.37
  -1   0  -5   10.71    0.46
  -1   0  -5    9.86    0.47
   1   0   5    9.23    0.46
   1   0   5    9.13    0.36
   1   0   5   10.37    0.47
  -2   0  -5   38.11    1.01
  -2   0  -5   36.94    1.05
   2   0   5   36.38    0.95
   2   0   5   36.59    1.04
   2   0   5   36.54    0.94
   2   0   5   36.57    1.05
  -3   0  -5    2.98    0.20
  -3   0  -5    3.04    0.18
   3   0   5    3.25    0.20
   3   0   5    3.05    0.19
   4   0   5    0.98    0.12
   7  -1  -5    6.29    0.41
   6  -1  -5    1.41    0.24
   5  -1  -5    2.65    0.29
   5  -1  -5    3.35    0.39
  -5   1   5    3.07    0.42
   4  -1  -5    0.96    0.23
   4  -1  -5    0.69    0.16
  -4   1   5    0.78    0.23
   3  -1  -5   10.64    0.57
   3  -1  -5   11.48    0.48
  -3   1   5   10.83    0.42
  -3   1   5   10.34    0.58
   2  -1  -5   18.09    0.74
   2  -1  -5   17.18    0.60
  -2   1   5   17.93    0.57
  -2   1   5   16.96    0.75
   1  -1  -5   34.41    0.95
   1  -1  -5   35.77    1.13
  -1   1   5   33.75    1.13
  -1   1   5   34.05    0.94
   0  -1  -5    9.58    0.48
   0  -1  -5    9.29    0.36
   0   1   5    9.87    0.50
   0   1   5    9.57    0.37
  -1  -1  -5   63.62    1.65
  -1  -1  -5   61.57    1.70
   1   1   5   64.59    1.71
   1   1   5   62.17    1.54
   1   1   5   63.26    1.69
  -2  -1  -5    7.65    0.41
  -2  -1  -5    7.78    0.36
   2   1   5    7.71    0.31
   2   1   5    7.66    0.32
   2   1   5    7.74    0.39
   2   1   5    8.11    0.42
  -3  -1  -5   11.82    0.43
   3   1   5   12.04    0.45
   3   1   5   11.46    0.42
   7  -2  -5   -0.07    0.13
   6  -2  -5    0.51    0.18
   5  -2  -5   48.90    1.38
   5  -2  -5   46.74    1.50
  -5   2   5   47.27    1.56
   4  -2  -5   31.26    0.98
   4  -2  -5   29.54    1.10
  -4   2   5   32.78    1.19
   3  -2  -5   -0.02    0.08
   3  -2  -5    0.10    0.13
  -3   2   5   -0.10    0.11
   2  -2  -5    0.80    0.20
   2  -2  -5    0.77    0.14
  -2   2   5    1.20    0.25
  -2   2   5    0.59    0.12
   1  -2  -5  102.30    2.46
   1  -2  -5  104.92    2.65
  -1   2   5  105.47    2.47
  -1   2   5  104.23    2.70
   0  -2  -5    7.81    0.44
   0  -2  -5    6.80    0.31
   0   2   5    7.19    0.46
   0   2   5    7.26    0.33
  -1  -2  -5   23.89    0.80
   1   2   5   21.32    0.82
  -2  -2  -5    8.40    0.40
   2   2   5    7.86    0.43
   2   2   5    8.25    0.36
  -3  -2  -5    2.15    0.23
   3   2   5    1.38    0.20
   7  -3  -5    2.35    0.31
   6  -3  -5   13.04    0.59
   5  -3  -5    0.10    0.16
   5  -3  -5   -0.13    0.10
  -5   3   5   -0.09    0.18
   4  -3  -5   19.31    0.85
   4  -3  -5   17.41    0.69
  -4   3   5   18.91    0.89
   3  -3  -5    1.04    0.19
   3  -3  -5    1.16    0.24
  -3   3   5    0.76    0.23
   2  -3  -5  118.28    3.00
   2  -3  -5  117.20    2.80
  -2   3   5  116.02    3.06
   1  -3  -5    7.25    0.46
   1  -3  -5    7.92    0.36
  -1   3   5    7.44    0.50
   0  -3  -5    1.63    0.25
   0  -3  -5    1.58    0.17
   0   3   5    1.19    0.25
  -1  -3  -5    0.23    0.12
   1   3   5    0.26    0.15
  -2  -3  -5   11.07    0.51
   2   3   5   11.34    0.56
  -3  -3  -5    0.17    0.12
   3   3   5    0.08    0.12
   7  -4  -5    0.69    0.21
   6  -4  -5    1.18    0.24
   5  -4  -5    0.03    0.13
   5  -4  -5   -0.07    0.14
  -5   4   5    0.09    0.19
   4  -4  -5   20.64    0.77
   4  -4  -5   21.97    0.94
  -4   4   5   21.72    0.99
   3  -4  -5    0.12    0.14
   3  -4  -5    0.04    0.12
  -3   4   5   -0.04    0.15
   2  -4  -5    0.06    0.13
   2  -4  -5    0.13    0.12
  -2   4   5    0.12    0.14
   1  -4  -5   49.67    1.51
   1  -4  -5   49.30    1.30
  -1   4   5   47.00    1.56
   0  -4  -5   14.32    0.66
   0  -4  -5   13.97    0.51
   0   4   5   14.35    0.71
  -1  -4  -5    1.06    0.22
   1   4   5    1.48    0.28
  -2  -4  -5    3.57    0.36
   2   4   5    3.14    0.37
   7  -5  -5    2.67    0.33
   6  -5  -5    1.55    0.25
   5  -5  -5    5.94    0.41
   5  -5  -5    6.61    0.52
  -5   5   5    7.15    0.68
   4  -5  -5    2.37    0.29
   4  -5  -5    2.95    0.40
  -4   5   5    2.21    0.39
   3  -5  -5   12.77    0.55
   3  -5  -5   12.85    0.70
  -3   5   5   11.87    0.72
   2  -5  -5    0.76    0.21
   2  -5  -5    0.50    0.15
  -2   5   5    1.09    0.26
   1  -5  -5    0.03    0.10
   1  -5  -5   -0.12    0.08
  -1   5   5    0.18    0.16
   0  -5  -5    3.55    0.40
   0  -5  -5    3.54    0.26
   0   5   5    3.30    0.43
  -1  -5  -5   10.28    0.57
   1   5   5   10.64    0.63
  -2  -5  -5    0.06    0.15
   2   5   5    0.04    0.15
   7  -6  -5    0.20    0.17
   6  -6  -5    0.97    0.23
   5  -6  -5   -0.02    0.18
   5  -6  -5    0.79    0.22
  -5   6   5    1.03    0.32
   4  -6  -5    0.02    0.17
   4  -6  -5    0.05    0.14
  -4   6   5    0.08    0.21
   3  -6  -5    2.78    0.30
   3  -6  -5    2.69    0.38
  -3   6   5    2.58    0.41
   2  -6  -5    5.12    0.52
   2  -6  -5    5.56    0.35
  -2   6   5    5.72    0.60
   1  -6  -5    2.98    0.40
   1  -6  -5    3.90    0.28
  -1   6   5    3.76    0.48
   0  -6  -5   -0.18    0.10
   0  -6  -5    0.02    0.15
   0   6   5    0.19    0.20
  -1  -6  -5    2.85    0.37
   1   6   5    4.76    0.51
  -2  -6  -5   16.08    0.76
   2   6   5   15.11    0.77
   7  -7  -5   -0.07    0.14
   6  -7  -5    0.14    0.18
   5  -7  -5   -0.21    0.13
   5  -7  -5   -0.10    0.14
  -5   7   5    0.00    0.23
   4  -7  -5    1.33    0.31
   4  -7  -5    1.73    0.26
  -4   7   5    2.14    0.41
   3  -7  -5    1.99    0.27
   3  -7  -5    2.76    0.42
  -3   7   5    2.14    0.41
  -2   7   5   14.19    0.85
   1  -7  -5    0.22    0.14
   1  -7  -5    0.21    0.18
  -1   7   5   -0.03    0.17
   0  -7  -5    1.34    0.30
   0   7   5    1.17    0.31
  -1  -7  -5    0.20    0.17
   1   7   5    0.11    0.18
  -2  -7  -5    1.24    0.30
   2   7   5    1.59    0.33
   7  -8  -5    1.90    0.32
   6  -8  -5    3.63    0.40
   5  -8  -5    1.22    0.34
   5  -8  -5    1.41    0.26
  -5   8   5    1.11    0.35
   4  -8  -5    0.15    0.19
   4  -8  -5    0.61    0.22
  -4   8   5    0.30    0.24
   3  -8  -5    4.08    0.51
   3  -8  -5    3.68    0.37
  -3   8   5    4.67    0.60
   2  -8  -5   -0.08    0.17
   2  -8  -5    0.21    0.16
  -2   8   5    0.20    0.23
   1  -8  -5    2.46    0.29
   1  -8  -5    2.70    0.42
  -1   8   5    2.75    0.47
   0  -8  -5    0.07    0.17
   0   8   5    0.33    0.23
  -1  -8  -5    2.04    0.37
   1   8   5    1.93    0.38
  -2  -8  -5   -0.13    0.20
   2   8   5   -0.21    0.18
   6  -9  -5    7.69    0.53
   5  -9  -5    0.01    0.19
   5  -9  -5    0.04    0.22
  -5   9   5    0.00    0.28
   4  -9  -5    1.43    0.27
   4  -9  -5    1.85    0.39
  -4   9   5    1.80    0.41
   3  -9  -5    0.12    0.21
   3  -9  -5    0.24    0.19
  -3   9   5    0.06    0.24
   2  -9  -5    0.59    0.26
   2  -9  -5    0.62    0.20
  -2   9   5    1.22    0.37
   1  -9  -5    0.02    0.20
  -1   9   5    0.00    0.22
   0  -9  -5    3.35    0.46
   0   9   5    3.72    0.53
  -1  -9  -5   -0.01    0.20
   1   9   5    0.03    0.22
  -2  -9  -5    2.69    0.47
   2   9   5    3.17    0.49
   6 -10  -5    0.42    0.23
   5 -10  -5    0.15    0.27
   5 -10  -5    0.15    0.21
  -5  10   5   -0.04    0.29
   4 -10  -5    0.47    0.29
   4 -10  -5    0.40    0.22
  -4  10   5    0.24    0.32
   3 -10  -5    0.85    0.32
   3 -10  -5    1.85    0.31
  -3  10   5    2.23    0.49
   2 -10  -5    5.14    0.40
   2 -10  -5    5.29    0.62
  -2  10   5    3.77    0.58
   1 -10  -5   -0.23    0.17
  -1  10   5    0.08    0.23
   0 -10  -5    0.28    0.26
   0  10   5    0.75    0.32
  -1 -10  -5    0.99    0.34
   1  10   5    1.01    0.35
   6 -11  -5    0.33    0.25
   5 -11  -5    1.41    0.31
   4 -11  -5    0.38    0.28
   4 -11  -5    0.17    0.21
  -4  11   5    0.64    0.34
   3 -11  -5    2.98    0.39
   3 -11  -5    2.24    0.46
  -3  11   5    1.83    0.47
   2 -11  -5   -0.02    0.22
  -2  11   5    0.24    0.28
   1 -11  -5    3.30    0.54
   0  11   5    3.03    0.54
  -1 -11  -5    0.02    0.29
   1  11   5    0.32    0.33
   5 -12  -5    1.33    0.33
   4 -12  -5    6.65    0.54
   4 -13  -5    9.89    0.67
   2 -17   6    2.60    0.42
   3 -17   6    0.23    0.27
   1 -16   6   -0.11    0.21
   2 -16   6    1.01    0.30
   3 -16   6    7.71    0.56
   4 -16   6    0.03    0.23
   1  15  -6    0.15    0.30
  -1 -15   6   -0.05    0.30
   0  15  -6    0.73    0.33
   0 -15   6    1.09    0.41
  -1  15  -6    0.78    0.34
   1 -15   6    1.01    0.39
   1 -15   6    0.84    0.27
  -2  15  -6    7.94    0.82
   2 -15   6    8.28    0.89
   2 -15   6    7.25    0.52
  -3  15  -6   12.50    0.90
   3 -15   6   13.02    0.95
   3 -15   6   11.29    0.66
  -4  15  -6    6.46    0.74
   4 -15   6    5.56    0.70
   4 -15   6    6.37    0.49
   5 -15   6    1.90    0.33
   2  14  -6    2.58    0.53
  -2 -14   6    2.23    0.51
   1  14  -6    0.36    0.29
  -1 -14   6   -0.07    0.27
   0  14  -6   -0.01    0.24
   0 -14   6    0.38    0.20
   0 -14   6    0.17    0.27
  -1  14  -6    1.24    0.36
   1 -14   6    1.38    0.31
   1 -14   6    0.64    0.32
  -2  14  -6    5.03    0.63
   2 -14   6    5.35    0.68
   2 -14   6    6.21    0.47
  -3  14  -6    1.30    0.37
   3 -14   6    1.77    0.31
   3 -14   6    1.48    0.40
  -4  14  -6    0.22    0.28
   4 -14   6    0.30    0.20
   4 -14   6    0.25    0.29
   5 -14   6   -0.03    0.17
   3  13  -6    5.66    0.71
  -3 -13   6    7.44    0.86
   2  13  -6    2.74    0.52
  -2 -13   6    1.67    0.46
   1  13  -6    0.01    0.22
  -1 -13   6   -0.01    0.25
   0  13  -6    0.44    0.25
   0 -13   6    0.63    0.28
   0 -13   6    0.59    0.24
  -1  13  -6    5.81    0.65
   1 -13   6    5.45    0.65
   1 -13   6    6.22    0.43
  -2  13  -6    3.65    0.51
   2 -13   6    3.53    0.55
   2 -13   6    4.56    0.38
  -3  13  -6   13.48    0.84
   3 -13   6   12.68    0.84
   3 -13   6   13.11    0.64
  -4  13  -6   11.30    0.77
   4 -13   6   10.66    0.57
   4 -13   6   12.20    0.81
   5 -13   6    2.81    0.33
   6 -13   6    2.00    0.29
  -4 -12   6    7.64    0.86
   3  12  -6    6.32    0.73
  -3 -12   6    4.29    0.65
   2  12  -6   22.72    1.16
  -2 -12   6   18.22    1.09
   1  12  -6    2.32    0.42
  -1 -12   6    2.09    0.43
   0  12  -6    2.55    0.45
   0 -12   6    2.25    0.31
   0 -12   6    2.08    0.44
  -1  12  -6    0.22    0.22
   1 -12   6    0.30    0.25
   1 -12   6    0.36    0.19
  -2  12  -6   13.31    0.80
   2 -12   6   11.41    0.78
   2 -12   6   14.51    0.64
  -3  12  -6   -0.02    0.18
   3 -12   6    0.09    0.16
   3 -12   6    0.21    0.21
  -4  12  -6    2.97    0.44
   4 -12   6    3.21    0.46
   4 -12   6    2.64    0.32
   5 -12   6    4.50    0.36
   6 -12   6    2.10    0.28
   4  11  -6    0.21    0.27
  -4 -11   6   -0.31    0.27
   3  11  -6   17.82    1.01
  -3 -11   6   16.80    1.01
   2  11  -6    2.29    0.43
  -2 -11   6    1.27    0.38
   1  11  -6   11.74    0.77
  -1 -11   6   10.18    0.75
  -1 -11   6   12.59    0.59
   0  11  -6    0.23    0.20
   0 -11   6    0.58    0.20
   0 -11   6    0.20    0.23
  -1  11  -6    3.17    0.45
   1 -11   6    3.91    0.52
   1 -11   6    4.44    0.35
  -2  11  -6    1.20    0.29
   2 -11   6    1.68    0.26
   2 -11   6    1.14    0.29
  -3  11  -6    0.37    0.21
   3 -11   6   -0.08    0.12
   3 -11   6    0.03    0.18
  -4  11  -6    0.26    0.21
   4 -11   6    0.12    0.14
   4 -11   6    0.02    0.19
   5 -11   6    3.08    0.31
   6 -11   6    2.88    0.31
  -4 -10   6   10.10    0.79
   3  10  -6    3.41    0.51
  -3 -10   6    2.46    0.46
   2  10  -6    1.82    0.38
  -2 -10   6    0.99    0.32
   1  10  -6    2.66    0.42
  -1 -10   6    2.01    0.27
  -1 -10   6    1.72    0.37
   0  10  -6    1.09    0.27
   0 -10   6    1.43    0.24
   0 -10   6    1.24    0.31
  -1  10  -6   14.28    0.77
   1 -10   6   14.92    0.81
   1 -10   6   14.26    0.60
  -2  10  -6   22.49    0.96
   2 -10   6   20.13    0.74
   2 -10   6   21.37    0.97
  -3  10  -6   11.86    0.67
   3 -10   6   11.26    0.51
   3 -10   6   12.63    0.70
  -4  10  -6    1.97    0.32
   4 -10   6    2.22    0.26
   4 -10   6    2.86    0.39
   5 -10   6    1.28    0.21
   6 -10   6    0.19    0.14
  -4  -9   6    0.52    0.29
   3   9  -6   11.77    0.76
  -3  -9   6   11.96    0.78
   2   9  -6    7.21    0.67
  -2  -9   6    7.27    0.70
  -2  -9   6    7.13    0.42
   1   9  -6   13.92    0.77
  -1  -9   6   13.75    0.58
  -1  -9   6   12.67    0.76
   0   9  -6    2.34    0.35
   0  -9   6    1.85    0.24
   0  -9   6    1.63    0.32
  -1   9  -6   10.52    0.63
   1  -9   6   10.78    0.48
   1  -9   6   10.83    0.65
  -2   9  -6   -0.04    0.13
   2  -9   6   -0.01    0.11
   2  -9   6   -0.13    0.14
  -3   9  -6    5.00    0.41
   3  -9   6    4.20    0.29
   3  -9   6    4.63    0.47
  -4   9  -6    8.12    0.51
   4  -9   6    8.04    0.52
   4  -9   6    8.15    0.40
   5  -9   6   15.08    0.57
   6  -9   6    4.99    0.31
   4   8  -6    2.03    0.39
  -4  -8   6    3.66    0.54
   3   8  -6    1.17    0.31
  -3  -8   6    0.73    0.27
   2   8  -6    0.65    0.24
  -2  -8   6    0.49    0.24
  -2  -8   6    0.33    0.15
   1   8  -6   13.44    0.73
  -1  -8   6   14.33    0.77
  -1  -8   6   15.35    0.59
   0   8  -6   -0.06    0.10
   0  -8   6    0.20    0.16
   0  -8   6    0.14    0.11
  -1   8  -6    2.07    0.32
   1  -8   6    2.27    0.33
   1  -8   6    2.10    0.24
  -2   8  -6   29.57    1.06
   2  -8   6   28.58    0.87
   2  -8   6   28.00    1.06
  -3   8  -6   -0.13    0.11
   3  -8   6    0.03    0.10
   3  -8   6    0.01    0.13
   4  -8   6    7.56    0.36
   5  -8   6    1.56    0.20
   6  -8   6    3.71    0.26
   4   7  -6    4.78    0.54
  -4  -7   6    4.31    0.55
  -3  -7   6   14.51    0.81
   2   7  -6    3.15    0.41
  -2  -7   6    2.63    0.39
  -2  -7   6    3.44    0.28
   1   7  -6   20.07    0.89
  -1  -7   6   21.47    0.93
  -1  -7   6   21.07    0.71
   0   7  -6    1.53    0.27
   0  -7   6    1.76    0.21
   0  -7   6    1.65    0.28
  -1   7  -6    7.65    0.48
   1  -7   6    7.29    0.35
   1  -7   6    6.98    0.47
  -2   7  -6    3.62    0.37
   2  -7   6    3.29    0.24
   2  -7   6    2.86    0.34
  -3   7  -6    0.02    0.12
   3  -7   6    0.17    0.13
   3  -7   6    0.22    0.10
   4  -7   6    0.71    0.15
   5  -7   6    5.03    0.27
   6  -7   6    5.14    0.27
   7   6  -6    3.11    0.38
   6   6  -6    1.17    0.27
   5   6  -6    0.53    0.24
  -5  -6   6    0.39    0.28
   4   6  -6    0.30    0.19
  -4  -6   6    0.23    0.22
   3   6  -6   10.64    0.64
  -3  -6   6   10.08    0.65
  -2  -6   6    1.79    0.22
  -2  -6   6    2.10    0.33
   1   6  -6   19.47    0.85
  -1  -6   6   19.11    0.85
  -1  -6   6   20.97    0.68
   0   6  -6   38.60    1.26
   0  -6   6   36.74    1.25
   0  -6   6   38.25    1.06
  -1   6  -6   15.77    0.69
   1  -6   6   15.43    0.53
   1  -6   6   14.60    0.68
  -2   6  -6    2.92    0.32
   2  -6   6    2.72    0.31
   2  -6   6    3.22    0.21
  -3   6  -6   10.13    0.44
   3  -6   6    9.94    0.39
   3  -6   6   11.66    0.49
   3  -6   6   10.83    0.51
   4  -6   6    6.25    0.30
   5  -6   6    0.07    0.09
   7   5  -6    0.05    0.19
   6   5  -6    2.02    0.31
   5   5  -6    0.40    0.21
  -5  -5   6    0.08    0.23
   4   5  -6   12.36    0.72
  -4  -5   6   14.14    0.78
   3   5  -6    2.76    0.38
  -3  -5   6    2.36    0.25
  -3  -5   6    1.75    0.32
   2   5  -6   57.17    1.71
  -2  -5   6   58.06    1.75
  -2  -5   6   55.29    1.48
  -1  -5   6   39.56    1.09
  -1  -5   6   38.36    1.29
   0  -5   6    6.07    0.31
   0  -5   6    5.89    0.41
   1  -5   6   54.23    1.38
   1  -5   6   55.26    1.58
  -2   5  -6   48.80    1.31
  -2   5  -6   45.65    1.34
   2  -5   6   46.87    1.30
   2  -5   6   47.60    1.21
   2  -5   6   47.62    1.37
  -3   5  -6    0.06    0.09
  -3   5  -6   -0.03    0.10
   3  -5   6   -0.01    0.10
   3  -5   6    0.10    0.09
   3  -5   6   -0.11    0.07
   4  -5   6    6.69    0.29
   5  -5   6    1.01    0.12
   7   4  -6    0.44    0.20
   6   4  -6    2.00    0.30
   5   4  -6    1.77    0.27
   5   4  -6    2.09    0.36
  -5  -4   6    2.02    0.38
   4   4  -6   17.48    0.84
  -4  -4   6   17.25    0.86
   3   4  -6    1.40    0.27
  -3  -4   6    1.27    0.19
  -3  -4   6    0.51    0.20
   2   4  -6   18.98    0.81
  -2  -4   6   17.92    0.81
  -2  -4   6   19.08    0.63
   1   4  -6   62.92    1.79
  -1  -4   6   61.69    1.81
  -1  -4   6   65.46    1.61
   0   4  -6   70.52    1.93
   0  -4   6   73.30    1.78
   0  -4   6   72.99    1.97
  -1   4  -6    8.35    0.44
  -1   4  -6    8.19    0.43
  -1   4  -6    7.42    0.32
   1  -4   6    7.98    0.34
   1  -4   6    7.36    0.40
   1  -4   6    7.71    0.44
  -2   4  -6   21.90    0.75
  -2   4  -6   21.28    0.71
   2  -4   6   21.03    0.63
   2  -4   6   20.87    0.70
   2  -4   6   20.55    0.75
  -3   4  -6    3.19    0.21
  -3   4  -6    2.71    0.22
   3  -4   6    3.09    0.23
   3  -4   6    2.96    0.21
   3  -4   6    2.83    0.19
   4  -4   6    8.20    0.31
   7   3  -6    0.64    0.22
   6   3  -6    1.24    0.25
   5   3  -6   25.10    0.91
   5   3  -6   26.46    1.08
  -5  -3   6   28.73    1.13
   4   3  -6   38.84    1.36
   4   3  -6   39.03    1.18
  -4  -3   6   40.14    1.39
   3   3  -6    7.43    0.41
   3   3  -6    7.49    0.50
  -3  -3   6    8.48    0.38
  -3  -3   6    8.23    0.53
   2   3  -6   62.45    1.64
   2   3  -6   64.57    1.84
  -2  -3   6   63.65    1.61
  -2  -3   6   65.21    1.87
   1   3  -6    9.97    0.52
   1   3  -6    9.03    0.40
  -1  -3   6    9.56    0.53
  -1  -3   6    8.87    0.39
   0   3  -6    3.71    0.24
   0   3  -6    3.14    0.33
   0  -3   6    3.23    0.34
   0  -3   6    3.36    0.22
  -1   3  -6  102.03    2.54
  -1   3  -6  103.87    2.52
   1  -3   6  107.34    2.53
   1  -3   6   99.88    2.40
   1  -3   6  101.71    2.55
  -2   3  -6   32.95    0.99
  -2   3  -6   32.69    0.97
   2  -3   6   33.36    0.97
   2  -3   6   33.35    0.89
   2  -3   6   33.54    1.01
  -3   3  -6    1.73    0.17
  -3   3  -6    2.20    0.18
   3  -3   6    2.53    0.18
   3  -3   6    2.14    0.18
   3  -3   6    2.28    0.20
   4  -3   6    1.71    0.15
   7   2  -6    0.33    0.20
   6   2  -6   29.32    1.01
   5   2  -6    0.16    0.14
   5   2  -6   -0.07    0.15
  -5  -2   6    0.21    0.22
   4   2  -6   26.53    1.05
   4   2  -6   28.06    0.91
  -4  -2   6   26.99    1.08
   3   2  -6  144.98    3.45
   3   2  -6  144.04    3.63
  -3  -2   6  148.78    3.67
  -3  -2   6  147.48    3.39
   2   2  -6   24.28    0.93
   2   2  -6   24.06    0.77
  -2  -2   6   24.06    0.74
  -2  -2   6   23.59    0.94
   1   2  -6   21.59    0.69
   1   2  -6   22.90    0.86
  -1  -2   6   21.91    0.86
  -1  -2   6   20.98    0.67
   0   2  -6  166.59    3.81
   0   2  -6  156.35    3.64
   0  -2   6  163.59    3.82
   0  -2   6  156.26    3.65
  -1   2  -6  100.82    2.44
  -1   2  -6   98.28    2.44
   1  -2   6  100.54    2.46
   1  -2   6   95.41    2.30
   1  -2   6   98.62    2.42
  -2   2  -6   11.12    0.47
  -2   2  -6   10.77    0.47
   2  -2   6   11.09    0.40
   2  -2   6   10.54    0.48
   2  -2   6   11.06    0.47
   2  -2   6   11.20    0.41
  -3   2  -6    5.50    0.26
  -3   2  -6    5.71    0.26
   3  -2   6    5.82    0.28
   3  -2   6    5.71    0.26
   3  -2   6    5.69    0.27
   4  -2   6   26.59    0.69
   7   1  -6   18.16    0.77
   6   1  -6    5.18    0.39
   5   1  -6    0.68    0.19
   5   1  -6    0.39    0.20
  -5  -1   6    0.49    0.23
   4   1  -6   14.06    0.72
   4   1  -6   14.53    0.61
  -4  -1   6   14.41    0.75
   3   1  -6    8.04    0.52
   3   1  -6    8.38    0.42
  -3  -1   6    7.72    0.53
  -3  -1   6    7.88    0.37
   2   1  -6   47.33    1.47
   2   1  -6   47.84    1.29
  -2  -1   6   46.65    1.25
  -2  -1   6   47.90    1.49
   1   1  -6   70.33    1.73
   1   1  -6   70.02    1.92
  -1  -1   6   67.32    1.92
  -1  -1   6   69.71    1.72
   0   1  -6   11.45    0.43
   0   1  -6   12.10    0.57
   0  -1   6   11.37    0.44
   0  -1   6   12.02    0.58
  -1   1  -6   23.17    0.80
  -1   1  -6   23.97    0.82
   1  -1   6   22.06    0.81
   1  -1   6   22.84    0.80
   1  -1   6   21.52    0.67
  -2   1  -6   12.40    0.50
  -2   1  -6   11.54    0.51
   2  -1   6   12.27    0.44
   2  -1   6   12.16    0.43
   2  -1   6   12.33    0.51
   2  -1   6   12.18    0.52
  -3   1  -6   31.03    0.81
   3  -1   6   29.67    0.84
   3  -1   6   30.50    0.84
   3  -1   6   31.53    0.82
   7   0  -6   26.08    0.95
   6   0  -6    7.96    0.47
   5   0  -6   18.65    0.73
   5   0  -6   19.44    0.88
  -5   0   6   18.76    0.89
   4   0  -6    7.09    0.51
   4   0  -6    7.17    0.41
  -4   0   6    7.18    0.53
   3   0  -6   -0.09    0.09
   3   0  -6   -0.02    0.12
  -3   0   6   -0.03    0.09
  -3   0   6    0.02    0.14
   2   0  -6    4.73    0.31
   2   0  -6    5.11    0.40
  -2   0   6    4.62    0.46
  -2   0   6    4.89    0.28
   1   0  -6   85.29    2.07
   1   0  -6   84.79    2.27
  -1   0   6   86.30    2.30
  -1   0   6   84.41    2.06
   0   0  -6   53.19    1.35
   0   0  -6   53.56    1.54
   0   0   6   53.54    1.36
   0   0   6   52.27    1.56
  -1   0  -6    6.53    0.38
   1   0   6    6.20    0.40
   1   0   6    6.11    0.30
  -2   0  -6    0.06    0.11
  -2   0  -6    0.01    0.10
   2   0   6    0.14    0.12
   2   0   6    0.07    0.08
   2   0   6    0.11    0.11
   2   0   6    0.06    0.08
  -3   0  -6   86.65    2.03
   3   0   6   87.50    2.08
   3   0   6   87.69    2.05
   7  -1  -6    3.75    0.39
   6  -1  -6    0.03    0.14
   5  -1  -6    0.08    0.16
   5  -1  -6    0.80    0.19
  -5   1   6    0.56    0.25
   4  -1  -6   38.44    1.34
   4  -1  -6   39.04    1.17
  -4   1   6   38.68    1.38
   3  -1  -6   11.21    0.62
   3  -1  -6   10.15    0.48
  -3   1   6   11.11    0.64
  -3   1   6   10.75    0.44
   2  -1  -6    1.19    0.25
   2  -1  -6    1.35    0.19
  -2   1   6    1.35    0.18
  -2   1   6    1.56    0.28
   1  -1  -6   10.37    0.56
   1  -1  -6   10.12    0.43
  -1   1   6    9.97    0.42
  -1   1   6   10.20    0.58
   0  -1  -6   18.03    0.75
   0  -1  -6   17.84    0.59
   0   1   6   18.18    0.78
   0   1   6   19.18    0.62
  -1  -1  -6  143.26    3.45
   1   1   6  148.19    3.35
   1   1   6  143.89    3.51
  -2  -1  -6    8.13    0.41
   2   1   6    7.98    0.44
   2   1   6    7.85    0.35
  -3  -1  -6    0.07    0.11
   3   1   6    0.30    0.13
   7  -2  -6    6.42    0.44
   6  -2  -6   15.45    0.68
   5  -2  -6   16.40    0.67
   5  -2  -6   14.62    0.77
  -5   2   6   15.01    0.83
   4  -2  -6   15.15    0.78
   4  -2  -6   16.73    0.66
  -4   2   6   16.84    0.85
   3  -2  -6    0.20    0.12
   3  -2  -6   -0.09    0.11
  -3   2   6    0.05    0.10
  -3   2   6   -0.08    0.13
   2  -2  -6   84.94    2.32
   2  -2  -6   83.32    2.10
  -2   2   6   82.40    2.06
  -2   2   6   84.71    2.38
   1  -2  -6   58.63    1.71
   1  -2  -6   58.37    1.49
  -1   2   6   54.19    1.47
  -1   2   6   56.88    1.75
   0  -2  -6    0.07    0.08
   0  -2  -6   -0.06    0.11
   0   2   6    0.13    0.10
   0   2   6    0.21    0.15
  -1  -2  -6    0.78    0.19
   1   2   6    0.81    0.21
   1   2   6    0.71    0.15
  -2  -2  -6    0.10    0.12
   2   2   6    0.06    0.13
   7  -3  -6    5.15    0.40
   6  -3  -6    3.05    0.35
   5  -3  -6    0.03    0.16
   5  -3  -6    0.14    0.15
  -5   3   6    0.33    0.23
   4  -3  -6   72.26    1.95
   4  -3  -6   73.41    2.17
  -4   3   6   73.30    2.24
   3  -3  -6   63.63    1.93
   3  -3  -6   64.00    1.71
  -3   3   6   62.79    1.99
   2  -3  -6    2.65    0.37
   2  -3  -6    2.32    0.25
  -2   3   6    1.93    0.34
   1  -3  -6   -0.17    0.07
   1  -3  -6   -0.04    0.11
  -1   3   6    0.05    0.14
   0  -3  -6   23.19    0.92
   0  -3  -6   24.45    0.74
   0   3   6   24.01    0.98
  -1  -3  -6   17.02    0.72
   1   3   6   15.89    0.75
  -2  -3  -6    3.05    0.33
   2   3   6    2.06    0.32
   7  -4  -6    8.00    0.50
   6  -4  -6   -0.03    0.19
   6  -4  -6   -0.07    0.13
   5  -4  -6    0.40    0.17
   5  -4  -6    0.31    0.20
  -5   4   6    0.21    0.22
   4  -4  -6    0.54    0.21
   4  -4  -6    0.52    0.18
  -4   4   6    0.55    0.25
   3  -4  -6    0.37    0.16
   3  -4  -6    0.57    0.22
  -3   4   6    0.71    0.25
   2  -4  -6    0.61    0.17
   2  -4  -6    0.29    0.18
  -2   4   6    0.11    0.17
   1  -4  -6   13.76    0.71
   1  -4  -6   14.38    0.56
  -1   4   6   15.53    0.80
   0  -4  -6   83.31    2.24
   0   4   6   77.16    2.29
  -1  -4  -6   19.89    0.82
   1   4   6   18.52    0.86
  -2  -4  -6   -0.09    0.13
   2   4   6    0.02    0.15
   7  -5  -6    0.00    0.15
   6  -5  -6    0.43    0.19
   6  -5  -6   -0.04    0.21
  -6   5   6    0.41    0.30
   5  -5  -6    0.53    0.19
   5  -5  -6    0.36    0.21
  -5   5   6    0.35    0.26
   4  -5  -6   13.69    0.62
   4  -5  -6   13.79    0.78
  -4   5   6   14.16    0.85
   3  -5  -6   34.06    1.29
   3  -5  -6   31.10    1.04
  -3   5   6   33.38    1.36
   2  -5  -6   19.94    0.73
   2  -5  -6   19.90    0.92
  -2   5   6   18.52    0.95
   1  -5  -6    3.65    0.29
   1  -5  -6    2.76    0.38
  -1   5   6    3.64    0.48
   0  -5  -6    4.18    0.44
   0   5   6    5.06    0.53
  -1  -5  -6    0.54    0.21
   1   5   6    0.21    0.21
  -2  -5  -6    0.13    0.18
   2   5   6    0.15    0.17
   7  -6  -6    0.03    0.18
   6  -6  -6    4.59    0.44
   6  -6  -6    4.37    0.55
  -6   6   6    5.23    0.65
   5  -6  -6   -0.16    0.16
   5  -6  -6    0.13    0.16
  -5   6   6    0.30    0.26
   4  -6  -6    3.46    0.36
   4  -6  -6    3.36    0.46
  -4   6   6    3.52    0.52
   3  -6  -6    0.71    0.26
   3  -6  -6    1.47    0.26
  -3   6   6    0.83    0.30
   2  -6  -6    0.50    0.23
   2  -6  -6    0.76    0.20
  -2   6   6    0.57    0.26
   1  -6  -6    0.07    0.17
   1  -6  -6    0.96    0.20
  -1   6   6    0.52    0.25
   0  -6  -6    0.74    0.24
   0   6   6    1.36    0.34
  -1  -6  -6    9.05    0.59
   1   6   6    8.79    0.64
  -2  -6  -6    2.30    0.36
   2   6   6    2.27    0.39
   7  -7  -6    1.19    0.28
   6  -7  -6    0.11    0.18
   6  -7  -6   -0.05    0.22
  -6   7   6    0.14    0.29
   5  -7  -6    0.51    0.22
   5  -7  -6    0.59    0.28
  -5   7   6    0.47    0.31
   4  -7  -6   -0.17    0.15
   4  -7  -6   -0.20    0.16
  -4   7   6   -0.25    0.18
   3  -7  -6    7.51    0.60
   3  -7  -6    7.68    0.48
  -3   7   6    5.99    0.69
   2  -7  -6    0.43    0.23
   2  -7  -6    0.22    0.18
  -2   7   6    0.27    0.24
   1  -7  -6   11.27    0.71
  -1   7   6   11.47    0.78
   0  -7  -6    1.49    0.34
   0   7   6    0.94    0.31
  -1  -7  -6   -0.12    0.16
   1   7   6   -0.13    0.18
  -2  -7  -6    1.04    0.30
   2   7   6    0.65    0.27
   6  -8  -6    0.92    0.36
   6  -8  -6    1.17    0.27
  -6   8   6    1.12    0.42
   5  -8  -6   -0.14    0.17
   5  -8  -6    0.17    0.22
  -5   8   6   -0.13    0.25
   4  -8  -6    1.38    0.27
   4  -8  -6    2.09    0.42
  -4   8   6    1.08    0.38
   3  -8  -6    0.24    0.22
   3  -8  -6    0.31    0.18
  -3   8   6    0.48    0.28
   2  -8  -6    0.09    0.18
   2  -8  -6    0.16    0.17
  -2   8   6    0.48    0.27
   1  -8  -6    3.37    0.49
  -1   8   6    3.62    0.55
   0  -8  -6    0.45    0.23
   0   8   6    0.05    0.20
  -1  -8  -6    0.08    0.21
   1   8   6    0.05    0.24
   6  -9  -6    0.14    0.21
   5  -9  -6    0.46    0.24
   5  -9  -6    0.24    0.27
  -5   9   6    0.46    0.34
   4  -9  -6    0.37    0.28
   4  -9  -6   -0.07    0.19
  -4   9   6   -0.08    0.27
   3  -9  -6    1.92    0.43
   3  -9  -6    2.48    0.34
  -3   9   6    1.63    0.43
   2  -9  -6   -0.29    0.18
   2  -9  -6   -0.12    0.16
  -2   9   6    0.15    0.25
   1  -9  -6    1.28    0.35
  -1   9   6    2.59    0.52
   0  -9  -6   -0.11    0.16
   0   9   6    0.18    0.27
  -1  -9  -6    0.09    0.23
   1   9   6   -0.15    0.22
   6 -10  -6    0.11    0.23
   5 -10  -6   -0.03    0.22
   4 -10  -6    1.69    0.33
   4 -10  -6    1.27    0.39
  -4  10   6    1.17    0.41
   3 -10  -6    5.74    0.70
   3 -10  -6    6.64    0.50
  -3  10   6    7.44    0.87
   2 -10  -6    2.14    0.43
  -2  10   6    2.81    0.55
   1 -10  -6    0.13    0.23
  -1  10   6   -0.15    0.24
   0 -10  -6    2.02    0.43
   0  10   6    1.42    0.42
  -1 -10  -6    4.10    0.61
   1  10   6    3.08    0.55
   5 -11  -6    2.02    0.38
   4 -11  -6    3.13    0.44
   4 -12  -6    8.00    0.60
   2 -17   7    1.69    0.39
   3 -17   7    0.21    0.27
   1 -16   7    0.35    0.26
   2 -16   7   -0.04    0.25
   3 -16   7    1.48    0.34
   4 -16   7    2.19    0.37
   1  15  -7    5.21    0.69
  -1 -15   7    6.90    0.85
   0  15  -7    0.64    0.31
   0 -15   7    0.01    0.27
  -1  15  -7    3.37    0.56
   1 -15   7    2.87    0.57
   1 -15   7    5.18    0.52
  -2  15  -7    1.70    0.46
   2 -15   7    1.09    0.41
   2 -15   7    1.99    0.35
  -3  15  -7    1.29    0.39
   3 -15   7    1.93    0.34
   3 -15   7    1.08    0.41
   4 -15   7    1.00    0.27
   5 -15   7    1.85    0.33
   2  14  -7    7.20    0.85
  -2 -14   7    7.24    0.90
   1  14  -7    8.03    0.84
  -1 -14   7    9.03    0.94
   0  14  -7    0.35    0.26
   0 -14   7   -0.02    0.20
   0 -14   7    0.16    0.26
  -1  14  -7    2.44    0.47
   1 -14   7    3.86    0.44
   1 -14   7    2.30    0.49
  -2  14  -7    4.79    0.64
   2 -14   7    3.78    0.58
   2 -14   7    5.23    0.44
  -3  14  -7    1.00    0.35
   3 -14   7    1.74    0.30
   3 -14   7    1.53    0.40
   4 -14   7    4.27    0.43
   5 -14   7    6.47    0.46
  -4 -13   7    0.71    0.43
   3  13  -7   15.58    1.05
  -3 -13   7   14.44    1.04
   2  13  -7    0.24    0.24
  -2 -13   7    0.45    0.30
   1  13  -7    3.07    0.53
  -1 -13   7    2.99    0.57
   0  13  -7    2.77    0.49
   0 -13   7    2.76    0.53
   0 -13   7    2.83    0.38
   1 -13   7    8.11    0.81
   1 -13   7    9.95    0.57
  -2  13  -7    3.05    0.49
   2 -13   7    3.48    0.55
   2 -13   7    3.77    0.40
  -3  13  -7   12.05    0.80
   3 -13   7   12.66    0.84
   3 -13   7   12.34    0.62
   4 -13   7    4.07    0.40
   5 -13   7    0.20    0.19
   6 -13   7    2.09    0.30
  -4 -12   7    0.32    0.37
   3  12  -7    0.15    0.28
  -3 -12   7   -0.16    0.26
   2  12  -7    0.02    0.22
  -2 -12   7    0.37    0.30
   1  12  -7    0.82    0.32
  -1 -12   7    0.95    0.25
  -1 -12   7    1.61    0.41
   0  12  -7   16.87    0.97
   0 -12   7   17.33    1.02
   0 -12   7   17.11    0.73
  -1  12  -7    0.12    0.19
   1 -12   7    0.41    0.26
   1 -12   7    0.06    0.16
  -2  12  -7    9.56    0.69
   2 -12   7    8.46    0.67
   2 -12   7    8.00    0.48
  -3  12  -7    0.15    0.21
   3 -12   7    0.25    0.17
   3 -12   7    0.25    0.24
   4 -12   7    4.97    0.38
   5 -12   7    0.55    0.19
   6 -12   7    0.56    0.19
  -4 -11   7    1.20    0.43
   3  11  -7    0.69    0.30
  -3 -11   7    0.14    0.27
   2  11  -7    5.75    0.65
  -2 -11   7    4.89    0.64
   1  11  -7   -0.22    0.14
  -1 -11   7   -0.13    0.16
  -1 -11   7    0.00    0.15
   0  11  -7    7.29    0.60
   0 -11   7    6.38    0.66
   0 -11   7    7.58    0.45
  -1  11  -7    1.98    0.37
   1 -11   7    1.69    0.35
   1 -11   7    1.80    0.26
  -2  11  -7    9.57    0.66
   2 -11   7    9.18    0.67
   2 -11   7    9.02    0.48
  -3  11  -7   31.65    1.24
   3 -11   7   29.06    0.99
   3 -11   7   30.36    1.24
   4 -11   7    0.43    0.17
   5 -11   7    0.14    0.16
   6 -11   7    0.29    0.16
   4  10  -7    6.76    0.72
  -4 -10   7    6.30    0.73
   3  10  -7    2.46    0.45
  -3 -10   7    1.81    0.42
   2  10  -7    6.01    0.64
  -2 -10   7    5.39    0.64
   1  10  -7    4.22    0.54
  -1 -10   7    4.24    0.36
  -1 -10   7    3.74    0.52
   0  10  -7    2.61    0.40
   0 -10   7    2.43    0.30
   0 -10   7    2.75    0.43
  -1  10  -7   68.82    2.12
   1 -10   7   67.71    1.83
   1 -10   7   68.05    2.15
  -2  10  -7    0.23    0.19
   2 -10   7    0.66    0.18
   2 -10   7    0.65    0.23
  -3  10  -7    2.84    0.41
   3 -10   7    2.97    0.30
   3 -10   7    2.50    0.39
   4 -10   7    0.32    0.16
   5 -10   7    2.53    0.27
   6 -10   7    2.03    0.25
   4   9  -7   -0.10    0.21
  -4  -9   7    0.47    0.31
  -3  -9   7    8.39    0.68
   2   9  -7   37.70    1.46
  -2  -9   7   36.23    1.15
  -2  -9   7   36.96    1.47
   1   9  -7   14.41    0.80
  -1  -9   7   14.38    0.61
  -1  -9   7   14.07    0.82
   0   9  -7   13.16    0.75
   0  -9   7   14.66    0.59
   0  -9   7   13.01    0.77
  -1   9  -7   11.76    0.69
   1  -9   7   11.96    0.71
   1  -9   7   12.82    0.55
  -2   9  -7    0.78    0.23
   2  -9   7    0.58    0.23
   2  -9   7    0.34    0.14
  -3   9  -7    0.04    0.15
   3  -9   7    0.04    0.16
   3  -9   7   -0.12    0.11
   4  -9   7    0.42    0.15
   5  -9   7   -0.11    0.13
   6  -9   7    9.61    0.43
   4   8  -7    7.40    0.62
  -4  -8   7    9.68    0.73
  -3  -8   7   -0.07    0.20
   2   8  -7    1.83    0.36
  -2  -8   7    1.38    0.32
  -2  -8   7    2.35    0.29
   1   8  -7   29.63    1.22
  -1  -8   7   31.71    1.26
  -1  -8   7   32.67    1.00
   0   8  -7    8.23    0.56
   0  -8   7    8.02    0.41
   0  -8   7    7.51    0.55
  -1   8  -7   21.73    0.93
   1  -8   7   21.45    0.74
   1  -8   7   22.04    0.96
  -2   8  -7    1.75    0.30
   2  -8   7    1.75    0.30
   2  -8   7    1.35    0.20
  -3   8  -7    4.12    0.42
   3  -8   7    5.09    0.42
   3  -8   7    4.57    0.30
   4  -8   7    1.67    0.21
   5  -8   7    4.99    0.31
   6  -8   7   20.84    0.66
   6   7  -7   -0.21    0.16
   5   7  -7    0.95    0.31
  -5  -7   7    0.39    0.31
   4   7  -7    1.64    0.35
  -4  -7   7    1.06    0.33
   3   7  -7    6.33    0.63
  -3  -7   7    6.88    0.67
  -2  -7   7   44.03    1.59
  -2  -7   7   47.76    1.33
   1   7  -7   18.11    0.85
  -1  -7   7   16.39    0.84
  -1  -7   7   17.81    0.65
   0   7  -7    6.02    0.46
   0  -7   7    6.37    0.35
   0  -7   7    6.31    0.48
  -1   7  -7   25.06    0.99
   1  -7   7   25.46    1.00
   1  -7   7   25.43    0.80
  -2   7  -7    1.34    0.26
   2  -7   7    2.12    0.31
   2  -7   7    2.01    0.22
  -3   7  -7    0.29    0.17
   3  -7   7    0.12    0.15
   3  -7   7    0.17    0.12
   4  -7   7    0.92    0.17
   5  -7   7    1.31    0.18
   6  -7   7   10.98    0.39
   7   6  -7    1.87    0.33
   6   6  -7    0.38    0.21
   5   6  -7    6.31    0.66
  -5  -6   7    6.66    0.69
   4   6  -7    1.92    0.36
  -4  -6   7    1.91    0.39
   3   6  -7   22.49    1.00
  -3  -6   7   21.63    1.02
   2   6  -7   -0.14    0.11
  -2  -6   7    0.08    0.16
  -2  -6   7    0.00    0.12
  -1  -6   7   26.75    0.85
  -1  -6   7   26.25    1.07
   0  -6   7    4.23    0.29
   0  -6   7    3.99    0.43
   1  -6   7   14.97    0.71
   1  -6   7   15.09    0.55
  -2   6  -7   17.66    0.73
   2  -6   7   16.35    0.57
   2  -6   7   16.55    0.73
  -3   6  -7    2.54    0.30
   3  -6   7    3.09    0.23
   3  -6   7    3.44    0.35
   4  -6   7    2.82    0.22
   5  -6   7    1.93    0.19
   7   5  -7    0.24    0.19
   6   5  -7    1.05    0.26
   5   5  -7    1.30    0.33
   5   5  -7    1.67    0.29
  -5  -5   7    1.51    0.38
   4   5  -7    2.73    0.42
  -4  -5   7    2.96    0.45
   3   5  -7    0.74    0.24
  -3  -5   7   -0.08    0.15
  -3  -5   7    0.50    0.16
   2   5  -7   21.71    0.93
  -2  -5   7   22.23    0.74
  -2  -5   7   20.90    0.95
   1   5  -7    0.54    0.17
  -1  -5   7    0.45    0.19
  -1  -5   7    0.35    0.12
   0   5  -7    5.25    0.40
   0  -5   7    4.75    0.46
   0  -5   7    4.70    0.29
  -1   5  -7   84.61    2.08
  -1   5  -7   86.14    2.28
   1  -5   7   86.82    2.11
   1  -5   7   87.48    2.32
  -2   5  -7    0.84    0.20
   2  -5   7    0.78    0.14
   2  -5   7    0.65    0.18
  -3   5  -7    1.44    0.22
   3  -5   7    1.93    0.26
   3  -5   7    1.70    0.19
   4  -5   7    0.51    0.12
   5  -5   7    0.18    0.10
   7   4  -7   -0.11    0.16
   6   4  -7    6.92    0.47
   5   4  -7    1.51    0.26
   5   4  -7    1.42    0.33
  -5  -4   7    1.26    0.34
   4   4  -7    8.90    0.50
   4   4  -7   10.11    0.65
  -4  -4   7    8.35    0.62
   3   4  -7   11.64    0.53
   3   4  -7   10.63    0.64
  -3  -4   7   11.11    0.48
  -3  -4   7   10.98    0.67
   2   4  -7   12.44    0.52
   2   4  -7   10.77    0.62
  -2  -4   7   10.83    0.65
  -2  -4   7   12.05    0.50
   1   4  -7    0.82    0.20
   1   4  -7    0.56    0.14
  -1  -4   7    0.58    0.14
  -1  -4   7    0.48    0.18
   0   4  -7    2.10    0.22
   0   4  -7    2.28    0.31
   0  -4   7    2.41    0.32
   0  -4   7    2.43    0.24
  -1   4  -7    3.13    0.23
  -1   4  -7    3.44    0.36
   1  -4   7    3.29    0.24
   1  -4   7    3.23    0.36
  -2   4  -7    0.07    0.12
   2  -4   7   -0.06    0.08
   2  -4   7    0.13    0.12
  -3   4  -7    7.82    0.40
   3  -4   7    8.11    0.35
   3  -4   7    8.79    0.43
   4  -4   7    0.88    0.14
   5  -4   7    0.02    0.07
   7   3  -7    0.58    0.21
   6   3  -7    5.71    0.43
   5   3  -7    0.26    0.16
   5   3  -7    0.38    0.22
  -5  -3   7    0.17    0.24
   4   3  -7    0.05    0.17
   4   3  -7    0.02    0.13
  -4  -3   7   -0.07    0.17
   3   3  -7    0.37    0.18
   3   3  -7    0.93    0.18
  -3  -3   7    0.26    0.18
  -3  -3   7    0.46    0.14
   2   3  -7   21.71    0.76
   2   3  -7   22.77    0.95
  -2  -3   7   25.23    1.01
  -2  -3   7   22.32    0.74
   1   3  -7    5.82    0.34
   1   3  -7    6.49    0.45
  -1  -3   7    7.06    0.48
  -1  -3   7    6.38    0.34
   0   3  -7    7.73    0.47
   0   3  -7    6.88    0.34
   0  -3   7    7.40    0.36
   0  -3   7    7.87    0.49
  -1   3  -7    3.56    0.35
   1  -3   7    3.13    0.23
   1  -3   7    2.66    0.33
  -2   3  -7   37.14    1.13
  -2   3  -7   36.95    1.11
   2  -3   7   37.65    1.12
   2  -3   7   36.76    1.15
   2  -3   7   37.45    1.01
  -3   3  -7   30.90    0.90
   3  -3   7   32.03    0.87
   3  -3   7   31.67    0.93
   4  -3   7   13.94    0.45
   7   2  -7    3.26    0.38
   6   2  -7   -0.06    0.14
   5   2  -7    4.44    0.52
   5   2  -7    4.36    0.36
  -5  -2   7    4.69    0.55
   4   2  -7   -0.01    0.12
   4   2  -7   -0.06    0.15
  -4  -2   7   -0.05    0.17
   3   2  -7   32.83    1.21
   3   2  -7   31.32    1.01
  -3  -2   7   31.84    0.95
  -3  -2   7   32.50    1.23
   2   2  -7    0.71    0.16
   2   2  -7    0.74    0.21
  -2  -2   7    0.77    0.16
  -2  -2   7    0.70    0.21
   1   2  -7    1.80    0.21
   1   2  -7    1.74    0.29
  -1  -2   7    1.67    0.20
  -1  -2   7    2.37    0.34
   0   2  -7    1.66    0.26
   0   2  -7    1.74    0.19
   0  -2   7    1.68    0.19
   0  -2   7    1.38    0.25
  -1   2  -7    6.04    0.40
   1  -2   7    6.09    0.31
   1  -2   7    6.97    0.44
  -2   2  -7    7.41    0.42
  -2   2  -7    7.68    0.42
   2  -2   7    7.79    0.34
   2  -2   7    7.52    0.35
   2  -2   7    7.58    0.43
  -3   2  -7   18.62    0.61
   3  -2   7   17.96    0.63
   3  -2   7   18.39    0.58
   4  -2   7    2.10    0.17
   7   1  -7    6.07    0.46
   6   1  -7    2.52    0.34
   5   1  -7    0.46    0.22
   5   1  -7    0.61    0.19
  -5  -1   7    0.98    0.30
   4   1  -7    0.17    0.14
   4   1  -7    0.25    0.17
  -4  -1   7    0.14    0.20
   3   1  -7   21.33    0.94
   3   1  -7   20.92    0.76
  -3  -1   7   19.90    0.93
  -3  -1   7   21.30    0.71
   2   1  -7   12.74    0.53
   2   1  -7   12.35    0.66
  -2  -1   7   12.15    0.68
  -2  -1   7   13.31    0.51
   1   1  -7   11.17    0.46
   1   1  -7   10.70    0.59
  -1  -1   7   10.58    0.45
  -1  -1   7   11.00    0.61
   0   1  -7    0.19    0.09
   0   1  -7   -0.07    0.10
   0  -1   7    0.27    0.15
   0  -1   7   -0.05    0.07
  -1   1  -7   89.19    2.29
   1  -1   7   83.60    2.30
   1  -1   7   90.96    2.14
  -2   1  -7   16.67    0.65
   2  -1   7   17.97    0.58
   2  -1   7   15.54    0.66
  -3   1  -7    7.74    0.35
   3  -1   7    7.62    0.38
   3  -1   7    7.51    0.33
   7   0  -7    0.36    0.20
   6   0  -7    4.34    0.43
   5   0  -7    0.30    0.20
   5   0  -7    0.02    0.14
  -5   0   7    0.40    0.25
   4   0  -7   36.76    1.34
   4   0  -7   35.78    1.14
  -4   0   7   36.74    1.38
   3   0  -7   11.17    0.52
   3   0  -7   10.22    0.63
  -3   0   7   11.57    0.48
  -3   0   7   11.36    0.67
   2   0  -7    7.86    0.41
   2   0  -7    8.61    0.55
  -2   0   7    8.06    0.39
  -2   0   7    9.44    0.59
   1   0  -7   80.50    2.24
   1   0  -7   79.71    2.01
  -1   0   7   80.78    2.28
  -1   0   7   81.68    2.01
   0   0  -7   13.16    0.49
   0   0  -7   13.13    0.64
   0   0   7   13.00    0.66
   0   0   7   13.33    0.51
  -1   0  -7   17.75    0.73
   1   0   7   17.81    0.77
   1   0   7   18.27    0.61
  -2   0  -7  110.58    2.70
   2   0   7  110.84    2.75
   2   0   7  109.57    2.60
   3   0   7    1.11    0.16
   7  -1  -7    0.06    0.17
   6  -1  -7    3.19    0.37
   5  -1  -7   27.07    0.97
   5  -1  -7   27.62    1.14
  -5   1   7   27.39    1.19
   4  -1  -7   65.85    2.03
   4  -1  -7   67.38    1.82
  -4   1   7   64.70    2.07
   3  -1  -7    4.82    0.34
   3  -1  -7    4.05    0.47
  -3   1   7    4.43    0.51
  -3   1   7    4.55    0.31
   2  -1  -7   69.94    1.80
   2  -1  -7   66.68    2.01
  -2   1   7   68.87    2.07
  -2   1   7   68.17    1.76
   1  -1  -7   -0.13    0.08
   1  -1  -7   -0.02    0.09
  -1   1   7    0.09    0.10
  -1   1   7   -0.06    0.12
   0  -1  -7    0.29    0.11
   0  -1  -7    0.33    0.17
   0   1   7    0.30    0.12
   0   1   7    0.62    0.21
  -1  -1  -7    7.68    0.47
   1   1   7    7.67    0.50
   1   1   7    7.67    0.37
  -2  -1  -7    0.69    0.17
   2   1   7    0.33    0.12
   2   1   7    0.33    0.17
   7  -2  -7    0.45    0.20
   6  -2  -7    0.12    0.22
   6  -2  -7   -0.01    0.15
  -6   2   7    0.13    0.25
   5  -2  -7   41.08    1.29
   5  -2  -7   39.83    1.47
  -5   2   7   39.87    1.54
   4  -2  -7   10.73    0.67
   4  -2  -7   10.09    0.53
  -4   2   7   10.50    0.71
   3  -2  -7   76.19    2.03
   3  -2  -7   77.30    2.28
  -3   2   7   78.85    1.98
  -3   2   7   77.33    2.34
   2  -2  -7   61.12    1.64
   2  -2  -7   57.43    1.84
  -2   2   7   60.93    1.93
  -2   2   7   61.21    1.60
   1  -2  -7   11.16    0.49
   1  -2  -7   11.12    0.64
  -1   2   7   12.97    0.72
  -1   2   7   10.39    0.47
   0  -2  -7    1.66    0.29
   0  -2  -7    1.69    0.20
   0   2   7    1.65    0.22
   0   2   7    1.78    0.33
  -1  -2  -7   42.55    1.35
   1   2   7   43.04    1.42
   1   2   7   43.09    1.20
  -2  -2  -7   69.87    1.91
   2   2   7   72.64    2.00
   7  -3  -7    0.72    0.23
   6  -3  -7    0.43    0.20
   6  -3  -7    0.61    0.27
  -6   3   7    0.52    0.29
   5  -3  -7    2.01    0.36
   5  -3  -7    2.56    0.33
  -5   3   7    2.65    0.46
   4  -3  -7    2.24    0.30
   4  -3  -7    1.73    0.34
  -4   3   7    1.96    0.40
   3  -3  -7    1.34    0.23
   3  -3  -7    1.71    0.33
  -3   3   7    2.31    0.41
   2  -3  -7    8.32    0.58
   2  -3  -7    7.61    0.43
  -2   3   7    7.97    0.60
   1  -3  -7   25.26    0.81
   1  -3  -7   21.93    0.98
  -1   3   7   23.16    1.06
   0  -3  -7   12.12    0.66
   0  -3  -7   11.56    0.48
   0   3   7   11.49    0.69
  -1  -3  -7   63.26    1.82
   1   3   7   62.01    1.90
  -2  -3  -7    0.37    0.18
   2   3   7    0.21    0.19
   7  -4  -7   -0.06    0.15
   6  -4  -7    0.13    0.17
   6  -4  -7   -0.19    0.20
  -6   4   7    0.18    0.28
   5  -4  -7    0.14    0.18
   5  -4  -7    0.00    0.15
  -5   4   7   -0.04    0.18
   4  -4  -7    1.70    0.29
   4  -4  -7    1.70    0.36
  -4   4   7    2.70    0.46
   3  -4  -7    4.47    0.38
   3  -4  -7    5.01    0.57
  -3   4   7    4.69    0.58
   2  -4  -7   37.67    1.42
   2  -4  -7   39.64    1.19
  -2   4   7   39.13    1.51
   1  -4  -7   23.44    1.02
  -1   4   7   24.55    1.11
   0  -4  -7    0.41    0.20
   0   4   7    0.47    0.23
  -1  -4  -7   11.16    0.63
   1   4   7   11.01    0.69
  -2  -4  -7   11.96    0.63
   2   4   7   12.31    0.70
   7  -5  -7    0.08    0.19
   6  -5  -7    2.71    0.45
   6  -5  -7    4.10    0.43
  -6   5   7    4.04    0.60
   5  -5  -7    0.64    0.28
   5  -5  -7    1.06    0.25
  -5   5   7    1.11    0.36
   4  -5  -7    9.11    0.52
   4  -5  -7    9.89    0.69
  -4   5   7    9.14    0.72
   3  -5  -7   22.87    1.09
   3  -5  -7   26.43    0.93
  -3   5   7   26.68    1.23
   2  -5  -7    1.16    0.22
   2  -5  -7    1.66    0.33
  -2   5   7    1.87    0.39
   1  -5  -7   47.62    1.32
   1  -5  -7   42.74    1.55
  -1   5   7   45.05    1.67
   0  -5  -7   -0.11    0.17
   0   5   7   -0.19    0.18
  -1  -5  -7    6.97    0.52
   1   5   7    6.76    0.64
  -2  -5  -7    2.35    0.36
   2   5   7    1.39    0.32
   7  -6  -7    0.36    0.22
   6  -6  -7    0.06    0.23
   6  -6  -7    0.34    0.21
  -6   6   7   -0.17    0.26
   5  -6  -7    4.58    0.45
   5  -6  -7    5.50    0.61
  -5   6   7    4.40    0.62
   4  -6  -7    1.90    0.37
   4  -6  -7    3.24    0.37
  -4   6   7    3.00    0.51
   3  -6  -7    1.38    0.26
   3  -6  -7    1.26    0.32
  -3   6   7    0.88    0.31
   2  -6  -7    8.30    0.48
   2  -6  -7    8.24    0.63
  -2   6   7    9.51    0.72
   1  -6  -7   16.18    0.87
  -1   6   7   14.54    0.91
   0  -6  -7    0.76    0.26
   0   6   7    0.99    0.32
  -1  -6  -7   -0.11    0.17
   1   6   7    0.01    0.21
  -2  -6  -7    0.74    0.27
   2   6   7    1.27    0.33
   7  -7  -7    0.37    0.23
   6  -7  -7    1.95    0.33
   6  -7  -7    1.26    0.37
  -6   7   7    2.22    0.54
   5  -7  -7   10.30    0.61
   5  -7  -7   10.72    0.78
  -5   7   7    9.71    0.80
   4  -7  -7    0.56    0.28
   4  -7  -7    0.95    0.24
  -4   7   7    1.23    0.40
   3  -7  -7   10.96    0.76
   3  -7  -7    9.70    0.56
  -3   7   7   10.96    0.83
   2  -7  -7    0.53    0.20
   2  -7  -7   -0.06    0.16
  -2   7   7   -0.02    0.22
   1  -7  -7    4.03    0.51
  -1   7   7    3.29    0.53
   0  -7  -7    0.46    0.23
   0   7   7    0.71    0.32
  -1  -7  -7    1.74    0.37
   1   7   7    0.67    0.30
   6  -8  -7   -0.07    0.20
   5  -8  -7    0.13    0.20
   5  -8  -7   -0.03    0.23
  -5   8   7   -0.02    0.30
   4  -8  -7    0.80    0.26
   4  -8  -7    0.35    0.29
  -4   8   7    0.47    0.36
   3  -8  -7    0.92    0.32
   3  -8  -7    0.97    0.25
  -3   8   7    1.55    0.42
   2  -8  -7    5.16    0.63
  -2   8   7    3.79    0.60
   1  -8  -7    0.38    0.25
  -1   8   7    0.30    0.30
   0  -8  -7    0.09    0.20
   0   8   7    0.63    0.31
  -1  -8  -7    0.26    0.25
   1   8   7   -0.06    0.24
   6  -9  -7    0.32    0.24
   5  -9  -7    0.22    0.22
   4  -9  -7    1.43    0.41
   4  -9  -7    1.93    0.34
  -4   9   7    2.27    0.55
   3  -9  -7    1.11    0.29
   3  -9  -7    0.80    0.34
  -3   9   7    0.77    0.37
   2  -9  -7    2.35    0.47
  -2   9   7    2.36    0.53
   1  -9  -7   -0.04    0.22
  -1   9   7   -0.40    0.24
   0  -9  -7    0.67    0.32
   0   9   7    0.96    0.35
  -1  -9  -7    2.15    0.47
   1   9   7    2.21    0.48
   5 -10  -7    1.52    0.33
   4 -10  -7    1.04    0.29
   1 -10  -7    0.68    0.34
  -1  10   7    1.05    0.43
   4 -11  -7    0.08    0.23
   2 -17   8    0.00    0.28
   3 -17   8   -0.07    0.25
   1 -16   8    2.78    0.44
   2 -16   8    5.89    0.57
   3 -16   8    6.92    0.55
   4 -16   8    0.39    0.25
   1  15  -8    2.15    0.53
  -1 -15   8    1.13    0.44
   0  15  -8    0.35    0.29
   0 -15   8    0.20    0.30
  -1  15  -8   -0.08    0.24
   1 -15   8    0.00    0.21
   1 -15   8    0.15    0.29
  -2  15  -8    1.51    0.40
   2 -15   8    1.58    0.32
   2 -15   8    1.04    0.38
  -3  15  -8    1.90    0.47
   3 -15   8    1.14    0.42
   3 -15   8    2.09    0.36
   4 -15   8    2.39    0.35
   5 -15   8    0.05    0.19
   2  14  -8   -0.20    0.23
  -2 -14   8    0.66    0.37
   1  14  -8    0.19    0.26
  -1 -14   8    0.12    0.26
   0  14  -8   -0.22    0.21
   0 -14   8   -0.04    0.18
   0 -14   8   -0.14    0.26
  -1  14  -8    0.16    0.24
   1 -14   8    0.30    0.31
   1 -14   8    0.02    0.20
  -2  14  -8   -0.12    0.23
   2 -14   8   -0.02    0.26
   2 -14   8    0.11    0.19
  -3  14  -8    1.09    0.35
   3 -14   8    1.05    0.27
   3 -14   8    1.13    0.39
   4 -14   8    6.89    0.49
   5 -14   8    0.63    0.24
   3  13  -8    3.48    0.60
  -3 -13   8    3.29    0.60
   2  13  -8    1.67    0.44
  -2 -13   8    1.81    0.48
   1  13  -8    0.16    0.25
  -1 -13   8   -0.01    0.25
   0  13  -8   -0.13    0.18
   0 -13   8    0.52    0.28
   0 -13   8   -0.03    0.17
  -1  13  -8   11.09    0.80
   1 -13   8   11.21    0.61
   1 -13   8   10.58    0.82
  -2  13  -8   -0.12    0.18
   2 -13   8    0.20    0.24
   2 -13   8    0.13    0.20
  -3  13  -8    0.15    0.25
   3 -13   8    0.21    0.25
   3 -13   8    0.18    0.19
   4 -13   8   10.92    0.59
   5 -13   8    0.06    0.16
   4  12  -8   13.93    0.99
  -4 -12   8   11.12    1.08
   3  12  -8    0.50    0.31
  -3 -12   8    0.29    0.32
   2  12  -8    7.16    0.77
  -2 -12   8    6.47    0.76
   1  12  -8    4.09    0.58
  -1 -12   8    3.32    0.39
  -1 -12   8    3.80    0.58
   0  12  -8   11.31    0.81
   0 -12   8   12.94    0.64
   0 -12   8   10.68    0.82
  -1  12  -8    9.75    0.73
   1 -12   8   11.90    0.83
   1 -12   8   11.74    0.59
  -2  12  -8    4.64    0.57
   2 -12   8    4.83    0.60
   2 -12   8    4.57    0.39
  -3  12  -8   13.56    0.83
   3 -12   8   14.06    0.65
   3 -12   8   13.63    0.84
   4 -12   8    7.38    0.46
   5 -12   8    1.74    0.27
   6 -12   8    1.43    0.26
   4  11  -8    1.12    0.38
  -4 -11   8    1.81    0.49
   3  11  -8    1.38    0.38
  -3 -11   8    1.30    0.41
   2  11  -8    5.28    0.66
  -2 -11   8    6.09    0.73
   1  11  -8    3.40    0.51
  -1 -11   8    3.36    0.38
  -1 -11   8    2.72    0.48
   0  11  -8   12.79    0.81
   0 -11   8   13.24    0.85
   0 -11   8   12.50    0.61
  -1  11  -8    0.35    0.24
   1 -11   8    0.65    0.28
   1 -11   8    0.77    0.23
  -2  11  -8   35.38    1.38
   2 -11   8   34.82    1.40
   2 -11   8   33.24    1.11
  -3  11  -8   -0.03    0.20
   3 -11   8    0.06    0.16
   3 -11   8    0.51    0.25
   4 -11   8    0.29    0.17
   5 -11   8    4.93    0.36
   6 -11   8    1.83    0.27
   4  10  -8   -0.05    0.23
  -4 -10   8    0.11    0.29
  -3 -10   8    3.45    0.55
   2  10  -8    4.90    0.60
  -2 -10   8    5.67    0.67
   1  10  -8    3.31    0.49
  -1 -10   8    4.31    0.58
  -1 -10   8    3.89    0.39
   0  10  -8   -0.05    0.14
   0 -10   8   -0.04    0.17
   0 -10   8    0.17    0.16
  -1  10  -8   17.18    0.90
   1 -10   8   17.15    0.71
   1 -10   8   18.91    0.96
  -2  10  -8    7.56    0.58
   2 -10   8    8.76    0.63
   2 -10   8    8.82    0.47
  -3  10  -8    7.30    0.57
   3 -10   8    7.71    0.58
   3 -10   8    8.50    0.46
   4 -10   8    1.15    0.21
   5 -10   8    1.89    0.26
   6 -10   8    0.06    0.15
   4   9  -8    9.87    0.75
  -4  -9   8    9.84    0.79
   3   9  -8    1.52    0.36
  -3  -9   8    1.82    0.42
   2   9  -8    5.61    0.62
  -2  -9   8    4.41    0.58
  -2  -9   8    4.16    0.40
   1   9  -8   18.67    0.96
  -1  -9   8   18.67    0.73
  -1  -9   8   17.96    0.96
   0   9  -8    0.94    0.27
   0  -9   8    1.80    0.26
   0  -9   8    1.40    0.31
  -1   9  -8   19.65    0.94
   1  -9   8   20.14    0.75
   1  -9   8   18.81    0.94
  -2   9  -8   33.63    1.28
   2  -9   8   33.45    1.29
   2  -9   8   35.39    1.07
   3  -9   8    0.14    0.14
   3  -9   8    0.36    0.22
   4  -9   8    3.63    0.29
   5  -9   8    0.67    0.18
   6  -9   8    2.95    0.28
   6   8  -8    5.18    0.52
   5   8  -8    2.23    0.47
  -5  -8   8    1.70    0.47
   4   8  -8    2.28    0.43
  -4  -8   8    3.03    0.51
   3   8  -8   11.68    0.75
  -3  -8   8   10.72    0.76
  -2  -8   8   58.70    2.00
  -2  -8   8   59.63    1.65
   1   8  -8   10.61    0.68
  -1  -8   8    9.61    0.67
  -1  -8   8   10.36    0.52
   0   8  -8    7.35    0.55
   0  -8   8    7.81    0.43
   0  -8   8    7.47    0.57
  -1   8  -8   12.26    0.70
   1  -8   8   11.69    0.70
   1  -8   8   13.16    0.55
   2  -8   8   31.71    1.20
   2  -8   8   30.99    0.97
  -3   8  -8    9.68    0.57
   3  -8   8    9.65    0.58
   3  -8   8    8.71    0.44
   4  -8   8    0.38    0.15
   5  -8   8    3.27    0.28
   6  -8   8    4.79    0.29
   6   7  -8    2.44    0.37
   5   7  -8    1.40    0.37
  -5  -7   8    1.91    0.45
   4   7  -8   15.59    0.90
  -4  -7   8   16.66    0.97
   3   7  -8   10.56    0.70
  -3  -7   8   10.43    0.73
   2   7  -8    0.19    0.18
  -2  -7   8    0.56    0.26
  -2  -7   8    0.16    0.15
   1   7  -8   41.55    1.47
  -1  -7   8   41.59    1.22
  -1  -7   8   39.99    1.49
   0  -7   8    5.56    0.55
   0  -7   8    4.64    0.32
  -1   7  -8   17.44    0.81
   1  -7   8   17.25    0.83
   1  -7   8   17.42    0.65
  -2   7  -8   16.53    0.76
   2  -7   8   16.31    0.78
   2  -7   8   16.94    0.62
  -3   7  -8    2.53    0.34
   3  -7   8    2.78    0.35
   3  -7   8    2.84    0.27
   4  -7   8    0.16    0.13
   5  -7   8   10.79    0.44
   6  -7   8    0.01    0.09
   7   6  -8    6.82    0.53
   6   6  -8    9.85    0.60
   5   6  -8    1.92    0.41
   5   6  -8    1.47    0.29
  -5  -6   8    1.11    0.37
   4   6  -8   -0.06    0.18
  -4  -6   8    0.14    0.24
   3   6  -8   13.72    0.79
  -3  -6   8   12.81    0.79
   2   6  -8   16.70    0.86
  -2  -6   8   17.19    0.90
  -2  -6   8   17.18    0.67
   1   6  -8   18.49    0.88
  -1  -6   8   18.99    0.91
  -1  -6   8   19.46    0.70
   0   6  -8    4.76    0.48
   0  -6   8    5.45    0.45
   0  -6   8    5.10    0.33
  -1   6  -8    9.62    0.44
  -1   6  -8   10.31    0.59
   1  -6   8    9.77    0.45
   1  -6   8   10.37    0.60
  -2   6  -8   29.95    1.06
   2  -6   8   27.76    0.88
   2  -6   8   29.03    1.07
  -3   6  -8    3.05    0.34
   3  -6   8    3.79    0.27
   3  -6   8    3.81    0.39
   4  -6   8    0.82    0.17
   5  -6   8   11.44    0.44
   7   5  -8    1.55    0.31
   6   5  -8    1.59    0.30
   5   5  -8    5.56    0.44
   5   5  -8    4.56    0.57
  -5  -5   8    4.54    0.60
   4   5  -8    0.92    0.23
   4   5  -8    1.05    0.31
  -4  -5   8    0.66    0.27
   3   5  -8    4.83    0.38
   3   5  -8    4.72    0.54
  -3  -5   8    5.30    0.36
  -3  -5   8    4.08    0.52
   2   5  -8   17.15    0.84
  -2  -5   8   14.88    0.82
  -2  -5   8   15.36    0.62
   1   5  -8    3.58    0.29
   1   5  -8    3.96    0.46
  -1  -5   8    4.48    0.30
  -1  -5   8    3.58    0.45
   0   5  -8   32.91    1.00
   0   5  -8   33.13    1.20
   0  -5   8   34.25    1.24
   0  -5   8   33.61    1.00
  -1   5  -8   18.98    0.63
  -1   5  -8   17.99    0.79
   1  -5   8   17.77    0.64
   1  -5   8   17.13    0.80
  -2   5  -8   13.29    0.64
   2  -5   8   12.08    0.50
   2  -5   8   13.43    0.65
  -3   5  -8    9.07    0.48
   3  -5   8    9.28    0.50
   3  -5   8    8.41    0.39
   4  -5   8    2.95    0.23
   5  -5   8    5.99    0.28
   7   4  -8    0.53    0.23
   6   4  -8    0.29    0.19
   5   4  -8   11.21    0.75
   5   4  -8   12.98    0.64
  -5  -4   8   12.24    0.80
   4   4  -8   21.30    1.03
   4   4  -8   23.20    0.88
  -4  -4   8   22.82    1.08
   3   4  -8   13.10    0.60
   3   4  -8   12.37    0.73
  -3  -4   8   11.66    0.53
  -3  -4   8   11.92    0.74
   2   4  -8    4.93    0.51
   2   4  -8    5.15    0.35
  -2  -4   8    3.84    0.46
  -2  -4   8    5.14    0.34
   1   4  -8   13.68    0.72
   1   4  -8   14.04    0.57
  -1  -4   8   12.50    0.71
  -1  -4   8   13.04    0.54
   0   4  -8   19.27    0.67
   0   4  -8   20.04    0.86
   0  -4   8   18.35    0.85
   0  -4   8   19.91    0.68
  -1   4  -8    0.77    0.22
  -1   4  -8    1.27    0.17
   1  -4   8    1.40    0.27
   1  -4   8    1.57    0.20
  -2   4  -8   21.24    0.83
   2  -4   8   23.14    0.87
   2  -4   8   21.05    0.70
  -3   4  -8    1.36    0.22
   3  -4   8    1.34    0.22
   3  -4   8    1.81    0.20
   4  -4   8   20.36    0.64
   5  -4   8   14.12    0.43
   7   3  -8    6.67    0.50
   6   3  -8    4.00    0.44
   5   3  -8    0.04    0.19
   5   3  -8    0.04    0.14
  -5  -3   8    0.15    0.24
   4   3  -8    2.51    0.32
   4   3  -8    1.52    0.34
  -4  -3   8    1.68    0.36
   3   3  -8    0.28    0.19
   3   3  -8    0.08    0.12
  -3  -3   8    0.43    0.21
  -3  -3   8    0.40    0.16
   2   3  -8    2.40    0.37
   2   3  -8    2.89    0.30
  -2  -3   8    2.94    0.29
  -2  -3   8    2.12    0.35
   1   3  -8    6.90    0.38
   1   3  -8    5.99    0.47
  -1  -3   8    5.87    0.34
  -1  -3   8    5.62    0.56
   0   3  -8   26.16    0.83
   0   3  -8   27.47    1.04
   0  -3   8   26.67    0.84
   0  -3   8   29.69    1.09
  -1   3  -8   44.85    1.37
   1  -3   8   40.99    1.36
   1  -3   8   40.97    1.16
  -2   3  -8    6.74    0.43
   2  -3   8    7.04    0.35
   2  -3   8    6.50    0.44
  -3   3  -8    0.01    0.11
   3  -3   8   -0.18    0.09
   3  -3   8    0.03    0.12
   4  -3   8    3.97    0.24
   7   2  -8    4.36    0.47
   6   2  -8    5.10    0.48
   5   2  -8    0.18    0.16
   5   2  -8   -0.03    0.18
  -5  -2   8    0.24    0.24
   4   2  -8    9.35    0.51
   4   2  -8    8.89    0.64
  -4  -2   8    9.17    0.66
   3   2  -8    2.84    0.41
   3   2  -8    2.13    0.27
  -3  -2   8    3.03    0.30
  -3  -2   8    2.44    0.40
   2   2  -8   56.29    1.56
   2   2  -8   55.47    1.79
  -2  -2   8   59.20    1.85
  -2  -2   8   56.40    1.53
   1   2  -8    6.37    0.47
   1   2  -8    6.12    0.35
  -1  -2   8    5.79    0.47
  -1  -2   8    6.37    0.35
   0   2  -8   -0.01    0.09
   0   2  -8    0.01    0.13
   0  -2   8   -0.05    0.12
   0  -2   8    0.14    0.11
  -1   2  -8    0.01    0.13
   1  -2   8   -0.12    0.11
   1  -2   8   -0.05    0.10
  -2   2  -8    5.81    0.40
   2  -2   8    6.89    0.35
   2  -2   8    7.81    0.46
   3  -2   8    4.17    0.27
   4  -2   8   -0.16    0.09
   7   1  -8   11.51    0.64
   6   1  -8   -0.05    0.13
   5   1  -8    3.00    0.36
   5   1  -8    3.30    0.48
  -5  -1   8    2.60    0.45
   4   1  -8    0.12    0.15
   4   1  -8    0.19    0.15
  -4  -1   8    0.13    0.18
   3   1  -8    7.14    0.43
   3   1  -8    6.28    0.51
  -3  -1   8    6.45    0.54
  -3  -1   8    7.16    0.38
   2   1  -8    7.68    0.55
   2   1  -8    7.42    0.41
  -2  -1   8    7.79    0.41
  -2  -1   8    7.39    0.56
   1   1  -8    3.88    0.44
   1   1  -8    4.33    0.31
  -1  -1   8    4.02    0.46
  -1  -1   8    3.79    0.28
   0   1  -8    2.57    0.35
   0   1  -8    2.40    0.24
   0  -1   8    2.47    0.36
   0  -1   8    2.88    0.27
  -1   1  -8    6.53    0.45
   1  -1   8    7.11    0.37
   1  -1   8    7.76    0.50
  -2   1  -8   11.01    0.55
   2  -1   8   11.37    0.59
   2  -1   8   11.33    0.46
   3  -1   8    2.78    0.23
   7   0  -8    2.63    0.37
   6   0  -8    0.06    0.21
   6   0  -8   -0.15    0.13
  -6   0   8    0.31    0.29
   5   0  -8    1.15    0.25
   5   0  -8    0.66    0.26
  -5   0   8    0.68    0.29
   4   0  -8    0.54    0.18
   4   0  -8    0.85    0.26
  -4   0   8    0.50    0.25
   3   0  -8   -0.08    0.14
   3   0  -8    0.03    0.12
  -3   0   8   -0.06    0.09
  -3   0   8    0.36    0.18
   2   0  -8    9.10    0.47
   2   0  -8    9.54    0.62
  -2   0   8   10.20    0.65
  -2   0   8   10.04    0.47
   1   0  -8   25.18    0.82
   1   0  -8   23.48    1.00
  -1   0   8   23.05    1.02
  -1   0   8   25.55    0.82
   0   0  -8   15.78    0.75
   0   0  -8   14.92    0.57
   0   0   8   14.52    0.75
   0   0   8   15.74    0.59
  -1   0  -8    1.59    0.28
   1   0   8    2.02    0.23
   1   0   8    2.39    0.34
  -2   0  -8    5.42    0.39
   2   0   8    4.95    0.30
   2   0   8    5.35    0.41
   7  -1  -8    0.40    0.19
   6  -1  -8    4.99    0.42
   6  -1  -8    5.67    0.62
  -6   1   8    5.58    0.66
   5  -1  -8    6.08    0.45
   5  -1  -8    7.57    0.70
  -5   1   8    7.48    0.75
   4  -1  -8   12.10    0.60
   4  -1  -8   11.10    0.71
  -4   1   8   12.03    0.77
   3  -1  -8    0.35    0.20
   3  -1  -8    0.47    0.18
  -3   1   8    0.45    0.15
  -3   1   8    0.60    0.25
   2  -1  -8    1.73    0.33
   2  -1  -8    1.48    0.23
  -2   1   8    1.34    0.21
  -2   1   8    1.70    0.33
   1  -1  -8    0.31    0.14
   1  -1  -8    0.59    0.21
  -1   1   8    0.29    0.13
  -1   1   8    0.70    0.24
   0  -1  -8    0.44    0.13
   0  -1  -8    0.34    0.17
   0   1   8    0.78    0.24
   0   1   8    0.38    0.14
  -1  -1  -8    0.23    0.16
   1   1   8    0.23    0.19
   1   1   8    0.33    0.14
  -2  -1  -8    3.67    0.39
   2   1   8    4.03    0.30
   2   1   8    4.59    0.45
   7  -2  -8    0.34    0.20
   6  -2  -8    5.11    0.60
   6  -2  -8    5.72    0.45
  -6   2   8    6.01    0.71
   5  -2  -8    4.40    0.44
   5  -2  -8    3.87    0.52
  -5   2   8    3.74    0.55
   4  -2  -8   14.64    0.84
   4  -2  -8   15.13    0.69
  -4   2   8   15.27    0.90
   3  -2  -8   17.07    0.90
   3  -2  -8   16.68    0.71
  -3   2   8   18.45    0.68
  -3   2   8   16.25    0.93
   2  -2  -8    0.42    0.20
   2  -2  -8    0.76    0.18
  -2   2   8    1.02    0.29
  -2   2   8    1.00    0.20
   1  -2  -8    0.93    0.18
   1  -2  -8    0.73    0.22
  -1   2   8    0.85    0.19
  -1   2   8    1.05    0.29
   0  -2  -8    2.40    0.35
   0   2   8    2.19    0.38
   0   2   8    2.68    0.29
  -1  -2  -8   52.17    1.61
   1   2   8   52.56    1.43
   1   2   8   49.01    1.66
  -2  -2  -8    0.11    0.16
   2   2   8    0.15    0.19
   7  -3  -8    1.62    0.31
   6  -3  -8    0.23    0.24
   6  -3  -8    0.39    0.20
  -6   3   8    0.15    0.31
   5  -3  -8    4.57    0.58
   5  -3  -8    5.00    0.42
  -5   3   8    4.83    0.65
   4  -3  -8    8.67    0.66
   4  -3  -8    9.86    0.56
  -4   3   8   11.54    0.79
   3  -3  -8   30.65    1.04
   3  -3  -8   30.35    1.27
  -3   3   8   30.17    1.33
   2  -3  -8   27.28    1.17
   2  -3  -8   28.17    0.95
  -2   3   8   27.32    1.24
   1  -3  -8   48.24    1.66
   1  -3  -8   48.90    1.38
  -1   3   8   48.72    1.74
   0  -3  -8   24.04    1.04
   0   3   8   27.62    1.16
  -1  -3  -8   22.20    0.94
   1   3   8   21.76    1.00
  -2  -3  -8    0.32    0.20
   2   3   8    0.25    0.21
   7  -4  -8    0.62    0.23
   6  -4  -8    1.21    0.37
   6  -4  -8    2.44    0.36
  -6   4   8    1.28    0.40
   5  -4  -8    1.82    0.39
   5  -4  -8    2.04    0.32
  -5   4   8    2.56    0.48
   4  -4  -8    1.11    0.32
   4  -4  -8    1.46    0.27
  -4   4   8    1.81    0.42
   3  -4  -8   19.09    1.00
   3  -4  -8   20.78    0.81
  -3   4   8   18.52    1.05
   2  -4  -8   16.81    0.70
   2  -4  -8   16.78    0.90
  -2   4   8   15.26    0.93
   1  -4  -8   16.88    0.67
   1  -4  -8   16.57    0.87
  -1   4   8   15.58    0.92
   0  -4  -8  202.72    5.01
   0   4   8  207.34    5.15
  -1  -4  -8    0.89    0.27
   1   4   8    0.65    0.28
  -2  -4  -8    5.62    0.47
   2   4   8    5.69    0.58
   7  -5  -8    7.59    0.54
   6  -5  -8    3.44    0.41
   6  -5  -8    2.43    0.46
  -6   5   8    3.86    0.60
   5  -5  -8    1.32    0.36
   5  -5  -8    1.49    0.28
  -5   5   8    0.97    0.37
   4  -5  -8    0.86    0.24
   4  -5  -8    0.60    0.26
  -4   5   8   -0.03    0.23
   3  -5  -8   -0.15    0.16
   3  -5  -8   -0.31    0.14
  -3   5   8    0.04    0.20
   2  -5  -8   27.73    0.97
  -2   5   8   25.55    1.26
  -1   5   8   22.24    1.13
   0  -5  -8    4.46    0.51
   0   5   8    6.22    0.66
  -1  -5  -8    6.94    0.54
   1   5   8    6.36    0.66
   6  -6  -8    0.86    0.34
   6  -6  -8    0.94    0.28
  -6   6   8    1.21    0.44
   5  -6  -8    7.92    0.77
   5  -6  -8    8.87    0.57
  -5   6   8    7.70    0.82
   4  -6  -8   13.11    0.86
   4  -6  -8   13.90    0.69
  -4   6   8   11.98    0.90
   3  -6  -8    0.18    0.19
   3  -6  -8    0.22    0.25
  -3   6   8    0.09    0.27
   2  -6  -8   17.39    0.74
  -2   6   8   16.40    1.01
   1  -6  -8    1.31    0.33
  -1   6   8    1.92    0.43
   0  -6  -8   13.53    0.81
   0   6   8   12.92    0.87
  -1  -6  -8   16.78    0.89
   1   6   8   16.52    0.96
   6  -7  -8    0.57    0.26
   5  -7  -8    2.12    0.45
   5  -7  -8    2.27    0.37
  -5   7   8    1.73    0.47
   4  -7  -8    0.24    0.21
   4  -7  -8    0.23    0.25
  -4   7   8    0.35    0.30
   3  -7  -8    2.94    0.38
   3  -7  -8    2.51    0.45
  -3   7   8    2.23    0.48
   2  -7  -8    5.59    0.66
  -2   7   8    5.04    0.69
   1  -7  -8    0.15    0.25
  -1   7   8    0.19    0.27
   0  -7  -8    2.13    0.42
   0   7   8    1.34    0.40
  -1  -7  -8    5.38    0.60
   1   7   8    4.86    0.61
   6  -8  -8    3.65    0.46
   5  -8  -8    0.40    0.25
   4  -8  -8    4.62    0.64
   4  -8  -8    4.55    0.48
  -4   8   8    4.42    0.68
   3  -8  -8   14.48    0.71
   3  -8  -8   12.64    0.89
  -3   8   8   11.75    0.95
   2  -8  -8    0.13    0.24
  -2   8   8    0.31    0.32
   1  -8  -8    1.63    0.40
  -1   8   8    1.47    0.44
   0  -8  -8    2.63    0.47
   0   8   8    3.00    0.55
  -1  -8  -8    0.66    0.33
   1   8   8    0.19    0.31
   5  -9  -8   -0.12    0.22
   4  -9  -8    0.06    0.22
   2  -9  -8    1.63    0.42
  -2   9   8    1.60    0.47
   1  -9  -8    2.09    0.47
  -1   9   8    2.65    0.57
   0  -9  -8    0.48    0.32
   0   9   8   -0.07    0.30
   5 -10  -8    0.52    0.29
   1 -17   9    0.89    0.37
   2 -17   9    1.10    0.35
   3 -17   9    2.57    0.43
   1 -16   9    1.31    0.36
   2 -16   9    0.63    0.28
   3 -16   9    0.03    0.25
   4 -16   9    1.64    0.34
   0  15  -9    0.58    0.34
   0 -15   9    0.61    0.37
   0 -15   9    0.55    0.27
  -1  15  -9    0.20    0.30
   1 -15   9    0.11    0.31
   1 -15   9    0.18    0.24
  -2  15  -9    1.84    0.47
   2 -15   9    1.64    0.46
   2 -15   9    2.21    0.38
  -3  15  -9    0.22    0.31
   3 -15   9   -0.09    0.29
   3 -15   9   -0.12    0.20
   4 -15   9    0.93    0.27
   2  14  -9    2.37    0.54
  -2 -14   9    1.38    0.46
   1  14  -9    0.91    0.38
  -1 -14   9    0.62    0.33
   0  14  -9    1.99    0.45
   0 -14   9    2.29    0.38
   0 -14   9    1.81    0.48
  -1  14  -9    2.99    0.55
   1 -14   9    3.02    0.56
   1 -14   9    2.58    0.38
  -2  14  -9    0.53    0.30
   2 -14   9    0.78    0.27
   2 -14   9    0.43    0.32
  -3  14  -9    0.32    0.30
   3 -14   9    0.42    0.31
   3 -14   9    0.43    0.23
   4 -14   9    1.22    0.28
   5 -14   9   10.37    0.60
  -3 -13   9    3.99    0.71
   2  13  -9   -0.06    0.24
  -2 -13   9    0.21    0.30
   1  13  -9   -0.05    0.20
  -1 -13   9    0.21    0.28
   0  13  -9   -0.10    0.18
   0 -13   9    0.44    0.22
   0 -13   9   -0.02    0.25
  -1  13  -9    6.98    0.75
   1 -13   9    8.61    0.55
   1 -13   9    7.46    0.80
  -2  13  -9    0.57    0.31
   2 -13   9    0.88    0.25
   2 -13   9    0.58    0.31
  -3  13  -9    2.26    0.45
   3 -13   9    2.76    0.48
   3 -13   9    2.86    0.37
   4 -13   9    3.92    0.40
   5 -13   9    0.76    0.24
   4  12  -9    1.00    0.39
  -4 -12   9    1.45    0.49
  -3 -12   9    2.36    0.54
   2  12  -9    1.75    0.42
  -2 -12   9    2.08    0.48
   1  12  -9    0.18    0.21
  -1 -12   9    0.06    0.22
  -1 -12   9   -0.15    0.16
   0  12  -9    0.41    0.25
   0 -12   9    0.61    0.33
   0 -12   9    0.29    0.21
  -1  12  -9    0.09    0.21
   1 -12   9   -0.01    0.16
   1 -12   9    0.11    0.23
  -2  12  -9    3.51    0.52
   2 -12   9    3.69    0.54
   2 -12   9    3.09    0.36
  -3  12  -9    1.74    0.40
   3 -12   9    2.12    0.31
   3 -12   9    2.23    0.43
   4 -12   9    1.32    0.26
   5 -12   9    0.43    0.19
   4  11  -9    0.24    0.31
  -4 -11   9    0.81    0.41
  -3 -11   9    0.15    0.29
   2  11  -9    0.10    0.22
  -2 -11   9    0.67    0.30
   1  11  -9    6.55    0.72
  -1 -11   9    7.46    0.50
  -1 -11   9    6.20    0.72
   0  11  -9   41.10    1.63
   0 -11   9   40.33    1.65
  -1  11  -9    3.00    0.48
   1 -11   9    3.97    0.39
   1 -11   9    3.04    0.49
  -2  11  -9   -0.02    0.20
   2 -11   9    0.23    0.16
   2 -11   9    0.17    0.23
  -3  11  -9   16.71    0.91
   3 -11   9   17.22    0.93
   3 -11   9   16.29    0.71
   4 -11   9    0.16    0.16
   5 -11   9   -0.04    0.15
   6 -11   9    0.14    0.17
   4  10  -9   10.53    0.82
  -4 -10   9    8.96    0.92
   3  10  -9   10.36    0.77
  -3 -10   9    8.52    0.86
  -2 -10   9    0.70    0.33
   1  10  -9   16.99    0.97
  -1 -10   9   18.25    0.75
  -1 -10   9   15.44    0.96
   0  10  -9    2.85    0.47
   0 -10   9    2.21    0.31
   0 -10   9    2.67    0.45
  -1  10  -9   58.15    1.96
   1 -10   9   60.62    2.01
   1 -10   9   55.99    1.65
  -2  10  -9    2.68    0.41
   2 -10   9    4.20    0.35
   2 -10   9    3.37    0.47
   3 -10   9    1.62    0.35
   3 -10   9    2.80    0.32
   4 -10   9    0.27    0.16
   5 -10   9    1.72    0.25
   6 -10   9    0.06    0.15
   6   9  -9    7.95    0.60
   5   9  -9    5.64    0.72
  -5  -9   9    3.96    0.65
   4   9  -9    1.56    0.39
  -4  -9   9    1.22    0.40
   3   9  -9    2.73    0.46
  -3  -9   9    2.58    0.49
   2   9  -9   53.06    1.90
  -2  -9   9   55.74    1.59
  -2  -9   9   49.52    1.91
  -1  -9   9   14.84    0.91
  -1  -9   9   16.45    0.70
   0   9  -9   19.59    0.98
   0  -9   9   19.01    1.00
   0  -9   9   18.99    0.76
   1  -9   9    8.22    0.47
   1  -9   9    8.85    0.65
   2  -9   9    0.03    0.13
   2  -9   9    0.46    0.23
  -3   9  -9    8.41    0.58
   3  -9   9    8.23    0.45
   3  -9   9    7.66    0.57
   4  -9   9    9.26    0.47
   5  -9   9    1.23    0.22
   6  -9   9    0.18    0.15
   6   8  -9    4.48    0.50
   5   8  -9    0.31    0.27
  -5  -8   9    0.16    0.31
   4   8  -9   26.50    1.26
  -4  -8   9   23.10    1.23
   3   8  -9   11.37    0.78
  -3  -8   9   11.65    0.83
   2   8  -9    7.17    0.70
  -2  -8   9    7.06    0.72
  -2  -8   9    7.34    0.45
   1   8  -9    1.38    0.33
  -1  -8   9    1.36    0.33
  -1  -8   9    1.31    0.25
   0   8  -9   17.69    0.90
   0  -8   9   17.36    0.93
   0  -8   9   17.76    0.71
  -1   8  -9   18.38    0.89
   1  -8   9   18.21    0.71
   1  -8   9   17.34    0.90
  -2   8  -9    5.00    0.51
   2  -8   9    4.82    0.52
   2  -8   9    5.37    0.37
  -3   8  -9    7.10    0.52
   3  -8   9    6.18    0.38
   3  -8   9    7.55    0.54
   4  -8   9    6.48    0.38
   5  -8   9    0.06    0.14
   6  -8   9    0.21    0.13
   6   7  -9   -0.08    0.18
   5   7  -9    2.61    0.50
   5   7  -9    3.40    0.42
  -5  -7   9    2.21    0.51
   4   7  -9   -0.09    0.19
  -4  -7   9   -0.02    0.23
   3   7  -9    0.86    0.28
  -3  -7   9    1.72    0.40
   2   7  -9    0.27    0.20
  -2  -7   9   -0.04    0.18
  -2  -7   9    0.25    0.17
   1   7  -9   13.65    0.78
  -1  -7   9   14.15    0.61
  -1  -7   9   12.46    0.78
   0   7  -9  217.58    5.32
   0  -7   9  216.69    5.38
   0  -7   9  222.41    5.08
  -1   7  -9   19.56    0.91
   1  -7   9   19.36    0.93
   1  -7   9   20.00    0.74
  -2   7  -9    7.16    0.51
   2  -7   9    7.69    0.42
   2  -7   9    7.44    0.54
  -3   7  -9    2.05    0.32
   3  -7   9    2.15    0.26
   3  -7   9    2.48    0.36
   4  -7   9    5.34    0.34
   5  -7   9    1.33    0.20
   6  -7   9   -0.01    0.10
   6   6  -9    2.57    0.38
   5   6  -9    2.97    0.51
   5   6  -9    4.18    0.47
  -5  -6   9    2.75    0.51
   4   6  -9    1.88    0.31
   4   6  -9    0.51    0.25
  -4  -6   9    1.51    0.39
   3   6  -9   29.97    1.05
   3   6  -9   27.00    1.23
  -3  -6   9   29.32    1.30
   2   6  -9   49.54    1.75
  -2  -6   9   50.76    1.80
  -2  -6   9   52.30    1.47
   1   6  -9    6.89    0.43
   1   6  -9    7.29    0.55
  -1  -6   9    6.17    0.39
  -1  -6   9    6.76    0.56
   0   6  -9    3.28    0.32
   0   6  -9    3.89    0.46
   0  -6   9    3.35    0.33
   0  -6   9    2.27    0.37
  -1   6  -9   27.06    1.08
   1  -6   9   25.69    0.87
   1  -6   9   27.73    1.11
  -2   6  -9    3.49    0.42
   2  -6   9    3.73    0.29
   2  -6   9    3.96    0.45
  -3   6  -9    5.28    0.42
   3  -6   9    6.06    0.35
   3  -6   9    5.26    0.43
   4  -6   9   -0.06    0.11
   5  -6   9    0.30    0.13
   7   5  -9    0.10    0.20
   6   5  -9    3.98    0.46
   5   5  -9    4.44    0.46
   5   5  -9    2.70    0.48
  -5  -5   9    2.98    0.51
   4   5  -9   28.35    1.28
   4   5  -9   28.87    1.06
  -4  -5   9   29.49    1.33
   3   5  -9    5.00    0.42
   3   5  -9    5.31    0.61
  -3  -5   9    4.70    0.37
  -3  -5   9    5.84    0.66
   2   5  -9   13.72    0.62
   2   5  -9   14.69    0.82
  -2  -5   9   14.41    0.61
  -2  -5   9   14.05    0.83
   1   5  -9    7.86    0.44
   1   5  -9    9.15    0.61
  -1  -5   9    8.36    0.44
  -1  -5   9    8.32    0.61
   0   5  -9   25.25    0.83
   0   5  -9   21.82    0.98
   0  -5   9   23.28    1.03
   0  -5   9   24.32    0.82
  -1   5  -9   34.92    1.28
   1  -5   9   36.94    1.09
   1  -5   9   37.30    1.33
  -2   5  -9    4.00    0.43
   2  -5   9    3.73    0.29
   2  -5   9    4.38    0.46
   3  -5   9   20.36    0.70
   4  -5   9    0.80    0.16
   5  -5   9    0.18    0.12
   7   4  -9    0.58    0.25
   6   4  -9    2.04    0.34
   5   4  -9    6.20    0.69
   5   4  -9    6.36    0.48
  -5  -4   9    6.78    0.74
   4   4  -9    1.14    0.26
   4   4  -9    1.22    0.33
  -4  -4   9    1.63    0.38
   3   4  -9   43.97    1.66
   3   4  -9   48.61    1.45
  -3  -4   9   46.68    1.72
  -3  -4   9   49.35    1.39
   2   4  -9    2.36    0.40
   2   4  -9    2.63    0.31
  -2  -4   9    1.98    0.38
  -2  -4   9    2.57    0.30
   1   4  -9    3.21    0.43
   1   4  -9    2.53    0.29
  -1  -4   9    2.15    0.37
  -1  -4   9    3.32    0.32
   0   4  -9    0.61    0.23
   0   4  -9    0.65    0.16
   0  -4   9    0.83    0.26
   0  -4   9    0.65    0.17
  -1   4  -9   12.55    0.67
   1  -4   9   12.09    0.52
   1  -4   9   12.48    0.68
  -2   4  -9    0.65    0.20
   2  -4   9    0.76    0.22
   2  -4   9    0.71    0.17
   3  -4   9   -0.13    0.10
   4  -4   9    1.41    0.20
   5  -4   9    5.02    0.26
   7   3  -9   -0.02    0.17
   6   3  -9    2.37    0.37
   5   3  -9    9.11    0.56
   5   3  -9    8.98    0.69
  -5  -3   9    7.70    0.79
   4   3  -9    0.21    0.22
   4   3  -9   -0.21    0.11
  -4  -3   9    0.44    0.27
   3   3  -9    0.84    0.28
   3   3  -9    1.72    0.28
  -3  -3   9    1.60    0.26
  -3  -3   9    1.07    0.31
   2   3  -9    8.53    0.60
   2   3  -9    9.34    0.49
  -2  -3   9    8.94    0.47
  -2  -3   9    7.56    0.59
   1   3  -9    2.53    0.28
   1   3  -9    2.36    0.37
  -1  -3   9    2.23    0.38
  -1  -3   9    2.40    0.27
   0   3  -9    9.46    0.60
   0   3  -9    9.53    0.46
   0  -3   9   10.54    0.65
   0  -3   9   10.56    0.49
  -1   3  -9    1.33    0.27
   1  -3   9    1.57    0.22
   1  -3   9    1.81    0.32
  -2   3  -9   13.58    0.67
   2  -3   9   14.79    0.57
   2  -3   9   14.42    0.70
   3  -3   9    1.59    0.21
   4  -3   9    0.92    0.16
   7   2  -9    0.00    0.19
   6   2  -9   13.58    0.86
   6   2  -9   13.38    0.70
   5   2  -9    0.35    0.19
   5   2  -9    0.66    0.28
  -5  -2   9    0.28    0.27
   4   2  -9    1.63    0.35
   4   2  -9    2.18    0.31
  -4  -2   9    1.69    0.37
   3   2  -9   20.10    0.99
   3   2  -9   19.54    0.78
  -3  -2   9   20.51    1.03
  -3  -2   9   19.55    0.74
   2   2  -9    2.79    0.32
   2   2  -9    2.76    0.41
  -2  -2   9    2.70    0.30
  -2  -2   9    1.96    0.37
   1   2  -9    1.98    0.25
   1   2  -9    1.95    0.34
  -1  -2   9    2.29    0.41
  -1  -2   9    2.16    0.27
   0   2  -9    0.60    0.15
   0   2  -9    1.47    0.29
   0  -2   9    1.39    0.22
   0  -2   9    1.54    0.32
  -1   2  -9    8.11    0.54
   1  -2   9   10.07    0.60
   1  -2   9   10.09    0.46
  -2   2  -9    3.90    0.41
   2  -2   9    3.60    0.41
   2  -2   9    3.80    0.29
   3  -2   9    0.96    0.17
   4  -2   9    0.46    0.14
   7   1  -9    1.59    0.32
   6   1  -9   13.48    0.84
   6   1  -9   12.69    0.68
  -6  -1   9   12.45    0.86
   5   1  -9    1.18    0.32
   5   1  -9    1.32    0.27
  -5  -1   9    1.62    0.40
   4   1  -9    1.12    0.31
   4   1  -9    1.22    0.25
  -4  -1   9    1.49    0.36
   3   1  -9   11.77    0.59
   3   1  -9    9.71    0.69
  -3  -1   9   11.53    0.76
  -3  -1   9   11.92    0.54
   2   1  -9   41.25    1.53
   2   1  -9   42.97    1.29
  -2  -1   9   43.09    1.58
  -2  -1   9   43.60    1.27
   1   1  -9   -0.02    0.13
   1   1  -9    0.04    0.11
  -1  -1   9    0.27    0.15
  -1  -1   9    0.08    0.16
   0   1  -9    0.76    0.16
   0   1  -9    0.45    0.20
   0  -1   9    0.51    0.23
   0  -1   9    0.64    0.17
  -1   1  -9    0.25    0.17
   1  -1   9    0.38    0.14
   1  -1   9    0.06    0.17
  -2   1  -9    6.23    0.45
   2  -1   9    6.56    0.48
   2  -1   9    6.52    0.37
   3  -1   9    0.17    0.13
   7   0  -9    1.08    0.28
   6   0  -9    1.67    0.40
   6   0  -9    1.96    0.33
  -6   0   9    1.43    0.43
   5   0  -9    5.54    0.45
   5   0  -9    5.74    0.64
  -5   0   9    5.59    0.66
   4   0  -9    0.76    0.27
   4   0  -9    0.47    0.20
  -4   0   9    0.30    0.25
   3   0  -9   30.35    1.25
   3   0  -9   27.13    0.97
  -3   0   9   27.09    0.92
  -3   0   9   26.84    1.23
   2   0  -9    0.01    0.12
   2   0  -9   -0.21    0.11
  -2   0   9   -0.03    0.11
  -2   0   9    0.07    0.17
   1   0  -9   -0.10    0.12
   1   0  -9    0.10    0.12
  -1   0   9    0.00    0.12
  -1   0   9   -0.11    0.14
   0   0  -9   23.82    1.01
   0   0   9   23.50    1.04
   0   0   9   23.11    0.80
  -1   0  -9    0.83    0.24
   1   0   9    0.29    0.21
   1   0   9    0.52    0.16
  -2   0  -9    1.95    0.30
   2   0   9    2.18    0.25
   2   0   9    2.24    0.36
   7  -1  -9    0.18    0.21
   6  -1  -9    1.86    0.42
   6  -1  -9    1.38    0.30
  -6   1   9    0.99    0.40
   5  -1  -9    0.84    0.24
   5  -1  -9    0.65    0.28
  -5   1   9    0.98    0.35
   4  -1  -9    9.21    0.68
   4  -1  -9    9.29    0.55
  -4   1   9    9.84    0.73
   3  -1  -9   18.85    0.78
   3  -1  -9   18.47    0.97
  -3   1   9   20.61    1.06
  -3   1   9   19.26    0.74
   2  -1  -9    4.23    0.36
   2  -1  -9    4.70    0.54
  -2   1   9    4.39    0.33
  -2   1   9    3.48    0.50
   1  -1  -9    1.41    0.22
   1  -1  -9    1.81    0.33
  -1   1   9    1.28    0.22
  -1   1   9    1.55    0.34
   0  -1  -9    1.92    0.35
   0   1   9    2.17    0.39
   0   1   9    2.25    0.27
  -1  -1  -9   11.18    0.66
   1   1   9   12.77    0.55
   1   1   9   11.82    0.72
  -2  -1  -9    0.45    0.20
   2   1   9    0.27    0.20
   2   1   9    0.42    0.16
   7  -2  -9    4.68    0.50
   6  -2  -9    8.87    0.73
   6  -2  -9    8.94    0.57
  -6   2   9    8.05    0.86
   5  -2  -9    1.55    0.38
   5  -2  -9    1.17    0.27
  -5   2   9    0.93    0.34
   4  -2  -9    1.87    0.30
   4  -2  -9    2.35    0.43
  -4   2   9    1.45    0.40
   3  -2  -9   10.62    0.58
   3  -2  -9    9.53    0.70
  -3   2   9   11.68    0.55
  -3   2   9   10.68    0.77
   2  -2  -9    8.16    0.46
   2  -2  -9    5.96    0.61
  -2   2   9    7.03    0.43
  -2   2   9    7.34    0.73
   1  -2  -9    0.05    0.13
   1  -2  -9   -0.03    0.18
  -1   2   9   -0.16    0.19
  -1   2   9    0.34    0.17
   0  -2  -9    7.35    0.56
   0   2   9    8.42    0.46
   0   2   9    8.08    0.62
  -1  -2  -9   -0.01    0.16
   1   2   9    0.08    0.21
  -2  -2  -9    0.16    0.19
   2   2   9   -0.03    0.19
   7  -3  -9    0.11    0.21
   6  -3  -9    6.16    0.49
   6  -3  -9    6.04    0.69
  -6   3   9    7.11    0.80
   5  -3  -9    0.35    0.26
   5  -3  -9    0.39    0.21
  -5   3   9    0.89    0.35
   4  -3  -9    2.83    0.36
   4  -3  -9    2.15    0.43
  -4   3   9    3.24    0.56
   3  -3  -9    0.30    0.23
   3  -3  -9    0.64    0.22
  -3   3   9    1.10    0.33
   2  -3  -9   25.56    0.93
   2  -3  -9   27.32    1.21
  -2   3   9   25.80    1.25
   1  -3  -9    0.34    0.21
  -1   3   9    0.62    0.28
   0  -3  -9    2.14    0.38
   0   3   9    1.63    0.38
  -1  -3  -9   30.68    1.20
   1   3   9   31.69    1.30
  -2  -3  -9    0.09    0.20
   2   3   9   -0.07    0.21
   7  -4  -9    8.54    0.59
   6  -4  -9   -0.13    0.17
   6  -4  -9   -0.15    0.23
  -6   4   9    0.31    0.35
   5  -4  -9    0.57    0.23
   5  -4  -9    0.38    0.26
  -5   4   9    0.46    0.32
   4  -4  -9   -0.06    0.15
   4  -4  -9    0.05    0.21
  -4   4   9   -0.08    0.22
   3  -4  -9   -0.05    0.16
   3  -4  -9   -0.12    0.17
  -3   4   9    0.15    0.23
   2  -4  -9   13.85    0.86
   2  -4  -9   16.29    0.71
  -2   4   9   15.37    0.96
  -1   4   9   65.52    2.23
   0  -4  -9    0.20    0.22
   0   4   9    0.28    0.25
  -1  -4  -9    2.78    0.43
   1   4   9    3.17    0.49
   6  -5  -9    1.11    0.38
   6  -5  -9    1.04    0.29
  -6   5   9    1.09    0.43
   5  -5  -9    0.60    0.31
   5  -5  -9    0.35    0.23
  -5   5   9   -0.05    0.30
   4  -5  -9    0.01    0.21
   4  -5  -9   -0.06    0.18
  -4   5   9   -0.27    0.21
   3  -5  -9    6.72    0.50
   3  -5  -9    7.14    0.72
  -3   5   9    6.63    0.76
   2  -5  -9    2.27    0.42
   2  -5  -9    2.76    0.34
  -2   5   9    3.03    0.53
   1  -5  -9    0.12    0.19
  -1   5   9    0.25    0.24
   0  -5  -9    0.60    0.25
   0   5   9    0.31    0.25
  -1  -5  -9   21.50    1.03
   1   5   9   22.34    1.13
   6  -6  -9    3.88    0.47
   5  -6  -9   10.50    0.64
   5  -6  -9    7.38    0.80
  -5   6   9   10.28    1.02
   4  -6  -9   -0.11    0.18
   4  -6  -9   -0.21    0.21
  -4   6   9   -0.07    0.26
   3  -6  -9    0.02    0.23
   3  -6  -9   -0.01    0.18
  -3   6   9   -0.10    0.25
  -2   6   9    7.05    0.79
   1  -6  -9   21.91    1.11
  -1   6   9   22.83    1.22
   0  -6  -9    0.40    0.26
   0   6   9    0.22    0.28
  -1  -6  -9    0.50    0.29
   1   6   9    0.15    0.30
   6  -7  -9    3.02    0.43
   5  -7  -9    0.03    0.22
   4  -7  -9    3.96    0.47
   4  -7  -9    3.63    0.58
  -4   7   9    4.84    0.75
   3  -7  -9    0.01    0.21
   3  -7  -9   -0.06    0.19
  -3   7   9    0.42    0.32
   2  -7  -9   24.39    1.25
  -2   7   9   25.68    1.39
   1  -7  -9    0.96    0.34
  -1   7   9    0.47    0.34
   0  -7  -9   -0.04    0.23
   0   7   9   -0.16    0.26
  -1  -7  -9    0.52    0.29
   1   7   9    0.77    0.37
   5  -8  -9    0.03    0.23
   4  -8  -9    1.24    0.32
  -2   8   9   20.03    1.25
   1  -8  -9    0.21    0.25
  -1   8   9   -0.02    0.30
   0  -8  -9    0.30    0.29
   0   8   9    0.11    0.33
   1   8   9    1.80    0.46
   5  -9  -9    0.13    0.25
   1 -17  10    0.44    0.29
   2 -17  10    0.36    0.28
   3 -17  10    0.09    0.27
   1 -16  10    0.63    0.31
   2 -16  10    0.26    0.28
   3 -16  10    0.65    0.29
   0  15 -10    0.27    0.31
   0 -15  10    0.04    0.25
   0 -15  10    0.00    0.28
  -1  15 -10    2.22    0.50
   1 -15  10    2.16    0.52
   1 -15  10    2.89    0.45
  -2  15 -10    1.60    0.48
   2 -15  10    2.53    0.41
   2 -15  10    1.41    0.45
  -3  15 -10    0.80    0.41
   3 -15  10   -0.04    0.23
   3 -15  10    0.18    0.33
   4 -15  10    0.09    0.22
   2  14 -10    0.68    0.38
  -2 -14  10    0.87    0.44
   1  14 -10    1.10    0.39
  -1 -14  10    1.83    0.50
   0  14 -10    2.17    0.48
   0 -14  10    2.22    0.39
   0 -14  10    1.37    0.43
  -1  14 -10    0.62    0.33
   1 -14  10    1.13    0.31
   1 -14  10    0.89    0.36
  -2  14 -10    2.61    0.52
   2 -14  10    3.60    0.60
   2 -14  10    2.79    0.40
  -3  14 -10    5.75    0.71
   3 -14  10    7.00    0.78
   3 -14  10    6.28    0.51
   4 -14  10    0.29    0.22
   3  13 -10    2.12    0.49
  -3 -13  10    2.97    0.62
   2  13 -10    0.22    0.30
  -2 -13  10    0.50    0.35
   1  13 -10   -0.21    0.23
  -1 -13  10   -0.02    0.25
  -1 -13  10    0.25    0.23
   0  13 -10    0.95    0.36
   0 -13  10    0.42    0.32
   0 -13  10    0.76    0.27
  -1  13 -10    2.09    0.47
   1 -13  10    2.93    0.41
   1 -13  10    2.34    0.48
  -2  13 -10    4.26    0.61
   2 -13  10    4.15    0.62
   2 -13  10    5.92    0.47
  -3  13 -10    1.58    0.42
   3 -13  10    3.69    0.42
   3 -13  10    3.48    0.55
   4 -13  10   -0.23    0.16
   5 -13  10    1.28    0.26
   4  12 -10    0.18    0.30
  -4 -12  10    0.42    0.39
   3  12 -10    1.31    0.42
  -3 -12  10    1.35    0.47
  -2 -12  10    2.54    0.56
   1  12 -10    3.62    0.58
  -1 -12  10    4.05    0.44
  -1 -12  10    3.33    0.58
   0  12 -10    1.98    0.44
   0 -12  10    2.96    0.37
   0 -12  10    2.63    0.52
  -1  12 -10    3.10    0.52
   1 -12  10    3.42    0.41
   1 -12  10    3.17    0.54
  -2  12 -10    8.55    0.70
   2 -12  10    8.24    0.53
   2 -12  10    9.73    0.76
   3 -12  10    0.00    0.24
   3 -12  10    0.00    0.17
   4 -12  10    3.19    0.37
   5 -12  10    1.02    0.25
   4  11 -10    3.51    0.60
  -4 -11  10    3.93    0.66
   3  11 -10    5.60    0.71
  -3 -11  10    4.44    0.69
  -2 -11  10    1.82    0.47
  -1 -11  10    2.05    0.47
  -1 -11  10    2.29    0.34
   0  11 -10   -0.07    0.18
   0 -11  10    0.44    0.28
   0 -11  10    0.22    0.19
  -1  11 -10    0.24    0.24
   1 -11  10    0.55    0.21
   1 -11  10    0.13    0.21
   2 -11  10   16.42    0.73
   2 -11  10   16.24    0.95
  -3  11 -10    0.13    0.24
   3 -11  10    0.05    0.16
   3 -11  10    0.19    0.24
   4 -11  10    3.52    0.37
   5 -11  10    0.44    0.19
   5  10 -10    0.42    0.34
  -5 -10  10   -0.03    0.35
   4  10 -10    2.93    0.53
  -4 -10  10    3.77    0.66
   3  10 -10    1.58    0.41
  -3 -10  10    1.14    0.39
   2  10 -10    9.19    0.74
  -2 -10  10    8.35    0.87
  -2 -10  10   10.95    0.61
  -1 -10  10    2.33    0.35
  -1 -10  10    1.82    0.44
   0 -10  10    0.07    0.17
   0 -10  10   -0.08    0.20
   1 -10  10    0.80    0.23
   1 -10  10    0.93    0.32
  -2  10 -10    0.05    0.20
   2 -10  10   -0.20    0.17
   2 -10  10    0.05    0.16
  -3  10 -10    5.90    0.61
   3 -10  10    6.04    0.62
   3 -10  10    5.40    0.40
   4 -10  10    1.32    0.25
   5 -10  10    2.66    0.31
   6   9 -10   -0.23    0.20
   5   9 -10    3.58    0.59
  -5  -9  10    4.01    0.69
   4   9 -10   -0.12    0.22
  -4  -9  10   -0.17    0.29
   3   9 -10   12.65    0.87
  -3  -9  10   12.84    0.91
   2   9 -10    6.20    0.69
  -2  -9  10    6.25    0.71
  -2  -9  10    5.99    0.46
   1   9 -10    0.65    0.25
  -1  -9  10    0.57    0.26
  -1  -9  10    0.51    0.21
   0   9 -10    2.02    0.39
   0  -9  10    1.56    0.36
   0  -9  10    1.58    0.27
  -1   9 -10    4.85    0.55
   1  -9  10    4.91    0.39
   1  -9  10    5.26    0.60
  -2   9 -10   24.43    1.08
   2  -9  10   21.50    1.05
   2  -9  10   22.15    0.84
  -3   9 -10   14.72    0.79
   3  -9  10   12.31    0.60
   3  -9  10   13.63    0.78
   4  -9  10   10.14    0.51
   5  -9  10    0.09    0.16
   6   8 -10    0.21    0.23
   5   8 -10    4.54    0.51
   5   8 -10    4.54    0.66
  -5  -8  10    2.91    0.59
   4   8 -10    0.38    0.26
  -4  -8  10    0.53    0.34
   3   8 -10    3.08    0.51
  -3  -8  10    2.32    0.47
   2   8 -10    0.56    0.26
  -2  -8  10    0.30    0.21
  -2  -8  10    0.37    0.27
   1   8 -10    1.83    0.36
  -1  -8  10    3.13    0.37
  -1  -8  10    1.85    0.39
   0   8 -10    3.00    0.47
   0  -8  10    3.33    0.51
   0  -8  10    2.93    0.34
  -1   8 -10   74.87    2.27
   1  -8  10   75.76    2.32
   1  -8  10   70.82    1.98
  -2   8 -10    5.49    0.58
   2  -8  10    6.67    0.42
   2  -8  10    6.72    0.64
  -3   8 -10   16.68    0.85
   3  -8  10   19.66    0.91
   3  -8  10   17.29    0.70
   4  -8  10    2.24    0.28
   5  -8  10    3.80    0.31
   6   7 -10   -0.05    0.21
   5   7 -10    7.51    0.56
   5   7 -10    6.64    0.77
  -5  -7  10    8.39    0.90
   4   7 -10    1.80    0.42
   4   7 -10    2.19    0.36
  -4  -7  10    1.47    0.42
   3   7 -10   15.39    0.74
   3   7 -10   13.12    0.87
  -3  -7  10   13.51    0.91
   2   7 -10   28.62    1.28
  -2  -7  10   28.93    1.01
  -2  -7  10   29.26    1.34
   1   7 -10   39.03    1.53
   1   7 -10   41.03    1.28
  -1  -7  10   40.65    1.59
  -1  -7  10   42.05    1.28
   0   7 -10    0.58    0.17
   0   7 -10    0.38    0.20
   0  -7  10    0.03    0.19
   0  -7  10    0.38    0.19
  -1   7 -10   23.32    1.04
   1  -7  10   23.37    0.85
   1  -7  10   23.26    1.07
  -2   7 -10   20.56    0.95
   2  -7  10   20.47    0.97
   2  -7  10   20.64    0.77
   3  -7  10    7.14    0.41
   4  -7  10    1.31    0.22
   5  -7  10    1.83    0.24
   6   6 -10    6.68    0.54
   5   6 -10   -0.28    0.14
   5   6 -10    0.14    0.25
  -5  -6  10    0.06    0.31
   4   6 -10    0.15    0.23
   4   6 -10   -0.23    0.13
  -4  -6  10   -0.07    0.24
   3   6 -10   26.45    0.99
   3   6 -10   23.45    1.17
  -3  -6  10   24.04    1.22
   2   6 -10   18.91    1.01
   2   6 -10   20.60    0.81
  -2  -6  10   19.05    1.04
  -2  -6  10   18.14    0.75
   1   6 -10  102.20    2.61
   1   6 -10  102.89    2.92
  -1  -6  10   97.53    2.94
  -1  -6  10  103.01    2.60
   0   6 -10    4.60    0.53
   0   6 -10    6.18    0.41
   0  -6  10    4.24    0.53
   0  -6  10    5.93    0.41
  -1   6 -10   22.89    1.03
   1  -6  10   23.05    1.05
   1  -6  10   23.42    0.84
  -2   6 -10    1.93    0.33
   2  -6  10    1.77    0.34
   2  -6  10    1.32    0.22
   3  -6  10    1.04    0.21
   4  -6  10    4.43    0.32
   5  -6  10    0.14    0.13
   7   5 -10   -0.17    0.18
   6   5 -10    0.82    0.25
   5   5 -10    0.00    0.23
   5   5 -10   -0.04    0.16
  -5  -5  10    0.01    0.27
   4   5 -10    3.60    0.43
   4   5 -10    3.11    0.50
  -4  -5  10    2.67    0.51
   3   5 -10    0.08    0.16
   3   5 -10   -0.19    0.14
  -3  -5  10    0.00    0.18
  -3  -5  10    0.10    0.17
   2   5 -10   51.87    1.81
   2   5 -10   49.55    1.50
  -2  -5  10   48.91    1.82
  -2  -5  10   50.21    1.47
   1   5 -10   63.10    1.77
   1   5 -10   65.20    2.08
  -1  -5  10   64.02    1.77
  -1  -5  10   64.00    2.11
   0   5 -10   21.11    0.78
   0   5 -10   18.89    0.96
   0  -5  10   21.94    0.80
   0  -5  10   22.70    1.05
  -1   5 -10    5.52    0.56
   1  -5  10    5.16    0.37
   1  -5  10    5.74    0.58
  -2   5 -10   13.35    0.71
   2  -5  10   13.24    0.57
   2  -5  10   12.77    0.72
   3  -5  10    2.32    0.27
   4  -5  10    0.09    0.14
   5  -5  10    2.82    0.25
   7   4 -10    0.09    0.19
   6   4 -10    1.93    0.36
   5   4 -10    8.89    0.74
   5   4 -10   10.27    0.61
  -5  -4  10    8.41    0.84
   4   4 -10    0.81    0.30
   4   4 -10    1.22    0.27
  -4  -4  10    0.99    0.32
   3   4 -10   38.26    1.24
   3   4 -10   34.99    1.45
  -3  -4  10   36.81    1.17
  -3  -4  10   32.30    1.45
   2   4 -10   20.21    0.81
   2   4 -10   20.76    1.03
  -2  -4  10   19.51    0.78
  -2  -4  10   20.86    1.06
   1   4 -10    7.37    0.59
   1   4 -10    6.63    0.43
  -1  -4  10    6.74    0.43
  -1  -4  10    7.66    0.73
   0   4 -10   12.83    0.75
   0   4 -10   11.55    0.54
   0  -4  10   12.84    0.57
   0  -4  10   12.12    0.75
  -1   4 -10    3.54    0.44
   1  -4  10    4.34    0.50
   1  -4  10    3.64    0.34
  -2   4 -10    5.54    0.52
   2  -4  10    4.55    0.33
   2  -4  10    4.08    0.48
   3  -4  10    3.41    0.29
   4  -4  10    4.73    0.31
   7   3 -10    1.69    0.34
   6   3 -10    0.08    0.25
   6   3 -10   -0.16    0.17
   5   3 -10    0.81    0.25
   5   3 -10    1.04    0.34
  -5  -3  10    0.47    0.32
   4   3 -10   -0.05    0.17
   4   3 -10   -0.02    0.14
  -4  -3  10    0.28    0.26
   3   3 -10    0.53    0.21
   3   3 -10    0.33    0.21
  -3  -3  10    0.42    0.25
  -3  -3  10    0.39    0.19
   2   3 -10   18.87    0.98
   2   3 -10   20.54    0.80
  -2  -3  10   19.58    1.02
  -2  -3  10   19.99    0.78
   1   3 -10    2.91    0.42
   1   3 -10    2.67    0.31
  -1  -3  10    2.93    0.32
  -1  -3  10    3.09    0.46
   0   3 -10    0.53    0.21
   0   3 -10    0.68    0.17
   0  -3  10    0.79    0.27
   0  -3  10    0.56    0.17
  -1   3 -10    1.99    0.34
   1  -3  10    1.31    0.31
   1  -3  10    1.64    0.25
  -2   3 -10   27.11    1.05
   2  -3  10   28.81    1.10
   2  -3  10   26.59    0.90
   3  -3  10    0.09    0.14
   4  -3  10    0.32    0.14
   7   2 -10    0.41    0.24
   6   2 -10    2.02    0.35
   6   2 -10    2.05    0.45
  -6  -2  10    2.10    0.50
   5   2 -10    3.70    0.56
   5   2 -10    3.89    0.45
  -5  -2  10    4.50    0.64
   4   2 -10   17.90    0.80
   4   2 -10   17.48    0.99
  -4  -2  10   17.65    1.02
   3   2 -10    2.56    0.34
   3   2 -10    2.37    0.42
  -3  -2  10    1.67    0.38
  -3  -2  10    1.74    0.27
   2   2 -10   33.09    1.08
   2   2 -10   28.81    1.28
  -2  -2  10   30.86    1.34
  -2  -2  10   32.71    1.06
   1   2 -10    5.82    0.59
   1   2 -10    7.79    0.45
  -1  -2  10    6.49    0.66
  -1  -2  10    7.37    0.44
   0   2 -10    2.23    0.38
   0  -2  10    2.35    0.29
   0  -2  10    2.78    0.43
  -1   2 -10   21.55    0.95
   1  -2  10   20.36    0.76
   1  -2  10   21.19    0.98
  -2   2 -10    3.88    0.44
   2  -2  10    3.82    0.30
   2  -2  10    3.98    0.47
   3  -2  10    3.00    0.29
   4  -2  10    0.07    0.13
   7   1 -10    0.06    0.20
   6   1 -10   -0.08    0.17
   6   1 -10    0.23    0.27
  -6  -1  10    0.32    0.33
   5   1 -10    2.72    0.47
   5   1 -10    2.74    0.38
  -5  -1  10    2.88    0.52
   4   1 -10    3.11    0.51
   4   1 -10    2.42    0.35
  -4  -1  10    3.15    0.52
   3   1 -10    2.36    0.32
   3   1 -10    3.12    0.48
  -3  -1  10    2.45    0.32
  -3  -1  10    2.50    0.47
   2   1 -10    2.08    0.29
   2   1 -10    2.61    0.43
  -2  -1  10    2.35    0.31
  -2  -1  10    2.18    0.42
   1   1 -10    2.68    0.41
   1   1 -10    2.53    0.30
  -1  -1  10    1.83    0.36
  -1  -1  10    2.48    0.30
   0   1 -10    5.62    0.59
   0  -1  10    6.10    0.64
   0  -1  10    6.52    0.41
  -1   1 -10    7.43    0.54
   1  -1  10    7.94    0.44
   1  -1  10    7.36    0.57
  -2   1 -10    4.67    0.47
   2  -1  10    4.18    0.48
   2  -1  10    3.96    0.32
   3  -1  10    3.68    0.30
   7   0 -10   11.32    0.68
   6   0 -10    0.63    0.31
   6   0 -10    0.64    0.26
  -6   0  10    0.66    0.37
   5   0 -10    0.17    0.20
   5   0 -10    0.28    0.24
  -5   0  10    0.02    0.23
   4   0 -10   11.68    0.80
   4   0 -10   13.02    0.66
  -4   0  10   12.40    0.86
   3   0 -10    1.65    0.28
   3   0 -10    1.29    0.35
  -3   0  10    2.40    0.46
  -3   0  10    1.84    0.28
   2   0 -10   20.18    0.80
   2   0 -10   18.51    0.98
  -2   0  10   19.39    1.04
  -2   0  10   19.16    0.76
   1   0 -10    1.02    0.30
   1   0 -10    0.82    0.20
  -1   0  10    0.61    0.28
  -1   0  10    0.63    0.20
   0   0 -10    2.02    0.38
   0   0  10    1.71    0.26
   0   0  10    1.96    0.38
  -1   0 -10   16.39    0.84
   1   0  10   17.35    0.69
   1   0  10   17.91    0.92
  -2   0 -10    0.27    0.20
   2   0  10    0.21    0.15
   2   0  10    0.46    0.24
   7  -1 -10   10.54    0.67
   6  -1 -10    2.75    0.40
   6  -1 -10    1.93    0.46
  -6   1  10    2.93    0.56
   5  -1 -10    0.21    0.24
   5  -1 -10    0.39    0.21
  -5   1  10    0.07    0.26
   4  -1 -10    3.78    0.43
   4  -1 -10    2.83    0.48
  -4   1  10    2.98    0.52
   3  -1 -10    4.23    0.43
   3  -1 -10    4.55    0.57
  -3   1  10    5.23    0.64
  -3   1  10    4.72    0.43
   2  -1 -10   11.77    0.77
   2  -1 -10   10.84    0.57
  -2   1  10   11.91    0.57
  -2   1  10   12.21    0.83
   1  -1 -10    9.97    0.69
   1  -1 -10   10.70    0.53
  -1   1  10    9.75    0.73
  -1   1  10   11.06    0.56
   0  -1 -10    3.03    0.43
   0   1  10    2.40    0.42
   0   1  10    3.27    0.35
  -1  -1 -10    9.06    0.62
   1   1  10    9.40    0.50
   1   1  10    8.47    0.65
  -2  -1 -10    0.64    0.23
   2   1  10    0.40    0.24
   7  -2 -10    4.59    0.51
   6  -2 -10    0.24    0.30
   6  -2 -10    0.39    0.23
  -6   2  10    0.75    0.40
   5  -2 -10    0.21    0.19
   5  -2 -10   -0.03    0.22
  -5   2  10    0.03    0.31
   4  -2 -10    2.98    0.38
   4  -2 -10    2.90    0.49
  -4   2  10    3.03    0.53
   3  -2 -10    0.26    0.20
   3  -2 -10    0.06    0.21
  -3   2  10    0.28    0.20
  -3   2  10    0.39    0.29
   2  -2 -10   22.38    0.85
   2  -2 -10   20.34    1.06
  -2   2  10   21.86    0.84
  -2   2  10   18.35    1.07
   1  -2 -10    1.01    0.30
  -1   2  10    1.38    0.28
  -1   2  10    0.76    0.30
   0  -2 -10   11.44    0.73
   0   2  10   11.32    0.56
   0   2  10    9.14    0.72
  -1  -2 -10    3.13    0.43
   1   2  10    3.43    0.50
   6  -3 -10    0.08    0.26
   6  -3 -10    0.28    0.22
  -6   3  10   -0.21    0.31
   5  -3 -10   -0.17    0.22
   5  -3 -10   -0.12    0.16
  -5   3  10    0.02    0.28
   4  -3 -10    2.55    0.47
   4  -3 -10    2.25    0.35
  -4   3  10    1.51    0.43
   3  -3 -10    3.97    0.42
   3  -3 -10    5.62    0.66
  -3   3  10    5.12    0.69
   2  -3 -10    3.38    0.40
   2  -3 -10    3.42    0.52
  -2   3  10    3.34    0.57
   1  -3 -10   14.96    0.90
  -1   3  10   17.33    1.03
   0   3  10    8.49    0.68
  -1  -3 -10   13.03    0.77
   1   3  10   13.49    0.84
   6  -4 -10    0.01    0.22
   5  -4 -10    0.02    0.20
   5  -4 -10   -0.12    0.23
  -5   4  10   -0.05    0.28
   4  -4 -10    0.66    0.33
   4  -4 -10    0.15    0.20
  -4   4  10    0.52    0.34
   3  -4 -10    0.11    0.22
   3  -4 -10   -0.07    0.20
  -3   4  10    0.40    0.31
   2  -4 -10    8.49    0.69
  -2   4  10    7.05    0.79
   1  -4 -10   -0.03    0.19
  -1   4  10   -0.09    0.24
   0  -4 -10    4.13    0.54
   0   4  10    3.80    0.59
  -1  -4 -10   12.88    0.80
   1   4  10   12.23    0.86
   6  -5 -10    0.45    0.26
   5  -5 -10    0.35    0.31
   5  -5 -10    1.00    0.30
  -5   5  10    0.30    0.38
   4  -5 -10    3.71    0.58
   4  -5 -10    4.48    0.48
  -4   5  10    3.92    0.64
   3  -5 -10    4.45    0.47
   3  -5 -10    4.69    0.62
  -3   5  10    5.07    0.72
   2  -5 -10    0.09    0.23
  -2   5  10   -0.07    0.27
   1  -5 -10    0.08    0.24
  -1   5  10    0.00    0.25
   0  -5 -10    6.54    0.70
   0   5  10    7.43    0.80
   1   5  10    3.34    0.56
   6  -6 -10    0.49    0.28
   5  -6 -10    0.23    0.23
   4  -6 -10    0.00    0.21
   4  -6 -10    0.26    0.30
  -4   6  10    0.31    0.36
   3  -6 -10   -0.23    0.20
  -3   6  10   -0.01    0.25
   2  -6 -10    9.06    0.88
  -2   6  10    7.54    0.88
   1  -6 -10    2.90    0.51
  -1   6  10    2.95    0.59
   0  -6 -10    0.94    0.33
   0   6  10    0.49    0.33
  -1  -6 -10    8.11    0.79
   1   6  10    7.37    0.82
   5  -7 -10    0.01    0.24
   4  -7 -10    3.02    0.45
   2  -7 -10    0.39    0.28
  -2   7  10    0.36    0.34
   1  -7 -10    3.88    0.58
  -1   7  10    2.40    0.55
   0  -7 -10    0.39    0.32
   0   7  10    0.37    0.37
   5  -8 -10    0.78    0.33
   1 -17  11    0.29    0.34
   1 -16  11    0.07    0.25
   2 -16  11    0.38    0.32
   3 -16  11    0.06    0.26
   0 -15  11    4.62    0.56
  -1  15 -11    0.54    0.34
   1 -15  11    0.47    0.37
   1 -15  11   -0.12    0.26
  -2  15 -11    0.30    0.34
   2 -15  11    0.19    0.35
   2 -15  11    0.40    0.27
   3 -15  11   -0.18    0.21
   4 -15  11    0.24    0.24
   1  14 -11    0.07    0.27
  -1 -14  11    0.03    0.31
   0  14 -11    0.65    0.34
   0 -14  11    0.19    0.26
   0 -14  11    0.60    0.37
  -1  14 -11    2.56    0.55
   1 -14  11    3.14    0.45
   1 -14  11    2.45    0.56
  -2  14 -11    4.98    0.70
   2 -14  11    7.21    0.85
   2 -14  11    4.63    0.51
   3 -14  11   -0.08    0.20
   4 -14  11   -0.05    0.20
  -2 -13  11    6.95    0.90
  -1 -13  11    0.47    0.26
  -1 -13  11    0.64    0.35
   0  13 -11    1.04    0.38
   0 -13  11    0.96    0.43
   0 -13  11    1.45    0.34
  -1  13 -11    0.31    0.28
   1 -13  11    0.60    0.25
   1 -13  11    0.52    0.32
   2 -13  11    0.61    0.23
   2 -13  11    0.15    0.30
   3 -13  11   -0.31    0.16
   4 -13  11    0.18    0.19
   3  12 -11    0.69    0.35
  -3 -12  11    0.74    0.41
   2  12 -11    0.18    0.27
  -2 -12  11    0.35    0.31
  -1 -12  11    0.24    0.30
  -1 -12  11    0.70    0.27
   0 -12  11    0.33    0.23
   0 -12  11    0.55    0.32
   1 -12  11    2.15    0.48
   1 -12  11    3.15    0.41
   2 -12  11    1.50    0.31
   2 -12  11    1.69    0.43
   3 -12  11    1.96    0.32
   4 -12  11    0.00    0.17
   5 -12  11    0.17    0.19
   4  11 -11    0.63    0.35
  -4 -11  11    0.12    0.36
   3  11 -11    2.09    0.50
  -3 -11  11    2.30    0.54
   2  11 -11    2.21    0.46
  -2 -11  11    1.67    0.45
   1  11 -11    1.23    0.37
  -1 -11  11    0.64    0.33
  -1 -11  11    1.23    0.31
   0  11 -11    4.89    0.65
   0 -11  11    4.22    0.45
   0 -11  11    3.78    0.61
  -1  11 -11    2.27    0.43
   1 -11  11    3.11    0.51
   1 -11  11    4.04    0.43
  -2  11 -11    3.93    0.55
   2 -11  11    4.22    0.43
   2 -11  11    3.13    0.51
   3 -11  11    0.64    0.23
   4 -11  11    0.52    0.22
   5 -11  11    0.05    0.16
   5  10 -11    0.53    0.36
   5  10 -11    0.58    0.28
  -5 -10  11    0.58    0.45
   4  10 -11    0.59    0.34
  -4 -10  11    0.25    0.33
   3  10 -11    1.05    0.36
  -3 -10  11    1.27    0.42
   2  10 -11    7.73    0.81
  -2 -10  11    8.65    0.57
  -2 -10  11    7.47    0.84
   1  10 -11    0.20    0.23
  -1 -10  11    0.61    0.24
  -1 -10  11    0.54    0.31
   0  10 -11    0.25    0.22
   0 -10  11    0.18    0.23
   0 -10  11    0.30    0.21
  -1  10 -11    9.40    0.71
   1 -10  11    9.41    0.74
   1 -10  11    9.43    0.56
  -2  10 -11    0.70    0.29
   2 -10  11    0.56    0.21
   2 -10  11    0.44    0.26
   3 -10  11    1.34    0.27
   4 -10  11    1.25    0.25
   5 -10  11    0.04    0.17
   6   9 -11    0.00    0.23
   5   9 -11    0.45    0.32
   5   9 -11    0.76    0.29
  -5  -9  11    0.68    0.43
   4   9 -11    0.69    0.33
  -4  -9  11    0.46    0.35
   3   9 -11    6.09    0.71
  -3  -9  11    4.68    0.68
   2   9 -11    0.16    0.21
  -2  -9  11   -0.02    0.21
  -2  -9  11    0.03    0.19
   1   9 -11    4.86    0.61
  -1  -9  11    4.62    0.62
  -1  -9  11    6.34    0.47
   0   9 -11    4.17    0.56
   0  -9  11    3.67    0.55
   0  -9  11    4.53    0.45
  -1   9 -11   18.54    0.99
   1  -9  11   18.84    0.79
   1  -9  11   16.95    0.98
  -2   9 -11    1.49    0.35
   2  -9  11    2.24    0.31
   2  -9  11    1.61    0.38
   3  -9  11    8.61    0.50
   4  -9  11    2.76    0.33
   5  -9  11    0.63    0.20
   6   8 -11    0.70    0.28
   5   8 -11    4.11    0.51
   5   8 -11    3.07    0.60
  -5  -8  11    4.09    0.70
   4   8 -11    0.12    0.19
   4   8 -11   -0.01    0.24
  -4  -8  11    0.22    0.30
   3   8 -11    3.00    0.39
   3   8 -11    2.87    0.52
  -3  -8  11    1.79    0.44
   2   8 -11   15.96    0.96
   2   8 -11   15.33    0.76
  -2  -8  11   16.89    0.76
  -2  -8  11   14.28    0.95
   1   8 -11   11.36    0.79
   1   8 -11   12.00    0.64
  -1  -8  11   11.22    0.60
  -1  -8  11   10.55    0.79
   0   8 -11    2.52    0.45
   0  -8  11    3.44    0.39
   0  -8  11    2.55    0.47
  -1   8 -11   21.65    1.06
   1  -8  11   21.02    1.07
   1  -8  11   21.56    0.85
  -2   8 -11    0.15    0.22
   2  -8  11    0.40    0.18
   2  -8  11    0.06    0.21
   3  -8  11    2.70    0.32
   4  -8  11    2.00    0.28
   5  -8  11    0.07    0.15
   6   7 -11    0.03    0.21
   5   7 -11    3.32    0.59
   5   7 -11    3.62    0.47
  -5  -7  11    3.25    0.61
   4   7 -11    6.00    0.73
   4   7 -11    6.93    0.53
  -4  -7  11    6.01    0.78
   3   7 -11    8.50    0.56
   3   7 -11    9.12    0.87
  -3  -7  11    6.98    0.79
   2   7 -11    4.59    0.46
   2   7 -11    2.91    0.49
  -2  -7  11    5.15    0.48
  -2  -7  11    4.65    0.62
   1   7 -11    2.63    0.45
   1   7 -11    3.04    0.36
  -1  -7  11    3.19    0.37
  -1  -7  11    3.20    0.51
   0   7 -11  130.92    3.60
   0  -7  11  131.04    3.26
   0  -7  11  130.04    3.64
  -1   7 -11    7.50    0.61
   1  -7  11    7.52    0.62
   1  -7  11    7.59    0.47
  -2   7 -11    0.37    0.24
   2  -7  11    0.35    0.25
   2  -7  11    0.26    0.16
   3  -7  11    0.86    0.22
   4  -7  11    2.86    0.31
   5  -7  11    3.67    0.31
   6   6 -11    0.51    0.28
   5   6 -11    3.53    0.46
   5   6 -11    2.95    0.55
  -5  -6  11    2.74    0.59
   4   6 -11    6.35    0.75
   4   6 -11    5.84    0.48
  -4  -6  11    5.81    0.74
   3   6 -11    0.18    0.19
   3   6 -11    0.41    0.25
  -3  -6  11    0.10    0.22
   2   6 -11   22.87    1.16
   2   6 -11   23.35    0.93
  -2  -6  11   24.72    0.91
  -2  -6  11   21.93    1.17
   1   6 -11    4.84    0.59
   1   6 -11    5.30    0.41
  -1  -6  11    5.24    0.42
  -1  -6  11    5.74    0.66
   0   6 -11   19.19    1.02
   0  -6  11   21.65    0.84
   0  -6  11   21.60    1.09
  -1   6 -11    8.19    0.62
   1  -6  11    8.31    0.49
   1  -6  11    8.22    0.65
  -2   6 -11    0.52    0.25
   2  -6  11   -0.07    0.14
   2  -6  11    0.23    0.21
   3  -6  11    4.98    0.36
   4  -6  11    5.52    0.37
   5  -6  11    1.59    0.22
   6   5 -11    0.15    0.22
   5   5 -11   13.15    0.72
   5   5 -11   11.29    0.87
   4   5 -11   30.77    1.43
   4   5 -11   33.42    1.21
  -4  -5  11   29.47    1.45
   3   5 -11    5.16    0.64
   3   5 -11    5.54    0.47
  -3  -5  11    6.64    0.73
   2   5 -11   17.03    0.75
   2   5 -11   14.48    0.90
  -2  -5  11   13.87    0.91
  -2  -5  11   16.70    0.73
   1   5 -11    3.09    0.47
   1   5 -11    1.99    0.29
  -1  -5  11    2.45    0.44
  -1  -5  11    2.61    0.34
   0   5 -11   37.05    1.46
   0  -5  11   37.14    1.49
   0  -5  11   37.47    1.20
  -1   5 -11   49.56    1.72
   1  -5  11   48.66    1.74
   1  -5  11   52.36    1.49
  -2   5 -11   22.95    1.01
   2  -5  11   23.40    0.84
   2  -5  11   21.60    1.01
   3  -5  11    0.26    0.17
   4  -5  11    0.86    0.20
   5  -5  11    4.05    0.28
   6   4 -11    0.12    0.22
   6   4 -11    0.30    0.30
  -6  -4  11    0.36    0.37
   5   4 -11    1.99    0.47
   5   4 -11    2.96    0.43
  -5  -4  11    2.32    0.52
   4   4 -11    0.08    0.18
   4   4 -11   -0.12    0.19
  -4  -4  11   -0.08    0.25
   3   4 -11    8.48    0.69
   3   4 -11    8.79    0.55
  -3  -4  11    8.63    0.52
  -3  -4  11    6.16    0.72
   2   4 -11    4.85    0.62
   2   4 -11    5.29    0.41
  -2  -4  11    4.68    0.62
  -2  -4  11    3.88    0.40
   1   4 -11   27.60    1.23
   1   4 -11   27.95    0.98
  -1  -4  11   26.48    1.24
  -1  -4  11   27.68    0.98
   0   4 -11   -0.08    0.15
   0  -4  11    0.09    0.21
   0  -4  11   -0.20    0.15
  -1   4 -11   17.62    0.90
   1  -4  11   17.48    0.92
   1  -4  11   17.97    0.72
  -2   4 -11    6.71    0.53
   2  -4  11    6.53    0.53
   2  -4  11    6.67    0.42
   3  -4  11   20.40    0.76
   4  -4  11    3.49    0.29
   7   3 -11    0.00    0.21
   6   3 -11    4.13    0.62
   6   3 -11    3.94    0.49
  -6  -3  11    3.14    0.61
   5   3 -11    0.17    0.19
   5   3 -11    0.02    0.24
  -5  -3  11    0.16    0.29
   4   3 -11    0.21    0.24
   4   3 -11    0.10    0.19
  -4  -3  11   -0.15    0.25
   3   3 -11   76.36    2.50
   3   3 -11   78.96    2.17
  -3  -3  11   79.25    2.11
  -3  -3  11   71.88    2.50
   2   3 -11   11.16    0.77
   2   3 -11   11.36    0.59
  -2  -3  11   12.57    0.61
  -2  -3  11   10.57    0.78
   1   3 -11    6.31    0.43
   1   3 -11    5.57    0.61
  -1  -3  11    5.12    0.41
  -1  -3  11    5.94    0.66
   0   3 -11   25.54    1.15
   0  -3  11   26.92    0.94
   0  -3  11   24.65    1.17
  -1   3 -11    0.95    0.28
   1  -3  11    0.87    0.21
   1  -3  11    0.79    0.29
  -2   3 -11    0.30    0.22
   2  -3  11    0.94    0.29
   2  -3  11    0.54    0.18
   3  -3  11    0.42    0.18
   4  -3  11    2.73    0.28
   7   2 -11    0.11    0.23
   6   2 -11    1.16    0.40
   6   2 -11    1.09    0.30
  -6  -2  11    0.58    0.37
   5   2 -11    1.66    0.42
   5   2 -11    1.50    0.31
  -5  -2  11    1.34    0.41
   4   2 -11    5.55    0.53
   4   2 -11    5.20    0.67
  -4  -2  11    4.99    0.68
   3   2 -11    0.58    0.28
   3   2 -11    1.19    0.26
  -3  -2  11    0.32    0.30
  -3  -2  11    0.74    0.22
   2   2 -11   -0.16    0.12
   2   2 -11   -0.04    0.17
  -2  -2  11   -0.02    0.15
  -2  -2  11   -0.05    0.21
   1   2 -11    1.35    0.25
   1   2 -11    1.75    0.37
  -1  -2  11    1.87    0.30
  -1  -2  11    1.64    0.38
   0   2 -11    2.11    0.40
   0  -2  11    2.04    0.40
   0  -2  11    2.42    0.31
  -1   2 -11    0.55    0.25
   1  -2  11    0.57    0.25
   1  -2  11    0.55    0.19
  -2   2 -11    4.50    0.50
   2  -2  11    4.76    0.55
   2  -2  11    4.98    0.37
   3  -2  11    6.49    0.40
   7   1 -11    0.51    0.27
   6   1 -11    0.05    0.20
   6   1 -11    0.15    0.26
  -6  -1  11    0.07    0.33
   5   1 -11    0.57    0.33
   5   1 -11    1.35    0.30
  -5  -1  11    1.18    0.40
   4   1 -11   14.05    0.92
   4   1 -11   12.38    0.68
  -4  -1  11   12.05    0.89
   3   1 -11   28.73    1.05
   3   1 -11   24.31    1.23
  -3  -1  11   27.88    0.98
  -3  -1  11   26.88    1.32
   2   1 -11    1.88    0.38
   2   1 -11    2.26    0.32
  -2  -1  11    2.54    0.34
  -2  -1  11    1.60    0.38
   1   1 -11   10.04    0.72
  -1  -1  11   10.32    0.56
  -1  -1  11   10.67    0.77
   0   1 -11   12.38    0.77
   0  -1  11   12.75    0.81
   0  -1  11   12.38    0.59
  -1   1 -11    1.72    0.36
   1  -1  11    1.52    0.26
   1  -1  11    2.38    0.42
  -2   1 -11    0.19    0.20
   2  -1  11    0.22    0.24
   2  -1  11    0.55    0.18
   3  -1  11    6.69    0.42
   7   0 -11    0.43    0.26
   6   0 -11    0.72    0.27
   6   0 -11    0.59    0.35
  -6   0  11   -0.03    0.33
   5   0 -11    9.33    0.61
   5   0 -11   10.09    0.78
  -5   0  11    6.79    0.81
   4   0 -11    0.06    0.22
   4   0 -11   -0.01    0.18
  -4   0  11    0.13    0.26
   3   0 -11   -0.10    0.17
   3   0 -11   -0.05    0.18
  -3   0  11    0.09    0.24
  -3   0  11    0.35    0.20
   2   0 -11   10.63    0.75
   2   0 -11    9.92    0.57
  -2   0  11    8.66    0.51
  -2   0  11    9.43    0.76
   1   0 -11    3.34    0.49
  -1   0  11    3.07    0.51
  -1   0  11    4.12    0.42
   0   0 -11   16.26    0.90
   0   0  11   16.98    0.96
   0   0  11   16.28    0.71
  -1   0 -11    1.77    0.36
   1   0  11    1.18    0.34
   1   0  11    1.72    0.28
   2   0  11   10.95    0.56
   6  -1 -11    0.58    0.27
   6  -1 -11    0.06    0.27
  -6   1  11   -0.11    0.34
   5  -1 -11    6.84    0.54
   5  -1 -11    8.01    0.84
  -5   1  11    7.04    0.84
   4  -1 -11    1.31    0.38
   4  -1 -11    1.56    0.32
  -4   1  11    1.62    0.45
   3  -1 -11    2.85    0.49
   3  -1 -11    1.93    0.32
  -3   1  11    2.08    0.47
  -3   1  11    2.47    0.35
   2  -1 -11    5.02    0.41
   2  -1 -11    4.49    0.59
  -2   1  11    5.65    0.44
  -2   1  11    4.89    0.66
   1  -1 -11    0.16    0.22
  -1   1  11    0.11    0.16
  -1   1  11    0.14    0.27
   0  -1 -11   -0.06    0.18
   0   1  11    0.12    0.25
   0   1  11    0.23    0.19
  -1  -1 -11    1.05    0.30
   1   1  11    1.14    0.25
   1   1  11    1.58    0.39
   6  -2 -11    1.64    0.37
  -6   2  11    1.29    0.49
   5  -2 -11   13.45    0.93
   5  -2 -11   12.07    0.71
  -5   2  11   11.97    0.94
   4  -2 -11    0.20    0.25
   4  -2 -11    0.32    0.21
  -4   2  11   -0.05    0.22
   3  -2 -11    2.56    0.49
   3  -2 -11    2.68    0.38
  -3   2  11    2.25    0.51
  -3   2  11    1.97    0.32
   2  -2 -11    0.03    0.18
   2  -2 -11   -0.10    0.20
  -2   2  11    0.14    0.19
  -2   2  11    0.38    0.30
   1  -2 -11    1.51    0.36
  -1   2  11    1.20    0.26
  -1   2  11    1.25    0.36
   0  -2 -11    3.38    0.50
   0   2  11    3.08    0.38
   0   2  11    2.85    0.51
  -1  -2 -11    8.59    0.64
   1   2  11    6.65    0.71
   6  -3 -11    6.68    0.56
   5  -3 -11    1.97    0.49
   5  -3 -11    1.35    0.33
  -5   3  11    2.17    0.55
   4  -3 -11   11.95    0.88
   4  -3 -11   13.09    0.72
  -4   3  11   12.58    0.97
   3  -3 -11    6.95    0.79
   3  -3 -11    6.73    0.52
  -3   3  11    6.84    0.82
   2  -3 -11   -0.08    0.20
  -2   3  11    0.06    0.25
   1  -3 -11    0.05    0.23
  -1   3  11   -0.09    0.24
   0  -3 -11    0.17    0.22
   0   3  11   -0.01    0.21
  -1  -3 -11    0.54    0.27
   1   3  11    0.55    0.31
   6  -4 -11    5.93    0.60
   5  -4 -11   -0.24    0.19
   4  -4 -11    0.03    0.23
   4  -4 -11    0.43    0.31
  -4   4  11   -0.02    0.30
   3  -4 -11    5.08    0.51
   3  -4 -11    5.92    0.72
  -3   4  11    5.81    0.78
   2  -4 -11    0.56    0.30
  -2   4  11    0.73    0.36
   1  -4 -11    0.31    0.25
  -1   4  11    0.01    0.27
   0  -4 -11    2.28    0.45
   0   4  11    2.40    0.50
  -1  -4 -11    4.93    0.60
   1   4  11    4.78    0.67
   6  -5 -11    3.36    0.49
   5  -5 -11    0.89    0.31
   4  -5 -11    1.51    0.35
   3  -5 -11    0.01    0.23
  -3   5  11    0.26    0.34
   2  -5 -11   -0.10    0.25
  -2   5  11    0.03    0.31
   1  -5 -11    0.12    0.26
  -1   5  11    0.41    0.34
   0  -5 -11    0.39    0.30
   0   5  11    0.41    0.36
   5  -6 -11    0.09    0.26
   4  -6 -11    3.52    0.45
   1  -6 -11    0.17    0.29
  -1   6  11    0.19    0.33
   0  -6 -11    1.31    0.41
   0   6  11    1.45    0.48
   1 -17  12    6.65    0.70
   1 -16  12    2.44    0.46
   2 -16  12    0.47    0.31
   3 -16  12    4.91    0.56
   0 -15  12    0.34    0.29
   2 -15  12    0.99    0.44
   2 -15  12   -0.16    0.24
   3 -15  12    1.94    0.38
   0 -14  12    9.27    0.66
   0 -14  12    6.92    0.91
   1 -14  12    0.53    0.31
   1 -14  12    0.48    0.37
   2 -14  12    0.76    0.38
   2 -14  12    1.29    0.34
   3 -14  12    0.97    0.30
   4 -14  12   -0.14    0.18
   2  13 -12    0.01    0.28
  -2 -13  12    0.32    0.35
   1  13 -12   -0.11    0.23
  -1 -13  12   -0.15    0.21
  -1 -13  12   -0.12    0.32
   0  13 -12    0.63    0.33
   0 -13  12    0.25    0.23
   0 -13  12    0.74    0.39
  -1  13 -12    0.02    0.29
   1 -13  12    0.04    0.22
   1 -13  12    0.57    0.34
  -2  13 -12    0.19    0.29
   2 -13  12    0.11    0.23
   2 -13  12   -0.30    0.26
   3 -13  12   -0.09    0.18
   4 -13  12    1.99    0.34
   3  12 -12    0.50    0.33
  -3 -12  12    1.39    0.47
   2  12 -12    1.88    0.47
  -2 -12  12    1.33    0.45
   1  12 -12    0.11    0.25
  -1 -12  12    0.25    0.31
  -1 -12  12   -0.29    0.19
   0  12 -12    1.36    0.42
   0 -12  12    2.21    0.52
   0 -12  12    1.33    0.32
  -1  12 -12    0.28    0.27
   1 -12  12    0.14    0.24
   1 -12  12    0.65    0.35
  -2  12 -12    0.19    0.28
   2 -12  12    0.27    0.22
   2 -12  12    0.32    0.30
   3 -12  12    0.22    0.20
   4 -12  12   -0.17    0.18
   5  11 -12   -0.11    0.25
   3  11 -12    5.43    0.75
  -3 -11  12    6.00    0.83
   2  11 -12   -0.05    0.21
  -2 -11  12    0.02    0.25
   1  11 -12    0.78    0.32
  -1 -11  12    1.52    0.45
  -1 -11  12    1.04    0.32
   0  11 -12    9.27    0.89
   0 -11  12    8.33    0.58
   0 -11  12    7.58    0.85
  -1  11 -12    0.09    0.26
   1 -11  12   -0.07    0.25
   1 -11  12    0.14    0.20
  -2  11 -12    0.67    0.31
   2 -11  12    0.83    0.27
   2 -11  12    0.77    0.34
   3 -11  12    1.93    0.33
   4 -11  12    0.07    0.18
   5  10 -12    5.87    0.64
   4  10 -12    0.20    0.29
   4  10 -12   -0.01    0.21
  -4 -10  12    0.55    0.39
   3  10 -12    1.13    0.38
  -3 -10  12    1.02    0.43
   2  10 -12    0.29    0.25
  -2 -10  12   -0.06    0.21
  -2 -10  12    0.02    0.23
   1  10 -12    1.15    0.38
  -1 -10  12    1.72    0.46
  -1 -10  12    1.65    0.34
   0  10 -12    0.25    0.23
   0 -10  12    0.34    0.27
   0 -10  12    0.79    0.26
  -1  10 -12    6.30    0.72
   1 -10  12    5.83    0.47
   1 -10  12    6.26    0.73
  -2  10 -12    1.89    0.41
   2 -10  12    1.58    0.40
   2 -10  12    1.05    0.27
   3 -10  12    1.43    0.28
   4 -10  12    0.14    0.17
   5 -10  12    2.38    0.32
   5   9 -12    0.08    0.25
  -5  -9  12   -0.35    0.36
   4   9 -12    0.51    0.31
   4   9 -12    1.29    0.34
  -4  -9  12    0.24    0.32
   3   9 -12   -0.09    0.21
   3   9 -12    0.11    0.21
  -3  -9  12    0.37    0.30
   2   9 -12    2.30    0.38
   2   9 -12    1.77    0.43
  -2  -9  12    2.34    0.37
  -2  -9  12    1.39    0.42
   1   9 -12    0.40    0.25
   1   9 -12    1.12    0.28
  -1  -9  12    0.22    0.27
  -1  -9  12    0.72    0.26
   0   9 -12    3.43    0.53
   0  -9  12    4.36    0.46
   0  -9  12    3.18    0.54
  -1   9 -12    0.35    0.24
   1  -9  12    0.23    0.19
   1  -9  12    0.58    0.28
  -2   9 -12    2.49    0.46
   2  -9  12    2.56    0.47
   2  -9  12    2.90    0.36
   3  -9  12    3.72    0.39
   4  -9  12    2.13    0.31
   5  -9  12    0.76    0.21
   6   8 -12    0.82    0.31
   5   8 -12    0.22    0.32
   5   8 -12    0.11    0.23
  -5  -8  12   -0.15    0.35
   4   8 -12    4.29    0.51
   4   8 -12    3.52    0.61
  -4  -8  12    3.88    0.68
   3   8 -12    0.61    0.26
   3   8 -12    0.46    0.30
  -3  -8  12    0.80    0.38
   2   8 -12    5.97    0.72
   2   8 -12    6.95    0.54
  -2  -8  12    7.14    0.51
  -2  -8  12    5.75    0.73
   1   8 -12   12.67    0.66
   1   8 -12   13.22    0.88
  -1  -8  12   13.22    0.68
  -1  -8  12   11.98    0.88
   0   8 -12   11.81    0.82
   0  -8  12   11.22    0.83
   0  -8  12   11.75    0.63
  -1   8 -12    2.10    0.42
   1  -8  12    2.76    0.35
   1  -8  12    2.37    0.45
  -2   8 -12   -0.05    0.22
   2  -8  12   -0.01    0.23
   2  -8  12   -0.11    0.15
   3  -8  12   -0.01    0.15
   4  -8  12   -0.08    0.15
   5  -8  12    2.45    0.30
   6   7 -12    2.25    0.43
   5   7 -12    2.99    0.61
   5   7 -12    3.82    0.51
  -5  -7  12    2.77    0.60
   4   7 -12    0.01    0.23
   4   7 -12    0.21    0.21
  -4  -7  12   -0.25    0.25
   3   7 -12    5.10    0.53
   3   7 -12    4.46    0.65
  -3  -7  12    3.27    0.59
   2   7 -12    9.77    0.60
   2   7 -12    9.32    0.91
  -2  -7  12    9.76    0.81
  -2  -7  12   11.48    0.62
   1   7 -12    6.92    0.48
   1   7 -12    7.16    0.75
  -1  -7  12    5.95    0.70
  -1  -7  12    7.24    0.49
   0   7 -12    1.34    0.36
   0  -7  12    0.75    0.23
   0  -7  12    1.12    0.34
  -1   7 -12    0.49    0.27
   1  -7  12    0.27    0.18
   1  -7  12    0.95    0.33
  -2   7 -12   -0.03    0.21
   2  -7  12    0.30    0.18
   2  -7  12    0.20    0.25
   3  -7  12    0.69    0.21
   4  -7  12   -0.04    0.15
   5  -7  12    6.16    0.39
   6   6 -12    0.69    0.30
   5   6 -12   -0.05    0.25
   5   6 -12    0.08    0.22
  -5  -6  12    0.24    0.33
   4   6 -12    0.38    0.29
   4   6 -12    0.38    0.22
  -4  -6  12    0.45    0.32
   3   6 -12    7.05    0.79
   3   6 -12    6.11    0.49
  -3  -6  12    6.92    0.79
   2   6 -12    5.53    0.52
   2   6 -12    4.31    0.60
  -2  -6  12    5.47    0.70
  -2  -6  12    5.41    0.51
   1   6 -12    0.09    0.17
   1   6 -12    0.22    0.23
  -1  -6  12    0.18    0.20
  -1  -6  12   -0.07    0.19
   0   6 -12    5.27    0.63
   0  -6  12    6.42    0.46
   0  -6  12    5.60    0.67
  -1   6 -12   15.96    0.90
   1  -6  12   14.38    0.89
   1  -6  12   15.70    0.70
  -2   6 -12   57.61    1.88
   2  -6  12   53.00    1.60
   2  -6  12   56.37    1.90
   3  -6  12    2.51    0.32
   4  -6  12    3.74    0.36
   5  -6  12    1.62    0.24
   6   5 -12    0.19    0.32
   6   5 -12    0.17    0.26
   5   5 -12   -0.08    0.21
   5   5 -12    0.04    0.24
  -5  -5  12   -0.25    0.30
   4   5 -12    0.51    0.25
   4   5 -12    0.29    0.26
  -4  -5  12    0.25    0.31
   3   5 -12    8.60    0.86
   3   5 -12   10.74    0.63
  -3  -5  12    9.16    0.92
   2   5 -12   13.83    0.70
   2   5 -12   14.23    0.91
  -2  -5  12   12.12    0.89
  -2  -5  12   14.38    0.69
   1   5 -12   17.80    0.99
   1   5 -12   16.64    0.74
  -1  -5  12   16.84    1.00
  -1  -5  12   16.01    0.75
   0   5 -12    8.34    0.67
   0  -5  12    9.27    0.72
   0  -5  12    9.61    0.54
  -1   5 -12   -0.18    0.20
   1  -5  12    0.05    0.16
   1  -5  12    0.14    0.23
  -2   5 -12    8.87    0.65
   2  -5  12    9.14    0.69
   2  -5  12    9.86    0.53
   3  -5  12   11.97    0.58
   4  -5  12   12.08    0.56
   5  -5  12    9.48    0.45
   6   4 -12    2.38    0.43
   6   4 -12    2.10    0.49
  -6  -4  12    1.22    0.49
   5   4 -12    4.11    0.51
   5   4 -12    2.87    0.56
  -5  -4  12    3.71    0.65
   4   4 -12    4.10    0.63
   4   4 -12    4.70    0.51
  -4  -4  12    3.07    0.58
   3   4 -12    0.72    0.24
   3   4 -12    0.05    0.22
  -3  -4  12    0.12    0.22
  -3  -4  12    0.36    0.27
   2   4 -12   50.44    1.93
   2   4 -12   52.57    1.63
  -2  -4  12   54.98    1.62
  -2  -4  12   52.81    2.00
   1   4 -12   11.11    0.77
  -1  -4  12    9.80    0.76
  -1  -4  12    9.26    0.55
   0   4 -12    8.42    0.67
   0  -4  12    8.66    0.52
   0  -4  12    8.10    0.80
  -1   4 -12    0.30    0.22
   1  -4  12    0.29    0.25
   1  -4  12    0.38    0.18
  -2   4 -12    1.41    0.35
   2  -4  12    1.94    0.28
   2  -4  12    0.82    0.31
   3  -4  12    8.01    0.47
   4  -4  12    0.29    0.17
   6   3 -12   -0.11    0.29
   6   3 -12    0.78    0.30
  -6  -3  12   -0.14    0.35
   5   3 -12    0.70    0.27
   5   3 -12    0.62    0.33
  -5  -3  12    0.40    0.38
   4   3 -12    0.61    0.30
   4   3 -12    0.49    0.22
  -4  -3  12    0.58    0.32
   3   3 -12   12.62    0.89
   3   3 -12   13.97    0.72
  -3  -3  12   12.49    0.92
  -3  -3  12   14.56    0.70
   2   3 -12   12.77    0.86
   2   3 -12   12.10    0.63
  -2  -3  12   10.61    0.59
  -2  -3  12   10.75    0.84
   1   3 -12   13.75    0.87
  -1  -3  12   13.33    0.66
  -1  -3  12   12.26    0.87
   0   3 -12   14.96    0.90
   0  -3  12   16.31    0.96
   0  -3  12   17.28    0.74
  -1   3 -12    0.30    0.23
   1  -3  12    0.16    0.17
   1  -3  12    0.42    0.28
   2  -3  12    1.11    0.23
   3  -3  12    2.80    0.32
   4  -3  12    5.97    0.39
   6   2 -12    5.43    0.74
   6   2 -12    5.06    0.57
  -6  -2  12    4.20    0.70
   5   2 -12    5.29    0.73
   5   2 -12    6.84    0.56
  -5  -2  12    5.09    0.73
   4   2 -12    0.68    0.33
   4   2 -12    0.35    0.21
  -4  -2  12    0.67    0.35
   3   2 -12   27.71    1.06
   3   2 -12   23.99    1.26
  -3  -2  12   25.67    0.97
  -3  -2  12   24.12    1.30
   2   2 -12    2.78    0.37
   2   2 -12    2.61    0.45
  -2  -2  12    2.64    0.37
  -2  -2  12    3.13    0.54
   1   2 -12    7.08    0.73
  -1  -2  12    5.85    0.71
  -1  -2  12    6.44    0.46
   0   2 -12    1.53    0.36
   0  -2  12    1.24    0.27
   0  -2  12    2.81    0.49
  -1   2 -12    7.96    0.63
   1  -2  12    9.75    0.54
   1  -2  12    8.48    0.67
   2  -2  12    0.47    0.19
   3  -2  12   -0.05    0.15
   6   1 -12    2.17    0.40
   6   1 -12    1.26    0.43
   5   1 -12    3.64    0.48
   5   1 -12    2.72    0.52
  -5  -1  12    2.56    0.55
   4   1 -12   17.15    0.84
   4   1 -12   17.22    1.07
  -4  -1  12   17.63    1.12
   3   1 -12   -0.12    0.17
   3   1 -12    0.09    0.19
  -3  -1  12    0.14    0.19
  -3  -1  12   -0.24    0.17
   2   1 -12    0.29    0.20
   2   1 -12    0.21    0.24
  -2  -1  12    0.52    0.22
  -2  -1  12    0.87    0.36
   1   1 -12    7.37    0.74
  -1  -1  12    6.90    0.47
  -1  -1  12    7.01    0.77
   0   1 -12    0.44    0.24
   0  -1  12    0.82    0.23
   0  -1  12    0.18    0.24
  -1   1 -12    0.72    0.29
   1  -1  12    1.00    0.24
   1  -1  12    0.79    0.33
   2  -1  12    0.78    0.22
   3  -1  12    7.06    0.45
   6   0 -12   12.46    0.76
   5   0 -12    0.06    0.20
   5   0 -12    0.01    0.26
  -5   0  12   -0.07    0.30
   4   0 -12   19.84    1.14
   4   0 -12   19.51    0.89
  -4   0  12   19.36    1.18
   3   0 -12   -0.24    0.16
   3   0 -12   -0.25    0.16
  -3   0  12    0.02    0.25
  -3   0  12    0.03    0.19
   2   0 -12    0.09    0.22
   2   0 -12    0.15    0.18
  -2   0  12    0.00    0.17
  -2   0  12   -0.08    0.21
   1   0 -12    0.08    0.21
  -1   0  12   -0.18    0.17
  -1   0  12   -0.02    0.17
   0   0 -12    1.93    0.39
   0   0  12    2.49    0.48
   0   0  12    2.41    0.34
  -1   0 -12    1.64    0.37
   1   0  12    0.91    0.35
   1   0  12    1.47    0.27
   2   0  12    0.40    0.19
   6  -1 -12    7.56    0.61
   5  -1 -12    3.35    0.47
   5  -1 -12    2.53    0.54
  -5   1  12    2.96    0.59
   4  -1 -12   18.66    0.87
   4  -1 -12   15.97    1.04
  -4   1  12   16.99    1.13
   3  -1 -12    0.82    0.32
   3  -1 -12    1.01    0.28
  -3   1  12    0.94    0.28
  -3   1  12    0.69    0.35
   2  -1 -12    2.21    0.44
  -2   1  12    3.66    0.60
  -2   1  12    4.21    0.44
   1  -1 -12    9.32    0.87
  -1   1  12    8.79    0.89
  -1   1  12    7.93    0.52
   0  -1 -12   -0.01    0.22
   0   1  12    0.00    0.18
   0   1  12    0.34    0.28
  -1  -1 -12    0.41    0.29
   1   1  12   -0.07    0.15
   1   1  12    0.06    0.26
   6  -2 -12    4.93    0.57
   5  -2 -12    0.09    0.23
   4  -2 -12   -0.13    0.20
   4  -2 -12   -0.12    0.23
  -4   2  12    0.28    0.34
   3  -2 -12   25.11    1.02
   3  -2 -12   23.98    1.27
  -3   2  12   22.10    1.31
   2  -2 -12   -0.15    0.20
  -2   2  12    0.03    0.18
  -2   2  12    0.13    0.27
   1  -2 -12    0.00    0.22
  -1   2  12    0.53    0.24
  -1   2  12    0.51    0.33
   0  -2 -12    2.56    0.46
   0   2  12    2.97    0.55
  -1  -2 -12    2.17    0.43
   1   2  12    3.14    0.55
   6  -3 -12    2.51    0.45
   5  -3 -12    0.03    0.22
   4  -3 -12    0.08    0.25
   4  -3 -12   -0.03    0.23
  -4   3  12   -0.35    0.27
   3  -3 -12    1.59    0.42
  -3   3  12    2.32    0.55
   2  -3 -12    0.07    0.24
  -2   3  12   -0.05    0.26
   1  -3 -12    2.98    0.50
  -1   3  12    2.60    0.53
   0  -3 -12    1.17    0.38
   0   3  12    0.72    0.38
  -1  -3 -12    3.18    0.52
   1   3  12    4.15    0.64
   5  -4 -12    0.19    0.28
   4  -4 -12    0.15    0.25
   3  -4 -12    4.74    0.68
  -3   4  12    4.85    0.78
  -2   4  12    6.99    0.86
   1  -4 -12   -0.05    0.23
  -1   4  12   -0.10    0.25
   0  -4 -12    0.97    0.39
   0   4  12    0.80    0.40
   5  -5 -12    3.78    0.51
   0 -16  13    0.35    0.30
   1 -16  13    0.34    0.31
   0 -15  13   12.05    0.80
   1 -15  13    0.72    0.33
   2 -15  13    0.70    0.33
   3 -15  13    1.51    0.36
   0 -14  13   10.92    0.74
  -1  14 -13    0.28    0.31
   1 -14  13   -0.03    0.26
   1 -14  13    0.80    0.44
  -2  14 -13    9.58    0.96
   2 -14  13    8.16    0.92
   3 -14  13    1.78    0.36
   1  13 -13   19.09    1.23
  -1 -13  13   19.51    1.31
  -1 -13  13   18.25    0.94
   0  13 -13    0.02    0.26
   0 -13  13    0.12    0.30
   0 -13  13    0.11    0.26
  -1  13 -13    6.85    0.83
   1 -13  13    7.45    0.59
   1 -13  13    8.02    0.95
  -2  13 -13    1.35    0.44
   2 -13  13    1.15    0.42
   2 -13  13    2.26    0.39
   3 -13  13    0.28    0.24
   4 -13  13    1.33    0.31
   4  12 -13    0.77    0.33
   2  12 -13    0.69    0.35
  -2 -12  13    0.17    0.32
   1  12 -13    0.13    0.22
  -1 -12  13    0.14    0.31
  -1 -12  13    0.22    0.24
   0  12 -13    3.06    0.58
   0 -12  13    3.46    0.64
   0 -12  13    3.59    0.49
  -1  12 -13    8.23    0.87
   1 -12  13    7.16    0.86
   1 -12  13    6.86    0.55
  -2  12 -13   -0.07    0.29
   2 -12  13   -0.04    0.26
   2 -12  13    0.07    0.22
   3 -12  13    0.09    0.21
   4 -12  13    0.35    0.22
   4  11 -13    8.39    0.70
   3  11 -13    3.43    0.49
   3  11 -13    2.65    0.55
  -3 -11  13    1.98    0.55
   2  11 -13    6.26    0.80
  -2 -11  13    4.47    0.74
   1  11 -13    0.24    0.26
  -1 -11  13    0.94    0.39
  -1 -11  13    0.98    0.30
   0  11 -13    3.17    0.56
   0 -11  13    2.86    0.42
   0 -11  13    3.77    0.63
  -1  11 -13    0.19    0.26
   1 -11  13    0.19    0.21
   1 -11  13   -0.14    0.24
  -2  11 -13    0.30    0.31
   2 -11  13    0.37    0.31
   2 -11  13    0.22    0.21
   3 -11  13    0.97    0.26
   4 -11  13    0.78    0.25
   5  10 -13    0.15    0.27
   4  10 -13    0.89    0.30
   3  10 -13    3.70    0.50
   3  10 -13    3.73    0.64
  -3 -10  13    1.98    0.53
   2  10 -13    1.48    0.34
   2  10 -13    1.03    0.38
  -2 -10  13    0.43    0.36
   1  10 -13   20.45    1.20
  -1 -10  13   21.36    1.27
  -1 -10  13   21.68    0.95
   0  10 -13    0.10    0.26
   0 -10  13    0.23    0.27
   0 -10  13    0.39    0.23
  -1  10 -13    0.89    0.34
   1 -10  13    0.83    0.35
   1 -10  13    1.27    0.30
  -2  10 -13   -0.05    0.25
   2 -10  13   -0.02    0.18
   2 -10  13   -0.11    0.26
   3 -10  13    0.07    0.18
   4 -10  13    2.65    0.35
   5   9 -13    0.41    0.27
   4   9 -13    1.19    0.43
   4   9 -13    1.00    0.31
  -4  -9  13    0.94    0.44
   3   9 -13    2.98    0.57
   3   9 -13    3.46    0.47
  -3  -9  13    3.02    0.61
   2   9 -13    4.36    0.50
   2   9 -13    3.47    0.60
  -2  -9  13    4.88    0.52
  -2  -9  13    3.91    0.65
   1   9 -13    1.74    0.44
  -1  -9  13    1.86    0.33
  -1  -9  13    0.99    0.39
   0   9 -13    5.90    0.72
   0  -9  13    5.86    0.47
   0  -9  13    7.79    0.85
  -1   9 -13    0.40    0.29
   1  -9  13    0.50    0.32
   1  -9  13    0.76    0.25
  -2   9 -13    0.53    0.33
   2  -9  13    1.07    0.27
   2  -9  13    1.17    0.38
   3  -9  13    0.14    0.19
   4  -9  13   -0.09    0.17
   5   8 -13    0.50    0.28
   4   8 -13    0.35    0.25
   4   8 -13    0.23    0.30
  -4  -8  13    0.73    0.41
   3   8 -13    2.68    0.42
   3   8 -13    3.42    0.61
  -3  -8  13    2.70    0.59
   2   8 -13    0.10    0.25
   2   8 -13   -0.01    0.19
  -2  -8  13   -0.20    0.26
  -2  -8  13    0.27    0.22
   1   8 -13    0.57    0.28
  -1  -8  13    0.49    0.32
  -1  -8  13    0.37    0.21
   0   8 -13    5.15    0.67
   0  -8  13    5.18    0.50
   0  -8  13    5.27    0.70
  -1   8 -13    8.58    0.84
   1  -8  13    8.10    0.53
   1  -8  13    8.74    0.87
  -2   8 -13   -0.14    0.21
   2  -8  13   -0.19    0.15
   2  -8  13    0.17    0.26
   3  -8  13    0.01    0.18
   4  -8  13   -0.03    0.17
   6   7 -13    1.76    0.42
   5   7 -13    1.94    0.39
   5   7 -13    1.02    0.42
  -5  -7  13    1.46    0.50
   4   7 -13    0.16    0.26
   4   7 -13    0.09    0.21
  -4  -7  13    0.04    0.31
   3   7 -13    0.36    0.29
   3   7 -13    0.86    0.27
  -3  -7  13    0.49    0.33
   2   7 -13   12.29    0.91
   2   7 -13   13.04    0.73
  -2  -7  13   11.58    0.93
  -2  -7  13   13.04    0.70
   1   7 -13    0.76    0.32
  -1  -7  13    1.01    0.38
  -1  -7  13    1.15    0.28
   0   7 -13    0.53    0.28
   0  -7  13    0.34    0.22
   0  -7  13    0.16    0.28
  -1   7 -13    5.22    0.64
   1  -7  13    5.09    0.43
   1  -7  13    4.91    0.64
  -2   7 -13    0.36    0.28
   2  -7  13   -0.19    0.22
   2  -7  13    0.56    0.22
   3  -7  13   -0.14    0.16
   4  -7  13    1.63    0.29
   6   6 -13    3.12    0.50
   5   6 -13    0.31    0.32
   5   6 -13    0.50    0.28
  -5  -6  13    0.34    0.39
   4   6 -13    0.07    0.26
   4   6 -13    0.03    0.19
  -4  -6  13    0.06    0.28
   3   6 -13    5.18    0.55
   3   6 -13    5.16    0.71
  -3  -6  13    4.79    0.71
   2   6 -13    1.93    0.35
   2   6 -13    1.40    0.39
  -2  -6  13    2.46    0.37
  -2  -6  13    1.11    0.38
   1   6 -13    3.64    0.56
  -1  -6  13    4.33    0.63
  -1  -6  13    4.97    0.49
   0   6 -13   -0.28    0.17
   0  -6  13    0.31    0.26
   0  -6  13    0.13    0.19
  -1   6 -13    1.13    0.35
   1  -6  13    1.50    0.30
   1  -6  13    0.72    0.32
  -2   6 -13    0.94    0.34
   2  -6  13    1.51    0.40
   2  -6  13    1.67    0.30
   3  -6  13    0.90    0.25
   4  -6  13    9.74    0.53
   6   5 -13    2.21    0.45
   5   5 -13    0.19    0.31
   5   5 -13   -0.04    0.22
  -5  -5  13    0.19    0.38
   4   5 -13    0.90    0.28
   4   5 -13    0.54    0.31
  -4  -5  13    0.15    0.31
   3   5 -13    5.59    0.55
   3   5 -13    5.29    0.73
  -3  -5  13    5.67    0.76
   2   5 -13    4.17    0.60
   2   5 -13    3.22    0.42
  -2  -5  13    4.68    0.49
  -2  -5  13    3.34    0.57
   1   5 -13    4.88    0.65
  -1  -5  13    5.34    0.45
  -1  -5  13    4.89    0.66
   0   5 -13    4.44    0.61
   0  -5  13    5.09    0.42
   0  -5  13    5.86    0.71
  -1   5 -13    2.59    0.47
   1  -5  13    2.25    0.46
   1  -5  13    3.05    0.38
   2  -5  13   16.20    0.73
   3  -5  13    7.37    0.47
   4  -5  13    0.94    0.24
   6   4 -13    0.13    0.25
   5   4 -13   -0.11    0.21
   5   4 -13    0.34    0.30
  -5  -4  13    0.01    0.33
   4   4 -13    0.37    0.25
   4   4 -13    0.60    0.32
  -4  -4  13   -0.21    0.27
   3   4 -13   12.53    0.91
   3   4 -13   11.78    0.71
  -3  -4  13   11.43    0.92
   2   4 -13    0.28    0.25
   2   4 -13    0.23    0.20
  -2  -4  13   -0.04    0.23
  -2  -4  13    0.21    0.20
   1   4 -13    7.67    0.80
  -1  -4  13    6.76    0.50
  -1  -4  13    6.94    0.80
   0   4 -13    2.52    0.47
   0  -4  13    2.93    0.38
   0  -4  13    1.73    0.43
  -1   4 -13    0.76    0.30
   1  -4  13    0.35    0.28
   1  -4  13    0.92    0.25
   2  -4  13    6.49    0.46
   3  -4  13    0.27    0.18
   4  -4  13    0.48    0.20
   6   3 -13    0.36    0.30
   5   3 -13    0.18    0.30
   5   3 -13    0.22    0.22
  -5  -3  13    0.56    0.41
   4   3 -13    2.47    0.53
   4   3 -13    2.24    0.38
  -4  -3  13    2.22    0.55
   3   3 -13   26.83    1.39
   3   3 -13   30.02    1.16
  -3  -3  13   29.05    1.48
   2   3 -13    0.92    0.34
   2   3 -13    0.92    0.27
  -2  -3  13    0.53    0.32
  -2  -3  13    1.07    0.27
   1   3 -13    5.82    0.68
  -1  -3  13    5.48    0.45
  -1  -3  13    4.75    0.66
   0   3 -13    0.14    0.24
   0  -3  13    1.00    0.26
   0  -3  13    0.28    0.27
  -1   3 -13    1.27    0.36
   1  -3  13    1.47    0.39
   1  -3  13    1.53    0.29
   2  -3  13    0.23    0.18
   3  -3  13    2.18    0.31
   4  -3  13    4.67    0.37
   6   2 -13    7.58    0.63
   5   2 -13   -0.21    0.26
   5   2 -13    0.32    0.25
  -5  -2  13   -0.21    0.30
   4   2 -13    6.54    0.61
   4   2 -13    4.63    0.66
  -4  -2  13    4.98    0.73
   3   2 -13    0.55    0.31
   3   2 -13    0.49    0.25
  -3  -2  13    0.94    0.37
  -3  -2  13    1.03    0.28
   2   2 -13    0.26    0.23
  -2  -2  13   -0.10    0.23
  -2  -2  13    0.32    0.21
   1   2 -13    0.02    0.22
  -1  -2  13   -0.06    0.16
  -1  -2  13   -0.14    0.24
   0   2 -13   12.03    0.82
   0  -2  13   11.90    0.64
   0  -2  13   11.76    0.84
  -1   2 -13    6.21    0.67
   1  -2  13    6.84    0.47
   1  -2  13    7.30    0.78
   2  -2  13    0.44    0.20
   3  -2  13    4.91    0.40
   6   1 -13    0.97    0.33
   5   1 -13    6.24    0.62
   5   1 -13    6.02    0.81
  -5  -1  13    4.53    0.73
   4   1 -13    1.40    0.43
   4   1 -13    2.16    0.39
  -4  -1  13    1.35    0.47
   3   1 -13    3.87    0.46
   3   1 -13    4.92    0.69
  -3  -1  13    4.09    0.66
   2   1 -13    2.23    0.45
  -2  -1  13    2.84    0.38
  -2  -1  13    1.72    0.44
   1   1 -13    4.62    0.61
  -1  -1  13    5.86    0.47
  -1  -1  13    5.85    0.72
   0   1 -13   10.14    0.76
   0  -1  13    8.47    0.86
   0  -1  13    9.91    0.59
  -1   1 -13    5.44    0.64
   1  -1  13    5.55    0.68
   1  -1  13    5.57    0.44
   2  -1  13    4.08    0.44
   6   0 -13    0.89    0.34
   5   0 -13    1.05    0.32
   4   0 -13   10.87    0.69
   4   0 -13    8.62    0.90
  -4   0  13    9.38    1.00
   3   0 -13    5.68    0.55
   3   0 -13    4.34    0.65
  -3   0  13    5.03    0.73
   2   0 -13    8.23    0.84
  -2   0  13    9.68    0.60
  -2   0  13    8.70    0.91
   1   0 -13    0.81    0.33
  -1   0  13    0.86    0.27
  -1   0  13    0.58    0.35
   0   0 -13    1.26    0.40
   0   0  13    1.02    0.26
   0   0  13    1.07    0.39
  -1   0 -13    0.09    0.26
   1   0  13   -0.08    0.18
   1   0  13   -0.37    0.24
   6  -1 -13    2.56    0.46
   5  -1 -13   12.34    0.77
   4  -1 -13    2.45    0.41
   4  -1 -13    2.96    0.58
  -4   1  13    3.57    0.68
   3  -1 -13    4.94    0.67
  -3   1  13    5.77    0.79
   2  -1 -13    5.28    0.69
  -2   1  13    5.58    0.54
  -2   1  13    5.56    0.76
   1  -1 -13   -0.07    0.21
  -1   1  13    0.06    0.29
  -1   1  13   -0.21    0.18
   0  -1 -13    1.79    0.42
   0   1  13    1.15    0.42
   0   1  13    2.13    0.36
  -1  -1 -13    4.30    0.58
   1   1  13    3.29    0.58
   5  -2 -13   21.32    1.03
   4  -2 -13    7.44    0.60
   3  -2 -13    3.57    0.62
  -3   2  13    3.60    0.67
   2  -2 -13    3.00    0.54
  -2   2  13    3.59    0.64
   1  -2 -13    0.92    0.36
  -1   2  13    0.67    0.39
   0  -2 -13    5.61    0.65
   0   2  13    4.21    0.66
   5  -3 -13    3.72    0.52
   2  -3 -13   10.69    0.89
  -2   3  13   12.13    1.16
   1  -3 -13    4.26    0.65
  -1   3  13    4.47    0.73
   0  -3 -13    0.25    0.31
   0   3  13    1.19    0.44
   5  -4 -13    3.12    0.48
   0 -16  14    4.73    0.61
   0 -15  14    1.15    0.39
   1 -15  14    2.93    0.51
   2 -15  14    5.35    0.61
   0 -14  14    7.54    0.73
   1 -14  14   -0.02    0.27
   2 -14  14    0.13    0.27
   3 -14  14    0.21    0.26
  -1 -13  14    0.08    0.26
   0  13 -14    0.95    0.40
   0 -13  14    0.58    0.29
   0 -13  14    0.84    0.45
  -1  13 -14    1.63    0.50
   1 -13  14    1.51    0.38
   1 -13  14    1.70    0.51
  -2  13 -14    1.24    0.46
   2 -13  14    1.95    0.39
   2 -13  14    1.65    0.50
   4  12 -14    3.88    0.59
   3  12 -14    3.85    0.54
   1  12 -14    8.65    0.96
  -1 -12  14   11.09    0.73
  -1 -12  14    8.77    1.02
   0  12 -14   15.21    1.10
   0 -12  14   16.74    1.18
  -1  12 -14    0.54    0.37
   1 -12  14    0.40    0.37
   1 -12  14    0.80    0.31
  -2  12 -14    1.39    0.45
   2 -12  14    1.87    0.37
   2 -12  14    1.40    0.45
   3 -12  14    9.45    0.63
   4  11 -14    3.12    0.51
   3  11 -14    0.01    0.27
   2  11 -14   13.73    1.05
  -2 -11  14   12.03    1.21
   1  11 -14    0.54    0.33
  -1 -11  14    0.70    0.41
  -1 -11  14    0.62    0.29
   0  11 -14    5.06    0.72
   0 -11  14    4.80    0.54
   0 -11  14    5.44    0.79
  -1  11 -14    0.18    0.30
   1 -11  14   -0.09    0.21
   1 -11  14   -0.18    0.27
  -2  11 -14   11.89    0.91
   2 -11  14   12.48    0.71
   2 -11  14   12.19    0.93
   3 -11  14    5.26    0.52
   4  10 -14    1.73    0.42
   3  10 -14    1.92    0.53
   3  10 -14    1.85    0.42
  -3 -10  14    2.84    0.68
   2  10 -14    0.05    0.25
  -2 -10  14   -0.19    0.31
   1  10 -14    0.44    0.33
  -1 -10  14    0.33    0.34
  -1 -10  14    0.45    0.24
   0  10 -14    0.03    0.23
   0 -10  14    0.13    0.21
   0 -10  14    0.19    0.30
  -1  10 -14    0.94    0.38
   1 -10  14    0.76    0.39
   1 -10  14    0.72    0.28
  -2  10 -14    1.49    0.44
   2 -10  14    0.92    0.40
   2 -10  14    1.53    0.32
   3 -10  14    2.76    0.38
   4 -10  14    0.14    0.21
   5   9 -14   18.11    1.00
   4   9 -14    1.48    0.39
   3   9 -14    5.70    0.61
   3   9 -14    4.25    0.70
  -3  -9  14    3.93    0.70
   2   9 -14    0.45    0.31
  -2  -9  14    0.36    0.24
  -2  -9  14    0.98    0.41
   1   9 -14    1.12    0.40
  -1  -9  14    0.26    0.24
  -1  -9  14    0.54    0.36
   0   9 -14    0.98    0.37
   0  -9  14    1.05    0.39
   0  -9  14    0.84    0.29
  -1   9 -14   19.39    1.14
   1  -9  14   18.34    1.14
   1  -9  14   19.26    0.88
   2  -9  14    3.30    0.42
   3  -9  14    1.00    0.27
   4  -9  14    2.59    0.37
   5   8 -14    3.59    0.54
   4   8 -14   26.55    1.18
   3   8 -14    2.65    0.43
   3   8 -14    2.18    0.51
  -3  -8  14    1.85    0.52
   2   8 -14   11.05    0.90
  -2  -8  14    9.26    0.63
  -2  -8  14    7.84    0.96
   1   8 -14    0.35    0.30
  -1  -8  14    0.68    0.27
  -1  -8  14    0.42    0.35
   0   8 -14    1.58    0.43
   0  -8  14    0.56    0.34
   0  -8  14    0.76    0.26
  -1   8 -14    0.79    0.36
   1  -8  14    0.97    0.38
   1  -8  14    1.81    0.34
   2  -8  14    7.73    0.54
   3  -8  14    0.53    0.23
   4  -8  14    4.49    0.44
   5   7 -14    3.49    0.54
   4   7 -14   -0.02    0.23
   4   7 -14    0.17    0.31
  -4  -7  14    0.14    0.36
   3   7 -14   13.46    0.79
   3   7 -14   13.97    1.03
  -3  -7  14   11.43    1.12
   2   7 -14    3.55    0.62
  -2  -7  14    2.54    0.58
  -2  -7  14    3.17    0.45
   1   7 -14    2.23    0.50
  -1  -7  14    3.07    0.42
  -1  -7  14    2.52    0.55
   0   7 -14    0.44    0.32
   0  -7  14    1.61    0.42
   0  -7  14    1.02    0.29
  -1   7 -14    2.29    0.49
   1  -7  14    2.02    0.46
   1  -7  14    1.57    0.31
   2  -7  14   -0.04    0.17
   3  -7  14   -0.07    0.19
   4  -7  14    3.04    0.37
   5   6 -14    0.66    0.29
   4   6 -14    2.63    0.56
   4   6 -14    3.53    0.51
  -4  -6  14    3.57    0.68
   3   6 -14    0.18    0.22
   3   6 -14   -0.04    0.25
  -3  -6  14    0.44    0.37
   2   6 -14    0.05    0.23
  -2  -6  14   -0.19    0.25
  -2  -6  14   -0.25    0.20
   1   6 -14    1.89    0.46
  -1  -6  14    1.58    0.35
  -1  -6  14    1.23    0.42
   0   6 -14    1.39    0.40
   0  -6  14    0.81    0.25
   0  -6  14    0.96    0.39
  -1   6 -14    1.17    0.39
   1  -6  14    0.81    0.36
   1  -6  14    1.63    0.31
   2  -6  14    1.89    0.33
   3  -6  14    6.74    0.48
   4  -6  14    1.86    0.30
   5   5 -14    4.37    0.58
   4   5 -14    0.17    0.29
   4   5 -14   -0.05    0.23
  -4  -5  14    0.14    0.32
   3   5 -14    4.99    0.71
   3   5 -14    6.91    0.65
  -3  -5  14    5.05    0.75
   2   5 -14    0.47    0.30
  -2  -5  14    0.67    0.37
  -2  -5  14    0.63    0.29
   1   5 -14    2.94    0.53
  -1  -5  14    3.81    0.63
  -1  -5  14    4.29    0.47
   0   5 -14    0.73    0.34
   0  -5  14    1.12    0.28
   0  -5  14    0.97    0.38
  -1   5 -14    0.26    0.29
   1  -5  14    0.79    0.27
   1  -5  14   -0.02    0.28
   2  -5  14    0.53    0.22
   3  -5  14    0.62    0.24
   5   4 -14    0.90    0.33
   4   4 -14    0.37    0.30
   4   4 -14    0.10    0.21
  -4  -4  14    0.08    0.30
   3   4 -14    0.42    0.25
   3   4 -14    0.67    0.34
  -3  -4  14    0.79    0.42
   2   4 -14    1.04    0.36
  -2  -4  14    1.67    0.33
  -2  -4  14    1.32    0.44
   1   4 -14    7.68    0.82
  -1  -4  14    8.06    0.54
  -1  -4  14    7.32    0.84
   0   4 -14    0.40    0.26
   0  -4  14   -0.02    0.20
   0  -4  14    0.29    0.29
  -1   4 -14    0.64    0.34
   1  -4  14    1.28    0.29
   1  -4  14    0.27    0.31
   2  -4  14    1.98    0.33
   3  -4  14    6.18    0.45
   5   3 -14    1.46    0.38
   4   3 -14    4.94    0.72
   4   3 -14    5.93    0.62
  -4  -3  14    3.95    0.68
   3   3 -14   -0.06    0.19
   3   3 -14    0.16    0.27
  -3  -3  14   -0.28    0.25
   2   3 -14    1.36    0.39
  -2  -3  14    0.60    0.34
  -2  -3  14    1.79    0.35
   1   3 -14    0.77    0.35
  -1  -3  14    0.57    0.25
  -1  -3  14    0.70    0.38
   0   3 -14    3.88    0.60
   0  -3  14    4.69    0.68
   0  -3  14    4.68    0.49
  -1   3 -14    1.05    0.36
   1  -3  14    0.66    0.33
   1  -3  14    1.01    0.27
   2  -3  14   -0.02    0.19
   3  -3  14    5.33    0.44
   5   2 -14    4.08    0.53
   4   2 -14    4.42    0.54
   4   2 -14    6.20    0.82
  -4  -2  14    4.90    0.79
   3   2 -14    2.17    0.49
  -3  -2  14    2.63    0.58
   2   2 -14    4.96    0.69
  -2  -2  14    5.24    0.54
  -2  -2  14    4.36    0.71
   1   2 -14    4.94    0.68
  -1  -2  14    5.31    0.51
  -1  -2  14    5.11    0.73
   0   2 -14    1.97    0.45
   0  -2  14    2.65    0.53
   0  -2  14    2.14    0.35
  -1   2 -14    3.73    0.58
   1  -2  14    3.29    0.58
   1  -2  14    4.74    0.48
   2  -2  14    1.92    0.33
   3  -2  14    4.44    0.44
   5   1 -14   -0.05    0.27
   4   1 -14    0.74    0.30
   3   1 -14    1.31    0.41
  -3  -1  14    1.57    0.48
   2   1 -14    7.99    0.87
  -2  -1  14    6.44    0.51
  -2  -1  14    5.06    0.75
   1   1 -14    2.89    0.54
  -1  -1  14    2.17    0.36
  -1  -1  14    2.44    0.54
   0   1 -14    1.72    0.44
   0  -1  14    1.97    0.35
   0  -1  14    0.87    0.41
  -1   1 -14   10.03    0.78
   1  -1  14    9.51    0.60
   1  -1  14    8.89    0.90
   2  -1  14    0.64    0.25
   5   0 -14    0.77    0.34
   4   0 -14    2.76    0.44
   3   0 -14    2.33    0.52
  -3   0  14    1.79    0.53
   2   0 -14   16.33    1.07
  -2   0  14   13.92    1.08
  -2   0  14   15.80    0.81
   1   0 -14   -0.07    0.24
  -1   0  14    0.03    0.22
  -1   0  14   -0.08    0.29
   0   0 -14    0.06    0.29
   0   0  14    0.06    0.22
   0   0  14    0.18    0.31
   1   0  14    0.26    0.24
   5  -1 -14    0.52    0.30
   2  -1 -14    4.99    0.69
  -2   1  14    4.37    0.72
  -2   1  14    4.64    0.53
   1  -1 -14    0.17    0.29
  -1   1  14   -0.31    0.21
  -1   1  14   -0.36    0.29
   0  -1 -14    0.05    0.29
   0   1  14    0.00    0.33
   0   1  14    0.37    0.26
   5  -2 -14   -0.06    0.25
   1 -15  15    0.08    0.33
   0 -14  15    5.55    0.64
   1 -14  15    0.72    0.35
   2 -14  15    0.52    0.31
  -1 -13  15    0.85    0.33
   0 -13  15   -0.20    0.25
   1 -13  15    0.54    0.30
   2 -13  15    2.83    0.46
  -1 -12  15    0.53    0.30
   0  12 -15    0.32    0.32
   0 -12  15    0.00    0.25
   0 -12  15   -0.04    0.31
  -1  12 -15    0.71    0.41
   1 -12  15    1.10    0.35
   1 -12  15    0.65    0.44
   2 -12  15    0.25    0.25
   3 -12  15    7.96    0.59
   4  11 -15    7.36    0.74
   1  11 -15    0.31    0.33
  -1 -11  15    0.22    0.25
  -1 -11  15   -0.10    0.35
   0  11 -15    1.86    0.49
   0 -11  15    2.08    0.42
   0 -11  15    1.37    0.49
  -1  11 -15    4.83    0.71
   1 -11  15    5.79    0.59
   1 -11  15    6.20    0.82
   2 -11  15    0.25    0.24
   3 -11  15    2.41    0.38
   4  10 -15    3.37    0.55
   1  10 -15   17.86    1.19
  -1 -10  15   16.48    0.87
  -1 -10  15   16.28    1.19
   0  10 -15    0.07    0.30
   0 -10  15    0.12    0.32
   0 -10  15   -0.07    0.25
  -1  10 -15    0.52    0.36
   1 -10  15    1.11    0.32
   1 -10  15    0.11    0.34
   2 -10  15    9.24    0.62
   3 -10  15    1.50    0.33
   4   9 -15    6.79    0.73
   3   9 -15   21.18    1.05
   2   9 -15   -0.16    0.26
  -2  -9  15   -0.29    0.22
  -2  -9  15   -0.10    0.35
   1   9 -15   -0.07    0.28
  -1  -9  15    0.28    0.38
  -1  -9  15   -0.13    0.25
   0   9 -15    0.67    0.37
   0  -9  15    0.40    0.34
   0  -9  15    1.23    0.32
  -1   9 -15    3.07    0.58
   1  -9  15    4.76    0.53
   1  -9  15    4.56    0.70
   2  -9  15    1.65    0.34
   3  -9  15   14.29    0.75
   5   8 -15    0.59    0.36
   4   8 -15    1.16    0.38
   2   8 -15    0.28    0.31
  -2  -8  15    0.44    0.41
  -2  -8  15    0.47    0.28
   1   8 -15    0.92    0.40
  -1  -8  15    0.87    0.43
  -1  -8  15    1.84    0.37
   0   8 -15    0.21    0.29
   0  -8  15    0.01    0.22
   0  -8  15    0.32    0.32
  -1   8 -15    0.24    0.32
   1  -8  15   -0.10    0.31
   1  -8  15    0.01    0.22
   2  -8  15    5.90    0.56
   3  -8  15    0.14    0.22
   5   7 -15    6.16    0.70
   4   7 -15    0.30    0.30
   3   7 -15    4.15    0.68
  -3  -7  15    3.91    0.70
   2   7 -15    5.94    0.78
  -2  -7  15    6.18    0.86
  -2  -7  15    6.82    0.57
   1   7 -15    4.50    0.71
  -1  -7  15    4.03    0.67
  -1  -7  15    5.35    0.55
   0   7 -15   11.18    0.89
   0  -7  15   10.00    0.66
   0  -7  15    9.50    0.98
  -1   7 -15    0.46    0.35
   1  -7  15    0.85    0.28
   1  -7  15    1.01    0.41
   2  -7  15    2.62    0.40
   3  -7  15    7.64    0.55
   5   6 -15    2.18    0.46
   4   6 -15   14.72    0.87
   3   6 -15    2.50    0.55
  -3  -6  15    2.39    0.59
   2   6 -15   -0.08    0.27
  -2  -6  15    0.17    0.35
  -2  -6  15   -0.18    0.23
   1   6 -15   10.92    0.90
  -1  -6  15   10.05    0.66
  -1  -6  15   10.86    1.07
   0   6 -15   14.52    1.01
   0  -6  15   13.00    0.75
   0  -6  15   14.54    1.04
  -1   6 -15   16.64    1.05
   1  -6  15   17.06    0.83
   1  -6  15   15.87    1.06
   2  -6  15    2.67    0.40
   3  -6  15    0.09    0.21
   5   5 -15    0.14    0.28
   4   5 -15    0.00    0.24
   3   5 -15    2.35    0.54
  -3  -5  15    2.96    0.65
   2   5 -15    3.61    0.63
  -2  -5  15    3.53    0.47
  -2  -5  15    3.80    0.69
   1   5 -15    5.85    0.75
  -1  -5  15    6.66    0.55
  -1  -5  15    6.45    0.84
   0   5 -15    1.29    0.44
   0  -5  15    1.65    0.48
   0  -5  15    1.83    0.37
  -1   5 -15    1.22    0.40
   1  -5  15    1.26    0.31
   1  -5  15    0.74    0.39
   2  -5  15    0.65    0.27
   3  -5  15   -0.03    0.21
   5   4 -15    0.20    0.29
   4   4 -15    5.14    0.60
   3   4 -15    1.49    0.49
  -3  -4  15    0.56    0.39
   2   4 -15    5.20    0.73
  -2  -4  15    5.60    0.81
  -2  -4  15    4.92    0.54
   1   4 -15    2.93    0.58
  -1  -4  15    2.86    0.60
  -1  -4  15    3.44    0.45
   0   4 -15    3.11    0.57
   0  -4  15    4.57    0.70
   0  -4  15    4.38    0.49
  -1   4 -15    2.93    0.54
   1  -4  15    2.82    0.40
   1  -4  15    2.39    0.52
   2  -4  15    0.21    0.22
   3  -4  15    0.03    0.20
   5   3 -15    0.96    0.37
   4   3 -15    0.29    0.31
   2   3 -15    0.42    0.32
  -2  -3  15    0.53    0.29
  -2  -3  15    0.13    0.35
   1   3 -15    0.24    0.29
  -1  -3  15    0.38    0.36
  -1  -3  15    0.09    0.24
   0   3 -15    0.69    0.36
   0  -3  15    0.37    0.34
   0  -3  15    0.75    0.28
   1  -3  15    2.64    0.40
   2  -3  15    0.14    0.21
   5   2 -15    1.27    0.39
   4   2 -15    0.15    0.26
   2   2 -15   -0.06    0.27
  -2  -2  15   -0.06    0.24
  -2  -2  15    0.18    0.37
   1   2 -15    0.28    0.31
  -1  -2  15    0.76    0.30
  -1  -2  15    0.65    0.38
   0   2 -15   -0.17    0.26
   0  -2  15   -0.09    0.22
   0  -2  15   -0.34    0.24
   1  -2  15    5.61    0.55
   2  -2  15    1.66    0.34
   5   1 -15   -0.31    0.25
  -2  -1  15    1.49    0.36
   1   1 -15    0.22    0.31
  -1  -1  15   -0.41    0.20
  -1  -1  15    0.27    0.36
   0   1 -15    2.01    0.50
   0  -1  15    1.91    0.36
   0  -1  15    1.34    0.47
   1  -1  15    1.38    0.33
   2  -1  15    0.16    0.23
  -2   0  15    0.50    0.31
  -1   0  15    0.27    0.25
   0   0  15    2.56    0.42
  -2   1  15   -0.09    0.26
  -1   1  15   -0.24    0.24
   0 -14  16    0.46    0.32
  -1 -13  16   -0.15    0.27
   0 -13  16    1.78    0.42
   1 -13  16    4.10    0.57
  -1 -12  16    2.13    0.47
   0 -12  16    4.77    0.62
   1 -12  16    6.73    0.68
   2 -12  16    1.95    0.40
  -1 -11  16   -0.02    0.26
   0 -11  16   -0.08    0.27
   1 -11  16    0.10    0.27
   2 -11  16    0.19    0.25
  -1 -10  16    0.38    0.28
   0 -10  16    2.12    0.42
  -1  10 -16    0.76    0.42
   1 -10  16    1.88    0.38
   1 -10  16    1.35    0.53
   2 -10  16    1.01    0.32
   4   9 -16    3.63    0.56
  -1  -9  16    1.65    0.38
   0   9 -16    8.16    0.93
   0  -9  16    9.23    0.67
   0  -9  16    9.01    1.01
  -1   9 -16    3.86    0.68
   1  -9  16    4.71    0.53
   1  -9  16    3.39    0.65
   2  -9  16    0.08    0.24
   4   8 -16   11.46    0.83
  -2  -8  16   10.80    0.75
   1   8 -16    1.72    0.52
  -1  -8  16    2.01    0.58
  -1  -8  16    1.49    0.38
   0   8 -16    4.82    0.74
   0  -8  16    4.92    0.77
   0  -8  16    4.87    0.56
  -1   8 -16    2.28    0.56
   1  -8  16    2.02    0.38
   1  -8  16    1.47    0.50
   2  -8  16   -0.14    0.21
   4   7 -16    2.49    0.47
  -2  -7  16    3.56    0.51
   1   7 -16    4.36    0.73
  -1  -7  16    6.29    0.65
  -1  -7  16    4.82    0.80
   0   7 -16   -0.19    0.30
   0  -7  16    0.02    0.25
   0  -7  16    0.18    0.37
  -1   7 -16    1.02    0.43
   1  -7  16    0.20    0.37
   1  -7  16    0.48    0.29
   2  -7  16   20.10    0.93
  -2  -6  16    3.41    0.50
   1   6 -16    3.11    0.60
  -1  -6  16    2.64    0.61
  -1  -6  16    4.34    0.54
   0   6 -16    5.82    0.79
   0  -6  16    4.50    0.54
   0  -6  16    3.68    0.70
   1  -6  16    1.39    0.49
   1  -6  16    1.83    0.38
   2  -6  16    0.62    0.28
  -2  -5  16    7.84    0.63
   1   5 -16    4.64    0.74
  -1  -5  16    3.55    0.50
  -1  -5  16    3.91    0.73
   0   5 -16    3.92    0.66
   0  -5  16    2.77    0.44
   0  -5  16    2.48    0.60
   1  -5  16    3.00    0.45
   2  -5  16   16.54    0.83
  -2  -4  16    4.38    0.54
   1   4 -16    3.52    0.63
  -1  -4  16    4.42    0.53
  -1  -4  16    2.43    0.57
   0   4 -16   -0.15    0.29
   0  -4  16    0.32    0.40
   0  -4  16    0.14    0.24
   1  -4  16    6.27    0.53
   2  -4  16    2.35    0.39
  -2  -3  16    3.26    0.46
  -1  -3  16   -0.24    0.22
   0   3 -16    0.07    0.32
   0  -3  16    0.13    0.36
   0  -3  16    0.09    0.24
   1  -3  16    6.59    0.54
  -2  -2  16    0.08    0.27
  -1  -2  16    6.45    0.64
   0  -2  16    5.42    0.58
   1  -2  16   -0.30    0.21
  -2  -1  16   -0.41    0.25
  -1  -1  16    2.50    0.44
   0  -1  16    0.69    0.31
  -2   0  16    0.03    0.29
  -1   0  16    5.56    0.60
   0   0  16    0.11    0.28
  -1 -12  17    0.44    0.30
   0 -12  17    0.09    0.29
  -1 -11  17    0.31    0.29
   0 -11  17    0.28    0.32
   1 -11  17    0.28    0.30
  -1 -10  17    1.27    0.41
   0 -10  17    2.24    0.44
   1 -10  17    0.19    0.29
   0  -9  17    1.69    0.42
   1  -9  17    2.23    0.42
  -1  -8  17    5.63    0.65
   0  -8  17    7.57    0.64
   1  -8  17    0.28    0.29
  -2  -7  17    2.10    0.45
  -1  -7  17   25.84    1.18
   0  -7  17   14.02    0.83
   1  -7  17    1.38    0.37
  -2  -6  17    0.87    0.33
  -1  -6  17   25.64    1.15
   0  -6  17    5.97    0.64
   1  -6  17    3.95    0.52
  -2  -5  17   11.46    0.77
  -1  -5  17    9.79    0.71
   0  -5  17    1.33    0.38
   1  -5  17    8.09    0.63
  -2  -4  17    0.27    0.31
  -1  -4  17    2.04    0.43
   0  -4  17    2.47    0.44
  -2  -3  17    0.20    0.31
  -1  -3  17    0.27    0.29
   0  -3  17   30.76    1.26
  -2  -2  17   21.29    1.05
  -1  -2  17    0.37    0.29
  -1  -9  18    0.07    0.34
  -1  -8  18    0.08    0.29
  -1  -7  18    2.69    0.50
  -1  -6  18    0.20    0.31
   0   0   0    0.00    0.00
;
_shelx_hkl_checksum              1235
loop_
_space_group_symop_operation_xyz
'x, y, z'
'-x, -y, -z'
loop_
_atom_site_label
_atom_site_type_symbol
_atom_site_fract_x
_atom_site_fract_y
_atom_site_fract_z
_atom_site_U_iso_or_equiv
_atom_site_adp_type
_atom_site_occupancy
_atom_site_site_symmetry_order
_atom_site_calc_flag
_atom_site_refinement_flags_posn
_atom_site_refinement_flags_adp
H100 H -0.361(4) 0.016(2) 0.362(2) 0.045(6) Uiso 1 1 d . .
H101 H -0.419(4) -0.116(2) 0.285(2) 0.039(6) Uiso 1 1 d . .
F2 F 0.7925(2) 0.37287(11) 0.22406(11) 0.0440(3) Uani 1 1 d . .
F3 F 0.4228(2) 0.36997(11) 0.13487(11) 0.0470(3) Uani 1 1 d . .
F1 F 0.5936(3) 0.50828(10) 0.32034(11) 0.0559(4) Uani 1 1 d . .
O2 O 0.0487(2) -0.09396(10) 0.10623(9) 0.0212(2) Uani 1 1 d . .
N2 N -0.3030(2) -0.05293(15) 0.34360(12) 0.0224(3) Uani 1 1 d . .
N1 N 0.1284(2) 0.05803(12) 0.41123(10) 0.0197(3) Uani 1 1 d . .
H1A H 0.1587 0.0612 0.4833 0.024 Uiso 1 1 calc R U
C6 C 0.0116(3) -0.16319(14) 0.25333(12) 0.0175(3) Uani 1 1 d . .
C7 C -0.0631(2) -0.04040(14) 0.30563(12) 0.0167(3) Uani 1 1 d . .
C10 C 0.1523(3) 0.12078(13) 0.26070(12) 0.0174(3) Uani 1 1 d . .
C14 C 0.4433(3) 0.30347(14) 0.29054(14) 0.0238(3) Uani 1 1 d . .
C11 C 0.2543(3) 0.14478(13) 0.38266(12) 0.0178(3) Uani 1 1 d . .
C15 C 0.2432(3) 0.20051(14) 0.21466(13) 0.0210(3) Uani 1 1 d . .
H15 H 0.1725 0.1858 0.1348 0.025 Uiso 1 1 calc R U
C2 C 0.1704(3) -0.28592(15) 0.07744(14) 0.0254(3) Uani 1 1 d . .
H2 H 0.2166 -0.2979 0.0042 0.031 Uiso 1 1 calc R U
C8 C -0.0483(3) 0.00105(14) 0.19882(12) 0.0175(3) Uani 1 1 d . .
C1 C 0.0787(3) -0.18355(14) 0.14307(12) 0.0184(3) Uani 1 1 d . .
C13 C 0.5478(3) 0.32607(15) 0.41132(14) 0.0269(3) Uani 1 1 d . .
H13 H 0.6819 0.3950 0.4606 0.032 Uiso 1 1 calc R U
C5 C 0.0271(3) -0.24906(15) 0.29924(13) 0.0232(3) Uani 1 1 d . .
H5 H -0.0220 -0.2375 0.3718 0.028 Uiso 1 1 calc R U
C16 C 0.5600(4) 0.38808(15) 0.24322(15) 0.0293(4) Uani 1 1 d . .
C4 C 0.1173(3) -0.35281(15) 0.23463(15) 0.0278(3) Uani 1 1 d . .
H4 H 0.1290 -0.4111 0.2643 0.033 Uiso 1 1 calc R U
C12 C 0.4545(3) 0.24743(15) 0.45863(13) 0.0242(3) Uani 1 1 d . .
H12 H 0.5239 0.2628 0.5389 0.029 Uiso 1 1 calc R U
C3 C 0.1903(3) -0.36991(15) 0.12578(15) 0.0290(3) Uani 1 1 d . .
H3 H 0.2536 -0.4388 0.0846 0.035 Uiso 1 1 calc R U
C9 C -0.2988(3) 0.00678(17) 0.13208(14) 0.0276(3) Uani 1 1 d . .
H9A H -0.2706 0.0282 0.0674 0.041 Uiso 1 1 calc R U
H9B H -0.3677 0.0685 0.1890 0.041 Uiso 1 1 calc R U
H9C H -0.4171 -0.0727 0.0974 0.041 Uiso 1 1 calc R U
loop_
_atom_site_aniso_label
_atom_site_aniso_U_11
_atom_site_aniso_U_22
_atom_site_aniso_U_33
_atom_site_aniso_U_23
_atom_site_aniso_U_13
_atom_site_aniso_U_12
F2 0.0413(6) 0.0551(7) 0.0548(7) 0.0364(6) 0.0273(6) 0.0146(6)
F3 0.0537(7) 0.0528(7) 0.0465(7) 0.0382(6) 0.0070(6) 0.0033(6)
F1 0.1008(11) 0.0217(5) 0.0501(7) 0.0136(5) 0.0434(7) 0.0111(6)
O2 0.0271(6) 0.0244(5) 0.0144(4) 0.0089(4) 0.0095(4) 0.0074(4)
N2 0.0150(6) 0.0378(8) 0.0204(6) 0.0162(6) 0.0081(5) 0.0099(6)
N1 0.0224(6) 0.0241(6) 0.0124(5) 0.0094(5) 0.0021(5) 0.0040(5)
C6 0.0122(6) 0.0242(7) 0.0146(6) 0.0081(6) 0.0017(5) 0.0034(5)
C7 0.0126(6) 0.0261(7) 0.0136(6) 0.0099(6) 0.0043(5) 0.0062(6)
C10 0.0169(6) 0.0233(7) 0.0145(6) 0.0089(5) 0.0055(5) 0.0086(6)
C14 0.0300(8) 0.0224(7) 0.0227(7) 0.0113(6) 0.0115(6) 0.0079(6)
C11 0.0186(7) 0.0217(7) 0.0143(6) 0.0076(6) 0.0057(5) 0.0081(6)
C15 0.0245(7) 0.0255(7) 0.0177(6) 0.0108(6) 0.0090(6) 0.0119(6)
C2 0.0263(8) 0.0249(8) 0.0192(7) 0.0041(6) 0.0074(6) 0.0051(6)
C8 0.0160(6) 0.0261(7) 0.0134(6) 0.0100(6) 0.0056(5) 0.0084(6)
C1 0.0151(6) 0.0212(7) 0.0158(6) 0.0068(6) 0.0027(5) 0.0012(6)
C13 0.0304(9) 0.0225(8) 0.0228(7) 0.0075(6) 0.0054(7) 0.0012(7)
C5 0.0245(8) 0.0266(8) 0.0182(6) 0.0109(6) 0.0026(6) 0.0052(6)
C16 0.0394(10) 0.0239(8) 0.0259(8) 0.0103(7) 0.0144(7) 0.0070(7)
C4 0.0319(9) 0.0227(8) 0.0259(7) 0.0100(7) 0.0015(7) 0.0062(7)
C12 0.0274(8) 0.0255(8) 0.0161(6) 0.0071(6) 0.0029(6) 0.0053(6)
C3 0.0312(9) 0.0215(8) 0.0264(8) 0.0034(7) 0.0045(7) 0.0082(7)
C9 0.0180(7) 0.0477(10) 0.0245(7) 0.0235(8) 0.0032(6) 0.0086(7)
loop_
_atom_type_symbol
_atom_type_description
_atom_type_scat_dispersion_real
_atom_type_scat_dispersion_imag
_atom_type_scat_source
C C 0.0033 0.0016 'International Tables Vol C Tables 4.2.6.8 and 6.1.1.4'
H H 0.0000 0.0000 'International Tables Vol C Tables 4.2.6.8 and 6.1.1.4'
N N 0.0061 0.0033 'International Tables Vol C Tables 4.2.6.8 and 6.1.1.4'
O O 0.0106 0.0060 'International Tables Vol C Tables 4.2.6.8 and 6.1.1.4'
F F 0.0171 0.0103 'International Tables Vol C Tables 4.2.6.8 and 6.1.1.4'
loop_
_geom_angle_atom_site_label_1
_geom_angle_atom_site_label_2
_geom_angle_atom_site_label_3
_geom_angle
C1 O2 C8 108.59(10)
C11 N1 C7 112.42(11)
C1 C6 C5 119.93(13)
C1 C6 C7 109.30(12)
C5 C6 C7 130.74(12)
N2 C7 N1 107.77(11)
N2 C7 C6 111.05(12)
N1 C7 C6 113.83(10)
N2 C7 C8 119.16(10)
N1 C7 C8 103.27(11)
C6 C7 C8 101.71(10)
C15 C10 C11 120.81(14)
C15 C10 C8 130.05(12)
C11 C10 C8 109.11(12)
C15 C14 C13 120.57(14)
C15 C14 C16 120.85(14)
C13 C14 C16 118.51(15)
N1 C11 C12 127.98(13)
N1 C11 C10 111.26(13)
C12 C11 C10 120.75(13)
C10 C15 C14 118.55(13)
C1 C2 C3 117.25(13)
O2 C8 C10 108.96(10)
O2 C8 C9 106.71(11)
C10 C8 C9 115.02(12)
O2 C8 C7 105.92(10)
C10 C8 C7 103.75(10)
C9 C8 C7 116.02(11)
O2 C1 C2 123.48(12)
O2 C1 C6 114.26(12)
C2 C1 C6 122.26(13)
C12 C13 C14 121.12(15)
C6 C5 C4 118.79(13)
F1 C16 F3 106.49(14)
F1 C16 F2 105.86(15)
F3 C16 F2 105.12(13)
F1 C16 C14 113.10(13)
F3 C16 C14 113.38(15)
F2 C16 C14 112.23(13)
C5 C4 C3 120.42(14)
C13 C12 C11 118.17(13)
C2 C3 C4 121.31(14)
loop_
_geom_bond_atom_site_label_1
_geom_bond_atom_site_label_2
_geom_bond_distance
F2 C16 1.348(2)
F3 C16 1.338(2)
F1 C16 1.3372(19)
O2 C1 1.3679(17)
O2 C8 1.4762(16)
N2 C7 1.4596(17)
N1 C11 1.3697(19)
N1 C7 1.4604(19)
C6 C1 1.3881(18)
C6 C5 1.3888(19)
C6 C7 1.5096(19)
C7 C8 1.6002(18)
C10 C15 1.382(2)
C10 C11 1.4072(18)
C10 C8 1.499(2)
C14 C15 1.393(2)
C14 C13 1.402(2)
C14 C16 1.490(2)
C11 C12 1.392(2)
C2 C1 1.388(2)
C2 C3 1.392(2)
C8 C9 1.5113(19)
C13 C12 1.387(2)
C5 C4 1.392(2)
C4 C3 1.394(2)
