#------------------------------------------------------------------------------
#$Date: 2016-05-06 03:19:51 +0300 (Fri, 06 May 2016) $
#$Revision: 182609 $
#$URL: svn://www.crystallography.net/cod/cif/7/11/89/7118902.cif $
#------------------------------------------------------------------------------
#
# This file is available in the Crystallography Open Database (COD),
# http://www.crystallography.net/
#
# All data on this site have been placed in the public domain by the
# contributors.
#
data_7118902
loop_
_publ_author_name
'Ivanov, Daniil M.'
'Novikov, Alexander S.'
'Ananyev, Ivan V.'
'Kirina, Yulia V.'
'Kukushkin, Vadim Yu'
_publ_section_title
;
 Halogen bonding between metal centers and halocarbons.
;
_journal_issue                   32
_journal_name_full
'Chemical communications (Cambridge, England)'
_journal_page_first              5565
_journal_page_last               5568
_journal_paper_doi               10.1039/c6cc01107a
_journal_volume                  52
_journal_year                    2016
_chemical_formula_moiety         'C12 H20 Cl2 N4 Pt, 2(C H I3)'
_chemical_formula_sum            'C14 H22 Cl2 I6 N4 Pt'
_chemical_formula_weight         1273.74
_space_group_crystal_system      triclinic
_space_group_IT_number           2
_space_group_name_Hall           '-P 1'
_space_group_name_H-M_alt        'P -1'
_symmetry_space_group_name_Hall  '-P 1'
_symmetry_space_group_name_H-M   'P -1'
_atom_sites_solution_hydrogens   geom
_atom_sites_solution_primary     direct
_audit_creation_date             2015-12-29
_audit_creation_method
;
Olex2 1.2
(compiled 2015.01.26 svn.r3150 for OlexSys, GUI svn.r4998)
;
_audit_update_record
;
2016-01-11 deposited with the CCDC.
2016-03-16 downloaded from the CCDC.
;
_cell_angle_alpha                114.930(9)
_cell_angle_beta                 99.180(10)
_cell_angle_gamma                108.364(10)
_cell_formula_units_Z            1
_cell_length_a                   9.1806(11)
_cell_length_b                   9.3566(9)
_cell_length_c                   10.3153(10)
_cell_measurement_reflns_used    1592
_cell_measurement_temperature    300.00(10)
_cell_measurement_theta_max      30.1400
_cell_measurement_theta_min      2.6494
_cell_volume                     717.25(17)
_computing_cell_refinement
;
CrysAlisPro, Agilent Technologies,
Version 1.171.36.20 (release 27-06-2012 CrysAlis171 .NET)
(compiled Jul 11 2012,15:38:31)
;
_computing_data_collection
;
CrysAlisPro, Agilent Technologies,
Version 1.171.36.20 (release 27-06-2012 CrysAlis171 .NET)
(compiled Jul 11 2012,15:38:31)
;
_computing_data_reduction
;
CrysAlisPro, Agilent Technologies,
Version 1.171.36.20 (release 27-06-2012 CrysAlis171 .NET)
(compiled Jul 11 2012,15:38:31)
;
_computing_molecular_graphics    'Olex2 (Dolomanov et al., 2009)'
_computing_publication_material  'Olex2 (Dolomanov et al., 2009)'
_computing_structure_refinement  'ShelXL (Sheldrick, 2008)'
_computing_structure_solution    'ShelXT (Sheldrick, 2015)'
_diffrn_ambient_temperature      300.00(10)
_diffrn_detector_area_resol_mean 16.2096
_diffrn_measured_fraction_theta_full 0.983
_diffrn_measured_fraction_theta_max 0.830
_diffrn_measurement_details
;
  1 omega  -26.00    5.00   1.0000   10.0000
omega____ theta____ kappa____ phi______ frames
    -      -20.4031  -77.0000   60.0000 31

  2 omega  -25.00   16.00   1.0000   10.0000
omega____ theta____ kappa____ phi______ frames
    -      -20.4031  -99.0000  -30.0000 41

  3 omega  -88.00  -62.00   1.0000   10.0000
omega____ theta____ kappa____ phi______ frames
    -      -20.4031 -178.0000 -150.0000 26

  4 omega  -42.00   46.00   1.0000   10.0000
omega____ theta____ kappa____ phi______ frames
    -      -20.4031   57.0000  -60.0000 88

  5 omega  -33.00   48.00   1.0000   10.0000
omega____ theta____ kappa____ phi______ frames
    -      -20.4031   57.0000   60.0000 81

  6 omega  -38.00   37.00   1.0000   10.0000
omega____ theta____ kappa____ phi______ frames
    -      -20.4031   57.0000 -180.0000 75
;
_diffrn_measurement_device_type  'Xcalibur, Eos'
_diffrn_measurement_method       '\w scans'
_diffrn_orient_matrix_UB_11      0.0070004000
_diffrn_orient_matrix_UB_12      -0.0356457000
_diffrn_orient_matrix_UB_13      0.0480013000
_diffrn_orient_matrix_UB_21      -0.0800838000
_diffrn_orient_matrix_UB_22      -0.0119571000
_diffrn_orient_matrix_UB_23      0.0005419000
_diffrn_orient_matrix_UB_31      -0.0320750000
_diffrn_orient_matrix_UB_32      -0.0844594000
_diffrn_orient_matrix_UB_33      -0.0647707000
_diffrn_radiation_monochromator  graphite
_diffrn_radiation_type           MoK\a
_diffrn_radiation_wavelength     0.71073
_diffrn_reflns_av_R_equivalents  0.0275
_diffrn_reflns_av_unetI/netI     0.0565
_diffrn_reflns_Laue_measured_fraction_full 0.983
_diffrn_reflns_Laue_measured_fraction_max 0.830
_diffrn_reflns_limit_h_max       12
_diffrn_reflns_limit_h_min       -12
_diffrn_reflns_limit_k_max       13
_diffrn_reflns_limit_k_min       -13
_diffrn_reflns_limit_l_max       12
_diffrn_reflns_limit_l_min       -14
_diffrn_reflns_number            5354
_diffrn_reflns_point_group_measured_fraction_full 0.983
_diffrn_reflns_point_group_measured_fraction_max 0.830
_diffrn_reflns_theta_full        25.242
_diffrn_reflns_theta_max         30.207
_diffrn_reflns_theta_min         2.655
_diffrn_source                   'Enhance (Mo) X-ray Source'
_exptl_absorpt_coefficient_mu    11.542
_exptl_absorpt_correction_T_max  1.00000
_exptl_absorpt_correction_T_min  0.36570
_exptl_absorpt_correction_type   multi-scan
_exptl_absorpt_process_details
;
CrysAlisPro, Agilent Technologies,
Version 1.171.36.20 (release 27-06-2012 CrysAlis171 .NET)
(compiled Jul 11 2012,15:38:31)
Empirical absorption correction using spherical harmonics,
 implemented in SCALE3 ABSPACK scaling algorithm.
;
_exptl_crystal_density_diffrn    2.949
_exptl_crystal_F_000             564
_refine_diff_density_max         0.991
_refine_diff_density_min         -1.388
_refine_diff_density_rms         0.176
_refine_ls_extinction_method     none
_refine_ls_goodness_of_fit_ref   1.028
_refine_ls_hydrogen_treatment    constr
_refine_ls_matrix_type           full
_refine_ls_number_parameters     124
_refine_ls_number_reflns         3528
_refine_ls_number_restraints     0
_refine_ls_restrained_S_all      1.028
_refine_ls_R_factor_all          0.0684
_refine_ls_R_factor_gt           0.0420
_refine_ls_shift/su_max          0.001
_refine_ls_shift/su_mean         0.000
_refine_ls_structure_factor_coef Fsqd
_refine_ls_weighting_details
'w=1/[\s^2^(Fo^2^)+(0.0350P)^2^] where P=(Fo^2^+2Fc^2^)/3'
_refine_ls_weighting_scheme      calc
_refine_ls_wR_factor_gt          0.0865
_refine_ls_wR_factor_ref         0.1042
_reflns_Friedel_coverage         0.000
_reflns_number_gt                2422
_reflns_number_total             3528
_reflns_threshold_expression     'I > 2\s(I)'
_cod_data_source_file            c6cc01107a2.cif
_cod_data_source_block           0exp_dantemp300
_cod_depositor_comments
'Adding full bibliography for 7118900--7118914.cif.'
_cod_original_cell_volume        717.26(14)
_cod_database_code               7118902
_shelxl_version_number           2014/6
_chemical_oxdiff_formula         'Pt C14 H22 Cl2 I6 N4'
_shelx_space_group_comment
;
The symmetry employed for this shelxl refinement is uniquely defined
by the following loop, which should always be used as a source of
symmetry information in preference to the above space-group names.
They are only intended as comments.
;
_reflns_odcompleteness_completeness 97.14
_reflns_odcompleteness_iscentric 1
_reflns_odcompleteness_theta     27.50
_olex2_refinement_description
;
1. Fixed Uiso
 At 1.2 times of:
  All C(H) groups, All C(H,H) groups
2.a Ternary CH refined with riding coordinates:
 C1S(H1S)
2.b Secondary CH2 refined with riding coordinates:
 C6(H6A,H6B), C2(H2A,H2B), C4(H4A,H4B), C5(H5A,H5B), C3(H3A,H3B)
;
_shelx_res_file
;
TITL 0exp_dantemp300_a.res in P-1
REM Old TITL 0exp_dantemp300 in P-1 #2
REM SHELXT solution in P-1
REM R1 0.185, Rweak 0.008, Alpha 0.025, Orientation as input
REM Formula found by SHELXT: C10 Cl2 I6 N6 Pt
CELL 0.71073 9.180627 9.356627 10.315261 114.9295 99.1803 108.3636
ZERR 1 0.001064 0.000866 0.000951 0.0092 0.01 0.0097
LATT 1
SFAC C H Cl I N Pt
UNIT 14 22 2 6 4 1

L.S. 10
PLAN  25
BOND $H
LIST 6
fmap 2
acta
OMIT -1 -1 1
REM <olex2.extras>
REM <HklSrc "%.\\0exp_dantemp300.hkl">
REM </olex2.extras>

WGHT    0.035000
FVAR       0.36829
PT1   6    0.500000    0.500000    0.500000    10.50000    0.03703    0.03098 =
         0.06261    0.01085    0.02445    0.00912
I1S   4    0.951254    0.661594    0.921585    11.00000    0.05631    0.04901 =
         0.06779    0.02700    0.02762    0.01961
I2S   4    1.332406    0.644537    0.913618    11.00000    0.06733    0.06584 =
         0.07958    0.03451    0.04073    0.03226
I3S   4    1.316758    1.037240    1.166241    11.00000    0.06727    0.04551 =
         0.09512    0.02357    0.02285    0.01633
CL1   3    0.561309    0.485773    0.721575    11.00000    0.04327    0.05587 =
         0.06792    0.02570    0.02544    0.01401
N1    5    0.266438    0.379847    0.462692    11.00000    0.04301    0.03915 =
         0.06547    0.01009    0.02434    0.00932
N2    5   -0.022905    0.214286    0.410358    11.00000    0.04379    0.05255 =
         0.06758    0.01179    0.03213    0.00085
C1S   1    1.203480    0.761149    1.049686    11.00000    0.05831    0.04177 =
         0.05635    0.02193    0.02319    0.01360
AFIX  13
H1S   2    1.205745    0.727483    1.127734    11.00000   -1.20000
AFIX   0

C1    1    0.131359    0.302434    0.437505    11.00000    0.04529    0.03862 =
         0.04476    0.01672    0.02074    0.01146
C6    1   -0.119174    0.043821    0.271833    11.00000    0.06494    0.05799 =
         0.06292   -0.00175    0.02325   -0.01142
AFIX  23
H6A   2   -0.047232    0.000577    0.224751    11.00000   -1.20000
H6B   2   -0.190670    0.054490    0.199814    11.00000   -1.20000
AFIX   0
C2    1   -0.109252    0.288512    0.501571    11.00000    0.05921    0.05327 =
         0.09995    0.02442    0.04901    0.02439
AFIX  23
H2A   2   -0.180809    0.316243    0.445933    11.00000   -1.20000
H2B   2   -0.032243    0.395953    0.593100    11.00000   -1.20000
AFIX   0
C4    1   -0.314301   -0.017371    0.403199    11.00000    0.05691    0.06075 =
         0.11819    0.04245    0.04177    0.01244
AFIX  23
H4A   2   -0.362629   -0.098411    0.436161    11.00000   -1.20000
H4B   2   -0.402000   -0.012900    0.340978    11.00000   -1.20000
AFIX   0
C5    1   -0.216891   -0.078411    0.313517    11.00000    0.06689    0.05371 =
         0.09896    0.02633    0.02390    0.01626
AFIX  23
H5A   2   -0.289418   -0.187000    0.220895    11.00000   -1.20000
H5B   2   -0.143484   -0.103393    0.370324    11.00000   -1.20000
AFIX   0
C3    1   -0.207478    0.165772    0.543632    11.00000    0.07932    0.09588 =
         0.07953    0.03604    0.04739    0.02711
AFIX  23
H3A   2   -0.277077    0.211667    0.592606    11.00000   -1.20000
H3B   2   -0.134786    0.156414    0.615833    11.00000   -1.20000
AFIX   0
HKLF 4

REM  0exp_dantemp300_a.res in P-1
REM R1 =  0.0420 for    2422 Fo > 4sig(Fo)  and  0.0684 for all    3528 data
REM    124 parameters refined using      0 restraints

END

WGHT      0.0353      0.0000

REM Highest difference peak  0.991,  deepest hole -1.388,  1-sigma level  0.176
Q1    1  -0.1198  0.4829  0.4890  11.00000  0.05    0.99
Q2    1   0.5750  0.5540  0.7290  11.00000  0.05    0.90
Q3    1   1.3365  0.7442  0.9121  11.00000  0.05    0.85
Q4    1   1.3990  1.0270  1.1305  11.00000  0.05    0.81
Q5    1   0.4962  0.3649  0.4505  11.00000  0.05    0.79
Q6    1   0.1400  0.1160  0.2578  11.00000  0.05    0.78
Q7    1  -0.2219 -0.1995  0.3239  11.00000  0.05    0.76
Q8    1   0.5386  0.4019  0.6773  11.00000  0.05    0.73
Q9    1   0.9619  0.7806  0.9483  11.00000  0.05    0.71
Q10   1   0.1860  0.3352  0.3792  11.00000  0.05    0.64
Q11   1   0.9590  0.5372  0.9129  11.00000  0.05    0.63
Q12   1   1.1439  0.9413  1.0999  11.00000  0.05    0.62
Q13   1   1.0888  0.7179  0.9591  11.00000  0.05    0.60
Q14   1   0.9439  0.5839  0.7860  11.00000  0.05    0.59
Q15   1   0.4607  0.4654  0.4438  11.00000  0.05    0.59
Q16   1  -0.3377 -0.2076  0.4898  11.00000  0.05    0.59
Q17   1   1.1753  0.6674  1.1321  11.00000  0.05    0.58
Q18   1   1.2868  0.8979  1.1143  11.00000  0.05    0.58
Q19   1   1.2966  0.6929  1.0210  11.00000  0.05    0.56
Q20   1   1.3591  1.1845  1.2531  11.00000  0.05    0.56
Q21   1   0.3317  0.2669  0.3441  11.00000  0.05    0.54
Q22   1   1.3769  0.5343  0.9189  11.00000  0.05    0.53
Q23   1  -0.0685 -0.0090  0.3689  11.00000  0.05    0.53
Q24   1   0.3204  0.4018  0.4103  11.00000  0.05    0.52
Q25   1  -0.3692  0.1889  0.2935  11.00000  0.05    0.52
;
_shelx_res_checksum              54118
_shelx_hkl_file
;
   0   0   2 1964.52   33.62
   0   0  -2 1978.46   33.04
   0   0   3 1959.11   40.03
   0   0  -3 1989.79   38.99
   0   0   3 1977.57   40.17
   0   0  -4   31.33    5.40
   0   0  -5 1630.81   43.27
   0   0  -6   57.35    8.62
   0   0  -7  280.62   20.95
   0   0  -8   14.94    4.82
   0   0  -9   88.36   13.60
   0   0 -10   20.22    7.26
   0   0 -11    1.29    2.24
   0   0 -12   16.34    7.56
   0   1 -12   11.21    6.64
   0   1 -11    1.72    2.61
   0   1 -10  131.60   17.96
   0   1  -9   42.05    9.31
   0   1  -8  165.16   17.91
   0   1  -7  230.59   19.23
   0   1  -6  262.44   19.33
   0   1  -5 3593.52   71.97
   0   1  -4    3.74    2.29
   0  -1   4    5.22    1.40
   0   1  -3 2235.95   27.12
   0   1  -3 2228.96   46.48
   0  -1   3 2202.42   31.88
   0   1  -2  104.51    5.40
   0  -1   2  104.23    6.17
   0   1   0 1244.27   18.90
   0  -1  -1  549.18   13.71
   0  -1  -1  569.07   16.97
   0   1   1  546.63   13.02
   0   1   1  591.33   13.92
   0  -1  -1  548.20   12.95
   0   1   1  564.76   18.72
   0   1   2 8245.08   90.15
   0   1   2 8097.47   96.52
   0   1   2 8300.38   90.13
   0  -1  -2 8193.57   88.17
   0  -1  -3 1864.55   37.46
   0   1   3 1760.79   36.01
   0  -1  -4 1494.17   37.31
   0   1   4 1417.64   29.36
   0   1   5  597.94   14.82
   0  -1  -5  687.64   27.38
   0  -1  -6  138.09   13.39
   0  -1  -7  517.81   28.84
   0  -1  -8    1.40    3.19
   0  -1  -9   67.53   11.77
   0  -1 -10   -0.58    2.30
   0  -1 -11    8.84    4.86
   0   2 -13    5.04    6.43
   0   2 -12    0.05    2.88
   0   2 -11   -1.33    2.81
   0   2 -10   55.87   11.64
   0   2  -9    0.41    2.47
   0   2  -8  782.73   40.22
   0   2  -7  270.24   22.47
   0  -2   6 1103.97   28.03
   0   2  -6 1091.16   42.82
   0   2  -5  937.67   38.25
   0  -2   5  928.92   27.16
   0   2  -5  924.73   20.66
   0   2  -4  495.54   16.07
   0  -2   4  502.74   20.13
   0  -2   3 9118.47  110.73
   0   2  -3 8995.74  104.82
   0  -2   3 9111.79   92.89
   0   2  -2 3297.96   53.32
   0   2  -2 3460.12   59.65
   0  -2   2 3313.89   59.03
   0   2  -1 2405.52   42.57
   0  -2   1 2502.21   43.96
   0  -2   1 2398.66   50.77
   0   2  -1 2462.94   52.59
   0   2   0 1440.64   39.80
   0  -2   0 1438.47   38.95
   0   2   0 1352.05   20.26
   0   2   0 1363.12   32.04
   0   2   0 1374.87   26.36
   0  -2   0 1364.43   20.45
   0  -2  -1  125.95    7.31
   0   2   1  125.47   10.18
   0   2   1  128.31   11.76
   0   2   1  124.15    6.70
   0   2   1  129.88    7.70
   0  -2  -1  132.10   11.20
   0   2   2  115.03   11.21
   0   2   2  118.46    7.96
   0  -2  -2  110.38    8.20
   0   2   2  154.55    9.85
   0  -2  -2  128.84   10.48
   0  -2  -3  110.91    8.98
   0   2   3  117.19   11.31
   0  -2  -4 2003.76   44.64
   0   2   4 1991.42   45.05
   0   2   5  165.97   10.83
   0  -2  -5  182.52   14.15
   0  -2  -6  438.11   23.77
   0  -2  -7   13.34    4.34
   0  -2  -8    2.24    1.80
   0  -2  -9  129.01   15.98
   0  -2 -10    3.14    3.08
   0   3 -13   17.30    8.33
   0   3 -12   10.58    5.57
   0   3 -11   30.77    9.73
   0   3 -10   18.52    7.37
   0   3  -9    7.96    5.25
   0   3  -8  389.92   30.19
   0  -3   8  375.63   17.82
   0  -3   7   67.84    8.33
   0   3  -7   43.34   10.11
   0  -3   6  903.92   32.83
   0   3  -6  875.16   43.58
   0   3  -6  927.80   26.07
   0  -3   5  114.72   11.61
   0  -3   5  109.47    7.62
   0   3  -5  107.37    9.49
   0  -3   4 2685.65   47.96
   0   3  -4 2753.02   56.39
   0  -3   4 2722.20   61.12
   0  -3   3   99.81   11.27
   0   3  -3   90.27   10.42
   0   3  -3   67.03    8.36
   0  -3   2 1437.35   37.91
   0   3  -2 1609.12   43.54
   0   3  -2 1583.80   47.59
   0  -3   2 1485.57   45.83
   0   3  -1 8458.12  111.26
   0  -3   1 8636.13  116.00
   0  -3   1 8814.77   86.42
   0  -3   1 8837.54  101.04
   0  -3   1 8450.03  128.75
   0  -3   0 2009.45   55.55
   0  -3   0 2012.81   31.08
   0   3   0 2032.60   39.34
   0   3   0 2056.03   30.33
   0   3   1 2469.69   38.08
   0  -3  -1 2416.44   41.05
   0   3   1 2496.53   47.25
   0  -3  -1 2405.14   60.99
   0  -3  -2  640.44   29.21
   0  -3  -3   36.54    6.13
   0  -3  -4  838.03   29.96
   0  -3  -5    7.70    2.86
   0  -3  -6  225.52   17.92
   0  -3  -7    7.80    3.63
   0  -3  -8   68.15   11.20
   0  -3  -9    9.16    5.34
   0   4 -13    8.67    6.69
   0   4 -12    0.83    4.92
   0   4 -11  108.69   19.16
   0   4 -10   71.79   15.65
   0  -4   9  344.38   20.55
   0   4  -9  319.56   30.40
   0  -4   8   72.21    9.96
   0   4  -8   76.27   14.62
   0  -4   7  144.87   14.70
   0  -4   7   27.42    3.53
   0  -4   6 1268.14   45.36
   0  -4   5  347.80   23.50
   0  -4   4 1613.30   42.21
   0   4  -4 1595.38   45.11
   0  -4   4 1471.32   50.15
   0  -4   3    3.73    2.92
   0  -4   3    8.94    3.65
   0   4  -3    6.76    3.64
   0  -4   2  946.24   35.75
   0  -4   2 1022.99   43.12
   0  -4   1   70.95   11.20
   0  -4   1   66.77    5.18
   0  -4   0  110.48    7.30
   0   4   0  120.00    7.13
   0   4   0  125.43   10.48
   0  -4   0  127.59   15.10
   0  -4  -1 3541.30   85.20
   0   4   1 3644.30   65.93
   0   4   1 3673.21   52.82
   0  -4  -1 3690.72   58.09
   0   4   2 1001.19   34.11
   0  -4  -2 1029.60   42.54
   0  -4  -6  259.38   20.35
   0  -4  -7    6.26    3.50
   0   4   9   28.09   13.99
   0   5 -13   -5.25    4.28
   0   5 -12   -2.07    4.31
   0   5 -11    4.36    6.15
   0   5 -10    5.79    4.84
   0  -5   9  388.11   26.08
   0   5  -9  338.68   33.90
   0  -5   8  157.35   16.97
   0  -5   7  732.05   37.04
   0  -5   6   24.02    6.72
   0   5  -5   38.35    7.29
   0  -5   5   39.85    8.78
   0  -5   5   37.29    6.94
   0   5  -4 4924.53  101.16
   0  -5   4 4747.52   89.05
   0  -5   4 4713.23  104.22
   0  -5   3  849.63   37.47
   0   5  -3  900.87   41.51
   0  -5   3  936.64   44.91
   0  -5   2 1065.44   48.42
   0  -5   2 1030.15   25.58
   0  -5   1  187.55   20.17
   0  -5   1  166.31    9.13
   0  -5   0  213.31   11.51
   0   5   0  220.84   10.68
   0   5   0  217.62   15.72
   0  -5   0  220.25   22.12
   0   5   1  274.63   18.25
   0  -5  -1  295.08   25.47
   0   5   1  298.84   13.70
   0  -5  -1  271.58   15.29
   0  -5  -2   29.64    8.04
   0   5   2   21.65    5.20
   0   5   3  513.65   28.20
   0   5   4   36.78    8.15
   0   5   8   60.15   20.69
   0   6 -13   11.57    9.30
   0   6 -12   40.02   13.54
   0   6 -11   -1.20    5.86
   0   6 -10   -2.05    4.07
   0  -6  10    3.26    2.80
   0  -6   9  167.46   18.98
   0  -6   8    2.73    1.49
   0  -6   8   12.37    5.75
   0  -6   7  365.52   28.24
   0  -6   7  424.13   22.95
   0  -6   6  208.45   17.19
   0   6  -6  201.69   17.95
   0  -6   6  187.97   20.35
   0   6  -5 1252.70   51.35
   0  -6   5 1145.60   51.70
   0  -6   5 1208.50   44.38
   0  -6   4    4.47    3.04
   0   6  -4    8.41    4.57
   0  -6   4   14.16    6.17
   0   6  -3   17.23    6.04
   0  -6   3   17.68    3.98
   0  -6   3   14.39    6.37
   0  -6   2 2072.16   73.87
   0  -6   2 2007.56   38.37
   0  -6   1  652.91   41.52
   0  -6   1  670.24   20.65
   0  -6   0 1356.64   60.01
   0   6   0 1403.73   45.44
   0  -6   0 1294.06   32.53
   0   6   1  192.49   16.80
   0  -6  -1  195.05   22.13
   0   6   2    2.48    1.46
   0   6   3  195.26   18.72
   0   6   4   19.27    6.13
   0   6   5   92.13   14.39
   0   6   6    2.06    3.10
   0   6   7   29.50    9.56
   0   7 -13    0.98    6.98
   0   7 -12   55.68   15.74
   0   7 -11   32.95   13.70
   0  -7  10  139.21   18.26
   0  -7   9    3.18    3.63
   0  -7   8    2.81    3.16
   0  -7   8    4.32    2.64
   0  -7   7  537.03   28.97
   0  -7   7  455.99   33.96
   0  -7   6  165.65   17.31
   0   7  -6  150.26   17.69
   0  -7   6  144.46   19.61
   0   7  -5  598.50   38.76
   0  -7   5  518.46   36.74
   0  -7   4   13.00    3.88
   0  -7   4    8.36    4.77
   0   7  -4    5.68    3.01
   0  -7   3  364.96   17.06
   0   7  -3  388.91   31.95
   0  -7   3  396.83   33.08
   0  -7   2    4.33    4.54
   0   7  -2    9.74    6.60
   0  -7   2    4.15    1.77
   0  -7   1   83.75    7.44
   0  -7   1   90.91   16.46
   0  -7   0  726.60   46.40
   0   7   1  118.86   14.79
   0  -7  -1  120.78   18.90
   0   7   2  522.81   31.45
   0   7   3    5.18    3.41
   0   7   4    9.60    4.71
   0   7   5   74.55   23.80
   0   7   5   70.33   13.35
   0   8 -12    5.93    6.79
   0   8 -11    5.52    7.25
   0  -8  10   61.44   12.70
   0  -8   9   37.16   10.31
   0  -8   8  349.95   31.11
   0   8  -7   18.95    7.06
   0  -8   7   14.23    6.05
   0  -8   6    0.44    3.86
   0   8  -6    2.73    3.06
   0  -8   5  676.60   45.25
   0   8  -5  695.55   46.00
   0   8  -4  100.10   17.02
   0  -8   4   94.79   17.44
   0   8  -3  474.31   38.44
   0  -8   3  599.22   43.51
   0   8  -2   20.82    8.37
   0  -8   2   30.94   10.66
   0   8  -1   44.65   12.80
   0  -8   1   44.52   11.91
   0  -8   0   55.32   13.95
   0   8   0   94.43   19.09
   0   8   1   86.59   13.55
   0   8   1   94.14   20.32
   0   8   2   80.42   13.60
   0   8   2   92.26   21.40
   0   8   3   13.51   10.04
   0   8   3   -1.54    2.62
   0   8   4  115.30   17.64
   0   9 -12   -0.72    5.93
   0  -9  11    4.47    2.84
   0  -9  10   19.23    7.72
   0  -9   9   -2.51    3.47
   0  -9   8  134.39   20.31
   0  -9   7   15.53    7.34
   0   9  -7   22.81    8.52
   0  -9   6  275.02   29.67
   0   9  -6  279.18   30.78
   0  -9   5    6.56    5.69
   0   9  -5   11.39    5.69
   0  -9   4   76.89   16.29
   0   9  -4   76.63   15.82
   0  -9   3  340.88   34.76
   0   9  -3  324.14   33.92
   0   9  -2   96.06   19.03
   0  -9   2  121.75   21.42
   0   9  -1  338.72   38.01
   0  -9   1  369.74   36.71
   0   9   0   21.52    9.49
   0   9   1   12.08    9.50
   0   9   2   52.38   16.66
   0 -10  11   43.72   12.71
   0 -10  10   -1.32    2.89
   0 -10   9    3.18    4.64
   0 -10   8   87.99   17.05
   0 -10   7   12.17    5.60
   0 -10   6   84.22   17.36
   0  10  -6   58.42   14.90
   0  10  -5   10.27    4.99
   0 -10   5    4.92    5.92
   0 -10   4  109.50   20.33
   0  10  -4   81.90   18.25
   0 -10   3    0.05    5.50
   0  10  -3   -3.33    4.72
   0 -10   2   55.46   15.03
   0  10  -2   50.37   14.71
   0  10  -1   82.39   19.50
   0  10   0   -0.61    3.96
   0 -11  11    3.44    2.59
   0 -11  10   23.30    8.90
   0 -11   9   62.75   15.11
   0 -11   8    5.55    5.55
   0 -11   7   23.89    9.69
   0 -11   6   70.32   16.59
   0 -11   5   10.20    8.18
   0  11  -5    6.94    4.86
   0  11  -4  112.33   22.65
   0 -11   4  114.97   21.53
   0  11  -3   11.52    7.97
   0  11  -2    4.96    7.69
   0  12  -5   17.33   10.72
   0  12  -4   42.58   15.33
  -1  12  -4   69.86   19.19
  -1  12  -5    8.71    7.06
  -1  11  -1    7.75    7.07
  -1  11  -2   13.34    8.56
  -1  11  -3   65.47   18.53
  -1  11  -4   -5.17    6.63
  -1  11  -5   12.14    7.73
  -1  11  -6   56.34   14.32
  -1  10   0    6.18    6.15
  -1  10  -1   84.52   20.90
  -1  10  -2   10.74    6.43
  -1  10  -3   20.68    9.29
   1 -10   4   77.18   17.20
  -1  10  -4   76.25   17.99
  -1  10  -5   60.29   16.54
   1 -10   5   45.64   12.96
   1 -10   6   -0.93    2.38
  -1  10  -6    1.37    4.31
   1 -10   7   39.47   11.85
   1 -10   8   15.92    8.49
   1 -10   9    2.68    3.50
  -1  10 -11    7.14    6.05
  -1   9   2   32.01   13.52
  -1   9   1   24.84   11.79
  -1   9   0  211.73   31.83
  -1   9  -1    5.10    5.08
  -1   9  -2   18.93    7.99
  -1   9  -3  259.24   31.28
   1  -9   3  277.51   30.98
  -1   9  -4    3.24    4.65
   1  -9   4    5.04    3.14
  -1   9  -5   17.82    7.23
   1  -9   5   26.16    6.87
   1  -9   5   13.25    6.63
   1  -9   6   67.77   13.10
  -1   9  -6   63.60   13.39
   1  -9   6   56.97   13.30
  -1   9  -7   20.30    8.74
   1  -9   7   11.38    6.04
   1  -9   7    6.05    3.58
   1  -9   8    5.94    3.33
   1  -9   9   39.11   10.68
  -1   9 -11   -2.88    6.70
  -1   9 -12   19.52   10.53
  -1   8   4   34.35    9.02
  -1   8   4   31.83   13.87
  -1   8   3    8.03    4.12
  -1   8   3   -1.86    6.27
  -1   8   2   78.14   12.32
  -1   8   2   88.81   20.28
  -1   8   1  192.53   18.68
  -1   8   1  179.44   29.15
  -1   8   0   21.24    9.46
  -1   8  -1  114.88   20.21
  -1   8  -2  281.27   31.20
   1  -8   2  253.41   16.50
   1  -8   2  243.10   27.64
   1  -8   3   -0.32    1.71
   1  -8   3    0.76    4.83
  -1   8  -3   -2.39    3.87
  -1   8  -4  375.63   35.15
   1  -8   4  315.36   28.95
   1  -8   4  307.20   30.48
   1  -8   4  291.04   20.30
   1  -8   5  160.56   21.62
   1  -8   5  160.64   19.56
  -1   8  -5  152.99   20.87
   1  -8   6    0.69    2.61
  -1   8  -6    0.35    1.86
   1  -8   6    0.04    2.74
   1  -8   7   60.99   11.73
   1  -8   7   54.57   12.51
   1  -8   8   34.96    8.21
   1  -8   8   38.49   10.37
   1  -8   9   10.32    5.90
  -1   8 -10   -1.33    4.06
  -1   8 -11    5.22    4.75
  -1   8 -12    7.30    6.68
  -1   7   6   27.63    8.40
  -1   7   5   32.73    8.28
  -1   7   5   36.33   16.55
  -1   7   4    8.30    4.62
  -1   7   4   -2.97    4.36
  -1   7   3  211.58   32.32
  -1   7   3  219.47   19.89
  -1   7   2   35.96    7.83
  -1   7   2   23.56   10.35
  -1   7   1   28.22    9.67
  -1   7   1   27.87    6.29
   1  -7  -1   24.25    5.51
  -1   7   0  450.78   39.93
   1  -7   0  446.75   22.36
  -1   7  -1   36.20   11.01
   1  -7   1   47.55    6.98
   1  -7   1   46.49   11.37
   1  -7   2    3.93    2.03
   1  -7   2    0.91    4.55
  -1   7  -2    5.16    3.72
   1  -7   3  523.88   37.94
   1  -7   3  525.13   24.87
   1  -7   3  488.73   34.72
  -1   7  -3  470.02   38.90
   1  -7   4  153.93   20.50
   1  -7   4  219.44   22.18
  -1   7  -5   14.32    5.85
   1  -7   5   17.51    6.34
   1  -7   5   13.56    6.22
   1  -7   6  291.97   27.34
   1  -7   6  320.12   25.21
   1  -7   7    6.58    3.66
   1  -7   7    8.23    4.14
   1  -7   8   26.71    8.17
  -1   7  -9   66.92   16.16
  -1   7 -10    1.76    4.95
  -1   7 -11   -0.08    3.96
  -1   7 -12   -4.56    5.62
  -1   7 -13    5.58    4.96
  -1   6   7   17.78   12.80
  -1   6   7   13.49    4.75
  -1   6   6   18.75    6.58
  -1   6   6    8.00    6.02
  -1   6   5   34.49    8.38
  -1   6   5   45.00   15.04
  -1   6   4  191.16   18.27
  -1   6   4  221.41   31.77
  -1   6   3   -0.55    2.12
  -1   6   3    3.91    6.22
  -1   6   2   56.65    8.62
   1  -6  -2   55.80    8.76
  -1   6   2   57.40   15.50
  -1   6   1  741.36   49.49
   1  -6  -1  716.89   28.95
  -1   6   1  694.30   29.29
   1  -6   0    5.04    3.85
   1  -6   0    4.02    2.31
  -1   6   0    4.24    2.03
  -1   6   0    7.06    4.84
   1  -6   1  129.83   17.87
   1  -6   1  145.59   11.28
  -1   6  -1  143.97   19.99
   1  -6   2  375.13   29.21
   1  -6   2  390.31   19.33
   1  -6   2  396.98   30.96
  -1   6  -2  409.09   32.98
   1  -6   3   27.76    8.34
   1  -6   3   26.28    7.32
   1  -6   3   22.72    5.11
  -1   6  -3   21.99    7.94
   1  -6   4  151.30   18.98
   1  -6   4  142.39   16.80
  -1   6  -4  173.24   20.17
  -1   6  -5  542.40   33.00
   1  -6   5  441.80   31.81
   1  -6   5  470.02   28.81
   1  -6   6   10.39    5.51
   1  -6   7    1.00    2.59
   1  -6   8  201.74   20.15
  -1   6  -8  179.42   24.66
  -1   6  -9   -0.60    3.97
  -1   6 -10   10.30    6.17
  -1   6 -11    9.04    7.58
  -1   6 -12    1.27    3.81
  -1   6 -13   17.48    9.75
  -1   5   8   17.35   10.98
  -1   5   7    2.79    4.07
  -1   5   6  123.36   26.17
  -1   5   3  194.99   15.94
   1  -5  -3  196.07   16.77
   1  -5  -2  297.94   18.81
  -1   5   2  309.51   18.56
  -1   5   1    6.68    2.58
   1  -5  -1    4.55    1.79
   1  -5   0  954.06   44.17
  -1   5   0  917.78   49.11
  -1   5   0  961.49   30.27
   1  -5   0  944.29   28.17
   1  -5   1  370.81   16.73
  -1   5  -1  395.07   30.60
   1  -5   1  401.17   28.64
   1  -5   1  353.94   26.80
   1  -5   2  207.62   19.72
   1  -5   2  208.23   20.83
  -1   5  -2  226.04   22.58
   1  -5   2  213.55   13.47
   1  -5   3 1161.74   44.88
   1  -5   3 1177.55   48.68
  -1   5  -4  153.39   16.07
   1  -5   4  116.62   14.96
   1  -5   5   18.01    6.01
   1  -5   5   17.55    5.65
   1  -5   6   96.01   13.32
   1  -5   6   94.78   11.28
   1  -5   7  114.60   14.27
  -1   5  -7   83.55   15.30
   1  -5   7   78.55    9.45
  -1   5  -8   24.11    8.36
  -1   5  -9   18.13    7.69
  -1   5 -10   47.18   13.77
  -1   5 -11   -0.97    3.65
  -1   5 -12    9.34    7.52
  -1   5 -13    6.76    5.66
  -1   4   9   22.11   14.44
  -1   4   8    2.81    6.81
  -1   4   7  103.49   22.64
   1  -4  -7   93.02   11.88
   1  -4  -6   20.21    5.52
   1  -4  -5   46.34    7.39
   1  -4  -3   12.04    4.34
   1  -4  -2   22.58    4.75
  -1   4   1 1204.71   28.45
   1  -4  -1 1162.94   31.33
  -1   4   1 1184.40   31.10
  -1   4   0  220.05   11.47
  -1   4   0  211.67   21.15
   1  -4   0  207.89   18.93
  -1   4   0  209.68   11.66
   1  -4   0  225.35   18.87
   1  -4   0  209.89   11.59
   1  -4   1   39.36    8.33
   1  -4   1   43.67    5.28
  -1   4  -1   39.18    9.10
   1  -4   1   39.61    4.95
   1  -4   1   45.13    8.52
   1  -4   2 1807.77   56.02
   1  -4   2 1873.61   54.43
   1  -4   3  104.01   12.51
   1  -4   3  105.44   13.05
  -1   4  -3  101.43   12.23
   1  -4   4  170.02   15.97
   1  -4   4  169.96   14.99
   1  -4   5 1707.11   44.22
   1  -4   5 1613.84   49.78
  -1   4  -6    9.75    4.18
   1  -4   6   11.84    3.87
   1  -4   6   12.36    3.74
  -1   4  -7   94.00   15.18
  -1   4  -8  169.51   20.91
  -1   4  -9   23.26    8.01
  -1   4 -10   26.43   10.33
  -1   4 -11    2.56    2.93
  -1   4 -12    4.20    4.62
  -1   4 -13   -0.45    3.00
  -1   3   9   26.86   11.84
   1  -3  -8   27.22    6.50
  -1   3   8   61.67   18.11
   1  -3  -7    5.41    2.32
   1  -3  -6   85.66   10.06
   1  -3  -5  625.41   25.30
   1  -3  -4    5.31    2.35
   1  -3  -3  348.34   19.69
   1  -3  -3  341.78   14.98
  -1   3   2  744.42   21.52
   1  -3  -2  798.58   26.23
  -1   3   1   34.67    3.85
  -1   3   1   33.56    4.37
   1  -3  -1   41.26    7.61
   1  -3  -1   39.93    5.03
  -1   3   0 2547.23   38.45
  -1   3   0 2605.27   40.93
  -1   3   0 2736.81   70.72
   1  -3   0 2600.79   61.73
   1  -3   0 2580.90   41.44
  -1   3  -1  859.43   37.25
   1  -3   1  770.35   21.20
   1  -3   1  732.49   30.60
   1  -3   1  778.21   30.15
  -1   3  -1  825.25   31.40
   1  -3   1  785.91   19.73
  -1   3  -2   56.99    8.93
   1  -3   2   58.14    8.52
  -1   3  -2   71.68    9.06
   1  -3   2   72.75    9.29
   1  -3   3  332.92   19.21
   1  -3   3  315.16   17.56
  -1   3  -3  361.29   21.04
  -1   3  -4 2645.51   66.34
   1  -3   4 2662.51   55.91
  -1   3  -4 2787.36   60.49
  -1   3  -5   12.46    3.35
  -1   3  -5   11.93    4.32
  -1   3  -6   66.93    6.59
  -1   3  -6   71.75   11.46
  -1   3  -7  441.11   30.09
  -1   3  -7  329.91   12.15
  -1   3  -8   23.58    7.19
  -1   3  -9  115.31   17.02
  -1   3 -10    2.40    3.71
  -1   3 -11    1.56    3.00
  -1   3 -12    6.29    4.23
   1  -2 -10   21.41    6.81
   1  -2  -9   16.58    5.67
  -1   2   9   20.45    9.80
   1  -2  -8    5.21    2.47
   1  -2  -7   87.25   10.82
   1  -2  -6   82.20    9.88
  -1   2   5   20.59    4.95
   1  -2  -5   20.62    4.33
   1  -2  -4  818.53   25.13
   1  -2  -4  767.64   30.53
  -1   2   4  817.69   31.06
   1  -2  -3  500.78   16.68
  -1   2   3  512.01   18.88
   1  -2  -3  495.53   21.92
  -1   2   3  509.72   22.69
  -1   2   2   63.66    6.13
  -1   2   2   61.61    5.10
   1  -2  -2   57.23    6.18
  -1   2   2   60.00    7.02
   1  -2  -2   61.18    4.67
  -1   2   1 5199.73   82.65
   1  -2  -1 5425.72   83.74
   1  -2  -1 5363.16   66.00
  -1   2   1 5361.18   96.13
  -1   2   1 5407.83   64.76
  -1   2   1 5307.02   75.20
  -1   2   1 5326.35   55.20
  -1   2   0 1506.91   21.26
   1  -2   0 1499.88   26.78
  -1   2   0 1563.31   34.10
   1  -2   0 1453.43   38.85
  -1   2   0 1537.11   27.05
  -1   2   0 1448.59   44.70
   1  -2   0 1591.83   45.48
  -1   2  -1  276.45   13.28
  -1   2  -1  265.10   15.25
   1  -2   1  221.04   14.97
  -1   2  -2 4799.97   67.14
  -1   2  -3  211.08   14.22
  -1   2  -3  222.50   12.65
  -1   2  -4  598.78   19.91
  -1   2  -4  578.60   26.10
  -1   2  -5  384.04   23.12
  -1   2  -5  354.80   11.03
  -1   2  -6  101.27   12.83
  -1   2  -7    1.54    2.18
  -1   2  -8   37.92    9.27
  -1   2  -9   76.55   13.37
  -1   2 -10    6.66    4.97
  -1   2 -11    8.13    5.16
  -1   2 -12   -0.26    2.56
   1  -1 -11    9.91    5.31
   1  -1 -10   18.20    6.66
   1  -1  -9   11.85    4.50
   1  -1  -8  128.42   14.74
   1  -1  -7    8.08    3.71
   1  -1  -6  203.20   15.22
  -1   1   6  189.19   12.41
  -1   1   5  891.44   26.45
   1  -1  -5  886.89   29.55
   1  -1  -4  182.60   11.43
  -1   1   3  177.07   12.81
   1  -1  -3  180.61    9.76
   1  -1  -3  195.94   12.51
  -1   1   3  192.24   11.45
  -1   1   2 1595.81   30.88
  -1   1   2 1547.50   36.22
   1  -1  -2 1535.54   31.36
   1  -1  -2 1568.73   25.31
  -1   1   2 1577.78   28.30
  -1   1   1 1740.16   42.46
   1  -1  -1 1747.35   28.15
   1  -1  -1 1624.78   41.19
  -1   1   1 1725.49   27.97
   1  -1  -1 1766.84   35.79
   1  -1   0   77.56    4.65
   1  -1   1 4371.07   50.39
  -1   1  -1 4338.89   50.22
   1  -1   2 1594.40   31.63
  -1   1  -2 1534.60   31.30
  -1   1  -3  106.68    8.98
  -1   1  -4 2462.57   53.29
  -1   1  -5  126.02   12.49
  -1   1  -6  261.62   19.78
  -1   1  -7   31.17    7.49
  -1   1  -8   28.91    8.00
  -1   1  -9   49.12   10.73
  -1   1 -10    5.33    5.32
  -1   1 -11    5.10    3.76
  -1   1 -12   -0.01    3.81
   1   0 -12    0.20    1.87
   1   0 -11    0.70    2.48
   1   0 -10   12.15    5.31
   1   0  -9   94.14   13.25
   1   0  -8    4.57    2.97
   1   0  -7  161.63   15.30
  -1   0   7  138.28    7.33
   1   0  -6  636.28   28.33
  -1   0   6  536.60   13.88
   1   0  -5    2.28    1.70
  -1   0   4 2574.49   48.99
   1   0  -4 2417.84   49.60
   1   0  -3  444.39   18.02
   1   0  -3  472.95   17.90
  -1   0   3  465.76   17.55
  -1   0   3  441.88   16.30
  -1   0   2  205.79   11.58
   1   0  -2  228.35    8.44
  -1   0   2  219.28    9.68
  -1   0   2  213.21    9.77
   1   0  -2  218.73    9.89
   1   0  -1 2100.25   28.07
   1   0   1  164.99    7.86
  -1   0  -1  160.56    7.54
   1   0   2   48.72    5.25
  -1   0  -2   43.62    2.83
  -1   0  -2   43.30    4.84
  -1   0  -3 1244.55   32.22
  -1   0  -4   28.12    5.13
  -1   0  -5  265.24   17.95
  -1   0  -6  445.68   25.29
  -1   0  -7   94.13   12.63
  -1   0  -8  217.45   20.66
  -1   0  -9    1.19    2.07
  -1   0 -10    3.81    3.80
  -1   0 -11    2.09    3.43
   1   1 -13    1.77    3.51
   1   1 -12    2.18    3.17
   1   1 -11   17.75    6.87
   1   1 -10   12.13    6.09
  -1  -1   9   84.65   13.98
   1   1  -9   74.48   12.16
   1   1  -8  104.29   13.84
  -1  -1   7   86.50    5.95
   1   1  -7   82.53   11.79
   1   1  -6   15.21    4.93
  -1  -1   6   15.18    2.39
   1   1  -5 1329.00   43.30
  -1  -1   5 1346.63   24.78
  -1  -1   4  766.08   17.70
  -1  -1   4  732.91   21.10
  -1  -1   3  643.50   20.89
  -1  -1   3  625.54   15.67
   1   1  -2 5155.80   60.26
   1   1  -2 5325.77   59.56
  -1  -1   2 5256.58   59.72
  -1  -1   2 5355.62   61.10
  -1  -1   1   13.59    2.79
  -1  -1   1   14.70    1.61
   1   1  -1   14.73    2.91
   1   1  -1   12.00    1.38
   1   1   0  945.95   20.22
  -1  -1   0  962.18   20.86
  -1  -1   0  955.78   21.53
   1   1   0  947.63   21.53
  -1  -1  -1 2568.86   41.08
   1   1   1 2651.00   37.76
   1   1   1 2733.55   41.52
  -1  -1  -1 2602.69   41.44
  -1  -1  -2  219.47   12.39
   1   1   2  228.32    9.28
  -1  -1  -2  245.69   12.32
  -1  -1  -3  625.38   20.92
  -1  -1  -3  596.85   22.01
   1   1   3  579.46   14.89
  -1  -1  -4  527.26   22.97
   1   1   4  437.79   12.40
  -1  -1  -5  332.01   20.12
  -1  -1  -6    2.05    1.58
  -1  -1  -7   60.66   10.06
  -1  -1  -8   57.99   10.43
  -1  -1  -9   -2.69    3.57
  -1  -1 -10   26.47    8.02
  -1  -1 -11   -8.03    4.97
   1   2 -13   -4.25    4.28
   1   2 -12   15.04    6.83
   1   2 -11    3.93    4.02
   1   2 -10   27.83    8.67
   1   2  -9  171.96   20.07
   1   2  -8    9.33    4.44
  -1  -2   8   12.35    3.79
  -1  -2   8    8.71    2.76
  -1  -2   7  178.59   11.89
   1   2  -7  197.87   19.76
  -1  -2   7  205.10   12.32
  -1  -2   6  138.63    9.59
  -1  -2   6   85.45    6.05
  -1  -2   5   98.61    7.90
  -1  -2   4  425.68   16.62
   1   2  -4  476.38   17.15
   1   2  -3  414.20   16.24
  -1  -2   3  397.63   16.09
  -1  -2   3  392.26   15.72
   1   2  -2   49.23    4.38
  -1  -2   2   38.87    3.75
   1   2  -2   47.91    5.73
  -1  -2   2   43.99    5.53
   1   2  -1   14.98    3.30
  -1  -2   1   19.17    3.62
  -1  -2   1   14.31    3.54
   1   2   0 6639.16   83.78
  -1  -2   0 6532.90   92.40
   1   2   0 6716.38   88.26
   1   2   1  150.14    7.06
  -1  -2  -1  139.75   12.13
   1   2   1  156.15   10.85
   1   2   1  148.29   10.78
   1   2   2  464.66   18.90
   1   2   2  487.39   16.43
  -1  -2  -2  499.28   24.37
  -1  -2  -2  477.55   19.24
  -1  -2  -3 1230.82   34.59
  -1  -2  -3 1198.67   37.46
   1   2   3 1207.63   29.92
  -1  -2  -4  109.01   11.10
   1   2   4  101.61    7.73
  -1  -2  -5  690.88   30.19
  -1  -2  -6   14.99    4.39
  -1  -2  -7   22.95    6.43
  -1  -2  -8   26.46    7.42
  -1  -2  -9   10.39    4.80
  -1  -2 -10    9.39    5.19
   1   3 -13   -1.26    3.70
   1   3 -12    5.74    5.05
   1   3 -11   -1.11    3.42
   1   3 -10   52.46   12.06
   1   3  -9   -3.18    4.35
  -1  -3   8  165.11   13.93
   1   3  -8  142.71   19.43
  -1  -3   7  129.71   11.93
  -1  -3   6  153.48   12.92
  -1  -3   5 2463.37   53.16
   1   3  -4  163.17   10.03
  -1  -3   4  134.92   11.69
  -1  -3   3  155.48   12.75
  -1  -3   2 1150.99   37.34
   1   3  -2 1109.84   29.15
  -1  -3   1  231.71   17.46
  -1  -3   0  417.89   24.62
   1   3   0  404.33   19.07
   1   3   0  363.45    8.54
   1   3   1  147.40   12.08
  -1  -3  -1  147.59   15.27
   1   3   1  154.58    7.58
  -1  -3  -2  530.03   29.14
   1   3   2  537.99   17.88
  -1  -3  -3   86.64   11.10
  -1  -3  -3   61.37    8.56
  -1  -3  -4  516.34   25.95
  -1  -3  -5  263.89   19.37
  -1  -3  -6   37.99    7.89
  -1  -3  -7  159.85   17.47
  -1  -3  -8    3.31    1.69
  -1  -3  -9    5.46    4.16
   1   4 -13    1.77    4.52
   1   4 -12    5.64    3.80
   1   4 -11    2.33    4.64
   1   4 -10   52.24   13.40
   1   4  -9   25.86    8.48
  -1  -4   9   29.68    6.76
  -1  -4   8   50.60    8.54
  -1  -4   7    1.15    0.82
  -1  -4   7   -3.78    2.59
  -1  -4   6  370.12   12.79
  -1  -4   6  341.70   22.71
   1   4  -5  338.79   17.06
  -1  -4   5  263.24   19.58
  -1  -4   4   77.94   10.79
   1   4  -3 2464.53   51.40
  -1  -4   3 2621.75   66.40
  -1  -4   2  511.42   29.45
  -1  -4   2  446.78   11.46
  -1  -4   1  638.66   34.46
  -1  -4   0 1908.22   62.26
   1   4   0 1841.54   47.10
   1   4   0 1727.83   25.06
   1   4   1   24.94    3.20
   1   4   1   22.84    5.32
  -1  -4  -1   15.65    5.59
   1   4   2  484.14   25.82
  -1  -4  -2  465.72   30.26
   1   4   3   71.98   10.52
  -1  -4  -3   72.15   11.34
   1   5 -13   -4.14    5.60
   1   5 -12    3.56    4.88
   1   5 -11   10.34    6.39
   1   5 -10   39.91   12.53
  -1  -5  10   49.77    9.47
  -1  -5   9   -1.44    3.56
  -1  -5   8  299.81   23.94
  -1  -5   7    5.11    3.86
   1   5  -6   34.44    5.63
  -1  -5   6   21.96    6.00
   1   5  -5  291.21   20.03
  -1  -5   5  230.97   20.73
  -1  -5   4  554.12   33.07
  -1  -5   3   59.68   11.11
  -1  -5   2    3.59    0.95
  -1  -5   2   -0.08    3.20
  -1  -5   1 1687.33   63.28
  -1  -5   0   79.95   13.90
   1   5   0   77.25   10.36
  -1  -5  -1  590.02   37.50
   1   5   1  621.30   30.37
  -1  -5  -2  324.73   27.42
   1   5   2  322.91   22.75
   1   5   3   55.76   10.08
  -1  -5  -3   48.19   10.12
   1   5   4  384.25   27.79
   1   5   5   15.80    5.99
   1   5   6    8.36    5.13
   1   5   7   14.00    6.73
   1   6 -13    5.93    5.08
   1   6 -12   -4.75    5.71
   1   6 -11   28.97   12.21
  -1  -6  10   -1.83    4.34
  -1  -6   9  130.33   17.02
  -1  -6   8   87.30   13.90
  -1  -6   7   51.52   10.78
   1   6  -6  774.98   36.84
  -1  -6   6  979.78   46.99
   1   6  -5    4.45    3.54
  -1  -6   5    7.42    3.70
  -1  -6   4  294.25   26.51
  -1  -6   3  519.91   35.97
  -1  -6   3  402.94   13.43
  -1  -6   2   42.81   10.47
  -1  -6   1  294.03   27.81
  -1  -6   0  202.29   23.44
   1   6   0  220.74   19.39
  -1  -6  -1  379.06   32.09
   1   6   1  369.72   25.47
  -1  -6  -2   19.92    7.65
   1   6   2   24.82    6.96
   1   6   3  249.42   22.74
   1   6   4   68.08   12.49
   1   6   5   -0.13    2.58
   1   6   6   71.89   14.84
   1   7 -13   -3.93    3.21
   1   7 -12    2.45    6.12
  -1  -7  10    6.31    3.47
  -1  -7   9   67.40   13.02
  -1  -7   8    5.40    4.41
   1   7  -7  146.70   15.64
  -1  -7   7  125.86   17.98
   1   7  -6   27.60    7.61
  -1  -7   6   34.83   10.04
  -1  -7   5   19.90    7.76
   1   7  -5   10.43    4.78
   1   7  -4 1256.71   54.49
  -1  -7   4 1324.14   60.91
  -1  -7   4 1258.16   30.37
  -1  -7   3  111.35   17.92
  -1  -7   2  260.78   27.88
  -1  -7   1  316.73   31.04
  -1  -7   0   -2.78    2.59
   1   7   1  351.57   27.37
  -1  -7  -1  353.26   33.03
  -1  -7  -2   34.12   10.30
   1   7   2   24.61    7.16
   1   7   3   42.71    9.85
   1   7   4   21.98    7.71
   1   7   5   60.49   13.18
   1   8 -12   23.55   11.91
  -1  -8  11   15.53    7.21
  -1  -8  10    5.88    4.78
  -1  -8   9  145.38   19.97
  -1  -8   8    1.86    3.33
   1   8  -7   53.16   10.91
  -1  -8   7   55.74   13.16
  -1  -8   6   26.49    8.84
   1   8  -6   22.62    8.09
   1   8  -5   84.61   14.75
  -1  -8   5   99.44   17.30
  -1  -8   4   29.41    9.57
   1   8  -4   33.74    9.67
   1   8  -3   43.02   11.25
  -1  -8   3   22.89    8.49
  -1  -8   2  382.53   36.16
  -1  -8   1   41.50   12.25
  -1  -8   0  301.94   32.47
   1   8   1   84.47   14.20
  -1  -8  -1   67.38   15.07
   1   8   2  -11.02    5.60
   1   8   3  132.23   19.11
  -1  -9  11    6.95    5.05
  -1  -9  10   18.58    8.04
  -1  -9   9   14.18    5.76
  -1  -9   8   -1.87    3.27
  -1  -9   7  221.43   27.23
   1   9  -6   27.27    9.30
  -1  -9   6   40.32   11.87
   1   9  -5  118.09   18.82
  -1  -9   5  131.03   20.54
   1   9  -4  130.38   21.06
  -1  -9   4  143.15   22.41
  -1  -9   3    9.96    6.01
   1   9  -3    4.01    4.07
   1   9  -2   39.02   13.79
  -1  -9   2   69.65   15.79
  -1  -9   1   24.00   10.43
   1   9  -1   28.61   11.35
   1   9   0  103.99   21.47
  -1  -9   0   91.92   18.72
   1   9   1    3.76    5.68
  -1 -10  11   -1.10    3.99
  -1 -10  10   16.05    6.97
  -1 -10   9   -2.93    3.72
  -1 -10   8   57.85   14.53
  -1 -10   7    3.63    4.89
  -1 -10   6   -1.83    3.52
   1  10  -6    3.94    4.44
  -1 -10   5  190.34   26.81
   1  10  -5  201.96   27.32
  -1 -10   4   17.85    9.08
   1  10  -4   18.11    8.90
   1  10  -3  142.76   24.28
  -1 -10   3  116.06   21.22
   1  10  -2   24.02   10.63
  -1 -10   2   28.12   10.98
  -1 -10   1    0.04    7.06
   1  10  -1    1.18    5.89
  -1 -11  10   18.70    8.15
  -1 -11   9   13.34    7.69
  -1 -11   8   35.36   11.64
  -1 -11   7    6.73    6.61
  -1 -11   6    4.51    2.73
  -1 -11   5   16.88    8.51
   1  11  -5   -1.70    3.76
  -1 -11   4   17.39    7.87
   1  11  -4   16.21    7.95
   1  11  -3   54.10   16.14
  -2  12  -3   46.19   15.18
  -2  12  -4   12.37    8.28
  -2  12  -5   32.00   12.84
  -2  12  -6    1.99    5.22
  -2  12 -10   16.21    8.87
  -2  11  -1    8.03    7.75
  -2  11  -2  176.07   32.15
  -2  11  -3    1.77    6.16
  -2  11  -4   19.01    9.62
  -2  11  -5   81.58   18.67
  -2  11  -6    6.14    5.49
   2 -11   7   61.19   14.24
  -2  11 -10    6.43    6.71
  -2  11 -11    1.79    3.91
  -2  10   1   35.88   15.29
  -2  10   0   39.17   14.77
  -2  10  -1   43.95   14.92
  -2  10  -2  100.72   21.64
  -2  10  -3   18.71    9.76
  -2  10  -4  431.38   42.60
   2 -10   5   43.73   12.49
  -2  10  -5   29.44   10.96
  -2  10  -6   23.60    9.54
   2 -10   6   21.00    9.00
   2 -10   7  103.61   17.48
  -2  10 -10    7.36    6.17
  -2  10 -11   -2.80    4.74
  -2   9   3   80.23   22.38
  -2   9   2   35.92   14.73
  -2   9   1  454.09   48.23
  -2   9   0   -0.21    5.88
  -2   9  -1   30.81   11.97
  -2   9  -2  115.61   22.09
   2  -9   3   13.50    4.67
   2  -9   3   16.33    8.98
  -2   9  -3   18.89    8.54
   2  -9   4  134.79   15.70
  -2   9  -4  155.34   23.77
   2  -9   4  147.62   21.97
   2  -9   5    7.24    5.24
  -2   9  -5   12.76    7.04
   2  -9   5    8.16    3.29
  -2   9  -6  246.60   29.03
   2  -9   6  266.68   27.01
   2  -9   7   38.43    9.98
   2  -9   8   34.15    9.52
  -2   9  -9   37.45   12.44
  -2   9 -10   26.37   11.35
  -2   9 -11   26.64   11.75
  -2   9 -12    1.73    4.92
  -2   8   4   88.43   23.87
  -2   8   3   10.19    9.45
  -2   8   2  150.99   15.72
  -2   8   2  157.72   27.84
  -2   8   1  138.21   25.36
  -2   8   0   93.63   19.95
   2  -8   0   87.49   11.31
   2  -8   1 1054.96   39.16
  -2   8  -1 1241.70   70.94
  -2   8  -2  137.44   23.14
   2  -8   2  145.51   21.43
   2  -8   2  131.45   13.61
  -2   8  -3  207.25   28.63
   2  -8   3  181.28   16.91
   2  -8   3  178.87   23.29
  -2   8  -4  358.60   34.54
   2  -8   4  343.91   24.48
   2  -8   4  372.30   32.23
  -2   8  -5   50.33   12.63
   2  -8   5   48.43   11.56
   2  -8   6  196.54   21.66
  -2   8  -8  110.25   20.22
  -2   8  -9    7.77    5.96
  -2   8 -10    8.57    6.76
  -2   8 -11   12.82    7.72
  -2   8 -12   -3.17    5.41
  -2   7   6   49.90   18.33
  -2   7   5    4.08    3.48
  -2   7   5   10.52    8.35
  -2   7   4  257.17   21.20
  -2   7   4  282.07   39.41
   2  -7  -3    0.34    2.81
  -2   7   3   -0.01    1.22
  -2   7   3   -2.58    4.39
  -2   7   2  140.01   13.83
  -2   7   2  159.50   26.94
   2  -7  -2  142.57   15.67
   2  -7  -1  123.56   13.50
  -2   7   1  117.53   22.33
  -2   7   1  148.85   13.66
  -2   7   0  280.26   32.78
   2  -7   0  234.16   17.59
   2  -7   1  112.02   11.77
   2  -7   1  137.15   20.18
  -2   7  -1  117.31   20.77
   2  -7   2   78.55   14.79
  -2   7  -2   61.88   16.87
   2  -7   2   76.12   10.04
   2  -7   3 2114.11   74.80
   2  -7   3 1922.13   54.96
  -2   7  -3 2204.17   84.92
  -2   7  -4  241.39   25.71
   2  -7   4  233.64   23.73
  -2   7  -7   71.60   15.22
  -2   7  -8  334.94   34.11
  -2   7  -9    6.20    5.66
  -2   7 -10   20.51    9.13
  -2   7 -11   -1.80    2.88
  -2   7 -12    9.54   10.34
  -2   6   7   97.30   26.31
  -2   6   6    9.12    8.93
  -2   6   5  271.16   38.20
  -2   6   5  223.60   19.86
   2  -6  -4  114.96   15.41
  -2   6   4  122.13   24.63
  -2   6   4  124.64   13.61
   2  -6  -3  128.02   15.04
  -2   6   3  113.57   12.24
  -2   6   3  123.90   23.20
  -2   6   2 1662.50   81.89
  -2   6   2 1558.07   43.66
   2  -6  -2 1636.87   50.72
  -2   6   1   53.92   13.79
  -2   6   1   51.50    7.04
   2  -6  -1   57.53    8.56
   2  -6   0  339.45   19.59
  -2   6   0  369.05   35.12
   2  -6   0  315.61   29.61
  -2   6  -1  261.67   30.27
   2  -6   1  264.45   26.17
   2  -6   1  245.65   16.43
  -2   6  -2    4.65    5.92
   2  -6   2   20.74    4.69
   2  -6   2   25.87    8.21
   2  -6   3  469.01   31.83
  -2   6  -3  500.35   36.23
  -2   6  -4   27.37    8.86
  -2   6  -6  102.54   16.90
  -2   6  -7  326.20   30.40
  -2   6  -8   69.49   14.79
  -2   6  -9    4.93    3.03
  -2   6 -10   97.29   19.10
  -2   6 -11    4.41    3.19
  -2   6 -12   13.58    8.68
  -2   5   9    8.10    8.58
  -2   5   8   12.54    9.37
  -2   5   7   82.57   24.04
  -2   5   6   -7.39    7.44
  -2   5   5  305.81   39.01
  -2   5   4    1.99    5.85
   2  -5  -4   -1.94    1.93
  -2   5   3  526.13   45.34
   2  -5  -3  521.27   28.21
  -2   5   2  176.91   11.17
  -2   5   2  180.99   12.75
   2  -5  -2  188.14   15.25
  -2   5   2  189.91   25.57
  -2   5   1   58.17    5.66
   2  -5  -1   66.06    8.26
  -2   5   1   53.57    6.34
   2  -5  -1   67.64   12.67
  -2   5   1   52.23   13.31
  -2   5   0 4681.76   66.85
   2  -5   0 4574.26  108.57
   2  -5   0 4672.12   76.21
   2  -5   1  973.60   25.25
   2  -5   1 1003.72   32.03
   2  -5   1  996.19   47.14
   2  -5   2 1073.96   29.26
   2  -5   2 1074.03   34.81
  -2   5  -3 1187.64   50.77
  -2   5  -5  767.97   41.31
  -2   5  -6   15.30    6.15
  -2   5  -7  261.83   25.50
  -2   5  -8    0.81    3.30
  -2   5  -9   72.78   15.54
  -2   5 -10    1.83    3.64
  -2   5 -11   -6.84    6.06
  -2   5 -12   15.68    6.84
  -2   4   9    0.34    3.88
  -2   4   8   85.60   22.40
  -2   4   7   51.59   17.11
  -2   4   6    6.92    6.05
   2  -4  -6    6.93    2.62
  -2   4   5  929.79   63.08
   2  -4  -5  952.27   42.94
   2  -4  -5  876.79   28.78
   2  -4  -4   47.01    5.91
   2  -4  -4   51.65    9.26
  -2   4   4   39.39   11.82
   2  -4  -3  324.18   20.53
  -2   4   3  332.72   15.78
  -2   4   3  327.22   33.07
  -2   4   2  131.47    8.18
   2  -4  -2  132.35   11.95
  -2   4   2  125.12   19.42
   2  -4  -2  131.05   16.35
  -2   4   1 1500.92   30.67
   2  -4  -1 1470.59   55.09
  -2   4   1 1608.27   67.37
   2  -4  -1 1515.42   38.54
  -2   4   1 1510.30   26.06
  -2   4   0  408.48   33.47
   2  -4   0  399.89   18.37
   2  -4   0  382.33   27.26
  -2   4   0  430.27   14.02
   2  -4   1    5.35    1.55
  -2   4  -1    6.43    3.87
   2  -4   1    6.60    2.61
  -2   4  -2 4073.30   90.90
  -2   4  -4 2186.83   61.11
  -2   4  -5  242.85   20.79
  -2   4  -6  148.76   17.49
  -2   4  -7  466.81   21.82
  -2   4  -7  490.76   33.74
  -2   4  -8    9.74    3.98
  -2   4  -9   48.69   12.13
  -2   4 -10    1.54    2.33
  -2   4 -11    0.65    2.96
  -2   4 -12    4.23    3.87
  -2   3   9   -4.14    4.93
  -2   3   8  159.16   28.39
   2  -3  -8  140.91   13.93
   2  -3  -7   69.93    9.04
  -2   3   7   67.52   19.00
   2  -3  -6  508.43   22.53
  -2   3   6  561.97   48.24
   2  -3  -5  179.53   11.86
  -2   3   5  155.74   23.41
   2  -3  -5  163.80   16.59
   2  -3  -4   63.20    6.26
   2  -3  -4   62.56    9.34
  -2   3   4   45.03   11.95
  -2   3   3 4326.21   61.10
   2  -3  -3 4167.93   75.37
   2  -3  -3 4129.91   54.11
  -2   3   3 4075.30  110.84
  -2   3   2  698.43   16.72
   2  -3  -2  699.30   34.26
   2  -3  -2  675.97   25.13
  -2   3   2  723.53   42.60
   2  -3  -1 2692.68   48.57
   2  -3  -1 2750.70   68.67
  -2   3   1 2629.10   80.09
  -2   3   1 2559.30   29.62
  -2   3   0 1222.45   29.62
  -2   3   0 1188.56   49.23
   2  -3   0 1197.43   30.24
  -2   3  -1   62.05    9.81
   2  -3   1   56.41    6.69
  -2   3  -2  321.63   16.24
   2  -3   2  267.70   17.89
  -2   3  -2  311.81   16.03
  -2   3  -3   18.97    4.45
  -2   3  -3   25.85    4.63
  -2   3  -4 1517.57   38.71
  -2   3  -4 1570.48   46.32
  -2   3  -5  429.77   26.13
  -2   3  -5  468.96   21.74
  -2   3  -6  629.19   33.51
  -2   3  -6  610.77   22.62
  -2   3  -7    7.45    4.51
  -2   3  -7    1.45    0.64
  -2   3  -8   -6.02    5.31
  -2   3  -9  154.44   19.70
  -2   3 -10    6.44    4.53
  -2   3 -11   22.94    8.46
  -2   3 -12    0.32    3.83
   2  -2  -9    5.94    3.46
  -2   2   9    4.79    5.87
   2  -2  -8  167.15   15.44
  -2   2   8  180.80   28.11
   2  -2  -7    5.16    2.73
  -2   2   7    1.86    3.84
   2  -2  -6  869.69   30.16
  -2   2   6  817.05   52.42
   2  -2  -5   37.14    5.54
  -2   2   5   39.66   10.02
   2  -2  -5   30.57    6.78
  -2   2   4 1945.83   71.44
   2  -2  -4 1864.76   36.45
   2  -2  -4 1962.98   50.86
   2  -2  -3    9.65    3.13
  -2   2   3   18.60    6.74
   2  -2  -3   10.06    3.76
   2  -2  -3   14.23    2.37
   2  -2  -2    9.44    1.37
   2  -2  -2    5.94    2.94
   2  -2  -1 9874.43  108.94
  -2   2   1 9999.00  108.93
   2  -2  -1 9653.30  144.38
  -2   2   1 9493.23  143.66
   2  -2   0 2517.08   57.36
  -2   2   0 2591.27   28.34
   2  -2   0 2601.71   44.17
  -2   2   0 2671.49   60.35
  -2   2   0 2578.42   43.08
   2  -2   1 1892.96   31.64
  -2   2  -1 1868.92   30.67
   2  -2   2  252.51   12.74
  -2   2  -2  233.72   12.35
  -2   2  -3   37.84    5.80
  -2   2  -4 1685.80   31.68
  -2   2  -4 1733.10   46.04
  -2   2  -5    5.05    1.73
  -2   2  -5   -3.11    3.40
  -2   2  -6  154.41   15.63
  -2   2  -7    5.53    3.78
  -2   2  -8  194.47   20.38
  -2   2  -9    0.68    2.33
  -2   2 -10   -1.18    4.35
  -2   2 -11   15.43    7.11
  -2   2 -12    0.56    2.34
   2  -1 -10   14.12    5.06
   2  -1  -9  253.34   20.74
  -2   1   9  272.81   33.28
   2  -1  -8   22.53    5.78
  -2   1   8   23.81    8.78
  -2   1   7   10.98    6.61
   2  -1  -7    5.00    2.58
   2  -1  -6 1452.29   40.40
  -2   1   6 1653.77   66.06
  -2   1   5   54.61   11.30
   2  -1  -5   45.28    7.70
   2  -1  -5   46.33    6.34
   2  -1  -4 1540.16   34.76
  -2   1   4 1657.64   57.38
   2  -1  -4 1630.62   43.16
   2  -1  -3   12.02    2.47
   2  -1  -3    7.87    2.47
  -2   1   3   12.59    4.96
  -2   1   2 1467.10   41.27
  -2   1   2 1411.06   30.87
   2  -1  -2 1402.95   31.18
   2  -1  -2 1342.30   43.14
   2  -1  -1  180.49    9.45
   2  -1  -1  198.69   12.96
  -2   1   1  189.64    9.72
  -2   1   0 1366.02   21.42
   2  -1   0 1276.66   26.91
   2  -1   0 1327.72   21.02
   2  -1   0 1302.13   19.79
  -2   1  -1 5444.07   64.85
   2  -1   1 5488.90   64.56
  -2   1  -2 2185.14   41.13
   2  -1   2 2317.61   41.82
  -2   1  -3 3963.20   65.72
  -2   1  -4  139.65   12.40
  -2   1  -5    1.07    2.36
  -2   1  -6  502.25   28.33
  -2   1  -7    9.32    4.12
  -2   1  -8   62.31   11.93
  -2   1  -9    2.78    4.53
  -2   1 -10   12.70    6.39
  -2   1 -11   -2.62    3.20
   2   0 -12    6.78    4.83
   2   0 -11   10.93    5.01
   2   0 -10    5.11    3.74
   2   0  -9  215.00   19.49
  -2   0   9  288.82   28.25
   2   0  -8   74.76   10.88
  -2   0   8   97.19   15.34
   2   0  -7  728.27   32.55
  -2   0   7  866.77   43.15
   2   0  -6    5.74    2.52
  -2   0   6    8.10    4.68
   2   0  -5   12.03    3.97
   2   0  -5    8.90    3.36
  -2   0   5   12.47    4.62
  -2   0   5    5.85    2.39
  -2   0   4 4305.20   74.33
   2   0  -4 3934.81   68.05
   2   0  -3 3249.87   41.85
   2   0  -3 3257.80   46.76
   2   0  -2 2456.29   39.85
  -2   0   2 2478.95   40.48
   2   0  -1 1033.27   21.00
  -2   0   1 1065.25   22.06
   2   0   0  143.65    8.04
  -2   0   0  128.16    7.34
   2   0   0  135.43    7.50
  -2   0  -1  299.92   12.86
   2   0   1  315.25   13.30
  -2   0  -2   94.84    8.08
  -2   0  -2  109.76    6.49
  -2   0  -3 1356.56   36.36
  -2   0  -3 1362.44   25.36
  -2   0  -4   33.19    4.03
  -2   0  -4   44.80    7.11
  -2   0  -5 1194.48   40.95
  -2   0  -6   28.00    6.75
  -2   0  -7   12.92    4.21
  -2   0  -8  160.61   18.68
  -2   0  -9   -0.34    2.42
  -2   0 -10   10.95    5.79
  -2   0 -11    5.34    3.25
   2   1 -13    4.32    4.12
   2   1 -12   39.64   10.24
   2   1 -11    2.96    3.25
   2   1 -10   16.33    6.29
   2   1  -9  154.65   17.74
  -2  -1   8   13.81    2.94
  -2  -1   8   26.98    6.91
   2   1  -8   24.97    7.05
  -2  -1   7  342.59   14.31
   2   1  -7  300.43   22.86
  -2  -1   7  332.34   19.65
  -2  -1   6   60.28    7.07
  -2  -1   6   57.12    5.82
  -2  -1   5 2583.32   43.56
   2   1  -4   51.31    6.63
  -2  -1   4   48.91    5.69
   2   1  -4   54.31    5.60
  -2  -1   3  176.16   10.35
   2   1  -3  178.01   10.24
  -2  -1   3  176.31   10.47
  -2  -1   2 4270.80   59.31
  -2  -1   2 4321.26   54.31
   2   1  -2 4400.69   52.82
  -2  -1   1 1531.40   33.39
  -2  -1   1 1487.58   24.13
  -2  -1   1 1609.21   30.92
   2   1  -1 1535.32   22.75
  -2  -1   0 6071.37   75.03
   2   1   0 6319.55   77.78
   2   1   0 6292.89   80.92
  -2  -1   0 6198.01   79.83
   2   1   1   56.57    6.69
  -2  -1  -1   54.89    5.63
  -2  -1  -1   54.78    6.34
  -2  -1  -2   94.79    8.02
  -2  -1  -2   95.23    8.84
  -2  -1  -3  622.02   23.73
  -2  -1  -3  651.78   25.76
  -2  -1  -4   93.49    9.13
  -2  -1  -4   92.18   10.58
  -2  -1  -5  154.01   14.80
  -2  -1  -6    1.96    1.75
  -2  -1  -7  118.11   14.88
  -2  -1  -8    3.51    3.41
  -2  -1  -9   15.81    5.89
  -2  -1 -10    9.48    6.11
   2   2 -13    1.89    2.91
   2   2 -12   16.36    7.27
   2   2 -11   32.74    9.85
   2   2 -10  232.26   24.58
   2   2  -9   -3.74    3.73
  -2  -2   8    4.99    2.31
   2   2  -8    3.18    3.42
  -2  -2   7  639.93   22.85
  -2  -2   6  156.48   11.12
  -2  -2   5 1617.19   36.61
  -2  -2   4   84.63    7.90
  -2  -2   3  464.44   16.25
  -2  -2   3  462.75   18.47
  -2  -2   2  105.10    8.80
  -2  -2   2   96.11    5.58
   2   2  -2  106.54    5.42
  -2  -2   1 1023.29   29.34
   2   2  -1 1018.16   30.79
  -2  -2   0 2323.87   48.50
   2   2   0 2320.44   49.22
  -2  -2  -1  801.16   28.89
   2   2   1  782.25   28.73
  -2  -2  -2 2860.00   57.24
  -2  -2  -2 2740.74   62.07
   2   2   2 2824.09   46.37
  -2  -2  -3    4.69    1.36
  -2  -2  -3    7.51    2.96
  -2  -2  -4  130.71   12.75
  -2  -2  -4  165.13   14.78
  -2  -2  -5  405.64   25.14
  -2  -2  -6    6.35    3.74
  -2  -2  -7   47.38    9.79
  -2  -2  -8   21.06    7.34
  -2  -2  -9   11.86    5.85
  -2  -2 -10    2.80    3.57
   2   3 -13    4.90    4.07
   2   3 -12    4.36    4.39
   2   3 -11    4.23    4.82
   2   3 -10  104.15   18.01
  -2  -3   9   23.21    5.27
   2   3  -9   22.64    8.49
  -2  -3   8  698.19   28.21
  -2  -3   7   87.66    9.90
  -2  -3   6  170.59   13.32
  -2  -3   5 1980.71   47.25
  -2  -3   4  615.60   25.21
   2   3  -4  637.27   17.20
  -2  -3   4  604.13   21.81
  -2  -3   3 1736.41   31.27
  -2  -3   3 1766.02   44.77
  -2  -3   2  226.49   15.96
   2   3  -1  390.65   20.99
  -2  -3   1  361.69   21.05
  -2  -3   0  669.00   31.10
   2   3   0  694.11   28.50
   2   3   1  531.80   14.20
   2   3   1  548.39   26.30
  -2  -3  -1  517.31   28.94
   2   3   2  116.87    8.18
   2   3   2  113.81   12.47
  -2  -3  -2  125.84   14.93
   2   3   3   -0.29    2.63
  -2  -3  -3    3.77    2.69
  -2  -3  -4  740.00   34.21
  -2  -3  -4  813.64   35.13
  -2  -3  -5    3.28    3.17
  -2  -3  -6   49.10    9.72
  -2  -3  -7   43.92    9.99
  -2  -3  -8    2.98    4.06
  -2  -3  -9   23.24    9.21
   2   4 -13   23.00   10.22
   2   4 -12    5.73    5.31
   2   4 -11   12.13    7.83
  -2  -4  10   83.72   11.60
   2   4 -10   70.53   16.81
  -2  -4   9    2.74    1.87
  -2  -4   8  232.76   18.75
  -2  -4   7   19.55    5.17
  -2  -4   6  969.89   36.97
   2   4  -6  990.42   23.10
  -2  -4   5    3.08    2.57
   2   4  -4 1082.44   29.85
  -2  -4   4 1109.28   39.93
  -2  -4   4 1101.30   28.57
  -2  -4   3 1085.01   40.48
  -2  -4   3  982.07   20.23
  -2  -4   2  648.51   32.50
   2   4  -1 3239.10   70.56
  -2  -4   1 3216.94   79.72
  -2  -4   0  104.94   14.25
   2   4   0  101.36   11.90
   2   4   1   80.58   10.88
   2   4   1   83.95    5.32
  -2  -4  -1   83.59   13.19
   2   4   2  270.57   20.96
  -2  -4  -2  264.08   23.82
  -2  -4  -3   86.20   13.12
   2   4   3   80.12   11.78
   2   4   4   69.16   11.80
  -2  -4  -4   54.74   10.12
   2   4   5   54.80   11.17
   2   4   6   49.13   11.40
   2   4   7   -2.49    2.73
   2   5 -13   11.94    8.71
   2   5 -12    3.97    5.43
   2   5 -11  120.56   23.51
  -2  -5  10    4.14    2.18
  -2  -5   9   69.56   11.26
  -2  -5   8  185.87   18.68
  -2  -5   7   36.02    7.64
  -2  -5   6  432.89   28.46
   2   5  -6  491.81   23.14
  -2  -5   5  116.89   14.56
  -2  -5   4  416.61   28.63
  -2  -5   4  390.06   15.21
  -2  -5   3   -2.61    3.62
  -2  -5   2  696.03   38.98
  -2  -5   1  335.70   28.08
   2   5   0    7.64    3.44
  -2  -5   0    2.78    2.41
   2   5   1  999.16   42.06
  -2  -5  -1  997.33   51.38
   2   5   2    8.92    3.77
  -2  -5  -2   -2.83    4.60
  -2  -5  -3   90.54   14.44
   2   5   3   77.35   12.32
   2   5   4  168.21   19.79
   2   5   5    8.70    5.45
   2   5   6   22.89    8.55
   2   6 -13    6.89    5.35
   2   6 -12   10.01    8.02
  -2  -6  10   -4.43    6.26
  -2  -6   9  356.39   28.50
  -2  -6   8   43.86    9.44
   2   6  -7  160.71   14.27
  -2  -6   7  128.99   16.76
   2   6  -6  282.16   21.06
  -2  -6   6  264.62   24.40
  -2  -6   5   32.51    5.12
  -2  -6   5   24.69    7.31
  -2  -6   4  835.05   44.91
  -2  -6   4  722.78   17.62
  -2  -6   3    5.18    3.39
  -2  -6   2   17.25    6.69
  -2  -6   1  135.34   19.51
   2   6   0  456.75   30.33
  -2  -6   0  456.66   36.66
   2   6   1   26.09    7.24
  -2  -6  -1   16.78    7.22
  -2  -6  -2   39.15   10.85
   2   6   2   34.73    8.62
   2   6   3  172.96   20.35
   2   6   4    2.96    3.79
   2   6   5   54.61   12.25
   2   7 -13   -1.21    5.12
  -2  -7  11   11.72    5.58
  -2  -7  10    7.04    3.84
  -2  -7   9   42.20   10.32
  -2  -7   8    5.15    4.12
  -2  -7   7  144.80   19.59
   2   7  -7  172.52   17.48
   2   7  -6   27.05    7.41
  -2  -7   6   24.83    7.58
  -2  -7   5  452.47   35.24
  -2  -7   4  182.89   22.90
  -2  -7   3   11.34    7.04
  -2  -7   2  733.93   48.03
  -2  -7   1   19.76    8.19
  -2  -7   0   61.13   14.16
   2   7   1   99.65   15.69
  -2  -7  -1  110.33   18.97
   2   7   2   28.72    9.03
  -2  -7  -2   21.96    8.49
   2   7   3   -2.54    3.19
   2   7   4   34.82   10.95
  -2  -8  11   19.91    8.34
  -2  -8  10   26.40    8.71
  -2  -8   9   31.20    9.75
  -2  -8   8   -1.26    3.04
  -2  -8   7   84.85   16.12
   2   8  -6   39.78    9.60
  -2  -8   6   44.54   11.69
  -2  -8   5  119.24   19.28
   2   8  -5  125.88   18.53
  -2  -8   4   19.22    8.50
  -2  -8   3  264.12   29.89
  -2  -8   2    0.02    4.22
  -2  -8   1   23.91    9.38
  -2  -8   0  255.18   31.20
  -2  -8  -1   -2.25    5.39
   2   8   2   24.32    8.31
  -2  -9  12   12.35    6.72
  -2  -9  11    1.81    2.62
  -2  -9  10   56.16   13.56
  -2  -9   9    1.93    2.82
  -2  -9   8   90.63   17.35
  -2  -9   7   26.83    9.61
   2   9  -6    6.59    4.02
  -2  -9   6    5.72    4.80
  -2  -9   5  215.57   27.42
   2   9  -5  190.35   24.72
  -2  -9   4   17.89    7.06
   2   9  -4   13.06    7.49
  -2  -9   3   28.21    9.83
  -2  -9   2   16.43    8.49
  -2  -9   1   54.35   14.85
  -2  -9   0   -0.82    3.36
  -2 -10  12    2.02    2.14
  -2 -10  11   13.42    7.42
  -2 -10  10    6.31    5.71
  -2 -10   9   17.88    8.77
  -2 -10   8   35.39   11.40
  -2 -10   7    3.06    4.67
  -2 -10   6   85.74   18.19
   2  10  -5    2.03    3.96
  -2 -10   5    0.85    3.52
   2  10  -4    2.79    3.70
  -2 -10   4    0.62    3.70
   2  10  -3   82.04   18.73
  -2 -10   3   82.66   18.77
   2  10  -2    0.14    3.23
  -2 -10   2    5.31    5.47
  -2 -10   1    5.79    6.42
   2  11  -4   60.66   16.90
  -3  13  -5   -2.54    4.80
  -3  12  -3   34.65   15.01
  -3  12  -4    3.56    6.70
  -3  12  -5   -6.30    6.01
  -3  12  -6   39.93   13.49
  -3  12  -9   -6.15    5.39
  -3  12 -10    7.06    6.20
  -3  11  -1   43.90   18.02
  -3  11  -2   18.61   10.75
  -3  11  -3   23.36   11.19
  -3  11  -4   -1.53    3.68
   3 -11   4  -12.42    7.48
   3 -11   5   63.64   15.74
  -3  11  -5   43.62   13.25
   3 -11   6   -0.32    3.41
   3 -11   7    0.39    3.79
  -3  11  -8   36.99   11.97
  -3  11  -9    2.28    5.59
  -3  11 -10    9.22    7.74
  -3  11 -11   -2.84    4.37
  -3  10   1   -5.75    4.94
  -3  10   0   56.70   19.08
  -3  10  -1    9.16    9.86
  -3  10  -2    5.52    5.28
  -3  10  -3  264.03   34.46
   3 -10   3  285.14   33.11
   3 -10   4    3.10    4.25
  -3  10  -4    3.16    3.39
   3 -10   4    6.34    5.18
  -3  10  -5   29.15   12.23
   3 -10   5   40.50    9.69
   3 -10   5   49.68   13.24
   3 -10   6   14.19    7.41
   3 -10   6    5.02    5.03
   3 -10   7   23.92    8.39
  -3  10  -8    4.69    3.00
   3 -10   8    0.62    2.45
  -3  10  -9    9.19    6.66
  -3  10 -10   17.63    7.75
  -3  10 -11   16.79   10.18
  -3   9   3   19.36   11.90
  -3   9   2   61.71   20.05
  -3   9   1   72.72   20.22
  -3   9   0   59.73   22.85
   3  -9   1   -2.24    2.64
   3  -9   1    9.49    6.26
  -3   9  -1   15.10    7.70
  -3   9  -2  435.08   43.78
   3  -9   2  497.34   42.46
   3  -9   2  424.15   28.14
   3  -9   3    1.29    2.47
   3  -9   3   -0.05    5.34
  -3   9  -3    6.98    4.17
   3  -9   4   14.92    6.13
   3  -9   4   16.37    6.02
  -3   9  -4    8.96    5.06
   3  -9   5  273.36   25.07
  -3   9  -5  225.44   30.49
   3  -9   5  307.47   29.84
   3  -9   6   48.27   11.55
  -3   9  -7  113.16   19.87
  -3   9  -8   -0.62    4.19
  -3   9  -9    2.91    5.43
  -3   9 -10   12.35    8.91
  -3   9 -11   -7.00    6.07
  -3   9 -12    7.71    6.77
  -3   8   5  107.28   27.34
  -3   8   4    5.08    7.67
  -3   8   3  225.48   36.62
   3  -8  -2   70.14   12.32
  -3   8   2   57.51   17.24
   3  -8  -1    3.09    2.90
  -3   8   1    1.75    4.86
   3  -8   0  286.34   22.21
   3  -8   0  330.14   34.57
  -3   8   0  349.44   41.97
  -3   8  -1    4.03    5.64
   3  -8   1   -4.71    4.10
   3  -8   1   -1.15    4.97
  -3   8  -2  164.38   25.49
   3  -8   2  132.65   15.08
   3  -8   2  140.30   21.31
   3  -8   3   15.21    6.10
  -3   8  -3   17.71    8.74
   3  -8   3   23.92    6.73
  -3   8  -4  521.65   43.27
   3  -8   4  481.05   36.76
   3  -8   4  434.11   29.74
  -3   8  -6   20.25    7.39
  -3   8  -7  231.20   26.78
  -3   8  -8   27.98   10.05
  -3   8  -9  105.74   20.10
  -3   8 -10   -3.38    4.31
  -3   8 -11   -2.27    3.62
  -3   8 -12    8.88    5.00
  -3   7   6   55.52   21.05
   3  -7  -5   14.26    7.04
  -3   7   5   22.33   13.11
   3  -7  -4   76.38   13.82
  -3   7   4   57.50   19.34
  -3   7   4   63.44    9.97
   3  -7  -3  116.96   15.90
  -3   7   3   94.51   22.75
  -3   7   3  110.10   12.01
   3  -7  -2   37.48    8.16
  -3   7   2   33.18    6.12
  -3   7   2   46.02   16.68
  -3   7   1 1149.95   73.06
  -3   7   1 1117.28   34.46
   3  -7  -1 1088.35   43.33
   3  -7  -1 1059.24   60.29
   3  -7   0    0.86    2.09
  -3   7   0   -0.99    5.05
   3  -7   0    5.48    2.35
   3  -7   1   11.83    4.05
  -3   7  -1    8.79    7.60
   3  -7   1   15.49    7.03
  -3   7  -2 1049.26   60.41
   3  -7   2  986.04   52.33
   3  -7   2  978.41   39.76
   3  -7   3    4.87    3.48
   3  -7   3   16.83    7.25
  -3   7  -3   12.44    6.84
  -3   7  -5   15.27    6.28
  -3   7  -6   84.02   15.36
  -3   7  -7    5.87    5.61
  -3   7  -8   16.41    7.04
  -3   7  -9   44.72   12.95
  -3   7 -10   16.19    7.72
  -3   7 -11   34.68   12.15
  -3   7 -12    6.94    8.19
  -3   6   8   40.33   18.89
  -3   6   7   -7.76    8.06
  -3   6   6  124.37   28.91
   3  -6  -5   25.92    7.95
  -3   6   5   31.84   13.09
   3  -6  -4   32.95    8.49
  -3   6   4   25.28   11.41
  -3   6   3  120.67   11.38
  -3   6   3  119.64   23.83
   3  -6  -3  132.85   15.53
   3  -6  -2  156.78   22.26
  -3   6   2  186.05   29.01
   3  -6  -2  169.44   16.51
  -3   6   2  174.09   12.47
   3  -6  -1  431.58   24.70
   3  -6  -1  438.26   36.21
  -3   6   1  432.11   14.57
  -3   6   1  461.63   43.54
  -3   6   1  447.07   18.51
   3  -6   0   15.14    4.13
  -3   6   0    1.45    5.38
   3  -6   0   22.96    9.03
  -3   6  -1 2267.56   88.17
   3  -6   1 2093.68   74.76
   3  -6   2  107.74    7.98
   3  -6   2  120.70   13.06
  -3   6  -2  115.10   19.20
  -3   6  -3  364.20   33.60
  -3   6  -4 1060.39   45.69
  -3   6  -5  310.99   25.65
  -3   6  -6  447.55   32.69
  -3   6  -7    0.30    2.43
  -3   6  -8   36.54   11.34
  -3   6  -9   10.50    6.28
  -3   6 -10   -2.87    5.48
  -3   6 -11    7.91    5.28
  -3   6 -12   -8.76    6.44
  -3   5   9   36.84   17.74
  -3   5   8   -3.21    5.72
  -3   5   7   60.76   19.12
  -3   5   6  229.90   36.57
   3  -5  -6  180.21   21.47
   3  -5  -5   35.17    9.18
  -3   5   5   20.51   10.36
   3  -5  -4  890.46   41.00
  -3   5   4  877.86   64.26
   3  -5  -3    7.42    3.63
  -3   5   3   -1.43    5.75
  -3   5   2  234.61   30.66
  -3   5   2  235.37   12.90
   3  -5  -2  223.86   24.26
  -3   5   2  203.06    9.15
   3  -5  -2  240.82   18.37
   3  -5  -1 1351.40   59.15
  -3   5   1 1402.79   28.73
   3  -5  -1 1384.67   41.78
   3  -5   0   37.33    6.63
  -3   5   0   46.38   13.10
   3  -5   0   52.43   11.21
  -3   5  -1  414.79   33.81
   3  -5   1  449.39   23.56
  -3   5  -2    0.64    2.74
  -3   5  -2    7.40    3.41
   3  -5   2    6.02    3.15
  -3   5  -3 1572.18   47.31
  -3   5  -4   76.28   10.87
  -3   5  -5  172.85   18.17
  -3   5  -6  223.99   21.83
  -3   5  -7  157.77   19.42
  -3   5  -8  393.50   32.44
  -3   5  -9    7.15    5.55
  -3   5 -10   -3.60    4.63
  -3   5 -11   16.08    9.51
  -3   5 -12    0.81    3.82
  -3   4   9   78.19   22.37
  -3   4   8    7.19    7.78
  -3   4   7  101.78   24.62
   3  -4  -6   61.91   11.83
  -3   4   6   66.85   18.82
   3  -4  -6   56.99    6.99
  -3   4   5  535.61   49.11
   3  -4  -5  488.03   30.88
   3  -4  -5  525.73   19.07
  -3   4   4  479.77   44.24
   3  -4  -4  465.93   27.36
  -3   4   3  118.70   21.01
   3  -4  -3  107.52   15.70
   3  -4  -3  114.83   12.53
   3  -4  -2 4215.79   76.74
   3  -4  -2 4354.27  102.94
  -3   4   1  230.06   26.27
  -3   4   1  212.88    8.47
   3  -4  -1  194.60   20.33
   3  -4  -1  204.18   14.63
  -3   4   0  625.59   13.99
  -3   4   0  712.16   41.35
   3  -4   0  687.46   26.61
  -3   4  -1 1133.40   54.27
   3  -4   1 1240.08   37.72
  -3   4  -1 1200.45   27.45
  -3   4  -2  505.48   20.95
  -3   4  -3 1524.11   42.85
  -3   4  -4    2.85    2.04
  -3   4  -5  346.16   23.80
  -3   4  -6   14.48    5.08
  -3   4  -7  116.08   16.05
  -3   4  -8   91.14   15.17
  -3   4  -9    2.73    4.28
  -3   4 -10   78.39   15.62
  -3   4 -11    0.91    3.71
  -3   4 -12   -1.80    5.23
  -3   3   9   65.72   18.87
  -3   3   8   21.78    9.84
  -3   3   7  496.76   47.82
   3  -3  -7  451.66   21.60
   3  -3  -6   22.49    4.13
   3  -3  -6   19.03    5.99
  -3   3   6   25.39    9.96
  -3   3   5  266.48   32.06
   3  -3  -5  261.25   12.93
   3  -3  -5  253.15   20.64
  -3   3   4  121.66   20.26
   3  -3  -4  119.75    7.23
   3  -3  -4  119.14   15.19
   3  -3  -4  122.92   13.21
  -3   3   3  112.18   18.56
   3  -3  -3  136.31    5.96
   3  -3  -3  148.72   16.56
   3  -3  -3  155.53   13.62
   3  -3  -2  542.93   23.36
  -3   3   2  572.44   38.30
   3  -3  -2  581.83   32.88
  -3   3   1    1.77    1.89
   3  -3  -1    7.30    2.15
   3  -3   0 4879.33   67.89
  -3   3   0 4992.72   35.38
   3  -3   1 1762.04   43.44
   3  -3   1 1727.00   33.61
  -3   3  -1 1715.16   30.99
   3  -3   2 1492.37   35.32
  -3   3  -2 1441.09   33.90
  -3   3  -3 1828.82   44.36
  -3   3  -4  342.50   20.61
  -3   3  -5 1311.37   33.74
  -3   3  -5 1350.33   46.02
  -3   3  -6   79.93   11.91
  -3   3  -6   72.23    7.99
  -3   3  -7  125.70   16.15
  -3   3  -8   22.59    7.45
  -3   3  -9    5.82    4.43
  -3   3 -10    7.04    5.75
  -3   3 -11    1.95    3.05
  -3   2   9  -10.45    6.70
   3  -2  -9    1.53    2.25
   3  -2  -8   98.47   11.31
  -3   2   8  131.73   23.89
   3  -2  -7   88.85    9.69
  -3   2   7   93.89   18.48
   3  -2  -6   68.94   10.95
   3  -2  -6   68.37    7.76
   3  -2  -5 2574.96   64.55
   3  -2  -5 2543.41   46.37
  -3   2   4  525.14   38.47
   3  -2  -4  478.49   24.18
   3  -2  -4  504.26   27.11
   3  -2  -4  479.53   16.00
  -3   2   3  342.41   26.60
   3  -2  -3  323.07   21.80
   3  -2  -3  312.02   10.63
   3  -2  -3  303.31   17.62
   3  -2  -2  480.10   20.22
  -3   2   2  506.86   29.16
   3  -2  -1   41.88    5.68
   3  -2  -1   37.76    2.50
  -3   2   0 1260.73   22.69
   3  -2   0 1248.68   22.03
   3  -2   0 1210.24   32.41
  -3   2  -1   96.71    7.04
   3  -2   1   93.38    6.85
  -3   2  -2 1756.10   37.89
  -3   2  -3  427.00   20.53
  -3   2  -4 1482.48   43.72
  -3   2  -5  161.61   15.74
  -3   2  -6  122.35    7.34
  -3   2  -6  112.26    5.66
  -3   2  -7  696.23   37.63
  -3   2  -8   13.47    5.73
  -3   2  -9   45.80   11.39
  -3   2 -10   10.71    6.24
  -3   2 -11    0.20    4.56
   3  -1 -10   73.67   11.64
   3  -1  -9   -3.51    3.65
  -3   1   9    3.56    3.21
  -3   1   8   80.26   15.84
   3  -1  -8  106.33   12.11
  -3   1   7   -0.06    2.97
   3  -1  -7    6.04    3.54
   3  -1  -6  574.74   30.34
   3  -1  -6  541.48   23.98
  -3   1   5  327.93   25.10
   3  -1  -5  265.89   15.46
   3  -1  -5  306.44   20.14
  -3   1   4  292.99   21.79
   3  -1  -4  280.38   17.60
   3  -1  -4  263.67   16.89
   3  -1  -3 5110.53  104.32
   3  -1  -3 5412.66   80.33
   3  -1  -2 1571.66   45.61
   3  -1  -2 1481.56   34.49
  -3   1   1 3958.77   51.49
  -3   1   1 3970.63   59.92
   3  -1  -1 3919.47   59.00
   3  -1  -1 3903.15   48.34
   3  -1   0 1620.02   30.24
   3  -1   0 1659.20   29.59
   3  -1   0 1663.39   36.14
  -3   1   0 1662.80   31.06
   3  -1   1 1073.04   26.38
  -3   1  -1  993.53   25.85
  -3   1  -2 2371.28   46.43
  -3   1  -3    2.35    1.80
  -3   1  -4  823.62   32.25
  -3   1  -5   36.44    3.97
  -3   1  -5   38.15    8.19
  -3   1  -6  207.32   18.91
  -3   1  -7   31.11    7.36
  -3   1  -8    3.02    4.42
  -3   1  -9   95.02   15.62
  -3   1 -10    6.85    4.56
   3   0 -11   32.65    8.97
   3   0 -10   10.79    5.01
   3   0  -9   14.55    5.38
   3   0  -8  445.69   26.97
  -3   0   8  441.86   20.66
   3   0  -7   79.54   10.77
  -3   0   7  128.37   14.24
   3   0  -6  773.31   33.69
  -3   0   6  975.12   36.19
   3   0  -5  270.42   17.87
   3   0  -4  677.68   31.51
   3   0  -4  699.53   23.99
   3   0  -4  694.31   26.09
   3   0  -3  101.37    8.74
   3   0  -3  117.41   11.35
  -3   0   2    5.66    1.82
   3   0  -2    5.38    1.82
  -3   0   1 6766.22   81.87
   3   0  -1 6702.54   79.58
  -3   0   1 6648.92   82.32
   3   0   0 1549.45   32.44
   3   0   0 1504.34   34.35
   3   0   1 3055.28   55.21
  -3   0  -1 3013.98   53.38
  -3   0  -2  267.24   15.56
  -3   0  -2  256.91   12.54
  -3   0  -3  111.44    8.22
  -3   0  -3  100.96   10.54
  -3   0  -4 2356.94   43.14
  -3   0  -4 2307.02   57.03
  -3   0  -5   14.87    5.05
  -3   0  -5   23.25    4.03
  -3   0  -6  135.96   15.58
  -3   0  -7   18.05    6.38
  -3   0  -8   19.58    7.07
  -3   0  -9   14.73    6.83
  -3   0 -10   -7.25    4.88
   3   1 -12    0.39    2.96
   3   1 -11   71.66   13.49
   3   1 -10    4.32    3.53
  -3  -1   9  282.21   15.56
   3   1  -9  259.24   23.39
  -3  -1   8   34.27    5.30
   3   1  -8   25.72    7.32
  -3  -1   7   83.77    8.41
   3   1  -6 2935.93   64.74
  -3  -1   6 2820.47   56.12
   3   1  -5  498.59   13.60
   3   1  -5  531.51   23.99
  -3  -1   5  499.43   21.95
   3   1  -5  574.35   23.84
   3   1  -4 1732.52   39.84
  -3  -1   3  142.35    9.93
   3   1  -3  142.91    9.44
  -3  -1   2   31.37    4.90
  -3  -1   2   37.04    4.54
   3   1  -2   36.40    4.14
   3   1  -1 2295.00   35.83
  -3  -1   1 2504.72   46.26
   3   1   0  133.39   11.16
   3   1   0  146.79    8.59
  -3  -1   0  122.11    9.55
   3   1   1 2093.80   49.54
  -3  -1  -1 2128.58   42.89
  -3  -1  -2  408.20   20.94
  -3  -1  -2  433.66   19.02
  -3  -1  -3 2056.87   47.79
  -3  -1  -3 2112.89   52.99
  -3  -1  -4   61.03    8.14
  -3  -1  -4   55.72    9.00
  -3  -1  -5   11.52    3.24
  -3  -1  -5   14.49    5.23
  -3  -1  -6  390.17   27.30
  -3  -1  -7   32.85    8.40
  -3  -1  -8   52.67   11.81
  -3  -1  -9    6.90    5.14
   3   2 -14   11.65    6.33
   3   2 -13   -0.53    2.82
   3   2 -12    3.92    2.37
   3   2 -11   61.11   13.56
   3   2 -10    1.52    2.42
  -3  -2   9  249.65   16.13
   3   2  -9  245.29   26.09
  -3  -2   8   27.92    5.27
  -3  -2   7  562.71   23.63
  -3  -2   6   81.44    8.94
  -3  -2   5   66.56    7.85
  -3  -2   4 4481.06   72.34
   3   2  -4 4493.94   66.91
  -3  -2   3 1680.71   40.40
  -3  -2   3 1609.91   33.54
   3   2  -3 1650.98   31.51
  -3  -2   2 4038.62   67.32
  -3  -2   2 3941.51   52.68
   3   2  -2 4050.50   48.80
   3   2  -1  829.35   31.26
   3   2  -1  796.74   15.82
  -3  -2   1  812.61   28.11
  -3  -2   0   19.81    4.52
   3   2   0   17.91    2.60
   3   2   0   16.64    4.68
  -3  -2  -1 1574.77   43.89
   3   2   1 1631.50   47.32
  -3  -2  -2   32.11    6.49
   3   2   2   32.96    6.59
  -3  -2  -3  461.66   26.60
  -3  -2  -3  467.61   25.80
  -3  -2  -4    4.37    2.10
  -3  -2  -4   11.44    5.09
  -3  -2  -5  257.38   21.44
  -3  -2  -6    0.42    3.38
  -3  -2  -7    4.09    3.77
  -3  -2  -8   89.39   15.59
  -3  -2  -9    4.59    4.85
   3   3 -14   23.01   10.22
   3   3 -13    6.83    5.11
   3   3 -12   38.77   14.34
   3   3 -11    2.41    2.45
   3   3 -10   -2.31    4.03
  -3  -3  10    2.33    1.53
  -3  -3   9  460.70   24.69
  -3  -3   8  199.43   15.64
  -3  -3   7  463.37   23.40
   3   3  -6    1.54    1.09
  -3  -3   6   13.93    4.47
  -3  -3   5  796.76   30.31
   3   3  -5  722.09   16.02
  -3  -3   4  104.93   10.96
  -3  -3   4  104.01    8.74
  -3  -3   3    5.26    1.69
  -3  -3   3    6.01    3.04
  -3  -3   2 2173.01   53.66
  -3  -3   1  602.45   28.23
   3   3  -1  576.58   28.64
  -3  -3   0 3500.49   74.57
   3   3   0 3085.21   36.08
   3   3   0 3130.06   34.94
   3   3   0 3603.41   75.56
   3   3   1   -0.28    2.70
  -3  -3  -1    5.47    3.32
   3   3   1    6.85    1.67
  -3  -3  -2   21.06    6.44
   3   3   2   13.81    4.91
  -3  -3  -3  951.91   44.91
   3   3   3  936.33   42.08
   3   3   4   10.71    5.19
  -3  -3  -4    6.31    3.13
   3   3   5  136.57   18.22
   3   4 -14    1.54    3.20
   3   4 -13    0.20    3.33
   3   4 -12   38.11   13.73
   3   4 -11   19.60    9.75
  -3  -4  10  208.95   18.75
  -3  -4   9    4.26    2.97
  -3  -4   8   -3.07    2.94
  -3  -4   7 1063.07   40.49
  -3  -4   6  371.15   23.42
   3   4  -5 1586.63   33.67
  -3  -4   5 1642.11   50.33
  -3  -4   4   73.13   10.56
  -3  -4   4   87.07    7.27
  -3  -4   3   16.42    5.53
  -3  -4   3   15.39    2.16
  -3  -4   2  456.62   27.58
   3   4  -1   98.77   12.88
  -3  -4   1   64.68   10.71
  -3  -4   0  743.79   39.48
   3   4   0  770.57   36.63
  -3  -4  -1   87.55   14.09
   3   4   1   96.74   13.08
  -3  -4  -2  901.64   47.83
   3   4   2  901.79   41.86
   3   4   3    2.99    3.25
  -3  -4  -3    2.44    3.22
   3   4   4   20.81    6.86
   3   4   5  196.01   22.75
   3   4   6   15.52    7.61
   3   5 -13    1.69    2.99
   3   5 -12   25.32   10.88
  -3  -5  10  198.90   20.35
  -3  -5   9    6.43    3.95
  -3  -5   8  303.57   23.91
   3   5  -7   11.12    2.90
  -3  -5   7    9.84    4.70
  -3  -5   6   78.07   11.91
  -3  -5   5 1509.87   54.02
  -3  -5   5 1473.45   36.26
  -3  -5   4  530.27   31.82
  -3  -5   4  424.06   13.63
  -3  -5   3 1658.76   59.85
  -3  -5   2   23.09    7.47
  -3  -5   1  109.85   16.34
   3   5   0 1029.68   46.10
  -3  -5   0 1004.28   52.09
  -3  -5  -1    6.99    4.39
   3   5   1   -0.62    2.03
  -3  -5  -2  135.39   19.89
   3   5   2  114.44   15.76
   3   5   3    0.75    2.60
  -3  -5  -3    9.40    5.33
   3   5   4  127.08   18.45
   3   5   5   -2.22    3.21
   3   6 -13   37.51   13.30
  -3  -6  11   -3.01    3.72
  -3  -6  10  137.14   18.08
  -3  -6   9   28.30    8.03
  -3  -6   8  288.74   25.99
  -3  -6   7    4.32    3.72
   3   6  -7    3.14    2.25
  -3  -6   6  250.78   24.07
  -3  -6   5  111.96   16.27
  -3  -6   4  171.35   20.59
  -3  -6   3  562.55   38.13
  -3  -6   2  206.29   23.99
  -3  -6   1 1293.53   63.22
  -3  -6   0   10.18    5.56
   3   6   0    5.13    4.76
  -3  -6  -1    4.50    4.85
   3   6   1    8.11    2.76
  -3  -6  -2  226.46   26.82
   3   6   2  210.26   23.28
   3   6   3    7.55    5.32
   3   6   4   46.26   11.55
  -3  -7  11   97.08   16.66
  -3  -7  10    1.78    2.51
  -3  -7   9   23.30    8.05
  -3  -7   8  248.90   25.98
  -3  -7   7  121.09   18.08
  -3  -7   6  508.47   37.48
  -3  -7   5    7.87    4.81
  -3  -7   4   61.38   13.37
  -3  -7   3   75.21   15.35
  -3  -7   2   35.10   10.37
  -3  -7   1  144.70   22.71
  -3  -7   0    0.20    3.09
   3   7   1  229.50   25.37
  -3  -7  -1  199.24   27.00
   3   7   2   11.13    5.92
   3   7   3   25.08    9.67
  -3  -8  12    1.89    4.73
  -3  -8  11   46.74   12.35
  -3  -8  10   -0.52    2.43
  -3  -8   9  130.57   20.17
  -3  -8   8    2.03    3.96
  -3  -8   7   35.42   10.04
  -3  -8   6  204.25   25.72
  -3  -8   5   85.17   16.96
  -3  -8   4  565.42   44.13
  -3  -8   3    7.19    4.70
  -3  -8   2   18.51   10.01
  -3  -8   1  145.60   23.84
  -3  -8   0    4.08    3.46
  -3  -8  -1   47.22   13.90
  -3  -9  12    5.34    3.88
  -3  -9  11   16.92    7.37
  -3  -9  10    6.14    4.60
  -3  -9   9  102.31   18.83
  -3  -9   8   -1.86    4.66
  -3  -9   7   25.43    9.46
  -3  -9   6    2.37    4.89
  -3  -9   5   35.80   11.85
  -3  -9   4   85.08   17.63
  -3  -9   3    3.21    4.25
  -3  -9   2  281.41   34.38
  -3  -9   1    9.56    7.37
  -3  -9   0   35.99   12.52
  -3 -10  10    4.07    3.92
  -3 -10   9   28.83   10.25
  -3 -10   8   25.59    9.97
  -3 -10   7  118.61   21.45
  -3 -10   6   -0.73    3.46
   3  10  -5   38.10   13.00
  -3 -10   5   56.67   15.85
  -3 -10   4   39.56   12.98
   3  10  -4   22.19   10.01
  -4  13  -5   -1.93    4.35
   4 -13   6   12.29    9.27
  -4  12  -3   60.61   17.91
  -4  12  -4    6.31    8.48
   4 -12   4   17.75    8.77
   4 -12   5   41.19   12.83
   4 -12   6    8.92    5.34
   4 -12   7   -8.07    5.96
  -4  12 -10   -0.01    2.46
  -4  11   0   37.71   14.93
  -4  11  -1    8.21    6.77
  -4  11  -2   13.81    8.85
   4 -11   3   26.47   11.42
  -4  11  -3   26.25   11.58
  -4  11  -4   15.34   10.22
   4 -11   4   19.76   10.80
   4 -11   5   47.49   13.11
   4 -11   6    0.61    4.33
   4 -11   6    6.12    6.33
   4 -11   7   51.57   13.08
   4 -11   7   56.38   13.20
  -4  11  -8   -0.19    3.35
   4 -11   8    0.31    3.87
  -4  11  -9    3.61    4.26
  -4  11 -10    8.70    8.24
  -4  10   2    3.38    4.89
  -4  10   1    1.33    6.86
  -4  10   0  183.72   31.53
   4 -10   1   31.50   12.44
  -4  10  -1   37.26   13.14
   4 -10   2   88.31   14.51
   4 -10   2  101.70   20.04
  -4  10  -2  109.64   23.43
   4 -10   3   49.32   10.99
   4 -10   3   68.44   16.09
  -4  10  -3   63.32   17.58
  -4  10  -4    2.09    4.03
   4 -10   4    3.32    4.61
   4 -10   4    0.50    2.68
   4 -10   5   45.45   12.17
  -4  10  -5   40.57   10.15
   4 -10   5   46.31   11.07
   4 -10   6    8.34    6.94
  -4  10  -6    6.61    5.27
   4 -10   6    4.97    5.54
  -4  10  -7   25.16    9.76
   4 -10   7   21.89    8.16
  -4  10  -8    0.62    4.66
  -4  10  -9    3.64    5.65
  -4  10 -10    6.22    5.58
  -4  10 -11    5.82    6.34
  -4   9   3   66.69   21.49
  -4   9   2   18.55   11.59
   4  -9  -1   80.52   13.75
  -4   9   1   61.66   18.33
   4  -9   0   -2.48    3.16
   4  -9   0    1.41    3.90
   4  -9   1   50.82   10.70
   4  -9   1   93.85   18.62
  -4   9  -1   72.02   19.16
  -4   9  -2  234.41   32.62
   4  -9   2  231.52   22.36
   4  -9   2  256.57   30.65
  -4   9  -3   12.60    7.26
   4  -9   3    5.44    5.23
   4  -9   3    6.83    5.05
   4  -9   4  277.05   29.43
   4  -9   4  259.03   24.96
  -4   9  -4  232.87   23.18
  -4   9  -5    1.86    2.99
   4  -9   5    0.11    4.62
  -4   9  -6    5.61    4.46
  -4   9  -7   87.65   16.64
  -4   9  -8    0.09    2.80
  -4   9  -9   -0.82    4.02
  -4   9 -10   -5.59    6.46
  -4   9 -11   -8.33    6.50
  -4   8   5   -2.45    3.97
   4  -8  -4    0.62    3.52
  -4   8   4    0.93    6.53
   4  -8  -3  250.18   24.79
  -4   8   3   27.92   13.64
   4  -8  -2    0.86    3.24
  -4   8   2   -2.44    3.26
  -4   8   1  290.51   38.45
   4  -8  -1  235.21   22.06
   4  -8  -1  246.84   31.08
   4  -8   0  165.54   24.53
   4  -8   0  144.00   16.50
  -4   8   0  149.22   27.46
   4  -8   1   29.85    7.65
  -4   8  -1   21.70   10.06
   4  -8   1   17.32    8.31
   4  -8   2  112.38   19.09
   4  -8   2   94.17   13.61
  -4   8  -2  113.97   21.95
  -4   8  -3  155.41   16.65
  -4   8  -3  156.44   27.65
   4  -8   3  176.32   23.66
   4  -8   3  194.27   20.48
   4  -8   4  126.09   16.75
  -4   8  -4   95.06   13.91
  -4   8  -5    3.47    3.63
  -4   8  -6  160.47   20.39
  -4   8  -7   -3.44    3.83
  -4   8  -8    6.61    5.23
  -4   8  -9   16.51    7.63
  -4   8 -10    2.56    2.49
  -4   8 -11    1.62    5.71
  -4   7   7  -12.39   10.64
  -4   7   6   29.57   15.99
   4  -7  -6   46.80   12.32
  -4   7   5   10.17    8.64
   4  -7  -5   25.26    8.90
   4  -7  -4  184.56   21.81
  -4   7   4   92.56   24.82
   4  -7  -3    4.77    3.46
  -4   7   3    4.15    5.86
  -4   7   2  204.57   32.55
   4  -7  -2  186.10   26.00
   4  -7  -2  189.17   19.47
   4  -7  -1  657.34   48.16
   4  -7  -1  656.30   34.43
  -4   7   0   78.37   18.27
   4  -7   0   66.75   10.67
   4  -7   0   65.21   15.23
  -4   7  -1  613.74   48.90
   4  -7   1  510.57   39.79
   4  -7   1  527.45   30.41
  -4   7  -1  525.69   22.48
  -4   7  -2  208.00   29.22
   4  -7   2  185.63   18.47
  -4   7  -2  157.77   13.92
   4  -7   3   14.99    6.20
   4  -7   3   10.00    2.81
  -4   7  -3    8.90    3.92
  -4   7  -4  191.48   18.68
  -4   7  -5   11.99    4.74
  -4   7  -6    7.44    3.61
  -4   7  -7   13.56    6.87
  -4   7  -8   35.39   10.50
  -4   7  -9    2.42    3.81
  -4   7 -10   -4.38    6.57
  -4   7 -11    1.75    3.69
  -4   6   8    4.90    6.93
  -4   6   7    6.34    7.44
  -4   6   6  240.79   40.64
   4  -6  -6  222.67   25.64
   4  -6  -5    4.38    3.46
  -4   6   5    6.20    5.72
   4  -6  -4  165.15   18.84
  -4   6   4   23.86   12.44
  -4   6   3  224.90   33.36
  -4   6   3  171.48   12.14
   4  -6  -3  184.21   24.52
   4  -6  -3  171.76   18.01
  -4   6   2  387.13   41.66
  -4   6   2  331.89   14.83
   4  -6  -2  335.64   32.95
   4  -6  -2  324.78   23.61
   4  -6  -1   59.06    9.52
   4  -6  -1   75.87   15.16
  -4   6   1   78.98   17.55
  -4   6   0  341.68   35.60
   4  -6   0  356.61   31.85
   4  -6   0  325.69   22.60
  -4   6  -1  186.84   27.58
   4  -6   1  216.67   18.60
  -4   6  -1  189.31   11.34
   4  -6   2   62.38    4.63
  -4   6  -2   71.11    8.59
   4  -6   2   59.00    9.82
  -4   6  -3  972.52   36.55
  -4   6  -4   -0.52    2.32
  -4   6  -5    1.77    1.89
  -4   6  -6  113.96   16.06
  -4   6  -7    5.37    5.24
  -4   6  -8   11.53    5.97
  -4   6  -9   -3.44    5.18
  -4   6 -10    8.85    5.06
  -4   6 -11   -1.49    5.38
  -4   5   9   18.82   13.27
  -4   5   8   -2.05    8.33
  -4   5   7   34.81   16.16
   4  -5  -7  176.47   22.79
   4  -5  -6   11.13    5.93
  -4   5   6    1.77    7.16
  -4   5   5    1.57    5.56
   4  -5  -5  101.41   14.67
  -4   5   4  492.74   48.75
   4  -5  -4  436.39   35.56
   4  -5  -4  405.90   27.56
   4  -5  -3  127.88   19.03
   4  -5  -3  114.71   13.84
  -4   5   3   93.47   19.95
  -4   5   2  526.23   44.96
   4  -5  -2  545.37   39.23
   4  -5  -2  521.70   27.86
  -4   5   1  362.14   10.57
  -4   5   1  442.02   38.54
   4  -5  -1  413.80   33.38
   4  -5  -1  378.93   22.95
  -4   5   0    0.09    3.56
   4  -5   0    3.28    3.04
  -4   5   0    2.95    0.78
   4  -5   1  115.45   12.84
  -4   5  -1  102.16    7.39
   4  -5   2  381.77   24.19
  -4   5  -2  368.49   17.80
  -4   5  -3  125.37   12.01
  -4   5  -4   34.82    7.09
  -4   5  -5  356.54   24.76
  -4   5  -6    7.57    4.16
  -4   5  -7   44.76   10.24
  -4   5  -8   56.19   12.55
  -4   5  -9   -1.94    4.20
  -4   5 -10    8.17    6.02
  -4   5 -11    2.56    4.17
  -4   4   9   15.45   14.06
  -4   4   8   17.63   10.09
   4  -4  -7   65.35   13.11
  -4   4   7   25.63   12.22
   4  -4  -6   43.82   10.33
  -4   4   6   29.82   10.67
  -4   4   5  230.57   35.95
   4  -4  -5  294.03   23.76
   4  -4  -5  247.05   11.10
   4  -4  -4   32.22    7.25
   4  -4  -4   35.95    9.49
  -4   4   4   38.96   13.00
  -4   4   3  383.56   36.41
   4  -4  -3  335.67   22.24
   4  -4  -3  323.02   28.64
  -4   4   2  749.31   47.70
   4  -4  -2  741.32   43.04
   4  -4  -2  788.36   32.42
  -4   4   1   92.44   16.10
   4  -4  -1  106.91   11.25
   4  -4   0 1326.62   41.51
  -4   4   0 1302.96   21.08
  -4   4  -1   27.95    3.88
   4  -4   1   27.77    5.85
  -4   4  -2    4.38    1.97
  -4   4  -3  659.43   26.80
  -4   4  -4  109.11   12.08
  -4   4  -5    3.92    2.77
  -4   4  -6   75.66   12.05
  -4   4  -7   66.79   12.64
  -4   4  -8    1.38    3.13
  -4   4  -9   38.09   10.74
  -4   4 -10    2.87    3.28
  -4   4 -11   -1.00    2.39
  -4   3   9    4.55    6.15
  -4   3   8    7.55    7.46
  -4   3   7  190.01   30.39
   4  -3  -7  215.30   13.90
   4  -3  -7  208.25   21.96
   4  -3  -6    7.25    2.88
  -4   3   6   10.09    8.66
   4  -3  -6   12.73    2.99
  -4   3   5  397.99   37.04
   4  -3  -5  347.76   26.86
   4  -3  -5  354.65   24.47
   4  -3  -5  375.87   14.06
  -4   3   4  242.79   26.73
   4  -3  -4  219.66   21.18
   4  -3  -4  223.09   17.88
   4  -3  -4  204.58    8.25
   4  -3  -3   73.71    9.66
   4  -3  -3   78.08   12.49
  -4   3   3   65.87   13.63
  -4   3   2  183.01   22.49
   4  -3  -2  171.87   13.89
   4  -3  -1 1568.93   21.39
  -4   3   1 1510.87   21.05
   4  -3   0  353.97   12.19
   4  -3   0  334.27   19.37
  -4   3   0  360.02   12.34
   4  -3   1   73.48    6.70
   4  -3   1   67.64    5.01
   4  -3   1   67.22    9.05
  -4   3  -1   67.13    6.26
  -4   3  -2 1555.66   37.69
  -4   3  -3   34.18    6.13
  -4   3  -4  118.18   12.61
  -4   3  -5  248.59   19.95
  -4   3  -6    2.91    2.49
  -4   3  -7   21.75    7.39
  -4   3  -8   40.69   10.20
  -4   3  -9    3.03    3.55
  -4   3 -10   -6.26    4.17
  -4   3 -11    4.26    4.63
   4  -2  -8  141.08   12.69
  -4   2   8  173.86   24.01
   4  -2  -7    1.33    2.38
  -4   2   7    6.00    5.45
   4  -2  -7    4.44    1.97
  -4   2   6  347.19   30.54
   4  -2  -6  326.61   16.41
   4  -2  -6  312.74   23.73
  -4   2   5  726.89   41.69
   4  -2  -5  672.34   21.90
   4  -2  -5  687.60   32.45
   4  -2  -5  691.17   33.57
  -4   2   4   52.24   12.44
   4  -2  -4   58.64    8.46
   4  -2  -4   68.19   10.79
   4  -2  -4   58.88    5.85
   4  -2  -3 1113.96   36.28
   4  -2  -2  924.03   30.93
   4  -2  -1  119.84   10.62
   4  -2  -1  104.68    6.15
  -4   2   1  106.26    6.19
   4  -2   0  569.90   24.22
  -4   2   0  565.29   18.06
   4  -2   0  593.21   17.77
   4  -2   1  703.26   21.65
  -4   2  -1  687.66   22.42
  -4   2  -2    5.69    2.69
  -4   2  -3  519.61   23.99
  -4   2  -4  511.11   26.71
  -4   2  -5   11.18    4.66
  -4   2  -6  111.74    7.75
  -4   2  -6  108.66   14.38
  -4   2  -7   71.52   12.47
  -4   2  -8   11.77    6.13
  -4   2  -9    7.07    4.28
  -4   2 -10    5.04    4.03
   4  -1  -9   15.23    5.23
   4  -1  -8   47.32    8.17
  -4   1   8   61.58   11.71
  -4   1   7   91.66   13.90
   4  -1  -7   85.19   13.23
   4  -1  -7   79.65    9.92
   4  -1  -6  410.92   26.36
   4  -1  -6  403.69   22.04
  -4   1   6  460.82   35.05
   4  -1  -5    7.38    2.54
   4  -1  -5   16.37    4.73
   4  -1  -4  523.48   24.64
   4  -1  -3  132.60   11.52
   4  -1  -2   51.52    6.65
   4  -1  -1 3363.00   58.91
  -4   1   1 3297.22   50.40
   4  -1  -1 3438.92   50.98
   4  -1   0  153.81   11.78
   4  -1   0  129.26    9.71
   4  -1   1    8.09    2.16
  -4   1  -1    4.21    2.06
  -4   1  -2  834.07   29.31
  -4   1  -3  330.89   19.96
  -4   1  -4   38.86    7.39
  -4   1  -4   41.81    5.61
  -4   1  -5  207.11   11.92
  -4   1  -5  181.65   17.30
  -4   1  -6   10.50    4.02
  -4   1  -7    2.24    3.16
  -4   1  -8   74.09   13.49
  -4   1  -9   -5.76    5.97
  -4   1 -10   -5.16    5.00
   4   0 -11   54.93   10.71
   4   0 -10    3.31    4.06
   4   0  -9   44.68    9.18
   4   0  -8   94.51   12.84
   4   0  -7    0.10    2.88
   4   0  -6  405.85   18.37
   4   0  -6  417.12   24.87
   4   0  -5  658.29   25.27
   4   0  -5  614.52   27.69
   4   0  -4   35.96    5.96
   4   0  -4   36.19    7.59
   4   0  -3  179.01   12.35
   4   0  -2 1976.46   40.70
   4   0  -1  217.70   12.41
   4   0   0  271.61   14.91
   4   0   0  294.79   16.96
   4   0   1  900.30   32.02
  -4   0  -1  926.21   30.99
  -4   0  -2    3.66    1.66
   4   0   2    0.49    1.60
  -4   0  -2    3.10    2.08
  -4   0  -3  209.76   13.25
  -4   0  -3  197.23   16.15
  -4   0  -4  305.08   16.88
  -4   0  -4  306.41   21.85
  -4   0  -5    3.95    2.88
  -4   0  -5    3.18    2.43
  -4   0  -6    8.03    4.04
  -4   0  -7   70.33   12.87
  -4   0  -8   12.81    6.38
  -4   0  -9    2.93    2.53
   4   1 -12   11.55    6.25
   4   1 -11   11.23    5.92
   4   1 -10   17.58    6.85
  -4  -1   9  163.90   13.39
   4   1  -9  141.63   18.67
  -4  -1   8    8.74    3.51
   4   1  -7  250.95   19.77
  -4  -1   7  267.23   17.65
   4   1  -6  418.09   14.31
   4   1  -6  446.62   24.54
  -4  -1   6  461.39   22.69
   4   1  -6  443.84   24.41
   4   1  -5    4.84    2.75
   4   1  -5    7.12    3.55
   4   1  -4  945.38   29.69
   4   1  -3  213.23   12.48
   4   1  -2   25.44    3.95
  -4  -1   2   35.79    5.16
  -4  -1   2   24.44    4.89
   4   1  -1 1146.56   27.16
  -4  -1   1 1152.40   34.38
   4   1   0  851.23   24.94
   4   1   0  798.55   31.82
  -4  -1   0  785.61   27.74
  -4  -1  -1   56.97    7.39
   4   1   1   64.17    9.21
  -4  -1  -2  539.41   23.92
   4   1   2  554.51   28.64
  -4  -1  -2  522.31   26.25
  -4  -1  -3  338.26   19.93
   4   1   3  312.39   22.77
  -4  -1  -3  331.59   22.00
  -4  -1  -4   19.95    5.19
  -4  -1  -4   12.30    4.68
  -4  -1  -5  156.54   17.36
  -4  -1  -6    8.41    4.76
  -4  -1  -7    6.98    4.18
  -4  -1  -8   11.86    6.23
   4   2 -13    7.67    6.83
   4   2 -12    6.86    4.38
   4   2 -11   21.21    8.27
   4   2 -10   39.13   11.45
  -4  -2   9   49.95    7.98
  -4  -2   8   85.92   10.27
  -4  -2   7  106.46   11.15
   4   2  -6  126.16   11.53
   4   2  -6  138.38   12.91
  -4  -2   6  164.69   13.79
   4   2  -5 1260.15   36.71
  -4  -2   5 1264.63   38.81
   4   2  -4   82.15    7.95
  -4  -2   4   63.48    8.23
  -4  -2   3    4.98    2.78
   4   2  -3    3.92    1.71
  -4  -2   3    3.77    1.73
  -4  -2   2 1536.69   42.31
   4   2  -2 1495.39   28.94
  -4  -2   1  283.52   17.79
   4   2  -1  268.08   19.65
   4   2  -1  277.11   11.01
   4   2   0   94.17   11.73
  -4  -2   0   74.70    9.19
   4   2   0   80.77    6.59
  -4  -2  -1  534.97   26.42
   4   2   1  536.51   29.05
  -4  -2  -2   72.91   10.52
   4   2   2   59.59    9.95
  -4  -2  -3   40.29    8.14
   4   2   3   47.02    9.74
  -4  -2  -4  289.68   23.34
   4   2   4  333.94   26.43
  -4  -2  -4  321.08   24.97
   4   2   5    6.22    2.72
  -4  -2  -5   10.96    4.85
  -4  -2  -6    3.74    1.97
  -4  -2  -7   46.62   11.84
  -4  -2  -8    8.45    5.30
   4   3 -14    1.04    3.22
   4   3 -13    3.65    5.16
   4   3 -12   18.91    9.44
   4   3 -11    6.34    4.55
  -4  -3  10   90.63   11.75
  -4  -3   9   97.06   11.97
  -4  -3   8    4.75    2.73
  -4  -3   7  151.21   14.28
   4   3  -7  146.04    9.80
  -4  -3   6  397.60   23.14
  -4  -3   5   72.59    9.81
  -4  -3   4  284.56   19.38
   4   3  -4  296.47   14.04
  -4  -3   3  787.65   32.66
  -4  -3   3  769.06   22.47
   4   3  -3  801.40   19.97
  -4  -3   2   -0.45    2.62
   4   3  -2    3.04    0.99
  -4  -3   1  792.09   34.45
   4   3  -1  752.83   13.93
  -4  -3   0  631.27   32.24
   4   3   0  638.09   33.62
   4   3   0  598.34   14.71
  -4  -3  -1   14.70    5.12
   4   3   1   12.15    4.63
  -4  -3  -2  168.61   18.94
   4   3   2  155.34   17.44
  -4  -3  -3  179.43   20.37
   4   3   3  166.61   18.85
   4   3   4   13.70    5.58
   4   3   5    4.28    3.80
   4   3   6   27.99    9.25
   4   4 -14    3.69    4.71
   4   4 -13   -1.82    3.02
   4   4 -12    2.99    5.28
  -4  -4  10   55.75    9.94
  -4  -4   9    2.00    2.08
  -4  -4   8   92.52   12.28
  -4  -4   7   41.58    8.04
  -4  -4   6   37.69    8.16
  -4  -4   5  659.01   32.72
  -4  -4   4  169.12   16.41
  -4  -4   4  168.51   10.53
  -4  -4   3    5.13    3.01
  -4  -4   2  683.88   35.13
  -4  -4   1  387.26   27.53
   4   4   0   -0.96    2.48
  -4  -4   0   -0.76    2.40
  -4  -4  -1  306.77   27.59
   4   4   1  270.35   23.93
  -4  -4  -2   10.40    5.31
   4   4   2   13.00    5.17
   4   4   3    8.11    4.89
  -4  -4  -3    8.06    6.00
   4   4   4  107.16   16.87
   4   4   5    1.70    2.19
   4   5 -13    2.44    6.37
  -4  -5  11   14.41    6.13
  -4  -5  10   15.58    5.74
  -4  -5   9  123.39   16.14
  -4  -5   8    6.35    3.56
  -4  -5   7   27.00    7.36
  -4  -5   6  401.12   28.42
  -4  -5   5   28.81    7.56
  -4  -5   4  140.19   16.92
  -4  -5   3  154.99   18.24
  -4  -5   2   14.45    6.07
  -4  -5   1   23.08    7.21
  -4  -5   0  240.48   26.09
   4   5   0  287.12   26.24
  -4  -5  -1   -2.34    4.66
   4   5   1   12.90    5.70
  -4  -5  -2    2.90    4.59
   4   5   2    5.37    4.97
   4   5   3  142.54   19.69
   4   5   4    3.86    4.19
  -4  -6  11   20.71    7.60
  -4  -6  10   37.43    9.71
  -4  -6   9   14.27    6.81
  -4  -6   8   33.24    9.02
  -4  -6   7   71.45   13.01
  -4  -6   6    0.18    3.58
  -4  -6   5  198.16   22.29
  -4  -6   4  151.47   19.98
  -4  -6   3   19.44    7.09
  -4  -6   2  250.99   27.48
  -4  -6   1  112.57   18.83
  -4  -6   0    1.64    5.68
  -4  -6  -1   58.39   14.36
   4   6   1   69.22   13.97
   4   6   2   44.54   11.24
   4   6   3   24.01    8.88
  -4  -7  12    0.52    2.39
  -4  -7  11    2.26    2.66
  -4  -7  10    8.48    3.95
  -4  -7   9   53.39   12.10
  -4  -7   8    1.74    2.18
  -4  -7   7    9.37    6.27
  -4  -7   6   69.60   14.51
  -4  -7   5   82.41   15.60
  -4  -7   4    4.46    4.30
  -4  -7   3  183.57   24.66
  -4  -7   2   33.38   10.65
  -4  -7   1    8.78    6.13
  -4  -7   0  263.25   32.30
  -4  -7  -1    8.36    4.35
  -4  -8  12  -15.47    7.46
  -4  -8  11  -14.94    7.37
  -4  -8  10   36.93   12.55
  -4  -8   9   -3.91    4.56
  -4  -8   8   28.06    8.96
  -4  -8   7   49.40   13.09
  -4  -8   6   -6.54    6.46
  -4  -8   5  147.56   22.98
  -4  -8   4   84.80   18.14
  -4  -8   3   19.11    8.57
  -4  -8   2   22.25    9.79
  -4  -8   1  105.86   20.87
  -4  -8   0   18.46    8.43
  -4  -9  12   -3.13    4.02
  -4  -9  11   -2.68    3.89
  -4  -9  10    4.00    3.39
  -4  -9   9    5.78    4.77
  -4  -9   8   26.42   10.08
  -4  -9   7   -6.90    5.87
  -4  -9   6   85.70   18.89
  -4  -9   5   38.18   12.77
  -4  -9   4   -1.28    4.98
  -4  -9   3   74.86   18.21
  -4  -9   2   10.74    7.81
  -4  -9   1   14.23    9.09
   5 -13   6    1.59    3.73
   5 -13   7    7.47    3.27
  -5  12  -3   -1.22    5.25
   5 -12   3   -0.37    4.98
   5 -12   4   32.82   13.19
   5 -12   5   -4.05    4.28
   5 -12   6   12.11    7.38
   5 -12   7    8.79    4.96
   5 -12   7    2.61    2.95
   5 -12   8    6.12    6.10
   5 -12   9   19.38    8.67
  -5  11   0   -2.94    5.16
   5 -11   1  198.06   30.65
  -5  11  -1  147.47   29.73
  -5  11  -2   24.41   12.33
   5 -11   2    7.69    5.57
   5 -11   3   48.01   11.67
  -5  11  -3   49.29   17.76
   5 -11   3   62.80   16.12
   5 -11   4   53.53   12.58
   5 -11   4   72.14   16.68
   5 -11   5   15.58    8.00
   5 -11   5   20.76    8.50
   5 -11   6  109.67   19.93
   5 -11   6  102.16   18.39
   5 -11   7    1.58    3.37
   5 -11   7   10.66    6.97
  -5  11  -9   -1.81    4.78
  -5  11 -10   -8.80    6.30
  -5  10   2   48.91   18.21
  -5  10   1   71.55   21.55
   5 -10   0   -4.03    3.12
   5 -10   0    8.95    6.73
  -5  10   0   -2.44    7.64
   5 -10   1   96.00   15.60
   5 -10   1   93.35   20.07
  -5  10  -1  117.55   25.22
  -5  10  -2    8.60    8.75
   5 -10   2    5.97    5.59
   5 -10   2   10.43    6.57
   5 -10   3  196.07   26.98
   5 -10   3  186.18   22.50
   5 -10   4   17.73    7.05
   5 -10   4   10.38    6.14
   5 -10   5   47.62   12.79
   5 -10   5   51.52   12.91
  -5  10  -6   23.16    7.61
   5 -10   6   37.33   11.45
  -5  10  -7   19.01    8.00
  -5  10  -8   68.00   15.34
  -5  10  -9   16.25    8.16
  -5  10 -10    2.71    3.14
  -5   9   4   34.25   16.52
   5  -9  -3    4.25    4.33
  -5   9   3   -3.99    4.93
  -5   9   2  440.19   51.01
   5  -9  -2  434.48   34.34
   5  -9  -1   20.61    6.80
   5  -9  -1   27.10   10.81
  -5   9   1   29.96   13.45
  -5   9   0  180.49   30.73
   5  -9   0  182.25   27.98
   5  -9   0  174.20   20.45
   5  -9   1  151.59   24.34
   5  -9   1  124.60   17.08
  -5   9  -1  145.02   27.73
   5  -9   2    8.54    4.85
  -5   9  -2   21.27   13.52
   5  -9   2   20.53    8.82
   5  -9   3  325.00   33.07
   5  -9   3  346.53   29.73
  -5   9  -4    2.38    2.63
   5  -9   4    7.03    2.68
  -5   9  -5   60.53   11.66
   5  -9   5   80.11   15.12
  -5   9  -6    1.63    2.04
  -5   9  -7   48.20   12.57
  -5   9  -8    9.28    6.36
  -5   9  -9    7.37    4.77
  -5   9 -10   22.25    9.57
  -5   9 -11    0.45    2.85
   5  -8  -5   70.19   15.30
  -5   8   5   62.22   21.85
   5  -8  -4   36.39   10.47
  -5   8   4   20.20   13.20
   5  -8  -3   61.02   12.92
  -5   8   3   69.25   20.90
   5  -8  -2  142.70   18.67
  -5   8   2  133.82   26.78
   5  -8  -2  105.90   21.18
  -5   8   1   -0.58    3.15
   5  -8  -1    5.78    3.97
   5  -8  -1   -0.07    5.68
  -5   8   0  615.88   54.25
   5  -8   0  609.14   47.95
   5  -8   0  538.14   34.39
  -5   8  -1  168.30   29.22
   5  -8   1  173.03   24.19
   5  -8   1  163.81   19.09
   5  -8   2  409.66   30.37
   5  -8   3  101.81   15.47
  -5   8  -3   97.14   11.73
  -5   8  -4  104.62   13.69
   5  -8   4  112.42   17.08
  -5   8  -5  303.04   25.42
  -5   8  -6   23.15    7.45
  -5   8  -7   56.94   12.70
  -5   8  -8    0.39    2.25
  -5   8  -9    3.87    3.71
  -5   8 -10    1.91    2.43
  -5   8 -11  -10.55    6.99
   5  -7  -7   20.40    8.74
  -5   7   7   40.61   17.34
   5  -7  -6    6.04    5.19
  -5   7   6    5.33    5.85
  -5   7   5  361.91   49.85
   5  -7  -5  381.44   33.33
   5  -7  -4   50.04   11.41
  -5   7   4   52.21   17.31
  -5   7   3  314.55   40.71
   5  -7  -3  284.86   33.89
   5  -7  -3  268.35   24.76
   5  -7  -2  136.50   22.66
   5  -7  -2  135.02   16.78
  -5   7   2  120.91   24.60
   5  -7  -1    7.37    4.59
   5  -7  -1    1.87    4.71
  -5   7   1    0.62    2.84
  -5   7   0  220.86   31.75
   5  -7   0  221.17   26.73
   5  -7   0  233.14   21.41
   5  -7   1   11.83    3.91
  -5   7  -1    7.97    2.05
   5  -7   2  611.19   36.11
  -5   7  -2  537.46   22.55
  -5   7  -3   85.53   10.39
   5  -7   3   91.99   14.43
  -5   7  -4  390.69   25.42
  -5   7  -5    4.89    3.36
  -5   7  -6   11.22    5.35
  -5   7  -7  274.33   26.82
  -5   7  -8   23.92    8.59
  -5   7  -9   18.59    8.22
  -5   7 -10    7.82    6.08
  -5   7 -11    3.46    4.39
  -5   6   8   47.45   19.44
   5  -6  -7    9.13    5.83
  -5   6   7   13.21    9.50
  -5   6   6  151.83   31.78
   5  -6  -6  153.25   21.15
   5  -6  -5   48.80   11.58
  -5   6   5   45.60   16.35
   5  -6  -4   12.98    5.93
  -5   6   4   12.20    7.56
   5  -6  -4   16.10    7.22
  -5   6   3  968.62   67.70
   5  -6  -3  977.20   58.31
   5  -6  -3  894.20   43.35
  -5   6   2  272.60   33.95
   5  -6  -2  295.81   31.26
   5  -6  -2  269.74   22.34
  -5   6   1  965.61   66.40
   5  -6  -1  994.55   56.69
   5  -6  -1  985.76   42.06
  -5   6   0   17.15   12.66
   5  -6   0  111.33   14.04
   5  -6   1  106.09   13.87
  -5   6  -1  101.31    7.30
   5  -6   2 1128.82   46.80
  -5   6  -2 1013.42   30.67
   5  -6   3    2.78    2.17
  -5   6  -3   15.18    4.52
  -5   6  -4  327.62   22.17
  -5   6  -5   16.92    5.88
  -5   6  -6  108.41   15.30
  -5   6  -7   17.95    6.80
  -5   6  -8   -4.21    6.04
  -5   6  -9   55.06   13.98
  -5   6 -10   14.26    8.40
  -5   6 -11   13.63    8.00
  -5   5   8  131.63   27.77
   5  -5  -8  138.69   21.48
   5  -5  -7   10.96    6.02
  -5   5   7   17.60    9.22
  -5   5   6  306.23   39.76
   5  -5  -6  266.67   26.26
   5  -5  -5   11.88    6.07
  -5   5   5   19.59    8.38
   5  -5  -5   22.10    7.92
  -5   5   4  136.71   24.24
   5  -5  -4  148.04   21.59
   5  -5  -4  127.26   16.18
  -5   5   3  132.73   24.17
   5  -5  -3  161.04   17.10
   5  -5  -3  175.00   23.16
  -5   5   2   57.96   14.71
   5  -5  -2   53.49    9.41
  -5   5   2   48.85    3.75
   5  -5  -2   43.91   11.68
   5  -5  -1 1683.38   52.97
  -5   5   0  660.41   14.53
   5  -5   0  725.35   33.86
   5  -5   1 1830.41   57.25
  -5   5  -1 1865.42   35.94
  -5   5  -2   71.06    7.92
   5  -5   2   61.93   10.08
  -5   5  -3    3.74    2.39
  -5   5  -4 1013.05   39.01
  -5   5  -5  137.12   15.54
  -5   5  -6  173.50   19.56
  -5   5  -7   10.39    6.15
  -5   5  -8   24.68    8.76
  -5   5  -9    1.54    3.67
  -5   5 -10    6.27    4.11
   5  -4  -8    1.59    2.85
  -5   4   8   -5.15    5.45
   5  -4  -7   -3.50    3.66
  -5   4   7   -2.20    4.31
  -5   4   6 1003.55   65.16
   5  -4  -6  824.29   43.37
  -5   4   5  257.08   31.51
   5  -4  -5  282.16   27.09
   5  -4  -5  252.53   22.27
  -5   4   4  894.54   56.63
   5  -4  -4  909.71   49.80
   5  -4  -4  803.11   37.82
  -5   4   3   36.45   13.65
   5  -4  -3   43.20    8.24
   5  -4  -3   56.91   12.10
   5  -4  -2   85.08   11.22
   5  -4  -1 1109.03   40.74
   5  -4   0    5.91    1.71
  -5   4   0    7.54    1.78
   5  -4   0    4.48    2.14
   5  -4   1 1008.65   39.90
  -5   4  -1  980.73   26.60
   5  -4   1  913.75   18.83
   5  -4   2  239.82   20.08
  -5   4  -2  227.72   14.58
  -5   4  -3 1793.34   47.68
  -5   4  -4   -1.19    3.09
  -5   4  -5    7.44    3.57
  -5   4  -6  402.22   28.71
  -5   4  -7   64.35   12.39
  -5   4  -8  115.50   17.97
  -5   4  -9    7.04    4.92
  -5   4 -10   10.96    7.25
   5  -3  -8    7.54    4.72
  -5   3   8   -2.53    3.72
  -5   3   7  388.98   37.14
   5  -3  -7  322.54   27.53
   5  -3  -6   32.76    8.50
   5  -3  -6   30.36    4.19
   5  -3  -6   40.28    9.51
  -5   3   6   32.40   10.72
  -5   3   5   48.67   12.21
   5  -3  -5   30.74    7.28
   5  -3  -5   31.29    3.61
   5  -3  -5   42.46    9.85
   5  -3  -4 1288.97   22.56
   5  -3  -4 1347.51   46.67
   5  -3  -3 1049.89   38.33
   5  -3  -3  702.36   13.51
   5  -3  -2 3019.13   66.60
   5  -3  -2 3096.48   37.43
   5  -3  -1   12.64    3.97
  -5   3   1   17.06    2.20
   5  -3  -1   14.17    2.41
   5  -3   0   31.89    4.31
  -5   3   0   32.74    4.57
   5  -3   0   35.64    6.60
   5  -3   1 1460.56   47.04
   5  -3   1 1420.29   31.50
  -5   3  -1 1466.10   35.81
  -5   3  -2   24.28    4.85
  -5   3  -3  744.59   30.47
  -5   3  -4   14.07    5.42
  -5   3  -5  267.19   21.80
  -5   3  -6    5.29    3.62
  -5   3  -7   14.68    6.22
  -5   3  -8   93.33   16.34
  -5   3  -9    3.04    2.32
  -5   3 -10   20.63    8.95
  -5   2   8  103.73   18.22
   5  -2  -8   97.02   15.46
   5  -2  -7  561.83   23.46
   5  -2  -7  602.64   35.96
   5  -2  -6    1.93    2.49
   5  -2  -6   10.29    3.03
   5  -2  -6    8.90    3.87
   5  -2  -5  376.67   26.30
   5  -2  -5  377.15   24.25
   5  -2  -4   59.40    9.26
   5  -2  -3   58.86    8.48
   5  -2  -2 2958.26   62.52
   5  -2  -2 2972.58   44.45
  -5   2   1  523.52   16.95
   5  -2  -1  546.75   25.46
   5  -2  -1  541.05   17.67
   5  -2   0 4425.83   81.36
   5  -2   1  150.72   11.46
   5  -2   1  149.75   13.90
  -5   2  -1  150.83   11.93
   5  -2   2   37.50    6.66
  -5   2  -2   32.72    6.06
  -5   2  -3 1544.81   45.77
  -5   2  -4  115.75   13.12
  -5   2  -5  205.02   18.85
  -5   2  -6   -3.06    4.18
  -5   2  -7   54.57   11.44
  -5   2  -8    9.41    5.99
  -5   2  -9    5.43    4.68
   5  -1  -9    8.06    3.69
   5  -1  -8   13.17    5.28
   5  -1  -8   10.42    3.91
   5  -1  -7  824.12   35.07
   5  -1  -7  851.61   40.81
   5  -1  -6  238.57   18.34
   5  -1  -6  226.01   19.47
   5  -1  -5 2283.21   59.19
   5  -1  -4    5.35    2.67
   5  -1  -3  159.10   13.20
   5  -1  -2 1230.68   36.79
   5  -1  -1  115.09   10.89
   5  -1   0 1075.34   35.65
   5  -1   0 1044.23   33.83
   5  -1   1  252.20   17.91
   5  -1   1  272.94   17.65
  -5   1  -1  274.76   17.20
   5  -1   2 2000.54   53.23
  -5   1  -2 1936.78   51.19
  -5   1  -3    8.32    3.96
  -5   1  -4   99.53   12.64
  -5   1  -4  101.01   10.03
  -5   1  -5  352.67   18.51
  -5   1  -5  337.78   25.16
  -5   1  -6   34.90    9.63
  -5   1  -7  161.99   20.18
  -5   1  -8    2.61    2.70
  -5   1  -9   -0.63    3.44
   5   0 -10  211.37   21.14
   5   0  -9   15.02    5.61
  -5   0   9    4.92    3.02
   5   0  -8  404.20   29.05
   5   0  -7   -4.24    3.85
   5   0  -6  307.33   18.08
   5   0  -6  321.27   21.91
   5   0  -5 1623.15   47.20
   5   0  -4 1046.30   34.88
   5   0  -3 4039.66   69.78
   5   0  -2   32.57    5.40
   5   0  -1  388.31   18.71
   5   0   0 1343.34   38.08
   5   0   0 1271.59   41.62
   5   0   1   51.30    8.22
   5   0   2  594.27   30.45
  -5   0  -2  557.90   27.96
  -5   0  -2  590.87   25.21
   5   0   3   33.28    7.69
  -5   0  -3   30.15    5.43
  -5   0  -3   29.04    6.64
  -5   0  -4  429.15   22.57
  -5   0  -4  413.83   27.21
  -5   0  -5    8.40    4.12
  -5   0  -6   35.60    9.02
  -5   0  -7   32.91    9.18
  -5   0  -8    4.12    4.18
   5   1 -11   18.08    7.39
   5   1 -10  123.65   18.88
  -5  -1   9   61.88    9.58
   5   1  -8  506.12   31.14
  -5  -1   8  560.53   28.47
  -5  -1   7    5.41    3.31
   5   1  -7    9.71    3.92
   5   1  -7    9.05    2.35
   5   1  -6  782.59   33.32
  -5  -1   6  807.18   33.91
   5   1  -5  102.73   10.95
   5   1  -4  127.02   11.07
   5   1  -3  906.90   28.44
  -5  -1   3  951.86   34.68
   5   1  -2  204.06   12.49
  -5  -1   2  209.70   16.76
   5   1  -1 4586.90   69.46
  -5  -1   1 4695.31   82.08
   5   1   0  178.75   12.46
   5   1   0  191.47   17.32
  -5  -1   0  181.57   14.76
  -5  -1  -1  167.38   14.02
   5   1   1  129.51   14.58
  -5  -1  -2  788.91   32.05
   5   1   2  769.05   37.40
  -5  -1  -3   24.31    5.44
   5   1   3   28.24    7.20
  -5  -1  -4  292.30   22.00
   5   1   4  266.51   24.33
  -5  -1  -4  279.66   23.75
   5   1   5   -2.55    3.37
  -5  -1  -5   -0.34    3.17
  -5  -1  -6   23.89    7.68
  -5  -1  -7    2.07    3.89
  -5  -1  -8   12.34    7.46
   5   2 -13   10.14    6.34
   5   2 -12    2.07    3.51
   5   2 -11  144.40   22.99
  -5  -2  10   11.14    4.18
  -5  -2   9   86.74   11.35
  -5  -2   8  241.29   18.70
   5   2  -7  352.49   23.09
  -5  -2   7  361.18   22.52
  -5  -2   6 2023.64   54.60
   5   2  -6 1967.41   52.50
  -5  -2   5   30.28    6.81
   5   2  -5   27.18    5.36
   5   2  -4  294.44   15.98
  -5  -2   4  325.63   20.73
   5   2  -3  273.50   13.99
  -5  -2   3  279.90   19.26
  -5  -2   2  196.05   16.13
   5   2  -2  178.85   10.38
  -5  -2   1  610.12   28.53
   5   2  -1  606.17   19.63
  -5  -2   0    7.22    3.16
   5   2   0    3.08    2.27
   5   2   0    4.74    1.74
  -5  -2  -1  800.81   35.53
   5   2   1  856.77   28.27
   5   2   1  870.81   40.96
  -5  -2  -2  110.21   13.97
   5   2   2  110.23   14.59
  -5  -2  -3  189.30   19.27
   5   2   3  176.66   19.83
   5   2   4   90.71   15.16
   5   2   5   11.73    5.82
   5   2   6   50.64   12.65
   5   3 -14    5.90    5.65
   5   3 -13    7.54    7.20
   5   3 -12    8.99    6.25
  -5  -3  10    6.69    3.54
  -5  -3   9  307.33   22.75
  -5  -3   8   18.28    5.79
  -5  -3   7  302.54   22.57
  -5  -3   6  743.03   34.35
  -5  -3   5  170.35   15.99
   5   3  -5  172.46   12.68
  -5  -3   4 2112.88   59.00
   5   3  -4 2202.22   43.46
  -5  -3   3  255.84   19.91
   5   3  -3  284.00   12.48
  -5  -3   2  330.01   23.14
   5   3  -2  358.14   12.19
  -5  -3   1  506.41   29.16
   5   3  -1  509.97   13.92
   5   3   0   21.29    7.02
  -5  -3   0   28.06    7.31
  -5  -3  -1   94.50   13.73
   5   3   1  102.67   15.27
  -5  -3  -2    4.21    3.40
   5   3   2    8.53    5.10
  -5  -3  -3  197.18   23.08
   5   3   3  185.56   21.58
   5   3   4   24.14    7.95
   5   3   5   48.88   11.89
   5   4 -14    7.19    6.61
   5   4 -13   12.52    8.48
  -5  -4  11   47.33    9.83
  -5  -4  10    1.38    1.86
  -5  -4   9  379.21   27.15
  -5  -4   8   22.96    6.55
  -5  -4   7  280.64   22.85
  -5  -4   6   24.57    6.65
  -5  -4   5  347.27   25.01
  -5  -4   4  130.03   15.27
  -5  -4   3   66.41   11.49
  -5  -4   2 1306.96   52.05
  -5  -4   1   57.71   11.46
  -5  -4   0  320.43   27.86
   5   4   0  331.88   28.62
  -5  -4  -1  184.85   22.65
   5   4   1  194.19   22.03
  -5  -4  -2    2.02    4.98
   5   4   2    3.28    3.76
   5   4   3  160.91   21.24
   5   4   4   14.26    7.57
  -5  -5  11    4.56    3.18
  -5  -5  10  119.14   16.74
  -5  -5   9   59.80   11.76
  -5  -5   8   64.48   11.90
  -5  -5   7  587.02   35.83
  -5  -5   6   26.55    7.73
  -5  -5   5  261.89   24.02
  -5  -5   4   39.00    9.47
  -5  -5   3   36.20    9.53
  -5  -5   2  124.46   17.74
  -5  -5   1   53.74   12.01
  -5  -5   0  356.49   33.46
   5   5   0  404.44   33.22
   5   5   1   36.76   10.31
  -5  -5  -1   35.37   10.56
   5   5   2  183.96   23.59
   5   5   3   53.43   12.72
  -5  -6  12   25.69    9.41
  -5  -6  11    7.96    6.12
  -5  -6  10  104.32   16.88
  -5  -6   9    8.71    4.70
  -5  -6   8   78.60   14.30
  -5  -6   7   18.07    7.24
  -5  -6   6    8.77    5.69
  -5  -6   5  692.80   43.24
  -5  -6   4   42.00   10.87
  -5  -6   3  157.25   21.64
  -5  -6   2  156.10   22.47
  -5  -6   1   28.91   10.50
  -5  -6   0  106.23   20.33
   5   6   1   22.38    8.59
  -5  -6  -1   25.13    9.17
   5   6   2   49.23   12.74
  -5  -7  12   -1.50    2.62
  -5  -7  11    0.30    2.21
  -5  -7  10   91.85   17.37
  -5  -7   9   10.38    6.08
  -5  -7   8   90.81   16.63
  -5  -7   7    1.30    3.30
  -5  -7   6  178.05   23.63
  -5  -7   5   27.04    8.67
  -5  -7   4   15.29    7.48
  -5  -7   3  266.09   30.85
  -5  -7   2   -1.14    4.84
  -5  -7   1  154.89   25.64
  -5  -7   0   24.30   11.12
  -5  -8  12    3.68    4.94
  -5  -8  11   27.77   10.16
  -5  -8  10   16.33    8.05
  -5  -8   9   -1.04    5.13
  -5  -8   8  101.73   18.91
  -5  -8   7    5.12    3.41
  -5  -8   6   90.29   18.02
  -5  -8   5   33.69   11.59
  -5  -8   4   31.71   11.13
  -5  -8   3   13.97    6.82
  -5  -8   2   25.51   11.18
  -5  -8   1   76.73   19.06
   6 -12   3    4.24    3.96
   6 -12   4    9.57    9.33
   6 -12   5    4.19    4.14
   6 -12   5   15.42    8.23
   6 -12   6    9.95    6.62
   6 -12   6    6.87    4.46
   6 -12   7    2.08    5.38
   6 -12   7   17.03    9.47
   6 -12   8    0.90    3.19
   6 -12   8    6.90    5.12
  -6  11   0   56.61   20.74
   6 -11   0   70.12   18.51
  -6  11  -1    5.05    6.63
   6 -11   1    3.84    4.95
   6 -11   1   10.39    7.98
   6 -11   2    8.31    5.67
   6 -11   2    9.53    3.47
   6 -11   3   44.07   12.62
   6 -11   3   42.96   13.02
   6 -11   4    0.43    3.02
   6 -11   4   -0.98    3.76
   6 -11   5   -1.27    5.62
   6 -11   5   -1.33    3.27
   6 -11   6   14.14    7.56
   6 -11   7    8.33    6.63
   6 -11   8    7.55    6.48
  -6  11 -10    4.34    4.92
   6 -10  -2   24.69    9.33
  -6  10   2   53.42   19.34
  -6  10   1   69.66   20.91
   6 -10  -1   38.04   10.82
   6 -10  -1   61.43   17.59
  -6  10   0  -13.56    9.71
   6 -10   0    0.81    2.77
   6 -10   0   -3.42    5.46
   6 -10   1   20.52    8.08
  -6  10  -1    7.90    9.44
   6 -10   2   88.21   16.28
   6 -10   2   98.42   19.62
   6 -10   3    3.13    3.76
   6 -10   3    0.74    3.46
   6 -10   4   34.86   10.46
   6 -10   5   11.94    7.47
   6 -10   6   -4.35    5.98
  -6  10  -7    4.83    3.94
  -6  10  -8    4.31    2.98
  -6  10  -9   -0.67    3.27
  -6  10 -10    0.61    2.81
   6  -9  -4    0.50    2.72
  -6   9   4   22.67   13.39
   6  -9  -3   97.71   17.25
  -6   9   3  108.71   27.51
   6  -9  -2   17.09    7.55
   6  -9  -2   27.81   11.69
  -6   9   2   25.26   12.22
  -6   9   1   12.59   10.66
   6  -9  -1   17.12    6.51
   6  -9  -1   10.69    9.17
  -6   9   0   67.14   21.44
   6  -9   0   61.18   12.96
   6  -9   0   80.14   18.65
   6  -9   1   26.64    8.58
   6  -9   1   28.10   10.59
   6  -9   2    0.29    2.66
   6  -9   2    1.66    4.35
   6  -9   3   67.40   13.93
   6  -9   4   21.39    7.68
  -6   9  -5    2.66    3.27
   6  -9   5    1.59    4.28
  -6   9  -6   54.03   11.23
  -6   9  -7    8.73    5.39
  -6   9  -8   -0.11    3.55
  -6   9  -9    6.74    5.21
  -6   9 -10   -1.06    2.96
   6  -8  -6    9.94    6.89
  -6   8   5    6.50    7.03
   6  -8  -5   27.37    9.00
   6  -8  -4   94.85   17.37
  -6   8   4  123.04   28.20
   6  -8  -3    6.87    5.49
   6  -8  -3    6.45    6.59
  -6   8   3    1.50    5.24
  -6   8   2   57.89   17.22
   6  -8  -2   52.95   12.01
   6  -8  -2   50.22   14.65
  -6   8   1  173.67   33.41
   6  -8  -1  196.02   28.09
   6  -8  -1  165.13   20.13
   6  -8   0   -0.89    3.43
   6  -8   0    3.05    2.71
   6  -8   1   91.64   15.04
   6  -8   2  117.11   17.11
   6  -8   3   32.62    9.42
  -6   8  -4   21.53    5.84
   6  -8   4   12.38    7.50
  -6   8  -5   24.12    6.73
  -6   8  -6   16.59    6.07
  -6   8  -7    0.32    3.19
  -6   8  -8   17.98    7.45
  -6   8  -9   -2.23    3.29
  -6   8 -10    7.54    5.30
   6  -7  -7    3.13    4.51
  -6   7   7   -7.71    8.38
   6  -7  -6   56.34   14.12
  -6   7   6   84.65   23.62
   6  -7  -5   19.93    8.05
  -6   7   5   28.08   13.16
   6  -7  -4    6.66    4.52
   6  -7  -4   12.02    8.30
  -6   7   4    0.49    4.90
  -6   7   3   98.03   22.97
   6  -7  -3   76.00   13.62
   6  -7  -3   89.84   19.50
  -6   7   2  263.14   37.78
   6  -7  -2  288.94   33.66
   6  -7  -2  234.59   22.99
   6  -7  -1    2.21    2.53
  -6   7   1    2.02    3.19
   6  -7  -1    3.58    4.10
   6  -7   0  175.88   19.63
   6  -7   1  185.89   20.19
  -6   7  -2    7.18    2.25
   6  -7   2   10.72    6.09
   6  -7   3  392.62   31.10
  -6   7  -3  341.15   20.64
   6  -7   4    4.02    4.97
  -6   7  -4    5.19    3.04
  -6   7  -5    1.39    1.97
  -6   7  -6   42.44    9.76
  -6   7  -7    4.40    4.93
  -6   7  -8    6.87    3.80
  -6   7  -9    1.90    3.20
  -6   7 -10   12.35    7.82
   6  -6  -8    8.01    6.04
  -6   6   8  -10.31    8.53
   6  -6  -7   77.52   16.59
  -6   6   7   87.78   23.18
   6  -6  -6    3.49    4.19
  -6   6   6    8.27    8.41
   6  -6  -5   26.92    8.50
   6  -6  -5   40.19   11.75
  -6   6   5   31.48   13.46
  -6   6   4  122.55   25.76
   6  -6  -4  153.97   23.85
   6  -6  -4  155.16   18.97
  -6   6   3   21.56   13.42
   6  -6  -3   18.62    6.49
   6  -6  -3    6.03    4.89
   6  -6  -2  122.90   21.32
   6  -6  -2  109.55   14.68
   6  -6  -1  137.08   16.56
   6  -6   0  103.59   14.23
  -6   6  -1    2.03    1.14
   6  -6   1    3.91    3.81
   6  -6   2  454.08   31.38
  -6   6  -2  397.17   19.69
   6  -6   3   97.39   14.92
  -6   6  -3   87.11   10.46
  -6   6  -4   13.71    5.12
  -6   6  -5  243.71   21.57
  -6   6  -6    0.90    2.02
  -6   6  -7   12.45    6.88
  -6   6  -8   25.03    8.84
  -6   6  -9   -0.97    2.69
  -6   6 -10   -1.28    3.73
   6  -5  -8   23.95    8.96
  -6   5   8   30.35   13.26
   6  -5  -7   32.68    9.57
  -6   5   7   24.89   11.91
  -6   5   6   41.87   15.22
   6  -5  -6   49.74   11.16
  -6   5   5  308.07   37.98
   6  -5  -5  281.93   30.14
   6  -5  -5  250.12   24.23
  -6   5   4   14.06    9.44
   6  -5  -4   20.90    7.22
   6  -5  -4   24.95   10.13
   6  -5  -3  293.37   30.92
   6  -5  -3  268.93   22.68
   6  -5  -2  459.84   29.05
   6  -5  -1   10.80    4.61
   6  -5   0  370.94   26.32
  -6   5  -1   26.85    4.64
   6  -5   1   17.36    5.41
   6  -5   2  124.65    7.96
   6  -5   2  146.20   17.08
  -6   5  -2  122.77   11.10
  -6   5  -3   61.15    8.81
  -6   5  -4  117.20   13.70
  -6   5  -5    2.83    1.75
  -6   5  -6   -0.79    1.88
  -6   5  -7  130.18   18.49
  -6   5  -8    0.57    3.28
  -6   5  -9    7.26    4.76
  -6   5 -10    2.87    3.27
   6  -4  -9   12.88    6.73
  -6   4   8   38.86   13.38
   6  -4  -8   19.75    6.53
  -6   4   7   95.20   20.84
   6  -4  -7   94.09   15.60
   6  -4  -6   93.21   14.71
   6  -4  -6  110.19   17.68
   6  -4  -5   52.19   10.31
   6  -4  -5   49.13   11.84
   6  -4  -4  116.35   18.23
   6  -4  -4  116.43   15.06
   6  -4  -3  442.04   27.69
   6  -4  -2    4.51    3.07
  -6   4   2    4.51    1.17
   6  -4  -2    0.94    0.45
   6  -4  -1  983.54   40.66
   6  -4  -1  949.30   21.59
   6  -4   0  213.50   19.01
   6  -4   0  210.98   11.78
   6  -4   1   17.14    5.64
  -6   4  -1   26.02    4.86
   6  -4   2 1107.79   31.55
   6  -4   2 1144.19   47.46
  -6   4  -2 1099.22   35.83
  -6   4  -3    4.96    2.64
  -6   4  -4   38.60    7.79
  -6   4  -5   57.30   10.48
  -6   4  -6    8.07    4.70
  -6   4  -7   34.08    9.45
  -6   4  -8   -1.30    3.81
  -6   4  -9   10.36    6.10
   6  -3  -9    3.40    2.93
   6  -3  -8  139.39   19.54
   6  -3  -7    1.52    3.12
   6  -3  -6  305.74   26.63
   6  -3  -6  267.85   23.67
   6  -3  -5  242.25   24.29
   6  -3  -5  211.57   10.31
   6  -3  -5  219.40   20.30
   6  -3  -4    5.82    4.09
   6  -3  -3  478.95   27.25
   6  -3  -3  442.46   13.39
  -6   3   2  418.67   15.08
   6  -3  -2  452.62   26.03
   6  -3  -2  447.13   14.86
   6  -3  -1  628.15   30.92
   6  -3   0   33.87    7.19
   6  -3   1  758.09   35.95
  -6   3  -1  711.35   27.75
   6  -3   1  701.55   25.58
   6  -3   2   71.24    8.94
   6  -3   2   79.32   11.82
  -6   3  -2   77.36    9.78
  -6   3  -3   17.95    5.19
  -6   3  -4  517.93   29.35
  -6   3  -5   37.23    8.51
  -6   3  -6   66.94   12.16
  -6   3  -7   52.42   11.65
  -6   3  -8   -0.75    2.60
  -6   3  -9    5.43    5.57
   6  -2  -9   43.93   11.03
   6  -2  -8   17.99    6.66
   6  -2  -7   83.55   13.57
   6  -2  -7  103.36   13.86
   6  -2  -7   93.65    9.94
   6  -2  -6  647.38   35.88
   6  -2  -6  564.10   32.83
   6  -2  -5   31.13    7.25
   6  -2  -4  567.43   29.65
   6  -2  -3  222.13   17.60
   6  -2  -2    9.02    2.89
   6  -2  -1 1298.27   43.49
   6  -2   0    0.80    2.61
   6  -2   1  173.94   16.43
   6  -2   1  149.95   13.46
  -6   2  -1  171.55   14.28
   6  -2   2  112.87   12.47
  -6   2  -2  114.54   12.55
   6  -2   3  296.69   21.75
  -6   2  -3  306.70   21.94
  -6   2  -4   19.53    6.40
  -6   2  -5   -1.45    3.57
  -6   2  -6  133.66   18.05
  -6   2  -7    2.60    2.36
  -6   2  -8   32.26    9.51
   6  -1  -9   56.32   12.05
   6  -1  -8   23.62    7.08
   6  -1  -8   21.12    6.22
   6  -1  -7  110.92   12.78
   6  -1  -7   95.88   13.53
   6  -1  -6  143.55   15.49
   6  -1  -6  160.46   16.44
   6  -1  -5  152.46   15.25
   6  -1  -4  432.50   24.66
   6  -1  -3   83.62   10.03
   6  -1  -2 2028.38   51.98
   6  -1  -1  100.71   11.16
   6  -1   0    7.15    2.61
   6  -1   0    7.23    3.23
   6  -1   1 1063.60   40.26
   6  -1   1 1045.17   39.72
   6  -1   2   12.91    4.38
  -6   1  -2    5.62    3.08
   6  -1   3  227.65   20.23
  -6   1  -3  237.33   19.89
  -6   1  -4   45.83    7.43
   6  -1   4   52.20   10.25
  -6   1  -4   60.12   10.81
  -6   1  -5    3.06    3.44
  -6   1  -6   16.04    6.26
  -6   1  -7    5.84    4.44
  -6   1  -8   11.54    6.43
   6   0 -10    7.05    4.09
   6   0  -9  131.29   17.78
  -6   0   9  100.25   14.15
   6   0  -8   25.15    7.03
   6   0  -7  373.19   20.61
   6   0  -7  379.25   26.49
   6   0  -6  170.24   16.50
   6   0  -5    9.16    3.74
   6   0  -4  298.06   19.29
   6   0  -3   81.85    9.67
   6   0  -2  727.06   28.25
   6   0  -1   13.45    3.94
   6   0   0  829.84   37.88
   6   0   0  857.95   32.80
  -6   0  -1    4.19    2.46
   6   0   1    3.23    1.52
   6   0   1    3.05    1.57
  -6   0  -2   21.29    4.72
   6   0   2   33.15    8.38
  -6   0  -3  558.21   28.03
   6   0   3  558.65   33.92
  -6   0  -3  503.66   30.81
  -6   0  -4   64.90    9.82
   6   0   4   72.80   12.86
  -6   0  -4   40.17    9.10
   6   0   5   70.95   13.49
  -6   0  -5   59.24   12.02
   6   0   6    3.01    3.58
  -6   0  -6   14.45    6.04
   6   0   7    9.96    7.10
  -6   0  -7    0.06    2.97
   6   1 -11   -1.84    4.24
  -6  -1  10   96.37   12.71
  -6  -1   9    7.74    3.76
  -6  -1   8   46.40    8.62
   6   1  -8   36.66    8.34
   6   1  -7  463.48   28.28
  -6  -1   7  514.59   29.34
   6   1  -6    1.04    2.31
  -6  -1   6    0.29    3.04
   6   1  -5 1359.36   42.21
  -6  -1   5 1457.71   50.03
   6   1  -4   35.32    6.63
  -6  -1   4   29.89    8.13
   6   1  -3    5.54    2.50
  -6  -1   3    0.80    1.61
   6   1  -2 1093.52   33.01
  -6  -1   2 1242.93   42.88
   6   1  -1   16.45    3.87
  -6  -1   1    7.23    3.93
   6   1   0  147.92   16.93
   6   1   0  136.57   12.00
  -6  -1   0  118.19   13.00
  -6  -1  -1    7.74    3.17
   6   1   1   13.18    4.98
   6   1   1   10.07    3.74
  -6  -1  -2  155.07   15.62
   6   1   2  158.14   18.35
  -6  -1  -3    9.21    4.08
   6   1   3   11.87    5.12
   6   1   4   26.19    8.56
   6   1   5   54.87   12.52
   6   1   6    1.27    3.02
   6   2 -12   12.13    6.15
  -6  -2  10  133.04   15.53
  -6  -2   9   18.18    5.71
  -6  -2   8   69.37   10.81
   6   2  -8   57.94   10.31
   6   2  -7  151.49   15.47
  -6  -2   7  142.47   15.68
   6   2  -6  153.92   14.42
  -6  -2   6  183.26   17.27
   6   2  -5  349.05   20.03
  -6  -2   5  371.78   24.24
   6   2  -4  165.55   12.52
  -6  -2   4  167.09   16.42
  -6  -2   3 1190.82   44.01
   6   2  -3 1159.29   32.31
   6   2  -2    9.25    2.74
  -6  -2   2   10.01    4.74
  -6  -2   1   54.99    9.27
   6   2  -1   51.91    6.15
  -6  -2   0  603.00   31.78
   6   2   0  658.32   38.89
   6   2   0  629.57   23.38
   6   2   1   48.15   10.29
  -6  -2  -1   55.94    9.97
  -6  -2  -2  244.36   22.34
   6   2   2  252.52   24.82
   6   2   3   69.42   13.45
  -6  -2  -3   75.94   13.14
   6   2   4   19.06    7.91
   6   2   5   11.86    7.34
   6   3 -13   13.29    7.75
  -6  -3  11   21.81    6.63
  -6  -3  10  118.72   15.40
  -6  -3   9   25.66    6.98
  -6  -3   8  207.41   19.83
  -6  -3   7    9.06    3.88
  -6  -3   6   60.93   10.58
   6   3  -6   53.01    8.05
  -6  -3   5  272.67   22.06
   6   3  -5  294.73   17.36
  -6  -3   4    5.04    2.09
   6   3  -4    4.84    1.83
  -6  -3   3  135.46   15.40
   6   3  -3  127.59    8.99
  -6  -3   2   17.18    5.76
  -6  -3   1  651.34   35.63
  -6  -3   0   -1.95    4.29
   6   3   0    3.36    2.14
  -6  -3  -1   41.64   10.26
   6   3   1   34.72    9.47
  -6  -3  -2  262.21   26.36
   6   3   2  244.82   25.61
   6   3   3    1.03    3.57
   6   3   4   98.21   17.86
  -6  -4  11   54.66   11.16
  -6  -4  10   -1.71    3.06
  -6  -4   9   16.29    6.09
  -6  -4   8   80.46   13.61
  -6  -4   7   51.72   10.24
  -6  -4   6  728.60   38.78
  -6  -4   5   -0.70    2.18
  -6  -4   4   15.56    5.26
  -6  -4   3  407.76   29.45
  -6  -4   2    1.01    4.45
  -6  -4   1  227.40   23.64
   6   4   0   14.22    5.53
  -6  -4   0   36.53    8.94
  -6  -4  -1   72.98   15.19
   6   4   1   97.95   16.66
   6   4   2    0.75    3.42
   6   4   3   41.62   11.37
  -6  -5  11   35.27   10.20
  -6  -5  10   -3.88    3.80
  -6  -5   9   25.29    7.82
  -6  -5   8   13.06    5.55
  -6  -5   7   47.44   10.94
  -6  -5   6  213.79   22.87
  -6  -5   5    2.66    3.49
  -6  -5   4  514.14   35.73
  -6  -5   3    9.77    6.39
  -6  -5   2   73.14   14.37
  -6  -5   1  317.25   31.43
  -6  -5   0   -0.39    2.84
  -6  -5  -1   78.96   17.60
   6   5   1  110.63   19.01
   6   5   2   13.83    7.69
  -6  -6  12    8.07    6.44
  -6  -6  11   42.65   11.29
  -6  -6  10    4.37    3.67
  -6  -6   9  191.46   23.71
  -6  -6   8   -2.79    3.93
  -6  -6   7   39.88   10.82
  -6  -6   6  146.42   20.36
  -6  -6   5   20.05    7.66
  -6  -6   4   58.10   13.67
  -6  -6   3   -1.57    3.08
  -6  -6   2  216.28   27.66
  -6  -6   1   -3.09    4.95
  -6  -6   0   63.81   16.55
  -6  -7  12   15.87    7.76
  -6  -7  11    2.56    4.08
  -6  -7  10   30.03    9.83
  -6  -7   9   47.37   12.78
  -6  -7   8    7.11    4.83
  -6  -7   7  192.55   25.58
  -6  -7   6   -3.90    5.90
  -6  -7   5   55.95   14.10
  -6  -7   4  121.54   21.33
  -6  -7   3   -9.96    8.60
  -6  -7   2   87.55   19.32
  -6  -7   1   23.68    9.38
  -6  -8   8    3.87    5.93
  -6  -8   7   23.42    9.87
  -6  -8   6    3.07    4.15
  -6  -8   5  122.54   22.48
  -6  -8   4   -2.01    6.23
   7 -12   3   -8.65    6.15
   7 -12   4   22.33    9.29
   7 -12   4   20.74    9.86
   7 -12   5   -1.10    3.53
   7 -12   5    6.82    5.06
   7 -12   6    4.74    4.98
   7 -12   6    3.92    5.42
   7 -12   7   10.05    6.82
   7 -11   0    7.01    5.57
   7 -11   1    5.01    4.61
   7 -11   1   -3.68    5.17
   7 -11   2   78.52   16.78
   7 -11   2   86.18   19.64
   7 -11   3   -0.82    3.57
   7 -11   3   -1.69    4.81
   7 -11   4   16.19    7.35
   7 -11   4   25.56    9.58
   7 -11   5   -6.43    7.52
   7 -11   6    7.41    7.75
   7 -11   7   -0.86    3.07
   7 -11   8    4.03    4.16
   7 -10  -3   22.91    9.97
  -7  10   2   -6.13    7.30
   7 -10  -2   16.51    7.75
   7 -10  -2   13.15    8.62
   7 -10  -1   40.78   11.56
   7 -10  -1   74.36   18.64
   7 -10   0    7.96    6.05
   7 -10   0   22.47   10.99
   7 -10   1  188.25   28.80
   7 -10   1  184.13   24.13
   7 -10   2   -1.75    2.45
   7 -10   2    6.22    6.38
   7 -10   3    8.59    5.36
   7 -10   4   81.58   16.72
   7 -10   5   -0.39    3.84
   7 -10   6   34.04   11.04
   7 -10   7    1.98    6.89
  -7  10  -9    4.01    3.93
   7  -9  -5    8.30    6.12
  -7   9   4  112.28   30.58
   7  -9  -4   93.49   18.42
  -7   9   3    6.94    3.62
   7  -9  -3    7.32    5.53
   7  -9  -3    7.79    6.89
   7  -9  -2    9.29    5.54
   7  -9  -2   12.84    7.88
   7  -9  -1   61.20   13.82
   7  -9  -1   77.16   18.60
   7  -9   0    2.49    2.93
   7  -9   0   -3.40    5.14
   7  -9   1   83.84   15.69
   7  -9   1  100.09   20.07
   7  -9   2    0.83    3.21
   7  -9   3  162.98   22.51
   7  -9   4   -2.05    3.91
   7  -9   5   -2.81    5.57
  -7   9  -6   50.92   11.22
   7  -9   6   58.77   14.82
  -7   9  -7   10.30    5.68
  -7   9  -8   16.00    7.97
  -7   9  -9    3.08    4.02
   7  -8  -6    4.96    5.24
  -7   8   5   12.18    9.62
   7  -8  -5    9.85    7.19
  -7   8   4   78.62   26.76
   7  -8  -4   88.89   16.73
   7  -8  -4  105.14   22.44
  -7   8   3    1.75    6.03
   7  -8  -3   13.51    6.49
   7  -8  -3   23.40   10.95
   7  -8  -2  492.67   46.73
   7  -8  -2  397.58   33.06
   7  -8  -1    0.04    2.09
   7  -8  -1    0.42    3.85
   7  -8   0    6.93    4.73
   7  -8   1  179.97   21.95
   7  -8   2   -7.23    6.36
   7  -8   3  108.96   17.68
  -7   8  -4    3.49    2.91
   7  -8   4    4.34    4.81
  -7   8  -5   42.87    9.25
   7  -8   5   50.66   12.91
  -7   8  -6    5.65    5.48
  -7   8  -7   15.74    7.38
  -7   8  -8    9.93    6.98
  -7   8  -9    9.41    5.09
  -7   7   7   63.66   23.91
   7  -7  -7   77.59   17.11
  -7   7   6    1.97    3.14
   7  -7  -6    8.16    4.54
  -7   7   5   33.59   14.83
   7  -7  -5   43.40   11.33
   7  -7  -5   64.19   16.87
   7  -7  -4   42.74   11.45
   7  -7  -4   37.69   13.21
   7  -7  -3   51.27   11.58
   7  -7  -3   50.56   14.77
   7  -7  -2  247.02   31.86
   7  -7  -2  222.22   23.41
   7  -7  -1   33.67    9.17
   7  -7   0  593.02   37.89
   7  -7   1   -0.26    3.40
   7  -7   2   66.62   13.13
   7  -7   3  249.91   25.93
  -7   7  -3  216.48   16.96
  -7   7  -4   29.88    7.13
   7  -7   4   28.71    8.48
  -7   7  -5   93.74   13.97
  -7   7  -6    3.28    2.67
  -7   7  -7   18.73    7.37
  -7   7  -8    1.76    4.17
  -7   7  -9   11.87    6.97
   7  -6  -8   22.90    9.70
  -7   6   7   -1.49    6.08
   7  -6  -7  113.31   19.73
   7  -6  -6   12.62    6.65
   7  -6  -6   11.39    6.86
   7  -6  -5  320.89   35.63
   7  -6  -5  314.09   29.23
   7  -6  -4    3.09    2.04
   7  -6  -4   -1.31    3.42
   7  -6  -3  100.13   19.92
   7  -6  -3  104.10   15.70
   7  -6  -2  283.16   25.46
   7  -6  -1   35.24    8.88
   7  -6   0  137.46   17.60
  -7   6  -1    3.55    1.89
   7  -6   1    1.39    2.61
   7  -6   2  555.13   37.26
  -7   6  -2  548.38   25.11
   7  -6   3    0.38    4.82
  -7   6  -3    6.89    3.17
   7  -6   4   40.86   10.22
  -7   6  -4   45.77    8.81
  -7   6  -5   57.57   11.15
  -7   6  -6   14.04    6.12
  -7   6  -7   84.47   15.27
  -7   6  -8    0.80    4.92
  -7   6  -9   -5.45    4.75
   7  -5  -8   73.25   16.10
   7  -5  -7   10.41    6.42
   7  -5  -6   77.93   14.63
   7  -5  -6   72.68   15.49
   7  -5  -5  219.29   27.52
   7  -5  -5  175.43   20.68
   7  -5  -4   55.05   11.16
   7  -5  -4   77.24   16.71
   7  -5  -3 1055.18   47.62
   7  -5  -2    3.12    2.58
   7  -5  -1  151.39   17.44
   7  -5   0  373.10   28.00
   7  -5   1    2.20    3.76
  -7   5  -1    3.18    2.04
   7  -5   2  242.66   23.71
  -7   5  -2  252.97   17.76
   7  -5   2  237.00   13.43
   7  -5   3   16.70    3.81
   7  -5   3   10.51    4.07
  -7   5  -3   11.32    3.86
  -7   5  -4   89.99   12.28
  -7   5  -5    3.16    3.53
  -7   5  -6   55.36   11.56
  -7   5  -7    9.56    5.18
  -7   5  -8   -3.25    4.52
  -7   5  -9    0.08    3.24
   7  -4  -9   -1.97    3.49
   7  -4  -8  180.28   23.30
   7  -4  -7   10.58    4.90
   7  -4  -7    9.36    6.01
   7  -4  -6  162.95   22.25
   7  -4  -6  164.35   19.88
   7  -4  -5   48.49   10.62
   7  -4  -5   41.81   11.60
   7  -4  -4   92.20   13.90
   7  -4  -3  255.99   22.21
   7  -4  -2    3.96    1.88
   7  -4  -1 1029.62   44.65
   7  -4   0  163.13   17.78
   7  -4   1  179.42   19.15
  -7   4  -1  192.76   14.88
   7  -4   2  447.13   31.27
   7  -4   2  380.21   20.65
  -7   4  -2  442.54   24.77
   7  -4   3    9.50    3.53
   7  -4   3    4.87    2.37
  -7   4  -3    6.79    3.06
  -7   4  -4  136.27   15.96
  -7   4  -5    3.69    4.01
  -7   4  -6   18.90    6.87
  -7   4  -7    7.23    4.53
  -7   4  -8    6.41    4.14
   7  -3 -10    4.48    4.52
   7  -3  -9   40.67   11.43
   7  -3  -8   86.44   15.43
   7  -3  -7    9.15    5.46
   7  -3  -7    6.78    4.86
   7  -3  -6  774.86   45.17
   7  -3  -6  668.58   38.64
   7  -3  -5   13.34    5.13
   7  -3  -4  139.24   15.89
   7  -3  -3  303.85   23.24
   7  -3  -2  168.11   17.47
   7  -3  -1  241.99   20.70
   7  -3   0   14.44    4.00
   7  -3   1  565.06   33.53
   7  -3   1  541.59   26.16
   7  -3   2   23.58    5.55
   7  -3   2   18.15    6.37
  -7   3  -2   23.28    6.09
   7  -3   3  289.24   21.89
  -7   3  -3  292.33   22.31
   7  -3   4   30.47    7.27
  -7   3  -4   34.92    8.24
  -7   3  -5   12.16    5.04
  -7   3  -6   51.70   12.10
  -7   3  -7   -8.40    5.18
  -7   3  -8    0.84    3.41
   7  -2 -10   -0.58    2.29
   7  -2  -9   68.64   14.11
   7  -2  -8   -2.82    3.46
   7  -2  -7  208.75   20.63
   7  -2  -7  175.43   19.98
   7  -2  -6  227.28   22.96
   7  -2  -6  197.76   19.91
   7  -2  -5   21.54    6.03
   7  -2  -4 1063.05   42.98
   7  -2  -3   40.04    8.02
   7  -2  -2  553.30   29.71
   7  -2  -1  482.04   28.23
   7  -2   0   16.06    5.03
   7  -2   1  224.00   20.41
   7  -2   1  246.12   19.45
   7  -2   2   87.74   12.98
   7  -2   2   87.80   12.19
  -7   2  -2   82.75   11.52
   7  -2   3  140.76   16.54
  -7   2  -3  126.14   15.72
   7  -2   4    1.35    4.10
  -7   2  -4    6.31    3.79
   7  -2   5   56.92   11.68
  -7   2  -5   59.35   11.74
  -7   2  -6   -0.80    3.33
  -7   2  -7    3.49    3.75
   7  -1 -10   13.26    6.15
   7  -1  -9  157.74   20.30
   7  -1  -8   -4.08    3.16
   7  -1  -7  286.65   22.11
   7  -1  -7  301.56   24.86
   7  -1  -6   82.83   12.30
   7  -1  -5  233.64   19.75
   7  -1  -4   95.11   12.29
   7  -1  -3   59.72    9.27
   7  -1  -2 1358.00   45.18
   7  -1  -1   95.29   11.55
   7  -1   0  304.31   22.04
   7  -1   1  100.82   13.27
   7  -1   1   95.75   13.19
   7  -1   2    2.97    2.71
   7  -1   2    0.94    2.68
   7  -1   3  176.11   19.55
  -7   1  -3  175.11   18.70
  -7   1  -3  169.58   15.94
  -7   1  -4    5.90    3.75
   7  -1   4    8.41    4.19
  -7   1  -4    1.43    3.07
   7  -1   5   15.50    6.91
  -7   1  -5    4.66    2.71
   7  -1   6   -8.14    7.22
  -7   1  -6    3.77    3.13
   7  -1   7   16.40    7.79
  -7   1  -7   20.25    8.46
  -7   0  10   65.22   11.48
   7   0  -9   37.50    9.92
  -7   0   9   17.91    7.38
   7   0  -8    4.37    3.28
   7   0  -7  718.78   37.47
   7   0  -6   -2.33    3.47
   7   0  -5  245.64   19.38
   7   0  -4   77.51   10.18
   7   0  -3   49.20    7.95
   7   0  -2  157.37   14.11
   7   0  -1  101.39   11.49
   7   0   0  233.01   21.94
   7   0   0  239.04   18.42
  -7   0   0  213.72   18.76
   7   0   1   33.97    8.40
  -7   0  -1   40.73    8.21
   7   0   1   40.15    8.26
   7   0   2  401.87   26.89
   7   0   2  411.64   30.47
  -7   0  -2  387.01   24.65
  -7   0  -3   32.03    7.51
   7   0   3   40.06    9.75
   7   0   4    4.48    3.23
   7   0   5   46.88   11.47
   7   0   6   -5.04    4.40
  -7  -1  10   99.93   13.92
  -7  -1   9    4.96    3.45
   7   1  -9    4.11    3.03
   7   1  -8  127.55   16.02
  -7  -1   8  133.99   16.92
  -7  -1   7   28.56    7.64
   7   1  -7   22.02    6.35
  -7  -1   6    3.72    2.95
   7   1  -6    0.15    1.64
   7   1  -5  485.34   25.92
  -7  -1   5  485.76   31.28
   7   1  -4  136.83   13.12
  -7  -1   4  164.04   17.16
   7   1  -3  370.45   20.62
  -7  -1   3  429.68   27.22
   7   1  -2  294.47   18.01
  -7  -1   2  286.42   21.96
   7   1  -1   11.42    3.51
  -7  -1   1   24.44    6.35
   7   1   0  115.70   16.72
   7   1   0  100.47   11.13
  -7  -1   0  103.01   12.78
  -7  -1  -1   78.36   11.77
   7   1   1   77.65   10.24
   7   1   1   96.13   15.65
  -7  -1  -2   72.64   11.71
   7   1   2   81.80   14.38
  -7  -1  -3   13.01    4.50
   7   1   3   14.35    6.67
   7   1   4   90.23   16.65
   7   1   5   -0.94    3.20
  -7  -2  11    5.39    3.65
  -7  -2  10  139.27   17.11
  -7  -2   9   19.50    6.64
  -7  -2   8  102.74   14.30
   7   2  -8   95.97   13.45
  -7  -2   7   30.54    7.86
   7   2  -7   27.07    6.81
   7   2  -6  273.53   19.73
  -7  -2   6  311.59   24.29
  -7  -2   5   31.27    7.64
   7   2  -5   28.04    5.95
  -7  -2   4   37.92    8.35
   7   2  -4   38.44    6.37
  -7  -2   3  433.30   28.55
   7   2  -3  446.61   21.10
   7   2  -2    3.08    1.49
  -7  -2   2    1.75    2.48
  -7  -2   1  539.31   31.58
  -7  -2   0   37.27    8.64
   7   2   0   33.00    9.93
  -7  -2  -1    6.55    3.35
   7   2   1   -1.96    4.45
  -7  -2  -2  136.89   18.15
   7   2   2  148.44   21.12
   7   2   3   33.64   10.25
   7   2   4   12.72    6.95
  -7  -3  11   44.36   10.93
  -7  -3  10   -0.43    2.34
  -7  -3   9   -1.99    3.67
  -7  -3   8  198.41   20.89
  -7  -3   7    4.00    3.88
   7   3  -7    0.28    2.20
  -7  -3   6  308.76   24.99
   7   3  -6  291.88   19.56
  -7  -3   5  149.74   17.60
   7   3  -5  144.40   12.64
  -7  -3   4   80.50   13.27
  -7  -3   3  103.05   14.56
  -7  -3   2  251.52   23.45
  -7  -3   1  125.80   16.92
  -7  -3   0    3.73    3.51
  -7  -3  -1  181.61   22.54
   7   3   1  192.05   24.31
   7   3   2    2.82    3.11
   7   3   3   12.82    6.27
  -7  -4  11   47.87   11.13
  -7  -4  10    0.25    2.21
  -7  -4   9  122.58   17.88
  -7  -4   8   -1.74    3.68
  -7  -4   7   76.24   13.63
  -7  -4   6  339.89   28.30
  -7  -4   5    2.94    2.83
  -7  -4   4  163.56   19.45
  -7  -4   3   32.19    8.61
  -7  -4   2   58.30   12.60
  -7  -4   1   84.99   14.90
  -7  -4   0   72.47   14.92
  -7  -4  -1   -1.00    3.30
   7   4   1    2.88    5.04
   7   4   2   23.45    9.75
  -7  -5  12    3.58    3.76
  -7  -5  11   46.03   11.94
  -7  -5  10    9.12    4.81
  -7  -5   9   46.67   12.01
  -7  -5   8    9.22    5.18
  -7  -5   7   78.82   15.23
  -7  -5   6   15.59    6.55
  -7  -5   5   99.64   16.39
  -7  -5   4   62.48   13.64
  -7  -5   3    0.69    2.37
  -7  -5   2  226.32   26.65
  -7  -5   1    7.00    4.27
  -7  -5   0    2.05    2.98
  -7  -6  12   21.76    8.75
  -7  -6  11    3.86    4.25
  -7  -6  10   17.08    6.68
  -7  -6   9   65.02   14.30
  -7  -6   8   -0.71    3.62
  -7  -6   7   44.59   11.90
  -7  -6   6   39.64   11.21
  -7  -6   5   24.50    9.55
  -7  -6   4   -2.35    6.17
  -7  -6   3   68.02   15.92
  -7  -6   2   14.95    6.41
  -7  -6   1    7.85    7.24
  -7  -7   8   13.74    7.59
  -7  -7   7   45.90   12.90
  -7  -7   6   -5.45    4.15
  -7  -7   5   74.43   16.51
  -7  -7   4   -2.43    7.04
  -7  -7   3    8.59    7.85
   8 -12   1   17.76    7.45
   8 -12   2    8.84    5.96
   8 -12   3   38.12   12.20
   8 -12   4    3.09    4.48
   8 -12   5    8.47    7.54
   8 -11  -1    0.20    2.67
   8 -11   0   15.35    8.90
   8 -11   1   -2.58    3.98
   8 -11   2   44.14   13.15
   8 -11   2   39.79   13.38
   8 -11   3    4.22    5.32
   8 -11   3    6.86    6.90
   8 -11   4    9.02    6.83
   8 -11   5   34.86   12.03
   8 -11   6   -1.69    4.40
   8 -10  -3   51.94   14.22
   8 -10  -2    7.20    5.92
   8 -10  -1    2.85    2.66
   8 -10  -1   -2.67    7.71
   8 -10   0   91.86   17.82
   8 -10   0  114.60   23.66
   8 -10   1   -0.25    3.77
   8 -10   1   -2.18    4.53
   8 -10   2   47.49   12.68
   8 -10   3    5.99    5.36
   8 -10   4    9.66    5.97
   8 -10   5    6.88    5.70
   8 -10   6    1.14    3.62
   8 -10   7   23.80   10.70
   8  -9  -4    4.67    3.30
   8  -9  -3   73.80   15.89
   8  -9  -3   91.38   21.99
   8  -9  -2   -6.41    4.87
   8  -9  -2   12.32    8.17
   8  -9  -1  101.95   17.92
   8  -9  -1  136.45   25.68
   8  -9   0    8.16    5.75
   8  -9   0    6.31    5.61
   8  -9   1   -0.08    4.50
   8  -9   2  200.11   25.72
   8  -9   3   15.79    7.40
   8  -9   4   31.34   10.65
   8  -9   5    5.87    5.90
   8  -9   6    2.43    5.01
   8  -9   7   20.76    9.80
  -8   9  -8    2.50    2.23
  -8   9  -9    8.01    6.42
   8  -8  -5    3.33    4.04
   8  -8  -5   24.30   12.31
   8  -8  -4    2.94    3.24
   8  -8  -4    9.32    8.21
   8  -8  -3  129.58   20.16
   8  -8  -3  135.08   25.66
   8  -8  -2    8.65    3.78
   8  -8  -2    3.52    6.44
   8  -8  -1  111.47   17.88
   8  -8   0   -1.50    4.18
   8  -8   1  201.51   24.50
   8  -8   2    4.11    3.08
   8  -8   3   -7.20    5.69
   8  -8   4  140.74   21.64
   8  -8   5   25.14    9.87
  -8   8  -5   21.21    6.74
   8  -8   6   74.04   17.19
  -8   8  -6   53.40   11.85
  -8   8  -7   -0.09    2.77
  -8   8  -8   -1.14    2.75
  -8   8  -9   10.56    7.10
   8  -7  -6   81.45   16.75
   8  -7  -6   95.72   21.14
   8  -7  -5   18.30    8.49
   8  -7  -5   16.56   11.12
   8  -7  -4  216.93   32.19
   8  -7  -4  222.27   25.67
   8  -7  -3   29.56    9.13
   8  -7  -3   21.89   10.41
   8  -7  -2   10.07    5.58
   8  -7  -1  248.79   25.85
   8  -7   0   11.46    6.15
   8  -7   1  158.99   21.22
   8  -7   2   15.34    5.92
  -8   7  -3   54.37    9.07
   8  -7   3   63.49   14.02
   8  -7   4    1.14    5.27
  -8   7  -4    1.92    1.51
   8  -7   5    8.44    6.60
  -8   7  -5   -3.83    3.01
  -8   7  -6   47.29   11.44
  -8   7  -7   14.85    6.53
  -8   7  -8   10.36    6.64
   8  -6  -7   20.08    9.66
   8  -6  -6   49.19   12.59
   8  -6  -6   67.46   16.96
   8  -6  -5   12.16    5.95
   8  -6  -5   16.04    9.43
   8  -6  -4  181.06   28.10
   8  -6  -4  207.26   23.74
   8  -6  -3    9.77    4.88
   8  -6  -2  549.86   36.89
   8  -6  -1   -1.72    2.85
   8  -6   0    5.25    3.79
   8  -6   1  431.79   33.56
   8  -6   2   38.37   10.66
  -8   6  -2   38.99    7.28
   8  -6   3  201.11   24.04
  -8   6  -3  178.63   17.20
   8  -6   4   -4.98    5.51
  -8   6  -4   -0.50    1.54
  -8   6  -5   10.33    5.02
  -8   6  -6   12.71    6.13
  -8   6  -7    2.53    2.99
  -8   6  -8    0.77    2.32
   8  -5  -8    3.33    5.34
   8  -5  -7  254.93   30.42
   8  -5  -7  241.38   27.08
   8  -5  -6    5.35    3.84
   8  -5  -6   16.10    8.35
   8  -5  -5   32.13    9.33
   8  -5  -5    6.51    6.00
   8  -5  -4  200.85   22.15
   8  -5  -3   15.31    5.72
   8  -5  -2  372.86   29.15
   8  -5  -1   -1.80    4.42
   8  -5   0  411.58   31.32
   8  -5   1   -4.96    4.99
  -8   5  -2   60.36    9.43
   8  -5   2   54.12   11.90
   8  -5   3  302.68   29.48
  -8   5  -3  260.44   21.55
   8  -5   4   78.65   11.63
   8  -5   4   96.73   17.21
  -8   5  -4   86.11   13.30
   8  -5   5  112.25   15.24
  -8   5  -5  123.90   17.38
  -8   5  -6   -3.76    2.22
  -8   5  -7   -1.73    4.39
  -8   5  -8    1.75    4.73
   8  -4  -9    0.06    4.53
   8  -4  -8   19.56    8.06
   8  -4  -7  200.29   24.58
   8  -4  -7  209.70   24.28
   8  -4  -6   17.00    6.56
   8  -4  -6   29.33   10.43
   8  -4  -5  560.60   36.81
   8  -4  -4    2.99    2.67
   8  -4  -3  110.78   15.37
   8  -4  -2  620.73   36.77
   8  -4  -1   27.78    7.72
   8  -4   0  260.43   24.12
   8  -4   1    3.78    3.60
   8  -4   2  263.32   25.77
  -8   4  -2  230.23   19.53
   8  -4   2  217.33   17.65
   8  -4   3    4.91    4.64
  -8   4  -3   -2.89    3.19
   8  -4   3    0.09    2.41
   8  -4   4   15.43    5.64
  -8   4  -4    7.91    4.26
   8  -4   5   52.36   11.26
  -8   4  -5   47.40   10.65
  -8   4  -6   16.46    7.48
  -8   4  -7   39.71   11.25
   8  -3  -9   -4.36    3.23
   8  -3  -8   58.14   12.67
   8  -3  -7   91.59   15.80
   8  -3  -7  100.67   16.19
   8  -3  -6   45.53   10.46
   8  -3  -6   38.42   10.31
   8  -3  -5  284.37   24.96
   8  -3  -4   60.01   10.79
   8  -3  -3 1115.52   47.48
   8  -3  -2    6.91    3.63
   8  -3  -1   70.39   11.84
   8  -3   0  412.95   29.88
   8  -3   1  137.60   17.52
   8  -3   2  456.13   33.00
   8  -3   2  396.29   26.42
   8  -3   3    0.80    2.83
   8  -3   3    0.72    3.25
  -8   3  -3    0.70    2.13
   8  -3   4    7.82    4.87
  -8   3  -4    9.86    5.27
   8  -3   5    2.39    2.62
  -8   3  -5   13.75    6.22
   8  -3   6    7.74    5.67
  -8   3  -6    4.86    6.16
   8  -3   7   13.27    7.09
  -8   3  -7   15.87    7.87
   8  -3   8   -1.57    4.58
   8  -2 -10   38.20   11.71
   8  -2  -9   24.50    8.50
   8  -2  -8  292.87   27.80
   8  -2  -7    2.42    3.08
   8  -2  -6  137.11   17.41
   8  -2  -5  140.01   16.67
   8  -2  -4    2.20    2.71
   8  -2  -3  415.94   27.56
   8  -2  -2    2.00    3.74
   8  -2  -1  518.62   31.12
   8  -2   0   98.02   13.81
   8  -2   1  103.25   14.23
   8  -2   1  119.88   15.97
   8  -2   2  305.09   26.43
   8  -2   2  245.58   22.70
   8  -2   3   33.58    8.83
   8  -2   3   19.93    7.24
   8  -2   4  190.04   22.08
  -8   2  -4  176.31   20.84
  -8   2  -4  185.90   18.03
   8  -2   5   -0.56    2.29
  -8   2  -5    4.01    3.32
   8  -2   6   12.16    7.59
  -8   2  -6    5.18    6.05
   8  -2   7   23.77   10.50
   8  -1 -10   -2.77    3.07
   8  -1  -9   14.09    6.79
   8  -1  -8  117.94   17.05
   8  -1  -7   34.20    8.85
   8  -1  -6  801.19   40.34
   8  -1  -5  155.35   16.92
   8  -1  -4   71.52   11.10
   8  -1  -3  359.98   24.53
   8  -1  -2   10.61    3.75
   8  -1  -1  502.52   29.32
   8  -1   0    3.55    1.97
   8  -1   1  259.57   24.53
   8  -1   1  263.50   22.72
  -8   1  -2    9.06    4.93
   8  -1   2   10.23    4.50
   8  -1   2    3.43    2.78
   8  -1   3   91.22   15.30
   8  -1   3  100.31   15.28
  -8   1  -3   91.21   12.64
   8  -1   4   29.76    9.16
   8  -1   5    2.55    2.52
   8  -1   6   63.83   14.93
  -8   0  10    7.62    4.56
   8   0 -10    7.30    5.16
   8   0  -9   84.00   15.06
  -8   0   9   78.38   14.36
   8   0  -8   10.31    4.63
   8   0  -7   71.48   12.39
   8   0  -6  230.89   20.55
   8   0  -5   25.04    6.63
   8   0  -4  956.22   39.43
   8   0  -3   25.25    5.52
   8   0  -2  399.59   24.29
   8   0  -1  321.36   22.30
  -8   0   1  304.72   24.36
  -8   0   0   57.91   10.64
   8   0   0   45.58    8.61
   8   0   1  443.99   34.15
   8   0   1  421.74   27.25
  -8   0  -1  406.33   27.03
   8   0   2    4.06    3.72
  -8   0  -2    5.86    4.02
   8   0   2    7.45    3.32
  -8   0  -3   58.18   10.94
   8   0   3   65.95   13.65
   8   0   4    5.43    5.45
   8   0   5   10.95    5.09
  -8  -1  10   13.94    5.59
   8   1 -10   16.36    6.66
   8   1  -9  215.83   22.77
  -8  -1   9  254.10   23.47
  -8  -1   8   41.31    9.56
   8   1  -8   38.30    9.09
   8   1  -7  267.16   22.83
  -8  -1   7  292.55   25.03
   8   1  -6  151.53   16.14
  -8  -1   6  142.05   18.47
  -8  -1   5    7.44    4.19
   8   1  -5   21.81    6.41
   8   1  -4  223.70   17.76
  -8  -1   4  278.54   23.71
   8   1  -3    8.12    2.86
  -8  -1   3   10.04    5.12
   8   1  -2  808.33   32.36
  -8  -1   2  823.16   39.71
   8   1  -1   10.80    3.59
  -8  -1   1   21.05    7.18
  -8  -1   0  189.64   19.50
  -8  -1  -1   69.93   11.97
   8   1   1   84.39   15.89
  -8  -1  -2    2.41    2.70
   8   1   2    6.39    5.54
   8   1   3  169.91   23.43
   8   1   4    1.23    3.58
  -8  -2  11   -1.02    2.85
  -8  -2  10   32.12    8.67
  -8  -2   9   46.10   10.53
   8   2  -9   49.42   10.54
  -8  -2   8   15.38    5.86
   8   2  -8   20.62    6.54
   8   2  -7  698.41   35.78
  -8  -2   7  683.94   39.59
  -8  -2   6   23.72    7.71
   8   2  -6   18.34    5.49
  -8  -2   5  260.11   23.74
   8   2  -5  239.74   18.18
  -8  -2   4  128.88   16.88
   8   2  -4  124.89   12.22
  -8  -2   3    6.38    4.39
  -8  -2   2  335.65   26.50
  -8  -2   1    2.95    2.68
  -8  -2   0  121.39   16.45
  -8  -2  -1   -0.18    2.08
   8   2   1   -5.55    6.07
   8   2   2  105.29   18.73
   8   2   3    7.90    6.17
  -8  -3  11    1.03    4.54
  -8  -3  10  124.22   18.20
  -8  -3   9    7.25    4.98
  -8  -3   8   62.74   12.47
  -8  -3   7  117.12   17.04
  -8  -3   6   -0.18    3.58
  -8  -3   5  371.30   29.68
  -8  -3   4   83.86   14.83
  -8  -3   3  276.13   25.38
  -8  -3   2  138.38   18.49
  -8  -3   1    3.12    3.83
  -8  -3   0  158.49   20.82
  -8  -3  -1    2.91    5.39
   8   3   2   43.97   14.12
  -8  -4  12   10.93    5.74
  -8  -4  11    4.72    4.26
  -8  -4  10  141.81   20.48
  -8  -4   9   24.26    8.46
  -8  -4   8  134.30   19.60
  -8  -4   7   34.78   10.40
  -8  -4   6   44.33   10.85
  -8  -4   5   96.29   15.72
  -8  -4   4   -0.41    3.35
  -8  -4   3  196.29   23.56
  -8  -4   2   14.48    7.23
  -8  -4   1  137.86   20.70
  -8  -4   0   12.83    7.14
  -8  -5  11   49.25   13.26
  -8  -5  10   18.14    7.40
  -8  -5   9   -8.74    5.56
  -8  -5   8  194.66   24.59
  -8  -5   7    8.74    4.92
  -8  -5   6  168.02   22.59
  -8  -5   5   32.67    9.86
  -8  -5   4   -6.25    5.42
  -8  -5   3  101.83   18.02
  -8  -5   2    8.98    5.84
  -8  -5   1   54.08   14.42
  -8  -6   7    9.87    5.73
  -8  -6   6  150.20   22.75
  -8  -6   5    8.73    4.93
  -8  -6   4   99.05   19.40
  -8  -6   3   11.57    7.40
   9 -11   1   12.66    6.54
   9 -11   2   20.66   10.32
   9 -11   3   -5.44    5.79
   9 -11   4    1.52    8.72
   9 -10  -2    6.70    5.64
   9 -10  -1   19.74    8.62
   9 -10   0   22.29    9.24
   9 -10   0   27.30   12.28
   9 -10   1    6.18    4.68
   9 -10   2   14.87    8.99
   9 -10   3   16.85    8.64
   9 -10   4   28.69   10.49
   9 -10   5    3.69    5.16
   9  -9  -3    3.72    4.02
   9  -9  -3   -2.51    7.42
   9  -9  -2   20.64    8.73
   9  -9  -2   18.89   10.95
   9  -9  -1   49.65   13.45
   9  -9  -1   49.39   15.82
   9  -9   0   -5.15    5.53
   9  -9   1   44.05   12.35
   9  -9   2   24.63    9.69
   9  -9   3   -1.78    3.85
   9  -9   4   10.53    5.43
   9  -9   5   -1.96    4.46
   9  -9   6    1.63    4.10
   9  -8  -5   -2.40    7.53
   9  -8  -4   44.12   12.71
   9  -8  -4   15.97    7.80
   9  -8  -3   57.41   13.77
   9  -8  -3   61.59   18.51
   9  -8  -2   17.42    7.59
   9  -8  -2   25.78   11.37
   9  -8  -1    9.26    5.89
   9  -8   0   36.77   10.83
   9  -8   1   41.41   12.38
   9  -8   2    1.77    4.82
   9  -8   3   61.96   14.83
   9  -8   4  -14.59    7.64
   9  -8   5    1.06    3.03
   9  -8   6   17.94    9.63
  -9   8  -7   -5.96    4.61
  -9   8  -8  -10.42    6.24
   9  -7  -6   11.04    6.21
   9  -7  -6    4.12    5.16
   9  -7  -5    2.26    2.62
   9  -7  -5    8.68    7.49
   9  -7  -4  104.16   18.40
   9  -7  -4   84.39   20.63
   9  -7  -3   12.17    6.42
   9  -7  -3  -12.54   10.16
   9  -7  -2   77.85   15.05
   9  -7  -1   68.28   13.88
   9  -7   0   -3.26    3.20
   9  -7   1   66.15   13.86
   9  -7   2   71.74   15.20
   9  -7   3    1.87    3.36
   9  -7   4    4.24    5.18
   9  -7   5   15.39    8.12
  -9   7  -5   20.49    7.07
   9  -7   6    5.83    4.69
  -9   7  -6    0.41    2.42
  -9   7  -7   -3.91    3.79
  -9   7  -8   -7.49    5.52
   9  -6  -7   30.52   12.63
   9  -6  -6   32.90   10.64
   9  -6  -6   35.65   13.26
   9  -6  -5   26.46    9.06
   9  -6  -5   24.12   10.81
   9  -6  -4   21.91    8.10
   9  -6  -4   21.83    8.85
   9  -6  -3   88.95   15.60
   9  -6  -2   92.36   15.99
   9  -6  -1    2.48    3.66
   9  -6   0  100.17   16.57
   9  -6   1   47.02   11.78
   9  -6   2    2.84    4.50
   9  -6   3   26.11    9.12
  -9   6  -3   27.55    7.27
   9  -6   4    2.85    2.44
  -9   6  -4    5.64    4.68
   9  -6   5   -0.14    4.20
  -9   6  -5    1.82    2.01
  -9   6  -6    8.63    5.87
  -9   6  -7   -6.45    4.92
   9  -5  -7   93.51   17.47
   9  -5  -7   82.46   17.44
   9  -5  -6   -0.15    3.09
   9  -5  -6    3.03    5.31
   9  -5  -5   41.01   10.54
   9  -5  -5   21.73   10.67
   9  -5  -4  100.04   16.39
   9  -5  -3   45.02   10.57
   9  -5  -2   60.90   12.57
   9  -5  -1   80.61   14.42
   9  -5   0    4.86    4.32
   9  -5   1    4.02    3.13
   9  -5   2  102.02   17.72
   9  -5   3   -4.15    4.50
  -9   5  -3   -0.33    2.80
   9  -5   4   -2.14    4.78
  -9   5  -4   -0.21    2.55
   9  -5   5   -0.40    4.19
  -9   5  -5   18.26    7.25
  -9   5  -6   10.99    5.18
  -9   5  -7    6.35    4.46
   9  -4  -8   46.65   12.49
   9  -4  -7   24.35    8.54
   9  -4  -6   29.00    8.57
   9  -4  -6   38.39   11.71
   9  -4  -5   75.60   14.17
   9  -4  -4    1.71    4.23
   9  -4  -3  133.40   17.68
   9  -4  -2  135.66   17.95
   9  -4  -1    7.39    3.25
   9  -4   0   33.87    9.65
   9  -4   1  116.46   17.56
   9  -4   2   -4.22    5.63
   9  -4   3   36.42   10.20
  -9   4  -3   14.71    5.64
   9  -4   4   19.79    7.16
   9  -4   4   17.33    8.32
  -9   4  -4   11.25    5.36
   9  -4   5   -9.42    6.93
   9  -4   5   -4.86    3.47
  -9   4  -5   -0.86    2.95
   9  -4   6   14.01    6.95
  -9   4  -6    9.57    5.69
   9  -3  -9    4.36    4.85
   9  -3  -8   30.03    9.43
   9  -3  -7   70.73   14.03
   9  -3  -6   19.97    7.29
   9  -3  -5   12.53    5.93
   9  -3  -4   95.07   14.59
   9  -3  -3   77.49   12.91
   9  -3  -2    8.19    3.79
   9  -3  -1  120.26   16.71
   9  -3   0   24.17    7.36
   9  -3   1   35.99    9.48
   9  -3   2  113.16   15.52
   9  -3   2   92.01   15.76
   9  -3   3   36.57    9.32
   9  -3   3   38.06   10.44
   9  -3   4    2.72    3.19
   9  -3   4   -0.63    3.76
  -9   3  -4    4.30    3.79
   9  -3   5    7.83    5.60
   9  -3   5   11.71    6.58
  -9   3  -5   13.86    5.94
   9  -3   6   13.16    7.43
  -9   3  -6    6.06    5.02
   9  -3   7    0.68    4.79
   9  -2  -9    6.25    4.03
   9  -2  -8   64.31   13.39
   9  -2  -7   23.53    8.05
   9  -2  -6   31.85    8.62
   9  -2  -5   96.98   14.97
   9  -2  -4   11.28    4.71
   9  -2  -3  134.24   16.41
   9  -2  -2  338.84   26.51
   9  -2  -1   14.41    5.26
   9  -2   0   51.99   10.81
   9  -2   1  124.60   17.64
   9  -2   2   14.62    5.52
   9  -2   2   17.67    7.16
   9  -2   3   26.16    8.59
   9  -2   3   22.94    7.29
  -9   2  -3   30.03    7.96
   9  -2   4    7.76    4.66
   9  -2   4    5.85    4.57
   9  -2   5    8.68    5.29
   9  -2   5    6.71    4.77
   9  -2   6   -2.35    3.61
   9  -1 -10   13.14    6.73
  -9   1  10    1.23    3.31
   9  -1  -9    9.03    5.23
   9  -1  -8   15.47    7.08
   9  -1  -7   81.72   13.91
   9  -1  -6   87.75   13.78
   9  -1  -5   10.58    4.13
   9  -1  -4  128.33   15.86
   9  -1  -3  182.95   18.53
   9  -1  -2   41.08    8.67
   9  -1  -1   68.11   11.23
   9  -1   0  106.34   14.51
  -9   1  -1    2.42    2.66
   9  -1   1    2.08    1.95
   9  -1   2   99.72   15.32
   9  -1   2   96.69   16.67
  -9   1  -2   83.84   13.17
   9  -1   3   19.88    7.95
   9  -1   4    2.54    6.23
   9  -1   5   10.98    7.12
  -9   0  10    7.72    4.45
   9   0 -10    3.21    2.14
  -9   0   9    9.68    4.30
   9   0  -9    5.32    3.82
   9   0  -8   73.43   13.64
  -9   0   8   87.52   14.75
   9   0  -7   58.16   11.41
   9   0  -6   60.06   10.89
   9   0  -5  104.26   13.82
   9   0  -4   16.43    5.35
   9   0  -3   86.30   12.05
  -9   0   3   88.80   14.43
   9   0  -2  161.46   16.31
  -9   0   2  162.03   20.02
   9   0  -1   15.26    5.10
  -9   0   1   18.88    6.09
  -9   0   0    4.80    3.33
  -9   0  -1   48.49   10.09
   9   0   2   31.31   10.48
  -9   0  -2   39.81    9.30
   9   0   3   -9.03    6.00
   9   0   4   11.12    5.81
  -9  -1  11    7.18    4.49
  -9  -1  10   26.46    8.22
   9   1 -10   38.22   10.89
  -9  -1   9   46.23   10.89
   9   1  -9   45.05   10.32
  -9  -1   8   24.67    8.11
   9   1  -8   22.24    6.91
  -9  -1   7   80.64   14.12
   9   1  -7   77.93   12.56
   9   1  -6  135.67   15.65
  -9  -1   6  150.54   19.37
  -9  -1   5    4.40    2.32
   9   1  -5    1.48    2.03
  -9  -1   4   40.94   10.03
   9   1  -4   52.73    9.12
  -9  -1   3  186.71   20.76
  -9  -1   2    6.08    3.65
  -9  -1   1   78.10   13.28
  -9  -1   0   31.02    8.51
  -9  -1  -1    6.36    3.94
   9   1   2   33.89   11.55
   9   1   3    2.86    4.97
  -9  -2  11   27.02    8.51
  -9  -2  10   13.49    5.84
  -9  -2   9    2.16    2.20
   9   2  -9    5.28    4.28
  -9  -2   8   55.67   11.98
   9   2  -8   52.99   10.51
  -9  -2   7   63.62   13.06
   9   2  -7   52.35   10.05
  -9  -2   6   44.83   11.13
  -9  -2   5   47.58   10.75
  -9  -2   4   55.81   11.52
  -9  -2   3   39.73   10.12
  -9  -2   2  106.35   16.26
  -9  -2   1   66.04   12.76
  -9  -2   0    5.32    4.52
  -9  -2  -1   48.80   11.72
   9   2   2    6.51    5.99
  -9  -3  11   18.36    7.43
  -9  -3  10    5.97    4.24
  -9  -3   9   41.69   10.67
  -9  -3   8   12.19    6.56
  -9  -3   7   53.74   12.24
  -9  -3   6  115.78   18.31
  -9  -3   5   -2.59    4.74
  -9  -3   4   27.43    9.17
  -9  -3   3   44.51   11.72
  -9  -3   2   20.95    7.79
  -9  -3   1    7.00    4.34
  -9  -3   0   22.63    8.97
  -9  -4   9    7.60    5.66
  -9  -4   8   14.60    6.81
  -9  -4   7   70.85   14.83
  -9  -4   6   11.60    5.72
  -9  -4   5   29.98    9.38
  -9  -4   4   62.50   13.55
  -9  -4   3    2.63    3.46
  -9  -4   2   83.68   16.36
  -9  -4   1   17.86    7.63
  10  -9  -1    4.72    4.81
  10  -9   0   54.65   14.27
  10  -9   1    3.36    4.92
  10  -9   2   37.43   12.32
  10  -9   3    0.77    3.80
  10  -9   4    0.78    3.44
  10  -8  -4   17.04   11.80
  10  -8  -3  109.08   19.55
  10  -8  -3  132.88   27.52
  10  -8  -2   -1.52    4.52
  10  -8  -1   29.10   10.78
  10  -8   0   55.29   14.25
  10  -8   1    6.79    5.59
  10  -8   2  104.81   19.58
  10  -8   3   -2.92    5.46
  10  -8   4   17.63    9.41
  10  -8   5   -1.70    3.91
  10  -7  -6   26.99   12.62
  10  -7  -5   46.43   15.70
  10  -7  -4   -0.50    2.88
  10  -7  -4   11.32    9.42
  10  -7  -3   94.10   18.03
  10  -7  -2   -0.47    2.60
  10  -7  -1  107.07   18.86
  10  -7   0    8.21    5.22
  10  -7   1   73.64   16.04
  10  -7   2   33.36   11.06
  10  -7   3   20.73    9.03
  10  -7   4   67.52   16.42
  10  -7   5    4.80    4.52
 -10   7  -6    8.37    5.92
 -10   7  -7   -0.38    2.17
  10  -6  -6  156.42   26.84
  10  -6  -5   16.96    8.38
  10  -6  -5   14.93    8.90
  10  -6  -4   81.75   16.64
  10  -6  -3   87.16   16.53
  10  -6  -2    0.32    3.22
  10  -6  -1  145.92   21.86
  10  -6   0    3.56    3.28
  10  -6   1   89.05   16.96
  10  -6   2    5.81    6.13
  10  -6   3   20.67    8.66
  10  -6   4    9.98    6.25
 -10   6  -4   -1.72    3.49
  10  -6   5    5.50    2.68
 -10   6  -5    1.98    2.22
 -10   6  -6   29.80   10.17
  10  -5  -6   54.71   13.18
  10  -5  -6   59.20   15.60
  10  -5  -5    3.92    3.79
  10  -5  -4  236.53   26.25
  10  -5  -3    8.64    5.50
  10  -5  -2  141.87   20.31
  10  -5  -1   27.34    8.76
  10  -5   0    6.98    5.72
  10  -5   1  213.48   26.36
  10  -5   2   -6.66    6.00
  10  -5   3   29.03   11.05
  10  -5   4    4.24    4.93
 -10   5  -4    7.64    5.29
  10  -5   5    2.13    7.33
 -10   5  -5   12.20    6.92
  10  -5   6    6.71    8.10
 -10   5  -6    7.94    5.85
  10  -4  -7   92.49   17.56
  10  -4  -6   21.34    7.67
  10  -4  -5    3.24    3.45
  10  -4  -4  148.42   20.13
  10  -4  -3    7.95    4.60
  10  -4  -2  240.09   25.39
  10  -4  -1   11.11    6.05
  10  -4   0  157.41   21.17
  10  -4   1   31.06    9.74
  10  -4   2   -6.28    5.66
  10  -4   3   99.02   18.56
  10  -4   4    4.26    4.21
  10  -4   5   10.58    5.90
  10  -4   6    7.88    7.60
  10  -3  -8   -5.41    4.66
  10  -3  -7  228.40   26.72
  10  -3  -6   37.09   10.12
  10  -3  -5  158.19   20.76
  10  -3  -4   61.36   12.50
  10  -3  -3    5.85    3.13
  10  -3  -2  260.27   25.56
  10  -3  -1   -6.02    4.96
  10  -3   0   85.36   14.98
  10  -3   1    2.77    3.28
  10  -3   2   60.44   13.41
  10  -3   3   -1.95    3.30
  10  -3   4   -2.13    4.31
  10  -3   5   21.28    9.50
  10  -2  -8   56.89   13.44
  10  -2  -7   82.99   15.02
  10  -2  -6    1.53    2.77
  10  -2  -5  274.22   26.27
  10  -2  -4   21.43    6.65
  10  -2  -3  315.57   26.94
  10  -2  -2   33.83    8.99
  10  -2  -1   -3.93    4.23
  10  -2   0  162.99   20.23
  10  -2   1    1.90    3.29
  10  -2   2   57.71   13.36
  10  -2   2   42.21   10.75
 -10   2  -2   51.21   11.61
  10  -2   3   12.39    6.47
  10  -2   3   -3.31    5.00
  10  -2   4    3.10    4.67
  10  -2   5    7.90    8.50
 -10   1  10   78.42   15.91
  10  -1  -9   -2.66    4.27
  10  -1  -8  215.16   24.37
  10  -1  -7   37.52    9.48
  10  -1  -6   16.31    6.55
  10  -1  -5  111.14   16.03
  10  -1  -4    7.83    3.87
  10  -1  -3  264.75   23.62
  10  -1  -2    5.49    3.67
  10  -1  -1  178.55   19.65
  10  -1   0    2.84    2.94
 -10   1   0    2.12    3.20
 -10   1  -1   15.50    6.29
  10  -1   2  113.38   20.09
 -10   1  -2   86.79   14.61
  10  -1   3    0.01    7.34
  10  -1   4    8.10    8.14
 -10   0  10    5.55    4.57
 -10   0   9    6.38    4.16
  10   0  -9    2.19    3.31
  10   0  -8  160.31   20.22
 -10   0   8  163.09   21.30
 -10   0   7    8.06    4.88
  10   0  -7   16.52    6.69
  10   0  -6  233.87   22.58
 -10   0   6  237.92   26.75
 -10   0   5   10.19    6.53
  10   0  -5   10.46    4.98
 -10   0   4   19.57    7.51
  10   0  -4   10.79    4.72
  10   0  -3  178.74   18.30
 -10   0   3  196.51   22.47
 -10   0   2   20.20    7.11
 -10   0   1   78.06   13.77
 -10   0   0    2.11    3.74
 -10   0  -1   66.69   12.86
  10   0   3    9.98    5.39
  10   1 -10    1.67    1.81
 -10  -1   9   28.87    9.24
  10   1  -9   25.19    8.41
 -10  -1   8   37.16   10.27
  10   1  -8   31.12    8.75
 -10  -1   7   26.73    8.96
  10   1  -7   23.70    7.34
 -10  -1   6  185.29   22.55
 -10  -1   5   40.97   10.42
 -10  -1   4  220.77   24.44
 -10  -1   3    5.96    4.77
 -10  -1   2    8.59    5.16
 -10  -1   1   68.89   13.27
 -10  -1   0    3.05    2.08
 -10  -1  -1   41.22   10.82
 -10  -2   9  105.74   17.57
 -10  -2   8    5.17    5.00
 -10  -2   7   52.30   12.27
 -10  -2   6   50.92   11.80
 -10  -2   5    2.36    2.75
 -10  -2   4   69.87   13.83
 -10  -2   3    0.34    2.33
 -10  -2   2  130.03   19.35
 -10  -2   1   -2.66    2.89
 -10  -2   0    5.67    4.13
 -10  -3   6    7.41    4.80
 -10  -3   5    8.36    5.93
 -10  -3   4   40.15   11.34
 -10  -3   3    8.49    4.98
 -10  -3   2   31.36    9.89
 -10  -3   1    6.76    4.59
  11  -8   0   13.02    8.39
  11  -8   1    1.18    3.54
  11  -7  -4   -8.36    7.62
  11  -7  -2   44.55   12.28
  11  -7  -1    0.26    4.62
  11  -7   0   51.02   13.84
  11  -7   1   -1.39    4.75
  11  -7   2    7.72    6.87
  11  -7   3    5.11    6.30
  11  -6  -5   25.36   12.14
  11  -6  -4    6.58    4.39
  11  -6  -3   61.46   14.63
  11  -6  -2   13.14    7.78
  11  -6  -1   31.84   10.94
  11  -6   0   42.10   12.14
  11  -6   1   -1.21    5.59
  11  -6   2   64.61   15.87
  11  -6   3  -12.01    7.24
  11  -5  -5   49.74   13.13
  11  -5  -4    2.38    3.04
  11  -5  -3   93.16   17.04
  11  -5  -2   10.09    6.34
  11  -5  -1   24.01    8.68
  11  -5   0    7.59    5.15
  11  -5   1   29.80   10.67
  11  -5   2   16.73    8.09
  11  -5   3   -5.88    4.54
  11  -5   4   14.57    6.96
  11  -4  -6   82.74   16.57
  11  -4  -5    3.39    3.69
  11  -4  -4   88.00   16.24
  11  -4  -3  105.61   18.02
  11  -4  -2   -4.26    4.05
  11  -4  -1  102.22   17.78
  11  -4   0   -3.74    4.39
  11  -4   1   33.66   10.74
  11  -4   2   10.84    6.58
  11  -4   3   -1.25    3.55
  11  -4   4   -7.23    5.73
  11  -3  -7   22.26    8.94
  11  -3  -6   97.63   17.19
  11  -3  -5    7.27    5.41
  11  -3  -4  110.06   17.63
  11  -3  -3    9.39    6.16
  11  -3  -2   80.00   15.08
  11  -3  -1   18.58    7.17
  11  -3   0    6.01    6.10
  11  -3   1  117.22   19.24
  11  -3   2  -12.40    6.56
  11  -3   3    7.76    5.50
  11  -2  -7   39.48   10.96
  11  -2  -6   34.36   10.07
  11  -2  -5    1.20    2.66
  11  -2  -4  130.08   18.53
  11  -2  -3   11.21    6.01
  11  -2  -2   54.00   11.53
  11  -2  -1    2.74    3.42
  11  -2   0   28.94    8.70
 -11   2  -1   31.42    9.63
 -11   2  -2   -1.04    4.91
  11  -1  -8   -1.39    4.37
  11  -1  -7   99.93   16.41
  11  -1  -6    4.55    4.50
  11  -1  -5   73.69   13.57
  11  -1  -4   39.93    9.73
  11  -1  -3   -1.62    3.93
 -11   1   2  125.50   19.24
 -11   1   1   -6.82    5.44
 -11   1   0   11.63    5.91
 -11   1  -1   13.91    6.76
  11   0  -9   13.13    6.47
  11   0  -8    3.48    2.86
 -11   0   7   84.37   16.54
  11   0  -7   66.46   12.91
 -11   0   6    7.68    5.16
 -11   0   5   57.81   13.20
 -11   0   4    7.73    5.88
 -11   0   3   97.10   16.68
 -11   0   2   17.73    7.58
 -11   0   1    1.01    2.85
 -11   0   0   57.49   12.88
 -11  -1   5   67.64   14.23
 -11  -1   4    6.89    5.56
 -11  -1   3   75.86   15.00
 -11  -1   2   11.70    6.92
 -11  -1   1   12.21    6.29
 -11  -1   0    3.05    2.63
  12  -5  -3   46.71   12.56
  12  -5  -2   -1.00    2.84
  12  -5  -1   20.77    8.37
  12  -5   0   -1.07    3.82
  12  -5   1   20.35    8.98
  12  -4  -4   69.09   15.64
  12  -4  -3    9.17    5.91
  12  -4  -2   10.13    6.32
  12  -4  -1   34.30   10.38
  12  -4   0    0.54    3.73
  12  -4   1   10.68    7.19
  12  -3  -5    3.25    3.46
  12  -3  -4   48.71   12.19
  12  -3  -3    9.53    5.14
  12  -3  -2   26.10    8.92
  12  -3  -1   -0.93    2.97
  12  -3   0   14.42    6.41
  12  -2  -6   -1.40    5.04
  12  -2  -5    9.17    5.02
  12  -2  -4   36.37   10.72
  12  -2  -3   13.47    6.08
 -12   2   1    2.76    3.85
 -12   2   0   16.13    6.88
 -12   2  -1    0.37    3.21
  12  -1  -7   15.64    7.15
  12  -1  -6   -3.43    3.53

TITL exp_dantemp300 in P-1
REM P-1 (#2 in standard setting)
CELL 0.71073   9.180627   9.356627  10.315261 114.9295  99.1803 108.3636
ZERR    2.00   0.001064   0.000866   0.000951   0.0092   0.0100   0.0097
LATT  1
SFAC C H N Cl I Pt
UNIT 28.00 44.00 8.00 4.00 12.00 2.00
TREF
HKLF 4
END
_computing_structure_solution     'SHELXT 2014/4 (Sheldrick, 2014)'
;
_shelx_hkl_checksum              86118
_olex2_submission_special_instructions 'No special instructions were received'
loop_
_space_group_symop_operation_xyz
'x, y, z'
'-x, -y, -z'
loop_
_atom_site_label
_atom_site_type_symbol
_atom_site_fract_x
_atom_site_fract_y
_atom_site_fract_z
_atom_site_U_iso_or_equiv
_atom_site_adp_type
_atom_site_occupancy
_atom_site_site_symmetry_order
_atom_site_calc_flag
_atom_site_refinement_flags_posn
_atom_site_refinement_flags_adp
_atom_site_refinement_flags_occupancy
Pt1 Pt 0.5000 0.5000 0.5000 0.04914(16) Uani 1 2 d S T P
I1S I 0.95125(7) 0.66159(7) 0.92159(7) 0.05858(19) Uani 1 1 d . . .
I2S I 1.33241(8) 0.64454(8) 0.91362(8) 0.0685(2) Uani 1 1 d . . .
I3S I 1.31676(9) 1.03724(8) 1.16624(9) 0.0769(3) Uani 1 1 d . . .
Cl1 Cl 0.5613(3) 0.4858(3) 0.7216(3) 0.0590(6) Uani 1 1 d . . .
N1 N 0.2664(8) 0.3798(9) 0.4627(8) 0.057(2) Uani 1 1 d . . .
N2 N -0.0229(8) 0.2143(9) 0.4104(9) 0.066(2) Uani 1 1 d . . .
C1S C 1.2035(10) 0.7611(10) 1.0497(10) 0.055(2) Uani 1 1 d . . .
H1S H 1.2057 0.7275 1.1277 0.066 Uiso 1 1 calc R . .
C1 C 0.1314(10) 0.3024(10) 0.4375(9) 0.046(2) Uani 1 1 d . . .
C6 C -0.1192(12) 0.0438(13) 0.2718(12) 0.085(4) Uani 1 1 d . . .
H6A H -0.0472 0.0006 0.2248 0.103 Uiso 1 1 calc R . .
H6B H -0.1907 0.0545 0.1998 0.103 Uiso 1 1 calc R . .
C2 C -0.1093(12) 0.2885(12) 0.5016(13) 0.073(3) Uani 1 1 d . . .
H2A H -0.1808 0.3162 0.4459 0.088 Uiso 1 1 calc R . .
H2B H -0.0322 0.3960 0.5931 0.088 Uiso 1 1 calc R . .
C4 C -0.3143(13) -0.0174(13) 0.4032(14) 0.082(3) Uani 1 1 d . . .
H4A H -0.3626 -0.0984 0.4362 0.098 Uiso 1 1 calc R . .
H4B H -0.4020 -0.0129 0.3410 0.098 Uiso 1 1 calc R . .
C5 C -0.2169(13) -0.0784(13) 0.3135(13) 0.081(3) Uani 1 1 d . . .
H5A H -0.2894 -0.1870 0.2209 0.098 Uiso 1 1 calc R . .
H5B H -0.1435 -0.1034 0.3703 0.098 Uiso 1 1 calc R . .
C3 C -0.2075(14) 0.1658(15) 0.5436(13) 0.088(4) Uani 1 1 d . . .
H3A H -0.2771 0.2117 0.5926 0.106 Uiso 1 1 calc R . .
H3B H -0.1348 0.1564 0.6158 0.106 Uiso 1 1 calc R . .
loop_
_atom_site_aniso_label
_atom_site_aniso_U_11
_atom_site_aniso_U_22
_atom_site_aniso_U_33
_atom_site_aniso_U_23
_atom_site_aniso_U_13
_atom_site_aniso_U_12
Pt1 0.0370(2) 0.0310(2) 0.0626(3) 0.0108(2) 0.0244(2) 0.00912(19)
I1S 0.0563(4) 0.0490(3) 0.0678(4) 0.0270(3) 0.0276(3) 0.0196(3)
I2S 0.0673(4) 0.0658(4) 0.0796(5) 0.0345(4) 0.0407(4) 0.0323(4)
I3S 0.0673(4) 0.0455(4) 0.0951(6) 0.0236(4) 0.0229(4) 0.0163(3)
Cl1 0.0433(11) 0.0559(13) 0.0679(15) 0.0257(11) 0.0254(10) 0.0140(10)
N1 0.043(4) 0.039(4) 0.065(5) 0.010(3) 0.024(4) 0.009(3)
N2 0.044(4) 0.053(4) 0.068(5) 0.012(4) 0.032(4) 0.001(3)
C1S 0.058(5) 0.042(5) 0.056(6) 0.022(4) 0.023(4) 0.014(4)
C1 0.045(5) 0.039(4) 0.045(5) 0.017(4) 0.021(4) 0.011(4)
C6 0.065(6) 0.058(6) 0.063(7) -0.002(5) 0.023(5) -0.011(5)
C2 0.059(6) 0.053(6) 0.100(8) 0.024(5) 0.049(6) 0.024(5)
C4 0.057(6) 0.061(6) 0.118(10) 0.042(7) 0.042(6) 0.012(5)
C5 0.067(7) 0.054(6) 0.099(9) 0.026(6) 0.024(6) 0.016(6)
C3 0.079(8) 0.096(9) 0.080(8) 0.036(7) 0.047(7) 0.027(7)
loop_
_atom_type_symbol
_atom_type_description
_atom_type_scat_dispersion_real
_atom_type_scat_dispersion_imag
_atom_type_scat_source
C C 0.0033 0.0016 'International Tables Vol C Tables 4.2.6.8 and 6.1.1.4'
H H 0.0000 0.0000 'International Tables Vol C Tables 4.2.6.8 and 6.1.1.4'
Cl Cl 0.1484 0.1585 'International Tables Vol C Tables 4.2.6.8 and 6.1.1.4'
I I -0.4742 1.8119 'International Tables Vol C Tables 4.2.6.8 and 6.1.1.4'
N N 0.0061 0.0033 'International Tables Vol C Tables 4.2.6.8 and 6.1.1.4'
Pt Pt -1.7033 8.3905 'International Tables Vol C Tables 4.2.6.8 and 6.1.1.4'
loop_
_geom_angle_atom_site_label_1
_geom_angle_atom_site_label_2
_geom_angle_atom_site_label_3
_geom_angle
_geom_angle_site_symmetry_1
_geom_angle_site_symmetry_3
Cl1 Pt1 Cl1 180.0 . 2_666
N1 Pt1 Cl1 90.6(3) . 2_666
N1 Pt1 Cl1 89.4(3) . .
N1 Pt1 Cl1 89.4(3) 2_666 2_666
N1 Pt1 Cl1 90.6(3) 2_666 .
N1 Pt1 N1 180.0(5) 2_666 .
C1 N1 Pt1 176.6(7) . .
C1 N2 C6 120.7(7) . .
C1 N2 C2 121.6(7) . .
C2 N2 C6 117.1(8) . .
I1S C1S I2S 112.3(4) . .
I1S C1S H1S 106.6 . .
I2S C1S H1S 106.6 . .
I3S C1S I1S 111.1(4) . .
I3S C1S I2S 113.2(4) . .
I3S C1S H1S 106.6 . .
N1 C1 N2 179.3(10) . .
N2 C6 H6A 110.0 . .
N2 C6 H6B 110.0 . .
N2 C6 C5 108.5(9) . .
H6A C6 H6B 108.4 . .
C5 C6 H6A 110.0 . .
C5 C6 H6B 110.0 . .
N2 C2 H2A 109.5 . .
N2 C2 H2B 109.5 . .
N2 C2 C3 110.9(8) . .
H2A C2 H2B 108.1 . .
C3 C2 H2A 109.5 . .
C3 C2 H2B 109.5 . .
H4A C4 H4B 108.1 . .
C5 C4 H4A 109.5 . .
C5 C4 H4B 109.5 . .
C5 C4 C3 110.6(8) . .
C3 C4 H4A 109.5 . .
C3 C4 H4B 109.5 . .
C6 C5 H5A 108.4 . .
C6 C5 H5B 108.4 . .
C4 C5 C6 115.3(9) . .
C4 C5 H5A 108.4 . .
C4 C5 H5B 108.4 . .
H5A C5 H5B 107.5 . .
C2 C3 C4 111.8(9) . .
C2 C3 H3A 109.3 . .
C2 C3 H3B 109.3 . .
C4 C3 H3A 109.3 . .
C4 C3 H3B 109.3 . .
H3A C3 H3B 107.9 . .
loop_
_geom_bond_atom_site_label_1
_geom_bond_atom_site_label_2
_geom_bond_distance
_geom_bond_site_symmetry_2
Pt1 Cl1 2.335(3) 2_666
Pt1 Cl1 2.335(3) .
Pt1 N1 1.965(7) 2_666
Pt1 N1 1.965(7) .
I1S C1S 2.145(9) .
I2S C1S 2.148(8) .
I3S C1S 2.119(8) .
N1 C1 1.141(10) .
N2 C1 1.307(10) .
N2 C6 1.468(10) .
N2 C2 1.425(10) .
C1S H1S 0.9800 .
C6 H6A 0.9700 .
C6 H6B 0.9700 .
C6 C5 1.479(14) .
C2 H2A 0.9700 .
C2 H2B 0.9700 .
C2 C3 1.488(14) .
C4 H4A 0.9700 .
C4 H4B 0.9700 .
C4 C5 1.457(13) .
C4 C3 1.547(14) .
C5 H5A 0.9700 .
C5 H5B 0.9700 .
C3 H3A 0.9700 .
C3 H3B 0.9700 .
