#------------------------------------------------------------------------------
#$Date: 2016-05-06 03:19:51 +0300 (Fri, 06 May 2016) $
#$Revision: 182609 $
#$URL: svn://www.crystallography.net/cod/cif/7/11/89/7118901.cif $
#------------------------------------------------------------------------------
#
# This file is available in the Crystallography Open Database (COD),
# http://www.crystallography.net/
#
# All data on this site have been placed in the public domain by the
# contributors.
#
data_7118901
loop_
_publ_author_name
'Ivanov, Daniil M.'
'Novikov, Alexander S.'
'Ananyev, Ivan V.'
'Kirina, Yulia V.'
'Kukushkin, Vadim Yu'
_publ_section_title
;
 Halogen bonding between metal centers and halocarbons.
;
_journal_issue                   32
_journal_name_full
'Chemical communications (Cambridge, England)'
_journal_page_first              5565
_journal_page_last               5568
_journal_paper_doi               10.1039/c6cc01107a
_journal_volume                  52
_journal_year                    2016
_chemical_formula_sum            'C14 H22 Cl2 I6 N4 Pt'
_chemical_formula_weight         1273.74
_space_group_crystal_system      triclinic
_space_group_IT_number           2
_space_group_name_Hall           '-P 1'
_space_group_name_H-M_alt        'P -1'
_symmetry_space_group_name_Hall  '-P 1'
_symmetry_space_group_name_H-M   'P -1'
_atom_sites_solution_hydrogens   geom
_audit_creation_method           SHELXL-2014/6
_audit_update_record
;
2016-01-11 deposited with the CCDC.
2016-03-16 downloaded from the CCDC.
;
_cell_angle_alpha                113.561(7)
_cell_angle_beta                 100.692(7)
_cell_angle_gamma                107.883(7)
_cell_formula_units_Z            1
_cell_length_a                   9.1564(6)
_cell_length_b                   9.1703(8)
_cell_length_c                   10.0589(8)
_cell_measurement_temperature    100(2)
_cell_volume                     689.26(12)
_computing_structure_refinement  'SHELXL-2014/6 (Sheldrick, 2014)'
_diffrn_ambient_temperature      100(2)
_diffrn_measured_fraction_theta_full 0.998
_diffrn_measured_fraction_theta_max 0.998
_diffrn_radiation_type           MoK\a
_diffrn_radiation_wavelength     0.71073
_diffrn_reflns_av_R_equivalents  0.0317
_diffrn_reflns_av_unetI/netI     0.0562
_diffrn_reflns_Laue_measured_fraction_full 0.998
_diffrn_reflns_Laue_measured_fraction_max 0.998
_diffrn_reflns_limit_h_max       12
_diffrn_reflns_limit_h_min       -10
_diffrn_reflns_limit_k_max       11
_diffrn_reflns_limit_k_min       -12
_diffrn_reflns_limit_l_max       11
_diffrn_reflns_limit_l_min       -13
_diffrn_reflns_number            5979
_diffrn_reflns_point_group_measured_fraction_full 0.998
_diffrn_reflns_point_group_measured_fraction_max 0.998
_diffrn_reflns_theta_full        25.242
_diffrn_reflns_theta_max         27.992
_diffrn_reflns_theta_min         2.674
_exptl_absorpt_coefficient_mu    12.011
_exptl_crystal_density_diffrn    3.069
_exptl_crystal_F_000             564
_refine_diff_density_max         2.223
_refine_diff_density_min         -2.293
_refine_diff_density_rms         0.272
_refine_ls_extinction_method     none
_refine_ls_goodness_of_fit_ref   1.084
_refine_ls_hydrogen_treatment    constr
_refine_ls_matrix_type           full
_refine_ls_number_parameters     124
_refine_ls_number_reflns         3319
_refine_ls_number_restraints     0
_refine_ls_restrained_S_all      1.084
_refine_ls_R_factor_all          0.0461
_refine_ls_R_factor_gt           0.0365
_refine_ls_shift/su_max          0.000
_refine_ls_shift/su_mean         0.000
_refine_ls_structure_factor_coef Fsqd
_refine_ls_weighting_details
'w=1/[\s^2^(Fo^2^)+(0.0369P)^2^] where P=(Fo^2^+2Fc^2^)/3'
_refine_ls_weighting_scheme      calc
_refine_ls_wR_factor_gt          0.0835
_refine_ls_wR_factor_ref         0.0915
_reflns_Friedel_coverage         0.000
_reflns_number_gt                2831
_reflns_number_total             3319
_reflns_threshold_expression     'I > 2\s(I)'
_cod_data_source_file            c6cc01107a2.cif
_cod_data_source_block           b
_cod_depositor_comments
'Adding full bibliography for 7118900--7118914.cif.'
_cod_original_cell_volume        689.26(10)
_cod_database_code               7118901
_shelx_space_group_comment
;
The symmetry employed for this shelxl refinement is uniquely defined
by the following loop, which should always be used as a source of
symmetry information in preference to the above space-group names.
They are only intended as comments.
;
_shelxl_version_number           2014/6
_shelx_res_file
;
TITL b in P-1
CELL 0.71073   9.1564   9.1703  10.0589 113.561 100.692 107.883
ZERR    1.00   0.0006   0.0008   0.0008   0.007   0.007   0.007
LATT  1
SFAC C H N CL I PT
UNIT 14 22 4 2 6 1
L.S. 20
PLAN  20
temp -173.00
BOND $H
fmap 2
conf
htab
omit -4 56
acta

WGHT    0.036900
FVAR       0.34263
PT1   6    0.000000    0.000000    0.000000    10.50000    0.01380    0.01013 =
         0.01916    0.00386    0.00844    0.00358
CL1   4    0.064754   -0.010255    0.230686    11.00000    0.01080    0.01278 =
         0.01685    0.00347    0.00627    0.00203
C3    1    0.708234    0.336012   -0.046799    11.00000    0.02130    0.02510 =
         0.02259    0.01039    0.00912    0.00606
AFIX  23
H3A   2    0.779587    0.291311   -0.097937    11.00000   -1.20000
H3B   2    0.628276    0.342568   -0.122795    11.00000   -1.20000
AFIX   0
C1    1    0.370946    0.197075    0.064410    11.00000    0.01743    0.01065 =
         0.01285    0.00259    0.00717    0.00163
N1    3    0.234142    0.120193    0.038277    11.00000    0.01946    0.01028 =
         0.01999   -0.00131    0.00856    0.00374
C6    1    0.621574    0.462488    0.231644    11.00000    0.02116    0.01197 =
         0.02009    0.00244    0.00940    0.00017
AFIX  23
H6A   2    0.700414    0.456410    0.308959    11.00000   -1.20000
H6B   2    0.547075    0.504056    0.279817    11.00000   -1.20000
AFIX   0
N2    3    0.525737    0.286547    0.093742    11.00000    0.01577    0.01354 =
         0.02451   -0.00120    0.01357   -0.00068
C2    1    0.616416    0.209508    0.003948    11.00000    0.01980    0.01515 =
         0.01976    0.00264    0.00822    0.00362
AFIX  23
H2A   2    0.539622    0.095355   -0.088240    11.00000   -1.20000
H2B   2    0.695358    0.188938    0.067902    11.00000   -1.20000
AFIX   0
C5    1    0.712852    0.588602    0.183343    11.00000    0.02252    0.01466 =
         0.02926    0.00919    0.00803   -0.00020
AFIX  23
H5A   2    0.784799    0.703489    0.276831    11.00000   -1.20000
H5B   2    0.632965    0.606609    0.117730    11.00000   -1.20000
AFIX   0
C4    1    0.814808    0.522936    0.095409    11.00000    0.01878    0.02480 =
         0.02957    0.01167    0.01116    0.00069
AFIX  23
H4A   2    0.903812    0.519034    0.164858    11.00000   -1.20000
H4B   2    0.865806    0.604854    0.059289    11.00000   -1.20000
AFIX   0
I1S   5    0.452946    0.162320    0.422622    11.00000    0.02123    0.01565 =
         0.02052    0.00874    0.00957    0.00713
I3S   5    0.818455    0.542903    0.673179    11.00000    0.02384    0.01570 =
         0.02884    0.00831    0.00906    0.00664
I2S   5    0.836579    0.147616    0.417152    11.00000    0.02441    0.02209 =
         0.02386    0.01102    0.01329    0.01094
C1S   1    0.706543    0.262330    0.554047    11.00000    0.02031    0.01741 =
         0.01225    0.00926    0.00739    0.00643
AFIX  13
H1SA  2    0.710695    0.226130    0.635680    11.00000   -1.20000

AFIX   0
HKLF 4

REM  b in P-1
REM R1 =  0.0365 for    2831 Fo > 4sig(Fo)  and  0.0461 for all    3319 data
REM    124 parameters refined using      0 restraints

END

WGHT      0.0304      0.5739

REM Instructions for potential hydrogen bonds
HTAB C6 I3S
EQIV $1 -x+1, -y+1, -z+1
HTAB C6 I1S_$1
EQIV $2 -x+1, -y, -z
HTAB C2 I1S_$2
EQIV $3 -x+1, -y, -z+1
HTAB C1S I1S_$3

REM Highest difference peak  2.223,  deepest hole -2.293,  1-sigma level  0.272
Q1    1   0.0247  0.0640  0.0748  11.00000  0.05    2.22
Q2    1   0.0028  0.0753 -0.0369  11.00000  0.05    2.19
Q3    1   0.4442  0.0775  0.4602  11.00000  0.05    1.49
Q4    1   0.8450  0.2363  0.3861  11.00000  0.05    1.35
Q5    1   0.4542  0.2483  0.3913  11.00000  0.05    1.30
Q6    1   0.0673  0.0235  0.2945  11.00000  0.05    1.27
Q7    1   0.8284  0.4745  0.7263  11.00000  0.05    1.17
Q8    1   0.5671  0.2355  0.4863  11.00000  0.05    1.17
Q9    1   0.8196  0.0497  0.4328  11.00000  0.05    1.11
Q10   1   0.9098  0.2538  0.5215  11.00000  0.05    1.10
Q11   1   0.4399  0.0949  0.3354  11.00000  0.05    1.06
Q12   1   0.7599  0.5839  0.5797  11.00000  0.05    0.99
Q13   1   1.0233  0.6015  0.7380  11.00000  0.05    0.98
Q14   1   0.9257  0.6379  0.7666  11.00000  0.05    0.96
Q15   1   0.0791 -0.0182  0.1171  11.00000  0.05    0.96
Q16   1   0.3676  0.0556  0.3254  11.00000  0.05    0.95
Q17   1   0.3638  0.3833  0.2557  11.00000  0.05    0.94
Q18   1   0.7405  0.1133  0.4609  11.00000  0.05    0.92
Q19   1   0.5240  0.2618  0.5184  11.00000  0.05    0.91
Q20   1   0.3274  0.1045  0.3779  11.00000  0.05    0.86
;
_shelx_res_checksum              97700
_shelx_hkl_file
;
   0   0   2 1808.79   34.95
   0   0  -2 1796.79   42.52
   0   0   2 1742.99   45.33
   0   0  -2 1873.21   35.47
   0   0   3 2106.43   57.53
   0   0  -3 2067.38   53.62
   0   0  -3 2232.87   45.09
   0   0   3 2149.51   44.35
   0   0   3 2193.96   50.24
   0   0  -4   10.28    3.98
   0   0   4    8.72    2.90
   0   0  -5 1798.45   59.12
   0   0   5 1848.83   48.30
   0   0   6  151.36   13.61
   0   0  -6  142.29   16.95
   0   0  -7 1093.11   52.50
   0   0   7 1219.94   44.02
   0   0  -8  222.88   22.57
   0   0  -8  222.98   24.61
   0   0   8  226.27   19.66
   0   0  -9  719.34   48.00
   0   0   9  810.34   40.66
   0   0  -9  726.10   44.93
   0   0 -10  129.12   19.77
   0   0 -10  159.00   23.57
   0   0 -11  125.02   21.77
   0   0 -11  123.05   21.64
   0   0 -12  600.72   50.14
   0   1 -12  131.75   24.79
   0   1 -12  150.63   24.00
   0   1 -11   58.17   13.94
   0   1 -11   50.42   14.33
   0   1 -10  964.35   61.67
   0   1  -9  236.18   28.01
   0   1  -8  839.13   51.13
   0   1  -7  622.73   41.39
   0   1  -6  860.67   46.44
   0   1  -5 5758.92  131.04
   0   1  -4    9.81    4.40
   0   1  -4    7.25    2.47
   0   1  -3 2239.45   63.57
   0   1  -3 2252.57   43.56
   0  -1   2  151.80   13.94
   0   1  -2  162.05   14.04
   0   1   0 1077.24   24.14
   0  -1  -1  672.23   19.65
   0  -1  -1  677.54   22.07
   0   1   1  675.00   19.73
   0   1   1  664.16   18.17
   0   1   1  691.35   22.85
   0  -1  -1  647.55   16.88
   0  -1  -2 8918.32  137.61
   0   1   2 9059.93  134.08
   0  -1  -2 9275.56  146.02
   0   1   2 9345.45  142.76
   0  -1  -2 8903.48  139.81
   0   1   2 9087.29  138.62
   0   1   3 2381.03   52.29
   0  -1  -3 2246.34   53.04
   0   1   3 2352.25   52.33
   0  -1  -3 2222.37   53.81
   0  -1  -4 2088.84   55.99
   0   1   4 2101.13   52.56
   0  -1  -4 2097.41   56.03
   0  -1  -5 1205.39   44.64
   0   1   5 1236.36   41.10
   0  -1  -5 1140.92   43.35
   0  -1  -6  348.04   25.16
   0  -1  -6  366.26   25.93
   0   1   6  352.46   22.45
   0  -1  -7 1300.09   54.58
   0  -1  -7 1278.19   54.52
   0   1   7 1279.26   48.22
   0  -1  -8    2.50    4.59
   0   1   8    3.70    2.98
   0  -1  -8    4.25    3.70
   0  -1  -9  546.07   40.48
   0  -1  -9  584.82   40.99
   0  -1 -10   31.25   10.42
   0  -1 -10   24.32    9.40
   0  -1 -11  134.67   23.11
   0   2 -13   82.39   21.19
   0   2 -13  116.45   22.80
   0   2 -12   98.12   22.89
   0   2 -11   25.95   10.61
   0   2 -10  376.82   40.35
   0   2  -9    2.46    4.56
   0   2  -8 1936.35   85.99
   0   2  -7  444.38   37.71
   0   2  -6 1868.26   76.81
   0   2  -5 1154.18   56.46
   0   2  -4  560.90   36.90
   0   2  -3 9999.00  190.82
   0   2  -2 2828.39   78.42
   0  -2   2 3131.92   77.30
   0  -2   2 3093.31   71.65
   0  -2   2 2915.12   78.36
   0  -2   1 2334.66   55.82
   0   2  -1 2305.96   54.66
   0  -2   1 2301.27   56.12
   0   2  -1 2353.23   57.10
   0   2   0 1101.85   35.66
   0  -2   0 1095.42   35.18
   0  -2   0 1018.38   23.95
   0   2   0 1054.33   30.90
   0  -2  -1  194.32   14.94
   0   2   1  205.06   10.61
   0  -2  -1  209.21   13.44
   0  -2  -1  198.43   10.05
   0  -2  -2   37.24    5.10
   0   2   2   45.71    6.18
   0  -2  -2   37.98    7.32
   0  -2  -2   38.61    6.33
   0   2   3  213.57   15.54
   0  -2  -3  245.24   14.70
   0   2   3  216.23    9.74
   0  -2  -3  209.87   17.64
   0  -2  -3  208.06   15.83
   0   2   4 4238.06   73.81
   0  -2  -4 4029.84   85.08
   0   2   4 4115.15   89.88
   0  -2  -4 4015.32   92.10
   0  -2  -5  829.66   38.96
   0  -2  -5  838.25   35.74
   0   2   5  866.09   37.02
   0  -2  -6 1119.50   45.51
   0   2   6 1177.18   46.73
   0  -2  -6 1111.96   49.43
   0  -2  -7   58.18   11.85
   0   2   7   71.53   11.58
   0  -2  -7   70.36   11.96
   0  -2  -8   88.73   14.33
   0  -2  -8   78.67   15.11
   0   2   8   92.37   14.05
   0  -2  -9  977.63   52.14
   0  -2  -9 1037.16   59.23
   0  -2 -10   31.58   10.86
   0  -2 -11  115.41   23.37
   0   3 -13  451.72   52.32
   0   3 -12  174.93   31.26
   0   3 -11  253.91   36.16
   0   3 -10  188.26   30.47
   0   3  -9   22.80    9.50
   0   3  -8 1540.31   80.62
   0   3  -7   47.67   13.70
   0   3  -6 1093.46   62.74
   0   3  -5   86.57   17.27
   0   3  -4 3091.81  100.20
   0  -3   3   75.60   12.01
   0   3  -3   73.29   13.94
   0   3  -2 1779.48   58.72
   0  -3   2 1829.39   60.16
   0   3  -2 1694.64   59.12
   0  -3   2 1634.35   55.55
   0   3  -1 9089.48  154.06
   0  -3   1 8935.16  163.82
   0  -3   1 9128.84  154.50
   0  -3   0 1868.28   37.69
   0  -3   0 1946.24   58.52
   0  -3  -1 2529.14   65.25
   0   3   1 2595.77   53.79
   0  -3  -1 2630.39   72.30
   0  -3  -2  629.19   30.09
   0  -3  -2  638.79   34.22
   0  -3  -2  620.91   23.30
   0  -3  -3   21.66    5.87
   0  -3  -3   22.14    5.09
   0   3   3   13.62    4.75
   0  -3  -3   22.03    7.43
   0  -3  -4 1057.48   44.11
   0   3   4 1107.74   44.20
   0  -3  -4 1112.22   37.79
   0  -3  -5    2.40    2.99
   0   3   5    7.68    4.22
   0  -3  -5   10.67    4.85
   0  -3  -6  910.57   40.81
   0   3   6  942.41   45.24
   0  -3  -6  892.33   47.02
   0  -3  -7  264.36   26.55
   0   3   7  288.25   25.55
   0  -3  -7  307.65   24.66
   0  -3  -8  734.64   48.49
   0   3   8  809.14   46.13
   0  -3  -9   24.76    8.69
   0  -3 -10   14.45    5.66
   0   4 -13  168.99   33.47
   0   4 -12   -5.82    8.05
   0   4 -11  799.62   67.66
   0   4 -10  454.34   48.74
   0   4  -9 1398.59   83.66
   0   4  -8  245.92   33.51
   0   4  -7  383.35   40.62
   0   4  -6 2563.02  104.57
   0   4  -5  610.88   46.56
   0  -4   5  623.35   38.59
   0   4  -4 1969.69   85.33
   0  -4   4 2131.48   74.42
   0   4  -3    2.31    3.83
   0  -4   3    8.05    5.84
   0  -4   2 1184.41   51.43
   0   4  -2 1185.99   49.56
   0  -4   1   48.98   10.64
   0  -4   1   39.42    6.95
   0  -4   0   63.14    5.23
   0  -4   0   79.55   12.81
   0  -4  -1 5300.65  125.27
   0  -4  -2 2139.13   67.28
   0  -4  -2 2184.52   75.95
   0  -4  -3 1932.04   73.51
   0  -4  -3 1885.04   64.73
   0   4   3 1835.42   63.50
   0  -4  -4  371.67   22.33
   0  -4  -4  320.04   26.65
   0   4   4  360.79   27.82
   0   4   5    5.73    5.86
   0  -4  -5    1.84    2.86
   0  -4  -5   -2.41    6.76
   0  -4  -6  704.30   36.35
   0   4   6  761.64   43.91
   0  -4  -7   12.49    4.83
   0   4   7   16.44    6.42
   0  -4  -8  354.88   35.95
   0  -4  -9    5.11    7.15
   0   5 -13   70.42   27.16
   0   5 -12   -4.58    7.90
   0   5 -11  188.92   34.21
   0   5 -10   -1.09    6.64
   0   5  -9 1128.34   77.86
   0   5  -8  289.58   37.77
   0   5  -7 2051.58  100.28
   0  -5   7 2273.72   84.41
   0  -5   6   36.63   10.58
   0   5  -6   52.71   15.64
   0   5  -5   64.20   17.24
   0  -5   5   70.91   14.53
   0   5  -5   63.66   15.12
   0  -5   4 7046.62  162.88
   0   5  -4 6957.82  178.74
   0   5  -3 1223.12   60.38
   0  -5   3 1137.58   55.75
   0   5  -2 1275.14   54.82
   0  -5   2 1261.35   58.98
   0  -5   1  141.43   19.37
   0   5  -1  140.08   16.19
   0  -5   1  162.02   13.34
   0  -5   0  527.01   37.70
   0  -5   0  426.68   13.33
   0  -5  -1  208.19   23.80
   0  -5  -2   15.74    7.88
   0   5   3 1525.37   63.79
   0  -5  -3 1668.77   74.47
   0  -5  -4  468.05   35.64
   0   5   4  440.67   34.21
   0   5   5 1801.38   73.51
   0  -5  -5 1641.54   72.69
   0  -5  -6    6.84    4.91
   0   5   6   17.04    7.17
   0   5   7    6.66    4.30
   0  -5  -7   12.43    8.38
   0  -5  -8  493.59   45.58
   0   6 -13  173.83   35.35
   0   6 -12  580.30   63.03
   0   6 -11    9.87    9.85
   0   6 -10   30.77   14.10
   0   6  -9  932.40   72.96
   0  -6   9 1097.47   61.55
   0   6  -8    8.40    6.80
   0  -6   8   17.22    8.12
   0  -6   7  845.53   52.43
   0   6  -7  867.05   64.38
   0   6  -6  448.90   46.35
   0   6  -6  432.88   42.96
   0  -6   6  463.17   38.51
   0  -6   5 2354.53   90.09
   0   6  -5 2393.78  105.49
   0   6  -4   18.16    8.76
   0  -6   4   14.01    6.85
   0  -6   3   12.10    7.13
   0   6  -3   21.02    7.74
   0  -6   2 3152.47  106.04
   0   6  -2 3300.62   99.74
   0  -6   1 1172.10   37.09
   0  -6   1 1272.06   64.53
   0   6  -1 1267.18   54.35
   0  -6   0 2255.26   89.67
   0  -6  -1  279.76   30.75
   0  -6  -2   23.82   10.42
   0  -6  -3  305.60   33.98
   0   6   3  277.34   28.82
   0   6   4   72.92   15.22
   0   6   5  571.53   44.23
   0   6   6  105.47   19.83
   0   6   7  463.37   41.86
   0   7 -13  -34.86   17.14
   0   7 -12  457.58   55.79
   0   7 -11  419.95   52.31
   0   7 -10 1108.64   82.77
   0   7  -9    7.60    9.35
   0  -7   9   -9.53    7.06
   0  -7   8   19.07    9.64
   0   7  -8    3.84    7.32
   0  -7   7 1957.10   86.52
   0   7  -7 1821.23   96.36
   0  -7   6  461.30   40.85
   0   7  -6  477.71   49.18
   0   7  -6  380.14   40.68
   0  -7   5 1118.74   64.65
   0   7  -5 1059.32   70.62
   0   7  -4   16.22    8.09
   0  -7   4    9.04    7.45
   0   7  -3  860.92   54.58
   0  -7   3  807.99   55.39
   0  -7   2   40.05   12.65
   0   7  -2   57.07   13.08
   0  -7   1   71.70   16.40
   0   7  -1  107.06   17.06
   0  -7   0 2058.31   92.51
   0  -7  -1  650.67   51.89
   0  -7  -2 1440.60   81.42
   0  -7  -3    1.87    7.23
   0   7   3   11.23    5.61
   0   7   4   36.33   12.49
   0   7   5  493.00   44.51
   0   7   6  -10.24    7.48
   0   8 -12  139.23   31.37
   0   8 -11   -7.02    6.81
   0   8 -10  372.55   48.32
   0   8  -9  204.42   34.51
   0  -8   9  203.04   28.45
   0   8  -8 1929.27  104.43
   0  -8   8 2024.97   91.90
   0   8  -7   75.66   19.07
   0  -8   7   60.63   16.36
   0  -8   6    6.57    6.96
   0   8  -6   -0.93    4.93
   0   8  -6   14.90    8.69
   0  -8   5 1911.38   91.67
   0   8  -5 2070.75  102.04
   0  -8   4  224.67   31.32
   0   8  -4  244.21   31.70
   0  -8   3 1190.72   72.14
   0   8  -3 1318.07   71.77
   0   8  -2   17.83    8.67
   0  -8   2   13.52    8.75
   0   8  -1  179.23   23.56
   0  -8   1  167.34   27.92
   0   8   0   72.04   14.62
   0  -8   0   83.79   20.27
   0  -8  -1  177.38   29.96
   0   8   2  376.25   39.56
   0  -8  -2  446.54   48.62
   0   8   3  280.50   34.86
   0   8   4  878.68   63.08
   0   9 -12   -8.71    9.83
   0   9 -11   -2.89    8.13
   0   9 -10  256.76   41.06
   0   9  -9    1.25    8.67
   0   9  -8  717.01   63.18
   0  -9   8  730.62   56.23
   0  -9   7   57.96   16.42
   0   9  -7   42.63   15.92
   0   9  -7   54.94   17.31
   0   9  -6 1227.07   83.39
   0   9  -6 1197.51   75.66
   0  -9   6 1156.96   74.16
   0  -9   5   69.42   19.08
   0   9  -5   55.01   16.51
   0  -9   4  214.18   32.08
   0   9  -4  221.75   32.25
   0  -9   3 1007.56   72.33
   0   9  -3 1197.86   72.67
   0   9  -2  554.04   46.84
   0  -9   2  462.81   48.97
   0   9  -1 1201.15   67.77
   0  -9   1 1014.23   73.97
   0  -9   0   45.10   15.62
   0  -9  -1  110.26   26.17
   0   9   2   89.97   20.55
   0  -9  -2   72.00   22.61
   0  10 -11  764.60   71.95
   0  10 -10   23.90   13.88
   0  10  -9   23.77   12.82
   0  10  -8  850.46   69.26
   0 -10   8  712.52   59.09
   0  10  -7   55.40   17.80
   0 -10   7   29.60   12.32
   0  10  -6  356.18   46.02
   0 -10   6  333.75   41.33
   0  10  -6  317.22   39.33
   0  10  -5    3.87    7.17
   0 -10   5   -1.91    6.52
   0 -10   4  564.09   55.73
   0  10  -4  771.88   62.76
   0 -10   3    3.53    7.07
   0  10  -3   -7.73    7.18
   0 -10   2   99.48   24.31
   0 -10   1  411.74   50.39
   0 -10   0   72.85   21.58
   0  11 -11  134.65   30.44
   0  11 -10  115.63   27.38
   0  11  -9 1009.26   78.77
   0  11  -8   64.83   19.76
   0  11  -7  109.60   27.62
   0 -11   7   97.37   22.68
   0  11  -7  121.64   25.45
   0 -11   6  415.79   48.64
   0  11  -6  473.71   54.61
   0 -11   5  134.55   27.56
   0  11  -5  112.27   26.99
   0 -11   4  649.33   63.65
   0 -11   3   21.96   15.98
   0 -11   2   74.16   22.83
   0  12  -7  504.63   59.23
   0 -12   6   84.73   23.37
   0 -12   5  190.28   35.58
   1 -12   4  375.97   50.86
   1 -12   5   25.53   14.13
   1 -12   6   -2.99    6.70
   1 -12   7  196.48   35.46
  -1  12 -10   89.69   23.67
   1 -11   1   -2.97    9.08
   1 -11   2   90.67   24.77
   1 -11   3  346.64   47.17
   1 -11   4    8.62   10.29
  -1  11  -5   85.26   21.55
   1 -11   5   62.97   20.11
   1 -11   6  231.91   36.90
   1 -11   7   19.98   13.60
  -1  11  -8  136.84   27.22
   1 -11   8  121.06   26.82
  -1  11  -9  158.08   30.63
  -1  11 -10   26.93   14.09
  -1  11 -11   10.09    9.94
   1 -10  -1   -1.90   14.83
   1 -10   0   10.27    7.35
   1 -10   1  339.36   45.11
   1 -10   2   19.31   12.37
   1 -10   3   16.34    9.68
  -1  10  -3   27.12   12.27
   1 -10   4  405.23   47.57
  -1  10  -4  469.54   48.99
  -1  10  -5  193.42   32.41
  -1  10  -5  164.66   25.96
   1 -10   5  109.24   25.01
   1 -10   6   14.05   10.85
  -1  10  -6   13.57    6.18
  -1  10  -7  397.29   45.48
   1 -10   7  423.90   46.84
   1 -10   8  130.90   26.29
  -1  10  -8  114.41   24.71
  -1  10  -9    2.56    6.71
  -1  10 -10  120.99   28.51
  -1  10 -11   23.98   11.67
   1  -9  -3  143.24   29.95
  -1   9   3  198.44   29.90
   1  -9  -2   35.59   15.68
   1  -9  -1  132.32   27.34
   1  -9   0  541.27   54.47
   1  -9   1    6.80    6.52
   1  -9   2   30.67   13.24
  -1   9  -2   30.46   10.70
   1  -9   3  721.02   60.35
  -1   9  -3  754.26   57.06
   1  -9   4   24.95   13.57
  -1   9  -4  -11.49    7.29
  -1   9  -4   17.28    9.16
  -1   9  -5   40.21   15.28
   1  -9   5   31.61   12.87
  -1   9  -5   41.21   13.53
  -1   9  -6  281.46   35.55
   1  -9   6  295.48   38.12
  -1   9  -7   32.32   14.02
   1  -9   7   11.41    6.52
  -1   9  -8   30.29   13.24
   1  -9   8   35.09   13.59
   1  -9   9  540.27   49.70
  -1   9  -9  480.38   52.91
  -1   9 -10    1.02    6.76
  -1   9 -11   -8.48    9.60
  -1   9 -12  177.79   35.25
  -1   8   5  435.47   43.28
  -1   8   4  131.26   23.62
   1  -8  -4  145.12   28.42
  -1   8   3    4.65    6.37
   1  -8  -3   -3.30    7.13
   1  -8  -2  311.99   39.66
   1  -8  -1  383.65   43.17
  -1   8   0   22.02    8.69
   1  -8   0   10.03    9.23
  -1   8  -1  383.38   34.18
   1  -8   1  349.15   39.49
   1  -8   2  260.52   34.38
  -1   8  -2  329.24   33.55
   1  -8   3    3.87    5.78
  -1   8  -3   15.87    8.68
  -1   8  -4  784.86   53.85
  -1   8  -4  870.64   62.46
   1  -8   4  766.05   59.63
  -1   8  -5  365.23   41.92
  -1   8  -5  328.52   36.79
   1  -8   5  381.14   40.85
   1  -8   6   -0.39    6.33
  -1   8  -6    0.51    4.66
   1  -8   7  256.62   32.92
  -1   8  -7  213.83   33.14
   1  -8   8  399.16   41.72
  -1   8  -8  418.99   47.24
   1  -8   9    5.39    6.08
  -1   8  -9    6.95    5.93
  -1   8 -10   27.31   14.38
  -1   8 -11  226.71   38.34
  -1   8 -12   19.44   10.86
  -1   7   6  252.86   31.21
  -1   7   5   65.49   15.56
  -1   7   4   35.87   11.69
   1  -7  -4   51.71   16.35
   1  -7  -3  577.81   51.59
   1  -7  -2   13.81    9.52
   1  -7  -1   76.95   18.10
   1  -7   0  832.26   58.58
  -1   7   0  889.53   45.73
   1  -7   1   14.51    8.98
  -1   7  -1   25.23    8.65
   1  -7   2    4.02    5.66
  -1   7  -2   -0.39    4.12
   1  -7   3 1163.30   68.70
  -1   7  -3 1286.09   68.63
  -1   7  -4  267.13   30.56
   1  -7   4  283.35   33.95
  -1   7  -4  281.96   34.19
  -1   7  -5   22.80   11.07
   1  -7   5   47.04   15.04
  -1   7  -5   32.67   11.96
  -1   7  -6  877.46   62.45
   1  -7   6  943.25   62.40
  -1   7  -7   45.41   15.11
   1  -7   7   56.08   15.20
   1  -7   8   89.05   20.47
  -1   7  -8   76.26   21.40
   1  -7   9  442.92   42.77
  -1   7  -9  364.67   44.93
  -1   7 -10   22.45   12.92
   1  -7  10   19.84   10.99
  -1   7 -11   10.94   12.98
  -1   7 -12   43.37   16.69
  -1   7 -13   88.35   25.24
   1  -6  -7  102.40   20.78
  -1   6   6   -1.63    4.55
   1  -6  -6   -8.90    7.70
   1  -6  -5  228.86   28.13
  -1   6   5  260.16   28.40
   1  -6  -4  473.12   43.10
  -1   6   4  462.86   36.80
   1  -6  -3   96.00   18.73
   1  -6  -2  201.00   26.25
   1  -6  -1  893.41   55.36
  -1   6   0    7.44    4.36
   1  -6   0    6.30    2.75
   1  -6   1  300.26   31.69
  -1   6  -1  292.07   25.23
   1  -6   2  389.02   36.52
  -1   6  -2  455.58   35.07
  -1   6  -3   37.67   12.18
   1  -6   3   19.16    9.22
  -1   6  -4  222.56   29.71
   1  -6   4  237.70   29.05
  -1   6  -4  181.45   24.33
   1  -6   5 1146.42   65.13
  -1   6  -5 1120.80   66.00
  -1   6  -6   36.09   12.36
   1  -6   6   69.30   16.90
  -1   6  -7   -3.04    6.70
   1  -6   7   16.30    8.64
  -1   6  -8  907.95   67.63
  -1   6  -9    1.18    9.70
  -1   6 -10   99.41   23.92
  -1   6 -11   98.91   24.99
  -1   6 -12    5.10    6.55
  -1   6 -13   74.13   23.45
   1  -5  -8   24.41   12.09
  -1   5   7   16.40    6.94
   1  -5  -7    8.87    6.49
  -1   5   6  391.98   32.58
   1  -5  -6  340.38   33.19
  -1   5   5  159.43   20.10
   1  -5  -5  132.88   19.99
  -1   5   4   10.36    5.26
   1  -5  -4    7.40    6.55
   1  -5  -4   13.48    6.34
   1  -5  -3  441.68   32.60
   1  -5  -3  441.94   36.16
   1  -5  -2  284.44   28.46
   1  -5  -1    3.94    4.15
  -1   5   1    3.07    1.68
   1  -5   0 1680.78   70.41
  -1   5   0 1645.58   39.66
  -1   5   0 1629.86   52.28
  -1   5  -1  259.87   21.96
   1  -5   1  285.26   28.10
   1  -5   2  191.82   23.87
  -1   5  -2  252.71   24.77
  -1   5  -3 1751.36   71.20
   1  -5   3 1708.45   74.87
  -1   5  -3 1862.49   78.80
  -1   5  -4  269.79   29.27
   1  -5   4  250.22   27.76
  -1   5  -5    5.26    5.66
   1  -5   5   18.96    8.85
  -1   5  -6  209.54   28.46
  -1   5  -7  536.81   48.27
  -1   5  -8   31.58   12.63
  -1   5  -9   90.51   21.26
  -1   5 -10  286.00   39.83
  -1   5 -11   21.54   10.61
  -1   5 -12  238.30   38.58
  -1   5 -13   39.17   16.36
   1  -4  -9   28.27   10.40
   1  -4  -8   41.73   11.69
   1  -4  -7  336.21   32.69
  -1   4   7  419.02   31.94
   1  -4  -6    9.65    4.55
  -1   4   6    9.23    4.97
   1  -4  -5  232.88   16.94
   1  -4  -5  256.64   26.66
   1  -4  -5  220.28   23.30
  -1   4   5  236.08   21.80
   1  -4  -4  888.53   31.13
   1  -4  -4  736.91   40.80
   1  -4  -4  861.53   48.06
  -1   4   4  792.70   39.66
   1  -4  -3   10.84    5.48
   1  -4  -3    7.38    4.41
   1  -4  -2   32.66    7.71
   1  -4  -2   41.55    9.96
  -1   4   2   41.72    5.84
   1  -4  -1 1132.97   23.33
   1  -4  -1 1218.88   53.07
   1  -4   0  194.32   20.84
  -1   4  -1   36.88    8.14
   1  -4   1   50.23   11.43
  -1   4  -2 2134.86   73.72
   1  -4   2 2078.23   76.87
  -1   4  -3  125.68   18.92
  -1   4  -3  117.97   16.79
   1  -4   3  131.91   19.27
  -1   4  -4  297.82   29.59
  -1   4  -5 2535.34   94.85
  -1   4  -6    2.92    5.89
  -1   4  -7  192.13   27.24
  -1   4  -8  598.48   50.31
  -1   4  -9  139.78   25.62
  -1   4 -10   22.87   11.92
  -1   4 -11   42.88   16.14
  -1   4 -12   95.40   24.16
  -1   4 -13   -2.00   10.20
   1  -3 -10   13.32    9.30
   1  -3  -9  344.23   35.08
   1  -3  -8  182.61   23.81
  -1   3   7    7.75    3.94
   1  -3  -7    5.96    4.79
   1  -3  -7    5.51    2.72
   1  -3  -6  342.35   22.33
  -1   3   6  343.89   24.89
   1  -3  -6  333.57   28.35
  -1   3   5 1249.84   46.54
   1  -3  -5 1150.30   50.29
   1  -3  -5 1228.99   40.49
   1  -3  -4   35.95    8.29
   1  -3  -4   28.77    8.00
   1  -3  -4   33.21    5.67
  -1   3   4   29.92    6.52
  -1   3   4   30.89    3.78
   1  -3  -3  808.31   25.00
   1  -3  -3  815.17   39.28
  -1   3   3  722.25   18.26
   1  -3  -3  811.06   35.83
  -1   3   2  672.79   22.59
   1  -3  -2  600.59   32.28
   1  -3  -2  598.00   29.06
   1  -3  -2  654.91   19.07
   1  -3  -2  576.59   17.05
   1  -3  -1   27.96    6.57
   1  -3  -1   40.88    8.81
   1  -3  -1   26.89    2.96
  -1   3   1   26.80    3.47
   1  -3   0 3011.99   81.47
  -1   3   0 3119.28   62.28
  -1   3  -1  700.76   32.47
   1  -3   1  740.38   29.86
   1  -3   1  677.02   37.40
   1  -3   2   70.62   12.71
  -1   3  -2   51.03    9.56
  -1   3  -2   69.39   11.97
   1  -3   2   44.37   10.25
  -1   3  -3  421.87   29.94
  -1   3  -4 3815.31  106.01
  -1   3  -5    7.92    6.47
  -1   3  -6  121.37   19.39
  -1   3  -7 1261.85   67.20
  -1   3  -8   31.51   11.65
  -1   3  -9  380.16   39.46
  -1   3 -10   63.89   17.53
  -1   3 -11   -1.23    7.18
  -1   3 -12   82.17   22.47
  -1   3 -13   45.47   16.54
   1  -2 -11    3.43    6.43
   1  -2 -10  271.09   31.95
   1  -2  -9   30.85   10.66
   1  -2  -8   72.04   14.18
  -1   2   8   74.11   11.55
   1  -2  -8   81.31   13.36
  -1   2   7  358.44   24.10
   1  -2  -7  329.51   25.00
   1  -2  -7  316.70   27.36
  -1   2   6   56.76    8.93
   1  -2  -6   58.43    9.78
   1  -2  -6   49.24   10.10
   1  -2  -5   28.10    6.15
   1  -2  -5   36.50    7.86
  -1   2   5   36.60    6.73
   1  -2  -4 1373.88   48.65
   1  -2  -4 1412.97   40.53
   1  -2  -4 1402.21   47.79
  -1   2   4 1402.95   34.97
  -1   2   4 1385.54   41.74
   1  -2  -3  426.27   22.92
  -1   2   3  484.00   24.50
   1  -2  -3  429.89   20.97
  -1   2   3  428.89   15.28
   1  -2  -3  431.24   24.34
   1  -2  -3  453.19   18.20
   1  -2  -2   86.52    6.22
   1  -2  -2   84.83    5.92
  -1   2   2   82.95    7.60
   1  -2  -2   90.14   10.33
   1  -2  -2   84.38    9.22
  -1   2   2   89.18    5.64
  -1   2   1 5426.78  107.68
   1  -2  -1 5463.66   80.25
   1  -2  -1 5277.03  103.87
   1  -2  -1 5466.47   95.77
   1  -2   0 1198.51   41.90
  -1   2   0 1221.90   44.08
  -1   2   0 1194.05   32.74
  -1   2   0 1244.97   30.10
  -1   2  -1  256.58   14.74
   1  -2   1  229.76   14.45
   1  -2   1  204.42   17.59
   1  -2   1  222.53   15.76
  -1   2  -2 4534.03   94.75
   1  -2   2 4862.57   96.89
  -1   2  -3  428.38   26.25
  -1   2  -4  575.47   33.77
  -1   2  -5  481.61   33.57
  -1   2  -6  328.16   29.22
  -1   2  -7   25.55    9.27
  -1   2  -8  245.29   28.62
  -1   2  -9  419.38   40.18
  -1   2 -10  144.87   24.88
  -1   2 -11  243.91   33.45
  -1   2 -12    2.79    6.42
  -1   2 -12   13.69    6.96
  -1   2 -13    2.57    5.88
   1  -1 -11  115.18   21.65
   1  -1 -10   -5.92    5.83
   1  -1 -10   -8.90    6.31
   1  -1  -9  121.81   18.44
   1  -1  -9  149.80   21.13
   1  -1  -8  581.02   38.70
   1  -1  -8  547.42   36.88
  -1   1   8  589.07   30.95
   1  -1  -7  162.33   18.31
  -1   1   7  195.18   16.01
   1  -1  -7  184.69   19.87
   1  -1  -6  565.51   32.47
   1  -1  -6  618.18   33.41
  -1   1   6  594.68   26.38
  -1   1   5 1332.91   38.32
   1  -1  -5 1265.46   45.29
   1  -1  -5 1292.21   46.20
  -1   1   4  171.89   11.30
   1  -1  -4  180.07   14.36
   1  -1  -4  152.45   16.01
   1  -1  -4  163.50   14.15
   1  -1  -3  336.06   18.73
  -1   1   3  343.84   15.40
   1  -1  -3  369.94   18.69
  -1   1   3  352.60   14.62
  -1   1   3  369.92   23.25
   1  -1  -3  351.67   17.81
   1  -1  -3  355.91   18.63
  -1   1   2 1346.19   37.86
   1  -1  -2 1285.30   30.46
  -1   1   2 1437.21   39.70
  -1   1   2 1280.47   28.53
   1  -1  -2 1305.70   34.36
   1  -1  -2 1306.70   34.09
   1  -1  -2 1332.76   31.51
  -1   1   1 1416.56   31.52
  -1   1   1 1411.37   27.26
  -1   1   1 1423.58   37.69
   1  -1  -1 1432.18   31.28
   1  -1  -1 1406.18   35.37
   1  -1  -1 1362.49   26.84
   1  -1   1 4098.89   69.61
  -1   1  -1 4053.33   68.52
   1  -1   2 1637.62   43.09
  -1   1  -2 1538.33   36.04
  -1   1  -2 1525.93   40.85
  -1   1  -3  107.25   11.48
   1  -1   3   99.27    8.88
   1  -1   4 3173.67   68.19
  -1   1  -4 3109.04   79.95
  -1   1  -5  145.94   16.67
   1  -1   5  121.33   11.98
   1  -1   6  273.08   19.71
  -1   1  -6  274.05   24.75
  -1   1  -7  176.70   21.38
   1  -1   7  155.52   16.12
  -1   1  -8  227.91   26.39
  -1   1  -9   20.19    8.53
  -1   1 -10  100.03   19.73
  -1   1 -10  128.64   19.24
  -1   1 -11   59.97   14.40
  -1   1 -11   70.08   17.15
  -1   1 -12    7.33    9.41
  -1   1 -12   17.69   10.23
   1   0 -12   13.14    8.05
   1   0 -11    5.84    5.26
   1   0 -11   -2.42    6.89
   1   0 -10  187.32   25.61
   1   0 -10  159.15   22.37
   1   0  -9  370.37   33.82
   1   0  -9  351.73   31.04
   1   0  -8    7.82    4.50
  -1   0   8    3.33    2.67
  -1   0   7  558.26   25.43
   1   0  -7  494.08   35.05
  -1   0   6  797.79   28.19
   1   0  -6  767.43   41.88
   1   0  -5   19.42    6.28
  -1   0   5   12.43    3.06
   1   0  -4 3626.49   90.13
  -1   0   4 3792.62   64.32
   1   0  -4 3584.31   91.81
  -1   0   3  394.92   11.69
  -1   0   3  388.41   18.95
  -1   0   3  372.15   15.47
   1   0  -3  368.61   20.41
   1   0  -3  367.77   22.92
   1   0  -2  249.16    8.72
   1   0  -2  239.14   12.44
  -1   0   2  248.31    9.67
  -1   0   2  265.09   16.98
  -1   0   2  232.55   11.93
  -1   0  -1   96.41    7.11
   1   0   1   99.89    7.46
  -1   0  -1   99.02    6.91
   1   0   1  106.25    7.05
  -1   0  -2   33.89    5.49
  -1   0  -2   39.35    5.16
   1   0   2   34.49    4.83
   1   0   2   41.00    6.22
   1   0   3 2014.21   48.18
  -1   0  -3 1957.63   52.25
  -1   0  -4   89.25   11.31
   1   0   4   93.70    9.89
   1   0   5  416.88   23.43
  -1   0  -5  392.56   26.21
   1   0   6  859.17   37.61
  -1   0  -6  842.85   42.70
  -1   0  -7  295.36   26.84
  -1   0  -7  286.10   23.51
   1   0   7  304.85   23.47
  -1   0  -8  828.75   44.34
   1   0   8  810.47   41.79
  -1   0  -8  810.34   48.45
  -1   0  -9   48.96   11.31
   1   0   9   45.91   10.37
  -1   0  -9   64.05   14.37
  -1   0 -10   22.68    9.69
  -1   0 -10    6.21    6.14
  -1   0 -11   52.01   14.58
  -1   0 -11   52.20   14.08
   1   1 -12    8.16    9.10
   1   1 -12    8.85    5.76
   1   1 -11  200.17   29.04
   1   1 -10    9.11    6.54
   1   1  -9  371.30   36.35
   1   1  -8  435.56   38.14
   1   1  -7   93.33   16.87
   1   1  -6   23.50    8.22
   1   1  -6   25.77    4.31
   1   1  -5 2051.12   41.63
  -1  -1   5 2071.09   47.86
   1   1  -4  775.50   19.48
   1   1  -4  720.90   37.05
   1   1  -4  707.25   41.06
  -1  -1   3  510.89   31.19
   1   1  -3  497.94   31.12
   1   1  -3  549.54   26.53
  -1  -1   2 5248.87  101.78
  -1  -1   2 5174.34   89.99
   1   1  -2 5127.10   90.21
  -1  -1   1   12.65    3.01
  -1  -1   1   21.03    3.28
   1   1  -1   11.64    2.94
   1   1  -1   15.38    3.15
  -1  -1   0  863.71   24.64
   1   1   0  848.18   23.16
   1   1   0  837.70   23.48
   1   1   0  894.26   25.38
   1   1   0  840.94   18.30
  -1  -1   0  836.54   18.40
   1   1   1 2298.55   43.77
   1   1   1 2231.36   48.69
  -1  -1  -1 2281.66   47.39
   1   1   1 2362.32   48.84
  -1  -1  -1 2189.14   43.88
   1   1   2  119.19   10.29
  -1  -1  -2  121.39    9.21
  -1  -1  -2  122.04   10.01
  -1  -1  -3  566.50   25.52
  -1  -1  -3  567.07   23.74
   1   1   3  603.48   26.19
  -1  -1  -4  780.18   31.76
   1   1   4  827.39   33.82
  -1  -1  -4  822.01   34.50
   1   1   5  855.33   36.99
  -1  -1  -5  868.11   36.94
  -1  -1  -5  844.10   38.44
   1   1   6  125.79   14.74
  -1  -1  -6  115.27   14.71
  -1  -1  -6   93.20   13.00
  -1  -1  -7  388.17   30.13
   1   1   7  385.02   27.89
  -1  -1  -7  407.18   29.59
  -1  -1  -8  356.59   30.87
  -1  -1  -8  450.23   33.68
   1   1   8  450.59   32.40
   1   1   9   18.66    7.81
  -1  -1  -9   18.66    8.49
  -1  -1  -9   22.42    8.70
  -1  -1 -10  360.26   35.30
  -1  -1 -10  416.89   38.26
   1   2 -13   49.49   16.25
   1   2 -12  242.88   35.65
   1   2 -11    7.70    8.13
   1   2 -10  285.68   35.93
   1   2  -9  771.16   56.97
   1   2  -8   40.88   12.14
   1   2  -7  663.85   49.03
   1   2  -6  186.08   24.94
   1   2  -6  174.67   11.16
   1   2  -5   64.10   14.27
   1   2  -4  677.13   43.29
   1   2  -4  714.20   38.55
  -1  -2   3  427.69   19.14
   1   2  -3  451.86   25.97
   1   2  -3  409.73   30.06
  -1  -2   2   22.73    4.38
   1   2  -2   25.44    5.52
   1   2  -2   29.19    6.57
  -1  -2   2   24.86    5.27
   1   2  -1   29.26    4.51
   1   2  -1   17.89    4.19
  -1  -2   1   18.64    3.40
  -1  -2   1   17.76    4.19
  -1  -2   0 6796.09  119.26
   1   2   0 6861.56  110.52
  -1  -2   0 6624.18   96.91
   1   2   0 6616.51  110.94
   1   2   0 6744.20   98.22
  -1  -2  -1  190.20   13.22
  -1  -2  -1  177.03   15.24
   1   2   1  173.17    6.29
   1   2   1  195.35   14.21
   1   2   2  446.31   12.39
   1   2   2  472.44   24.16
  -1  -2  -2  446.13   21.80
  -1  -2  -2  473.59   21.94
   1   2   3 1723.61   41.42
   1   2   3 1778.51   53.59
  -1  -2  -3 1725.00   50.04
  -1  -2  -3 1773.88   49.73
   1   2   4  102.06    9.31
   1   2   4  114.33   13.28
  -1  -2  -4  110.17   12.34
  -1  -2  -4  105.02   12.36
   1   2   5 1029.13   44.25
  -1  -2  -5  946.57   42.18
  -1  -2  -5  996.18   41.88
  -1  -2  -6   61.74   10.67
  -1  -2  -6   52.96   10.44
   1   2   6   71.18   12.02
   1   2   7  152.54   18.59
  -1  -2  -7  159.08   19.05
  -1  -2  -7  159.81   19.61
   1   2   8   57.55   12.53
  -1  -2  -8   63.42   13.47
  -1  -2  -8   30.85    9.45
  -1  -2  -9  263.91   27.88
  -1  -2  -9  300.16   31.33
   1   3 -13   42.41   16.45
   1   3 -12   49.93   18.54
   1   3 -11   35.77   14.19
   1   3 -10  169.99   28.85
   1   3  -9   -3.37    6.26
   1   3  -8  816.83   61.03
   1   3  -7  170.82   26.90
   1   3  -6  351.74   36.69
   1   3  -5 3813.37  124.64
   1   3  -5 4098.02  130.33
  -1  -3   5 4186.46   94.07
   1   3  -4  194.92   24.28
  -1  -3   4  213.00   16.99
   1   3  -3  229.96   18.31
  -1  -3   3  189.51   15.55
   1   3  -3  175.92   17.86
   1   3  -3  180.44   20.06
   1   3  -2 1022.70   41.70
  -1  -3   2 1052.93   38.26
   1   3  -2 1029.68   38.61
  -1  -3   1  333.65   15.09
   1   3  -1  359.04   18.57
  -1  -3   1  348.67   21.96
  -1  -3   0  308.12   22.09
   1   3   0  278.89   12.94
  -1  -3   0  278.55   10.25
  -1  -3  -1   88.00   12.73
   1   3   2  876.73   38.67
  -1  -3  -2  970.44   44.38
  -1  -3  -2  986.02   39.04
  -1  -3  -3  281.31   19.29
  -1  -3  -3  246.08   19.86
   1   3   3  245.48   20.78
   1   3   4 1174.64   49.43
  -1  -3  -4 1114.11   46.97
  -1  -3  -4 1173.65   44.23
  -1  -3  -5  605.52   36.03
  -1  -3  -5  610.92   33.28
   1   3   5  610.09   36.72
  -1  -3  -6  199.21   20.26
  -1  -3  -6  205.81   21.96
   1   3   6  206.52   22.16
  -1  -3  -7  676.43   40.09
   1   3   7  585.09   39.85
  -1  -3  -7  612.18   41.50
   1   3   8   48.19   11.60
  -1  -3  -8   29.68    9.09
  -1  -3  -9   79.18   16.68
   1   4 -13   27.87   14.47
   1   4 -12  182.12   33.81
   1   4 -11   41.33   14.87
   1   4 -10  224.29   34.93
   1   4  -9  153.16   27.83
   1   4  -8  107.86   22.87
   1   4  -7   -3.05    7.90
  -1  -4   7    0.89    2.89
  -1  -4   6  862.98   42.40
   1   4  -6  796.84   57.39
   1   4  -5  262.86   32.03
  -1  -4   5  233.64   20.92
  -1  -4   4   85.19   12.42
   1   4  -4   92.76   17.64
   1   4  -3 3190.07   96.02
  -1  -4   3 3198.14   84.43
  -1  -4   2  553.67   32.25
   1   4  -2  590.69   34.18
  -1  -4   1  682.42   23.05
  -1  -4   1  631.30   35.32
  -1  -4   0 2118.99   69.98
  -1  -4   0 1921.19   35.72
  -1  -4  -1    9.37    5.66
   1   4   2  404.51   28.79
  -1  -4  -2  407.29   31.74
   1   4   3  138.82   17.49
  -1  -4  -3  121.78   16.02
  -1  -4  -4  727.57   41.40
   1   4   4  713.17   41.75
  -1  -4  -5   28.99    7.42
  -1  -4  -5    6.88    5.63
   1   4   5   26.13    8.36
  -1  -4  -6  361.55   32.49
   1   4   6  460.33   36.17
  -1  -4  -6  389.88   29.02
   1   4   7   52.78   13.36
  -1  -4  -7   55.67   13.02
   1   4   8    9.28    6.67
  -1  -4  -8   13.71    7.19
   1   5 -13  223.78   39.97
   1   5 -12   25.56   13.03
   1   5 -11  129.34   29.88
   1   5 -10  172.74   32.59
  -1  -5   9   11.80    6.21
   1   5  -9    5.19    6.82
   1   5  -8 1325.53   84.25
  -1  -5   8 1585.88   64.68
   1   5  -7    5.60    5.47
  -1  -5   7    2.96    4.27
  -1  -5   6   18.05    7.10
   1   5  -6   16.18   10.12
  -1  -5   5  404.95   30.65
   1   5  -5  457.43   42.84
   1   5  -4 1087.69   60.82
  -1  -5   4  998.13   48.91
   1   5  -3   29.49    9.33
  -1  -5   3   27.65    7.90
  -1  -5   2    2.62    3.58
   1   5  -2    6.79    3.80
  -1  -5   1 2336.67   80.98
  -1  -5   1 2206.76   48.83
  -1  -5   0  127.02    6.05
  -1  -5   0  168.36   21.29
  -1  -5  -1  834.19   50.11
  -1  -5  -2  509.52   39.42
   1   5   2  430.55   33.29
   1   5   3  110.32   17.67
   1   5   4  906.28   52.23
   1   5   5   63.38   14.21
   1   5   6   92.29   18.01
   1   5   7   -4.65    5.64
   1   6 -13   89.35   25.90
   1   6 -12   42.09   18.02
   1   6 -11  155.04   32.07
   1   6 -10   -2.44    6.44
   1   6  -9  817.42   68.96
  -1  -6   8  228.98   25.28
   1   6  -8  205.96   33.19
  -1  -6   7  106.36   17.11
   1   6  -7  104.42   24.17
   1   6  -7  111.38   23.31
   1   6  -6 2329.62  109.78
  -1  -6   6 2333.50   84.58
  -1  -6   5   34.29   10.62
   1   6  -5   30.49   11.10
   1   6  -4  487.72   41.40
  -1  -6   4  445.70   35.63
  -1  -6   3  565.12   40.87
   1   6  -3  569.97   41.46
   1   6  -2  103.54   16.39
  -1  -6   2  118.93   19.44
  -1  -6   1  268.74   28.98
  -1  -6   0  309.16   32.45
  -1  -6  -1 1071.48   63.13
   1   6   2  304.09   30.86
  -1  -6  -2  272.95   32.59
   1   6   3  781.25   51.12
   1   6   4  239.00   28.89
   1   6   5   18.65    9.70
   1   6   6  453.88   42.24
   1   7 -13  116.81   29.79
   1   7 -12   18.31   10.28
   1   7 -11  241.15   40.05
   1   7 -10   10.29    8.72
   1   7  -9  192.10   33.57
   1   7  -8   48.49   16.52
  -1  -7   8   53.78   12.80
   1   7  -7  579.90   57.08
   1   7  -7  612.90   54.55
  -1  -7   7  591.05   43.23
   1   7  -6   11.08    8.60
  -1  -7   6   12.64    7.37
  -1  -7   5   13.44    7.90
   1   7  -5   24.75   10.38
   1   7  -4 2743.17  107.51
  -1  -7   4 2624.18   99.77
   1   7  -3  252.11   29.21
  -1  -7   3  248.29   29.75
   1   7  -2  343.01   32.51
  -1  -7   2  373.88   37.52
  -1  -7   1  577.26   47.57
  -1  -7   0   17.14    8.36
  -1  -7  -1  568.55   49.81
   1   7   2   28.73   10.14
  -1  -7  -2   55.11   15.53
   1   7   3  265.50   32.91
   1   7   4   17.75    9.40
   1   7   5  590.19   51.03
   1   8 -12  294.98   45.33
   1   8 -11   38.18   18.32
   1   8 -10   20.22   11.41
   1   8  -9 1166.28   83.83
  -1  -8   8    9.74    7.94
   1   8  -8   -4.32    8.48
   1   8  -8   16.93   12.32
   1   8  -7  130.78   28.31
  -1  -8   7  136.33   22.16
  -1  -8   6   50.49   13.93
   1   8  -6   34.38   14.13
  -1  -8   5  364.06   37.94
   1   8  -5  375.13   42.12
   1   8  -4   42.59   14.55
  -1  -8   4   22.51   10.67
  -1  -8   3   19.67    9.79
   1   8  -3   39.29   13.10
   1   8  -2  996.55   60.52
  -1  -8   2  922.91   64.39
  -1  -8   1  198.71   30.63
   1   8  -1  219.89   27.34
  -1  -8   0 1039.92   72.62
   1   8   1  186.88   28.45
  -1  -8  -1  194.81   31.45
   1   8   2   20.35    8.03
   1   8   3  430.19   44.75
   1   9 -12  120.49   29.22
   1   9 -11   28.44   15.95
   1   9 -10  386.27   50.40
   1   9  -9   42.51   17.52
   1   9  -8    9.78    7.70
   1   9  -8    0.44    8.67
   1   9  -7 1119.50   83.47
  -1  -9   7 1068.20   67.41
   1   9  -6  136.00   27.63
  -1  -9   6  136.66   24.41
  -1  -9   5  379.29   41.69
   1   9  -5  398.46   45.00
   1   9  -4  375.89   42.44
  -1  -9   4  310.91   39.11
   1   9  -3   53.51   15.79
  -1  -9   3   42.82   15.34
   1   9  -2   42.15   14.01
  -1  -9   2   54.98   17.36
   1   9  -1   86.78   18.56
  -1  -9   1   83.82   22.98
  -1  -9   0  584.32   58.21
   1   9   1   86.61   21.65
  -1  -9  -1   61.93   20.83
   1  10 -11   25.55   13.82
   1  10 -10  106.71   27.13
   1  10  -9   13.27   10.26
   1  10  -8  536.72   61.19
   1  10  -8  473.83   52.21
   1  10  -7    2.51    5.93
  -1 -10   7   -0.50    4.62
   1  10  -6    7.95   12.67
  -1 -10   6    1.21    8.52
  -1 -10   5  878.75   68.27
   1  10  -5  995.94   75.60
   1  10  -4   98.53   22.36
  -1 -10   4  103.61   24.68
   1  10  -3  558.37   53.60
  -1 -10   3  392.22   48.23
  -1 -10   2   44.34   17.09
   1  10  -2   72.68   19.32
  -1 -10   1  -11.07    9.96
   1  11 -10  533.34   59.54
   1  11  -9   11.55   10.31
   1  11  -8  295.49   41.69
   1  11  -8  268.49   44.55
   1  11  -7   49.41   18.74
   1  11  -7   40.86   15.52
   1  11  -6  136.42   30.53
  -1 -11   6  165.28   31.04
  -1 -11   5    6.24    7.68
   1  11  -5    6.81   13.32
  -1 -11   4   95.38   24.57
   1  11  -4   79.53   23.26
  -1 -11   3  353.54   48.59
   1  12  -7   81.83   24.53
   1  12  -6  138.87   32.33
   2 -12   4  -16.58   12.39
   2 -12   5  179.60   35.32
   2 -12   6    6.05    9.46
   2 -12   7  642.88   64.59
   2 -12   8  -12.99   10.85
  -2  12 -10  314.43   43.71
   2 -11   1  137.46   31.53
   2 -11   2 1072.19   85.21
   2 -11   3   10.67    9.69
   2 -11   4   42.85   17.66
   2 -11   5  636.18   64.13
   2 -11   6  113.44   25.99
   2 -11   7  434.33   51.15
   2 -11   8  -20.35   12.24
  -2  11  -8   -3.83    7.56
  -2  11  -9  177.24   31.49
   2 -11   9  231.70   36.52
  -2  11 -10    4.07    7.29
  -2  11 -11   54.59   19.30
   2 -10  -1  140.63   30.55
   2 -10   0  136.08   29.72
   2 -10   1   33.16   15.86
   2 -10   2  286.87   41.64
   2 -10   3   46.55   17.78
  -2  10  -4 2091.90  104.16
   2 -10   4 1964.32  108.69
   2 -10   5  216.53   35.22
   2 -10   6   99.90   24.97
  -2  10  -6  130.92   24.74
  -2  10  -7  847.93   65.06
   2 -10   7  925.43   71.40
   2 -10   8  155.09   29.60
  -2  10  -8  122.10   25.50
  -2  10  -9  590.49   58.67
   2 -10   9  628.28   57.72
  -2  10 -10    0.48    6.12
  -2  10 -11  106.49   27.15
  -2   9   4  147.72   26.17
   2  -9  -3  233.16   37.61
   2  -9  -2  273.62   39.99
   2  -9  -1 1765.10  100.99
   2  -9   0   39.12   15.18
   2  -9   1   23.27   11.22
  -2   9  -2  525.93   45.15
   2  -9   2  360.26   44.70
   2  -9   3    4.88    9.24
  -2   9  -3    9.24    7.41
  -2   9  -4  671.29   49.58
  -2   9  -4  608.54   53.33
   2  -9   4  651.11   58.30
   2  -9   5   37.60   13.70
  -2   9  -5   23.90    9.46
   2  -9   6 1108.18   75.92
  -2   9  -6  917.19   65.09
   2  -9   7  166.09   29.17
  -2   9  -7  141.51   25.97
   2  -9   8  303.56   39.95
  -2   9  -8  318.37   41.92
  -2   9  -9  354.38   45.07
   2  -9   9  406.31   45.52
  -2   9 -10  286.69   42.07
   2  -9  10  366.73   43.71
  -2   9 -11  667.60   66.40
  -2   9 -12   -0.64    7.34
  -2   8   5   10.43    5.84
   2  -8  -5   -1.08    6.81
  -2   8   4  220.92   29.71
   2  -8  -4  209.59   34.49
   2  -8  -3    4.38    8.30
   2  -8  -2  309.92   39.10
   2  -8  -1  348.87   41.26
   2  -8   0  301.83   37.73
   2  -8   1 2390.03  110.63
  -2   8  -1 2766.93   97.06
  -2   8  -2  489.88   41.71
  -2   8  -2  528.18   37.25
   2  -8   3  400.21   44.72
  -2   8  -3  497.90   39.25
  -2   8  -3  511.61   45.17
  -2   8  -4 1027.65   61.06
   2  -8   4  997.66   68.86
   2  -8   5  252.96   35.61
  -2   8  -5  242.75   30.69
  -2   8  -6  581.55   50.51
   2  -8   6  623.95   55.24
   2  -8   7  -21.80   11.25
  -2   8  -7    5.21    7.22
   2  -8   8  795.50   61.68
  -2   8  -8  670.54   59.13
   2  -8   9  110.67   24.22
  -2   8  -9   64.74   19.36
  -2   8 -10  189.34   33.97
   2  -8  10  261.13   35.79
  -2   8 -11  123.34   28.46
  -2   8 -12   41.11   17.32
  -2   7   6  301.67   32.47
  -2   7   5  168.08   23.97
   2  -7  -5  210.67   31.66
   2  -7  -4 1370.05   80.33
   2  -7  -3   77.35   17.93
   2  -7  -2  212.81   29.57
  -2   7   1  524.65   32.15
   2  -7  -1  536.82   46.70
  -2   7   0  345.90   27.98
   2  -7   0  318.54   36.24
   2  -7   0  274.85   15.46
   2  -7   1  225.04   30.82
  -2   7  -1  261.46   26.41
   2  -7   2  169.16   26.81
  -2   7  -2  177.70   20.90
  -2   7  -2  163.62   23.48
  -2   7  -3 4351.23  135.41
   2  -7   3 3929.52  138.09
  -2   7  -3 4060.83  119.94
  -2   7  -4  508.82   41.53
   2  -7   4  477.04   45.27
  -2   7  -5  660.61   50.31
   2  -7   5  711.11   55.45
   2  -7   6  628.50   52.34
  -2   7  -6  581.27   49.59
  -2   7  -7  290.15   36.91
   2  -7   7  339.83   39.52
  -2   7  -8 1527.42   89.26
   2  -7   8 1727.98   88.88
  -2   7  -9   18.45   11.64
  -2   7 -10  168.41   32.24
  -2   7 -11  -11.16    9.48
  -2   7 -12  142.78   31.01
   2  -6  -8   -9.59   13.53
   2  -6  -7  308.51   36.03
   2  -6  -6   -2.33    8.22
  -2   6   6   14.05    7.00
   2  -6  -5  946.43   61.80
  -2   6   5  952.33   52.94
   2  -6  -5  843.85   54.27
   2  -6  -4  326.51   34.98
   2  -6  -4  274.00   29.26
   2  -6  -3  450.19   40.05
   2  -6  -2 3364.58  115.28
   2  -6  -1  284.68   31.63
   2  -6  -1  276.91   13.19
  -2   6   1  314.27   21.64
  -2   6   0  515.12   18.04
   2  -6   0  508.48   43.04
  -2   6  -1  442.19   32.74
   2  -6   1  428.67   39.75
  -2   6  -1  470.18   29.14
   2  -6   2   28.85   12.28
  -2   6  -2   15.88    6.67
  -2   6  -2    9.39    5.87
  -2   6  -3  929.62   51.07
   2  -6   3  933.31   60.71
   2  -6   4   65.40   16.42
  -2   6  -4   50.96   13.72
  -2   6  -5 2140.97   90.41
   2  -6   5 2352.71  100.04
  -2   6  -6  314.80   35.54
   2  -6   6  386.13   38.52
  -2   6  -7 1537.56   83.24
  -2   6  -8  451.85   46.30
  -2   6  -9  104.18   23.00
  -2   6 -10  711.40   62.91
  -2   6 -11   15.54    6.87
  -2   6 -12  135.15   30.29
   2  -5  -9  268.11   34.95
   2  -5  -8   40.96   11.71
   2  -5  -7  762.69   53.03
  -2   5   6    3.31    3.11
   2  -5  -6   13.18    4.89
   2  -5  -5  566.51   43.94
  -2   5   5  644.02   38.64
   2  -5  -5  553.76   40.10
   2  -5  -4    3.10    5.15
   2  -5  -4   12.97    6.46
   2  -5  -3  612.74   42.11
   2  -5  -3  637.87   38.27
  -2   5   2  174.86   10.57
   2  -5  -2  202.74   20.94
   2  -5  -2  202.95   24.07
   2  -5  -2  175.72    9.59
  -2   5   1   77.10    9.11
   2  -5  -1   76.21    6.90
   2  -5  -1   61.72   13.91
  -2   5   0 6448.76  128.43
  -2   5   0 6552.91  116.16
   2  -5   0 6214.00  159.31
  -2   5  -1 1696.53   63.67
  -2   5  -1 1788.59   55.25
  -2   5  -2 1644.19   59.74
   2  -5   2 1620.16   75.61
  -2   5  -3 1951.98   72.14
   2  -5   3 2020.02   85.94
   2  -5   4   16.35    7.78
  -2   5  -4   -1.60    5.91
  -2   5  -5 1259.85   65.98
  -2   5  -6   16.53    6.79
  -2   5  -7  885.86   60.05
  -2   5  -8   28.86   10.89
  -2   5  -9  661.30   56.21
  -2   5 -10   24.44   11.77
  -2   5 -11   18.56   11.71
  -2   5 -12  492.48   55.25
   2  -4  -9   90.22   19.13
   2  -4  -8  524.46   43.29
   2  -4  -7   62.22   13.96
  -2   4   7   74.30   12.50
  -2   4   6  147.18   16.67
   2  -4  -6  116.66   17.94
   2  -4  -5 2879.15   90.69
   2  -4  -5 3097.95   97.98
   2  -4  -5 3126.07   65.33
  -2   4   5 2967.84   82.29
   2  -4  -4  213.58   16.64
   2  -4  -4  243.44   24.21
   2  -4  -4  260.38   13.40
   2  -4  -4  278.94   24.25
   2  -4  -3  367.15   26.67
  -2   4   3  398.10   21.58
   2  -4  -3  380.45   29.88
   2  -4  -3  361.93   17.09
   2  -4  -2  232.51   20.07
   2  -4  -2  266.00   24.82
  -2   4   2  196.38   10.54
   2  -4  -2  241.03   11.95
   2  -4  -1 1468.80   50.72
   2  -4  -1 1373.15   33.80
   2  -4  -1 1422.06   60.21
  -2   4   1 1397.04   36.39
   2  -4   0  565.60   38.47
  -2   4   0  570.94   27.45
  -2   4   0  534.46   19.23
   2  -4   1   12.65    4.15
   2  -4   1    0.74    4.36
  -2   4  -1   14.60    4.28
   2  -4   2 5094.08  137.28
  -2   4  -2 5116.64  109.86
  -2   4  -3  870.45   42.89
  -2   4  -4 3491.55  100.96
  -2   4  -5  409.55   34.13
  -2   4  -6  345.24   33.48
  -2   4  -7 1462.35   74.13
  -2   4  -8    3.02    4.82
  -2   4  -9  171.21   28.15
  -2   4 -10    1.19    6.13
  -2   4 -11  170.50   30.86
  -2   4 -12   24.08   12.60
   2  -3 -10  342.72   37.61
   2  -3  -9    4.82    6.93
   2  -3  -8  474.70   38.82
   2  -3  -7  259.71   26.77
   2  -3  -7  275.53   20.79
  -2   3   7  271.03   21.50
   2  -3  -6 1184.70   54.83
  -2   3   6 1202.09   44.90
   2  -3  -6 1284.61   42.70
   2  -3  -5  211.48   20.89
  -2   3   5  191.10   16.26
   2  -3  -5  211.06   14.48
   2  -3  -5  192.41   20.28
   2  -3  -4   97.35    8.30
   2  -3  -4   92.16   12.78
   2  -3  -4  107.35   11.68
   2  -3  -4   93.44   13.57
   2  -3  -3 5550.49   99.55
  -2   3   3 5865.11   95.48
   2  -3  -3 5852.75   89.64
   2  -3  -3 5715.44  124.49
   2  -3  -2 1198.46   48.19
   2  -3  -2 1210.46   41.94
   2  -3  -2 1171.75   30.27
  -2   3   1 2913.55   52.73
   2  -3  -1 3100.73   85.56
   2  -3  -1 3099.12   57.76
   2  -3  -1 3202.96   71.81
   2  -3   0 1262.05   31.04
  -2   3   0 1199.50   24.37
   2  -3   0 1199.23   53.08
   2  -3   1   41.05    7.69
  -2   3  -1   48.20    6.28
   2  -3   1   42.48    6.43
   2  -3   1   65.89   12.63
  -2   3  -2  339.36   21.03
  -2   3  -3   51.70    9.62
  -2   3  -4 2363.82   75.04
  -2   3  -5 1153.36   54.45
  -2   3  -6 1619.26   69.59
  -2   3  -7   58.11   13.69
  -2   3  -8   -1.81    8.25
  -2   3  -9 1089.92   67.38
  -2   3 -10   59.94   16.76
  -2   3 -11  103.31   22.38
  -2   3 -12   33.90   13.11
   2  -2 -11  320.71   37.00
   2  -2 -10   93.20   18.91
   2  -2  -9    5.53    4.43
   2  -2  -8 1073.66   48.80
   2  -2  -8 1128.86   57.76
   2  -2  -7   14.18    6.54
  -2   2   7   15.74    4.77
   2  -2  -7   10.83    4.00
  -2   2   6 1239.38   40.02
   2  -2  -6 1229.77   52.43
   2  -2  -6 1237.55   45.01
  -2   2   5  198.98   13.99
   2  -2  -5  200.24   15.39
   2  -2  -5  208.44   20.07
   2  -2  -5  209.31   18.25
   2  -2  -5  227.96   20.12
   2  -2  -4 2471.40   55.66
   2  -2  -4 2347.91   62.33
   2  -2  -4 2462.25   65.51
   2  -2  -4 2492.76   67.14
   2  -2  -3    2.64    2.50
   2  -2  -3    6.60    2.14
  -2   2   3    7.66    2.58
   2  -2  -3    3.67    2.63
   2  -2  -3    7.40    2.81
   2  -2  -2   14.33    4.01
   2  -2  -2    8.31    2.08
   2  -2  -2   12.32    4.43
   2  -2  -2   15.06    3.28
  -2   2   2   16.43    3.32
   2  -2  -1 9534.25  148.64
   2  -2  -1 9518.09  141.81
   2  -2  -1 9515.68  170.08
  -2   2   0 2604.47   43.29
  -2   2   0 2564.33   52.75
   2  -2   0 2601.29   44.60
   2  -2   1 2033.42   45.11
  -2   2  -1 2024.78   44.43
  -2   2  -2  225.01   15.54
  -2   2  -3   10.50    4.39
  -2   2  -4 2180.18   67.64
  -2   2  -5    9.75    4.40
  -2   2  -6  419.68   32.58
  -2   2  -7   63.61   13.74
  -2   2  -8 1191.04   64.30
  -2   2  -9    5.23    5.99
  -2   2 -10    4.81    8.47
  -2   2 -11  446.14   38.29
  -2   2 -11  407.32   43.77
  -2   2 -12   -7.36    8.06
   2  -1 -11  421.97   40.72
   2  -1 -10  115.42   20.77
   2  -1 -10  105.03   17.85
   2  -1  -9 1558.33   67.58
   2  -1  -9 1546.62   69.72
   2  -1  -8   56.48   12.34
  -2   1   8   44.21    7.34
   2  -1  -8   43.98   10.85
   2  -1  -7   99.65   14.47
  -2   1   7   84.63    8.93
   2  -1  -7   81.52   13.16
  -2   1   6 3431.93   67.17
   2  -1  -6 3352.92   90.08
   2  -1  -6 3190.60  100.20
   2  -1  -6 3316.47   87.93
   2  -1  -5  171.73   16.81
   2  -1  -5  193.76   18.84
  -2   1   5  211.39   11.69
   2  -1  -5  197.58   17.52
   2  -1  -4 2018.84   59.23
  -2   1   4 2075.74   40.40
   2  -1  -4 2006.01   50.36
   2  -1  -4 1926.61   55.66
   2  -1  -3   44.86    6.72
   2  -1  -3   43.96    6.29
   2  -1  -3   33.24    6.91
  -2   1   3   47.38    8.41
  -2   1   3   49.42    7.82
   2  -1  -3   44.52    6.00
  -2   1   2 1131.92   28.93
   2  -1  -2 1052.92   32.48
   2  -1  -2 1098.95   30.70
  -2   1   2 1004.25   38.14
  -2   1   2 1085.90   29.23
   2  -1  -2 1020.26   28.74
  -2   1   1  140.27    8.96
   2  -1  -1  149.05    9.45
   2  -1  -1  146.78    8.57
   2  -1   0 1304.22   26.15
  -2   1   0 1264.08   25.54
  -2   1   0 1291.39   29.06
   2  -1   0 1381.68   29.62
  -2   1   0 1280.42   31.00
   2  -1   1 5724.61   96.84
  -2   1  -1 5604.98   96.35
  -2   1  -1 5747.26   96.51
  -2   1  -2 2612.09   60.14
   2  -1   2 2576.55   57.27
   2  -1   3 5212.66   99.05
  -2   1  -3 5175.66  104.79
   2  -1   4  214.22   16.53
  -2   1  -4  240.24   19.95
   2  -1   5    9.22    4.10
  -2   1  -5   19.01    6.76
   2  -1   6 1168.60   46.83
  -2   1  -6 1051.18   51.03
  -2   1  -7    9.30    6.49
   2  -1   7    1.81    3.00
   2  -1   8  369.36   29.34
  -2   1  -8  329.31   32.03
  -2   1  -9    2.94    4.26
  -2   1  -9   21.15    8.44
  -2   1 -10  228.91   26.66
  -2   1 -10  249.09   31.18
  -2   1 -11   18.09    9.86
  -2   1 -12   46.64   16.45
   2   0 -12   -2.30    9.42
   2   0 -11  216.51   28.67
   2   0 -11  255.32   30.14
   2   0 -10   35.57   11.55
   2   0 -10   47.51   12.96
   2   0  -9  782.19   50.54
   2   0  -8   62.23   13.16
   2   0  -7 1481.24   65.87
   2   0  -6   19.53    7.26
   2   0  -6   10.48    5.12
   2   0  -5   27.49    7.69
  -2   0   5   20.23    2.84
   2   0  -5   23.73    7.78
  -2   0   5   22.52    4.85
   2   0  -4 4926.49  101.90
  -2   0   4 4987.92   88.65
   2   0  -3 3508.99   72.10
  -2   0   3 3590.20   84.29
   2   0  -3 3345.20   85.55
   2   0  -3 3402.38   54.80
  -2   0   3 3405.63   65.01
   2   0  -2 2421.96   56.78
   2   0  -2 2378.06   46.45
  -2   0   2 2369.92   50.37
   2   0  -2 2376.91   50.03
   2   0  -1  949.85   21.90
  -2   0   1  996.41   22.43
   2   0  -1  893.73   25.45
  -2   0   1  903.60   25.42
  -2   0   0  138.77    9.47
   2   0   0  149.91    9.19
  -2   0   0  163.49    9.68
   2   0   0  144.69    9.01
   2   0   0  156.98    9.99
   2   0   1  158.37   10.91
  -2   0  -1  144.52    5.67
  -2   0  -1  163.93   11.36
  -2   0  -2  127.18    7.52
   2   0   2  140.89   11.56
  -2   0  -2  136.83   11.78
  -2   0  -3 2159.77   58.93
  -2   0  -3 2139.74   46.79
   2   0   3 2154.62   56.43
  -2   0  -4  197.81   13.87
   2   0   4  219.32   17.45
  -2   0  -4  193.13   17.43
   2   0   5 2599.56   71.33
  -2   0  -5 2404.84   62.96
  -2   0  -5 2468.10   74.23
  -2   0  -6   58.37    9.50
   2   0   6   69.23   11.77
  -2   0  -6   56.86   11.11
  -2   0  -7   12.72    5.57
   2   0   7   13.35    5.87
  -2   0  -7   18.31    6.80
  -2   0  -8 1159.11   52.94
   2   0   8 1126.70   53.90
  -2   0  -8 1108.59   58.66
  -2   0  -9   29.73   10.37
  -2   0  -9   12.42    6.87
   2   0   9   22.98    8.20
  -2   0 -10  112.46   20.33
  -2   0 -11   -0.89    5.93
   2   1 -12  619.50   54.52
   2   1 -12  631.12   49.91
   2   1 -11   -9.77    7.25
   2   1 -10    4.13    5.78
   2   1  -9  965.34   62.07
   2   1  -8   78.29   17.30
   2   1  -7  403.30   37.68
   2   1  -6   22.64    9.06
   2   1  -6   26.01    8.53
   2   1  -6   20.17    2.77
  -2  -1   6   24.87    4.69
   2   1  -5 2497.18   40.82
   2   1  -5 2704.15   94.95
  -2  -1   5 2724.62   50.78
   2   1  -4   90.40   14.91
   2   1  -4   68.63   10.30
   2   1  -3  262.25   22.13
   2   1  -3  246.59   16.21
   2   1  -2 4166.62   64.58
   2   1  -2 4216.30   67.59
  -2  -1   1 1627.51   37.78
   2   1  -1 1667.27   37.88
   2   1  -1 1600.33   37.40
   2   1   0 6279.86   98.37
   2   1   0 6159.58  105.23
  -2  -1   0 6223.38   98.75
   2   1   1   41.92    6.24
   2   1   1   28.11    3.62
   2   1   1   35.39    4.34
  -2  -1  -1   32.15    5.78
  -2  -1  -2   94.99    8.13
  -2  -1  -2   96.61   10.52
   2   1   2  103.52   10.99
  -2  -1  -3  634.51   25.40
   2   1   3  663.58   30.68
  -2  -1  -3  640.04   29.98
   2   1   4  191.57   17.50
  -2  -1  -4  188.22   15.05
  -2  -1  -4  192.76   17.54
   2   1   5  314.99   23.81
  -2  -1  -5  280.21   20.41
  -2  -1  -5  249.11   21.61
  -2  -1  -6   27.95    7.24
   2   1   6   32.79    8.36
  -2  -1  -6   48.44   10.01
  -2  -1  -7  816.17   46.04
   2   1   7  884.82   46.65
  -2  -1  -7  835.80   43.25
   2   1   8    6.85    3.30
  -2  -1  -8    7.38    5.79
  -2  -1  -8    6.94    4.96
   2   1   9   72.20   14.68
  -2  -1  -9   83.39   15.85
  -2  -1  -9   56.25   13.73
  -2  -1 -10  206.65   27.59
   2   2 -14   13.15   10.77
   2   2 -13   15.15   10.16
   2   2 -12  140.65   27.78
   2   2 -11  288.21   38.42
   2   2 -10 1190.54   76.35
   2   2  -9   -3.20    8.77
   2   2  -8    5.80    5.99
   2   2  -7 1528.00   33.89
   2   2  -7 1529.30   80.90
  -2  -2   7 1538.68   39.49
  -2  -2   6  475.31   16.38
   2   2  -6  581.24   39.67
   2   2  -6  504.64   16.66
   2   2  -6  596.15   47.28
   2   2  -5 2102.46   71.03
   2   2  -5 2089.19   86.95
   2   2  -4  142.47   19.54
   2   2  -4  181.40   17.32
   2   2  -3  448.47   29.18
   2   2  -3  436.33   23.68
  -2  -2   3  447.26   15.75
   2   2  -3  455.53   17.66
  -2  -2   2  173.98   11.63
   2   2  -2  176.58   12.82
   2   2  -2  170.41   11.27
   2   2  -1 1057.83   29.85
  -2  -2   1 1077.62   29.61
  -2  -2   0 2710.02   51.98
   2   2   0 2690.79   57.01
   2   2   0 2733.96   64.60
   2   2   0 2754.21   51.53
   2   2   1 1425.48   31.52
   2   2   1 1360.73   44.84
   2   2   2 4157.86   68.96
  -2  -2  -2 4077.47   88.83
   2   2   2 4051.35   92.42
  -2  -2  -2 4045.14   84.25
  -2  -2  -3   38.30    6.95
  -2  -2  -3   45.98    8.29
   2   2   3   32.68    7.60
  -2  -2  -4  188.43   16.73
   2   2   4  198.43   19.34
  -2  -2  -4  187.34   17.97
   2   2   5  906.17   44.65
  -2  -2  -5  819.08   38.93
  -2  -2  -5  885.68   42.37
  -2  -2  -6    5.59    4.83
  -2  -2  -6    7.87    3.98
   2   2   6    7.04    3.19
  -2  -2  -7  148.57   19.05
   2   2   7  190.74   22.34
  -2  -2  -7  147.92   19.38
  -2  -2  -8   46.51   11.93
  -2  -2  -8   32.61    8.95
  -2  -2  -9  249.58   28.42
   2   2   9  269.16   30.35
   2   3 -14    0.62    5.38
   2   3 -13   35.42   14.87
   2   3 -12  121.78   25.98
   2   3 -11    0.05    5.84
   2   3 -10  315.31   41.48
   2   3  -9   23.28   11.10
   2   3  -8 1851.90   97.22
   2   3  -7  298.03   36.26
  -2  -3   7  299.58   19.05
   2   3  -6  280.01   33.99
   2   3  -6  269.36   27.87
  -2  -3   6  289.00   16.18
   2   3  -5 2915.60   88.40
   2   3  -5 2802.27  105.33
  -2  -3   5 2810.63   58.45
   2   3  -4 1025.04   54.40
   2   3  -4  967.69   43.12
  -2  -3   4  940.97   30.65
   2   3  -4 1049.31   37.78
  -2  -3   3 2206.12   54.85
   2   3  -3 2187.06   72.47
   2   3  -3 2205.14   62.71
   2   3  -3 2225.03   56.63
   2   3  -2  205.23   15.29
  -2  -3   2  208.06   16.17
   2   3  -1  466.74   20.54
  -2  -3   1  483.45   19.38
  -2  -3   1  493.60   27.93
  -2  -3   0  535.03   18.37
   2   3   0  543.15   19.28
  -2  -3   0  557.38   30.95
   2   3   0  520.38   28.40
   2   3   1  642.68   18.51
   2   3   1  634.85   33.16
   2   3   2  236.38   20.99
   2   3   2  228.64    9.20
  -2  -3  -3   50.35    9.28
   2   3   3   47.77    3.92
  -2  -3  -3   52.65    9.49
   2   3   3   59.78   11.53
  -2  -3  -4 2251.43   70.82
   2   3   4 2259.36   76.09
  -2  -3  -4 2277.54   70.88
   2   3   5   19.88    7.60
  -2  -3  -5   29.51    8.46
  -2  -3  -5   24.18    8.06
  -2  -3  -6   45.96   10.52
   2   3   6   51.41   11.72
  -2  -3  -6   46.40   10.83
  -2  -3  -7  435.33   34.43
  -2  -3  -7  423.67   34.73
   2   3   7  470.08   37.71
   2   3   8    1.42    4.28
   2   4 -14   49.37   19.58
   2   4 -13  600.75   64.07
   2   4 -12   16.78    9.63
   2   4 -11    7.54    7.79
   2   4 -10  817.10   69.81
   2   4  -9    9.43    8.79
   2   4  -8  630.46   57.40
  -2  -4   8  761.36   34.12
  -2  -4   7    8.51    3.21
   2   4  -7   25.27   11.75
  -2  -4   6 1557.81   48.14
   2   4  -6 1740.85   89.39
   2   4  -6 1606.38   71.18
   2   4  -5    9.40    6.18
   2   4  -5    0.12    3.17
  -2  -4   5    3.30    2.58
   2   4  -4 1705.10   73.10
   2   4  -4 1697.17   63.38
  -2  -4   4 1669.00   53.10
   2   4  -3 1327.08   58.01
   2   4  -3 1472.86   52.85
  -2  -4   3 1359.17   49.69
   2   4  -2 1076.74   40.83
  -2  -4   2 1067.20   45.28
   2   4  -1 4422.93   88.31
  -2  -4   1 4244.34  108.28
  -2  -4   0  132.01   17.22
   2   4   0  121.07    9.71
   2   4   1   88.50   13.79
   2   4   2  326.41   27.30
   2   4   3  272.18   25.92
   2   4   4  197.93   22.98
   2   4   5   26.69    9.52
   2   4   6  517.93   40.87
  -2  -4  -6  494.36   38.68
   2   4   7   18.35    7.12
   2   4   8  228.61   29.68
   2   5 -13  143.02   32.46
   2   5 -12   75.82   23.46
   2   5 -11  859.77   75.07
   2   5 -10  128.80   28.83
   2   5  -9  207.50   34.16
   2   5  -8  918.45   69.91
  -2  -5   8  991.10   41.88
   2   5  -7  318.93   41.34
  -2  -5   7  241.23   20.32
  -2  -5   6  736.99   37.26
   2   5  -6  823.41   61.06
   2   5  -5  205.76   28.11
  -2  -5   5  207.24   19.77
   2   5  -4  674.13   46.61
  -2  -5   4  710.09   38.70
   2   5  -3    7.90    4.85
  -2  -5   3    9.56    4.52
  -2  -5   2 1021.02   50.62
  -2  -5   1  615.34   40.90
  -2  -5   0   88.24   16.21
   2   5   1 1994.50   75.85
   2   5   2   56.95   12.87
   2   5   3  138.44   20.42
   2   5   4  699.87   47.85
   2   5   5   26.51   10.12
   2   5   6   72.14   16.83
   2   5   7   39.41   13.58
   2   6 -13   71.86   22.83
   2   6 -12   28.74   16.04
   2   6 -11  107.27   27.58
   2   6 -10    1.35    8.55
   2   6  -9 1705.27  101.55
   2   6  -8  197.72   33.92
   2   6  -8  182.80   30.53
   2   6  -7  415.16   47.50
  -2  -6   7  384.39   29.32
   2   6  -6  639.72   55.17
  -2  -6   6  648.53   39.60
   2   6  -5  117.56   22.09
  -2  -6   5  117.21   16.93
   2   6  -4 1604.76   77.39
  -2  -6   4 1652.47   68.96
   2   6  -3    4.02    4.57
  -2  -6   3    1.55    5.42
  -2  -6   2   13.70    5.74
  -2  -6   1  131.25   21.11
  -2  -6   0  904.66   57.07
   2   6   0  922.60   53.87
   2   6   1   41.57   12.28
   2   6   2   12.82    7.53
   2   6   3  953.25   59.36
   2   6   4   18.52   10.16
   2   6   5  154.56   25.03
   2   7 -13   34.15   17.13
   2   7 -12   68.67   21.97
   2   7 -11  166.70   33.37
   2   7 -10   -2.38    8.39
   2   7  -9  296.87   42.18
   2   7  -8   59.47   19.14
   2   7  -7  459.58   50.47
  -2  -7   7  418.78   33.94
   2   7  -6  122.65   24.50
  -2  -7   6  101.64   17.43
  -2  -7   5 1081.79   59.43
   2   7  -5 1082.79   69.97
   2   7  -4  482.48   43.48
  -2  -7   4  486.51   40.38
   2   7  -3  100.96   18.78
  -2  -7   3   80.19   16.83
   2   7  -2 1680.07   77.87
  -2  -7   2 1713.27   83.44
  -2  -7   1    7.77    6.19
   2   7   0  148.05   22.85
  -2  -7   0  140.36   24.83
   2   7   1  199.66   28.00
   2   7   2   66.95   16.51
   2   7   3   19.01    9.36
   2   7   4   41.00   14.22
   2   8 -12  552.88   63.81
   2   8 -11  164.00   34.60
   2   8 -10  282.65   42.52
   2   8  -9  481.34   57.33
   2   8  -9  370.95   47.40
   2   8  -8    3.88    7.74
   2   8  -7  382.21   47.36
  -2  -8   7  330.06   33.67
   2   8  -6   79.46   20.51
  -2  -8   6   86.56   18.13
   2   8  -5  369.93   42.03
  -2  -8   5  345.81   36.78
   2   8  -4   17.38   10.03
  -2  -8   4   10.71    7.33
   2   8  -3  618.67   50.86
  -2  -8   3  626.77   52.13
   2   8  -2    8.11    5.41
  -2  -8   2    5.24   10.69
  -2  -8   1   -2.10    5.57
   2   8   0 1053.75   69.20
   2   8   1   13.51    8.97
   2   8   2   40.17   13.78
   2   9 -12   30.29   16.13
   2   9 -11   -3.28    7.58
   2   9 -10  592.18   63.15
   2   9  -9   36.21   16.52
   2   9  -9   22.17   12.87
   2   9  -8  623.04   65.02
   2   9  -7  147.05   30.32
  -2  -9   6   51.08   15.17
   2   9  -6   47.22   15.68
   2   9  -5  876.54   69.33
  -2  -9   5  847.77   63.22
   2   9  -4   51.78   16.68
  -2  -9   4   55.38   16.89
   2   9  -3   40.07   14.27
  -2  -9   3   18.36   11.71
   2   9  -2   26.53    9.29
  -2  -9   2    9.60    8.74
   2   9  -1  303.00   36.90
   2   9  -1  254.34   35.86
  -2  -9   1  267.36   38.79
   2   9   0    3.48    6.65
   2  10 -11  -22.73   13.88
   2  10 -10   39.72   17.59
   2  10  -9  124.03   30.39
   2  10  -9  157.10   30.67
   2  10  -8  268.95   43.63
   2  10  -7   41.53   18.53
   2  10  -6  381.32   49.08
  -2 -10   6  390.15   44.15
   2  10  -5   11.15    7.28
  -2 -10   5  -25.86   12.50
   2  10  -4    1.29    8.94
  -2 -10   4    0.85    6.34
   2  10  -3  449.49   49.21
  -2 -10   3  422.99   50.11
   2  10  -2   -7.67    8.65
  -2 -10   2   -3.22    7.58
   2  11  -9   29.10   14.79
   2  11  -8  102.59   27.97
   2  11  -8   77.81   22.36
   2  11  -7    0.89   11.56
   2  11  -6   14.26   10.48
   2  11  -5   -3.87    7.41
  -2 -11   5    9.56    9.51
   2  11  -4  420.47   51.96
  -2 -11   4  390.81   49.94
   3 -12   3  455.03   57.37
   3 -12   4    5.01    9.11
   3 -12   5    4.69   11.29
   3 -12   6  591.09   63.51
   3 -12   7   45.87   17.71
   3 -12   8   90.17   25.00
   3 -12   9   18.91   12.38
   3 -11   0   32.43   17.05
   3 -11   1  348.13   48.84
   3 -11   2   27.90   16.27
   3 -11   3  125.01   30.38
   3 -11   4   18.65   12.50
   3 -11   5  321.75   45.96
   3 -11   6  -13.67   11.32
   3 -11   7   10.09    8.18
  -3  11  -8  488.22   50.45
   3 -11   8  648.39   63.02
  -3  11  -9  185.76   32.39
   3 -11   9  229.73   36.37
  -3  11 -10  189.36   34.55
  -3  11 -11    3.87    7.63
   3 -10  -2  207.79   37.70
   3 -10  -1  -14.51   11.78
   3 -10   0  623.82   62.07
   3 -10   1    6.30   10.09
   3 -10   2    4.31    8.09
   3 -10   3 1218.42   86.32
   3 -10   4   25.95   13.99
   3 -10   5  141.15   28.89
  -3  10  -6   19.58    9.61
   3 -10   6   23.14   12.61
   3 -10   7  291.79   41.28
  -3  10  -7  202.26   30.79
  -3  10  -8   24.22   12.23
   3 -10   8   -1.24    8.41
  -3  10  -9    6.92    7.83
   3 -10   9   37.26   17.21
   3 -10  10  304.57   42.88
  -3  10 -10  269.51   41.62
  -3  10 -11   47.48   18.24
   3  -9  -4   45.99   17.98
   3  -9  -3   32.94   15.09
   3  -9  -2  312.68   42.23
   3  -9  -1  121.17   25.77
   3  -9   0  223.90   35.14
   3  -9   1   34.22   14.27
   3  -9   2 1543.52   93.12
   3  -9   3   -0.32    6.61
   3  -9   4   45.52   17.28
  -3   9  -4   60.58   14.09
  -3   9  -5  984.02   62.14
   3  -9   5 1317.99   84.80
   3  -9   6  202.92   34.05
  -3   9  -6  240.16   31.71
  -3   9  -7  723.72   58.62
   3  -9   7  851.05   68.84
  -3   9  -8   65.89   18.73
   3  -9   8   88.99   22.28
  -3   9  -9   34.68   14.35
   3  -9   9   59.87   18.31
  -3   9 -10   35.22   13.77
   3  -9  10   44.40   17.04
  -3   9 -11   36.78   16.28
   3  -8  -6  137.35   28.03
  -3   8   5  369.00   37.39
   3  -8  -5  378.20   45.96
   3  -8  -4  171.98   29.91
   3  -8  -3  886.29   67.01
   3  -8  -2   57.01   17.08
   3  -8  -1   19.38    9.64
   3  -8   0  864.74   66.50
   3  -8   1   25.24   12.60
  -3   8  -1   52.02   12.63
  -3   8  -2  298.58   24.31
   3  -8   2  332.49   41.11
   3  -8   3   53.41   17.33
  -3   8  -3   52.25   11.64
  -3   8  -4 1251.44   64.30
   3  -8   4 1396.10   85.11
   3  -8   5   88.68   21.92
  -3   8  -5   45.43   12.87
   3  -8   6  169.75   29.16
  -3   8  -6  150.34   25.54
   3  -8   7 1538.45   90.57
  -3   8  -7 1307.35   78.90
  -3   8  -8  112.53   23.96
   3  -8   8  186.61   31.74
  -3   8  -9  864.87   69.95
   3  -8   9 1149.82   78.79
  -3   8 -10   -5.12   10.07
  -3   8 -11   34.16   17.43
  -3   8 -12   74.13   26.70
   3  -7  -7   32.01   12.46
   3  -7  -6   92.42   20.47
   3  -7  -6  103.43   22.45
  -3   7   5  112.94   18.71
   3  -7  -5   93.23   21.05
   3  -7  -4  175.62   28.41
   3  -7  -3  150.70   26.10
   3  -7  -2  118.86   22.58
   3  -7  -1 2528.11   58.13
   3  -7  -1 2622.51  109.34
   3  -7   0   80.78    9.89
  -3   7   0   80.78   13.66
   3  -7   0   82.32   19.02
   3  -7   1   32.81   10.82
  -3   7  -1   32.37    6.40
   3  -7   2 1938.69   96.90
  -3   7  -2 1866.07   63.14
   3  -7   3   31.22   12.88
  -3   7  -3   46.58   11.21
   3  -7   4 1181.05   74.51
  -3   7  -4  981.17   55.35
   3  -7   5   58.80   17.20
  -3   7  -5   23.15    8.86
  -3   7  -6  473.03   43.19
   3  -7   6  468.84   47.19
  -3   7  -7   -3.29    5.73
  -3   7  -8  187.53   30.78
  -3   7  -9  215.26   33.86
  -3   7 -10  203.34   34.17
  -3   7 -11  592.87   60.64
  -3   7 -12   -4.41    7.96
   3  -6  -8  258.12   34.49
   3  -6  -7  282.14   34.63
   3  -6  -6  904.78   58.27
  -3   6   6  899.33   49.99
   3  -6  -6  775.11   56.47
   3  -6  -5   23.80    9.95
   3  -6  -5   38.75   12.21
   3  -6  -4   19.53    8.86
   3  -6  -4   23.22    9.59
   3  -6  -3  293.44   28.78
   3  -6  -3  372.95   36.49
  -3   6   2  161.87   13.69
   3  -6  -2  164.68   11.84
   3  -6  -2  170.37   24.74
   3  -6  -1  790.31   29.33
  -3   6   1  922.89   38.20
   3  -6  -1  858.87   56.90
   3  -6   0   11.52    8.03
  -3   6   0    5.66    1.49
  -3   6   0    8.60    1.52
  -3   6  -1 3073.35   68.45
   3  -6   1 2845.28  112.00
   3  -6   2  347.56   38.02
  -3   6  -2  257.21   20.95
  -3   6  -3  976.34   47.83
   3  -6   3 1095.12   68.93
  -3   6  -4 2140.46   80.44
   3  -6   4 2361.95  102.60
  -3   6  -5  744.60   50.01
  -3   6  -6 1234.20   69.18
  -3   6  -7   -6.21    6.33
  -3   6  -8  259.56   34.26
  -3   6  -9   26.54   12.78
  -3   6 -10   28.33   13.16
  -3   6 -11   36.25   15.34
  -3   6 -12   31.32   15.13
   3  -5  -9  157.14   26.91
   3  -5  -8    5.70    6.45
   3  -5  -7  285.37   32.17
  -3   5   6  500.20   33.22
   3  -5  -6  476.62   40.08
   3  -5  -6  493.99   39.90
   3  -5  -5  138.74   19.65
   3  -5  -5  142.19   21.29
   3  -5  -4 2230.25   79.38
   3  -5  -4 2161.96   58.53
   3  -5  -4 2290.66   86.84
   3  -5  -3   94.74    9.40
   3  -5  -3   93.70   14.94
   3  -5  -3   92.21   16.62
   3  -5  -2  348.71   18.07
  -3   5   2  292.78   15.36
   3  -5  -2  335.90   32.19
   3  -5  -2  379.82   28.38
   3  -5  -1 2237.50   54.32
   3  -5  -1 2353.74   90.34
   3  -5   0   28.29   11.65
  -3   5   0   12.80    2.07
   3  -5   1  536.54   29.04
  -3   5  -1  617.95   24.35
   3  -5   1  644.15   48.28
   3  -5   2   11.41    6.84
  -3   5  -2   12.95    4.89
  -3   5  -3 2698.13   80.81
   3  -5   3 2910.82  107.16
  -3   5  -4  258.60   25.19
  -3   5  -5  450.76   36.27
  -3   5  -6  571.51   43.63
  -3   5  -7  428.33   40.03
  -3   5  -8 1716.54   87.08
  -3   5  -9   23.04    7.75
  -3   5 -10   61.80   17.75
  -3   5 -11  130.60   27.56
  -3   5 -12   15.25   11.92
   3  -4 -10   21.74   11.22
   3  -4  -9  650.80   50.75
   3  -4  -8   -1.56    7.12
   3  -4  -7  181.67   24.22
   3  -4  -6  211.86   24.38
   3  -4  -6  186.04   22.61
  -3   4   6  198.86   18.46
   3  -4  -5 1105.53   52.77
   3  -4  -5 1090.84   45.63
   3  -4  -5 1155.75   30.47
   3  -4  -5 1182.02   55.75
   3  -4  -4  740.58   39.85
   3  -4  -4  697.09   30.29
   3  -4  -4  662.76   17.79
   3  -4  -4  759.94   43.20
   3  -4  -3  176.46   18.30
   3  -4  -3  183.84   21.04
   3  -4  -3  179.14   13.27
   3  -4  -2 5694.05  102.77
   3  -4  -2 5896.35  122.84
   3  -4  -2 5770.37  140.23
   3  -4  -1  426.63   25.95
   3  -4  -1  404.52   20.13
   3  -4  -1  397.19   33.04
   3  -4   0  906.52   28.39
  -3   4   0  894.87   20.84
   3  -4   0  840.47   51.80
   3  -4   1 1469.79   49.96
  -3   4  -1 1360.13   37.49
   3  -4   1 1383.48   42.89
   3  -4   1 1514.64   71.02
  -3   4  -2  659.22   29.81
  -3   4  -3 2170.23   66.26
  -3   4  -4   28.03    8.33
  -3   4  -5  802.01   46.37
  -3   4  -6  124.45   19.26
  -3   4  -7  864.89   55.35
  -3   4  -8  298.85   34.21
  -3   4  -9  121.39   23.18
  -3   4 -10  741.14   60.93
  -3   4 -11   56.96   18.11
  -3   4 -12  105.15   25.56
   3  -3 -10  377.38   39.65
   3  -3  -9  384.68   37.16
   3  -3  -8  177.46   23.50
  -3   3   7 1842.85   55.23
   3  -3  -7 1894.93   75.31
   3  -3  -6   -0.39    1.94
   3  -3  -6   -1.91    3.31
   3  -3  -6   -3.20    5.38
  -3   3   6    8.34    3.17
   3  -3  -6    3.40    4.93
   3  -3  -5  401.42   29.13
   3  -3  -5  408.15   26.69
   3  -3  -5  412.57   19.56
   3  -3  -5  414.25   28.72
   3  -3  -4  326.55   24.04
   3  -3  -4  282.25   19.02
   3  -3  -4  329.01   14.52
   3  -3  -4  339.23   25.48
   3  -3  -3   44.46    4.00
  -3   3   3   47.69    5.59
   3  -3  -3   55.46    9.40
   3  -3  -3   56.23    7.49
   3  -3  -3   54.90   10.33
   3  -3  -2  568.19   27.51
   3  -3  -2  548.26   23.29
   3  -3  -2  567.64   34.66
   3  -3  -1    5.64    4.51
   3  -3  -1   10.57    3.80
   3  -3  -1   12.72    3.53
   3  -3  -1    8.82    1.52
   3  -3   0 5200.12   84.06
  -3   3   0 5127.55   81.10
   3  -3   1 2330.95   53.30
  -3   3  -1 2204.39   50.70
  -3   3  -2 2138.19   56.71
  -3   3  -3 2584.57   71.23
  -3   3  -4  451.67   30.01
  -3   3  -5 2326.74   79.39
  -3   3  -6  111.93   17.80
  -3   3  -7  467.24   38.86
  -3   3  -8   23.92    9.38
  -3   3  -9  150.97   24.92
  -3   3 -10   42.22   14.00
  -3   3 -11   23.04    9.49
   3  -2 -11   18.22   10.47
   3  -2 -10  539.72   44.97
   3  -2  -9   14.94    8.73
   3  -2  -8  517.10   38.58
   3  -2  -8  516.73   32.91
  -3   2   7  113.19   10.48
   3  -2  -7   98.42   17.25
   3  -2  -7   97.66   15.71
   3  -2  -7  121.99   14.97
   3  -2  -6  244.12   19.56
   3  -2  -6  228.60   23.20
  -3   2   6  248.51   14.61
   3  -2  -6  193.26   17.56
   3  -2  -6  223.88   21.52
   3  -2  -5 4872.10  110.58
   3  -2  -5 5099.33  114.20
   3  -2  -5 5168.07  105.00
  -3   2   5 5097.91   89.02
   3  -2  -5 5082.62  106.23
   3  -2  -4  865.64   34.42
  -3   2   4  883.00   38.53
   3  -2  -4  911.40   34.72
   3  -2  -4  919.01   36.49
   3  -2  -4  945.32   38.83
  -3   2   3  392.85   16.24
   3  -2  -3  386.86   21.41
   3  -2  -3  385.98   21.78
   3  -2  -3  371.31   23.19
   3  -2  -3  338.00   18.75
   3  -2  -2  524.79   23.43
   3  -2  -2  525.74   22.61
   3  -2  -2  520.66   30.36
   3  -2  -1   12.49    3.52
   3  -2  -1   15.58    2.68
   3  -2  -1   13.58    5.26
   3  -2  -1    9.59    3.67
  -3   2   0 1169.17   30.69
  -3   2   0 1165.82   30.34
  -3   2  -1   84.26    8.49
  -3   2  -2 2190.48   57.06
  -3   2  -3  930.30   39.08
  -3   2  -4 2624.36   76.89
  -3   2  -5  266.41   24.81
  -3   2  -6  393.42   32.18
  -3   2  -7 2194.38   85.40
  -3   2  -8   39.69   12.21
  -3   2  -9  196.65   27.43
  -3   2 -10   18.67   11.46
  -3   2 -11   37.87   13.63
   3  -1 -12  116.45   23.10
   3  -1 -11   72.18   17.58
   3  -1 -10  936.90   57.09
   3  -1 -10  894.64   53.36
   3  -1  -9   -2.93    3.76
   3  -1  -9    0.77    4.57
   3  -1  -8  193.05   22.60
   3  -1  -8  222.23   23.75
   3  -1  -7    5.40    3.86
  -3   1   7    4.32    1.71
   3  -1  -7    8.55    6.08
   3  -1  -7    1.75    3.70
   3  -1  -6  802.94   42.88
  -3   1   6  790.95   21.68
   3  -1  -6  818.86   44.18
   3  -1  -6  854.87   40.66
   3  -1  -5  333.04   27.29
   3  -1  -5  293.52   22.12
  -3   1   5  278.18   10.46
   3  -1  -5  274.36   16.51
   3  -1  -4  222.29   16.90
  -3   1   4  234.87   19.37
   3  -1  -4  196.37   13.08
  -3   1   4  257.20   21.49
   3  -1  -3 5972.66  105.47
   3  -1  -3 5812.89  105.98
   3  -1  -2 1832.71   44.29
   3  -1  -2 1814.53   46.32
   3  -1  -2 1711.64   53.53
   3  -1  -2 1888.91   43.35
   3  -1  -1 4352.40   81.86
   3  -1  -1 4267.10   71.34
   3  -1  -1 4289.67   75.23
  -3   1   1 4300.82   74.62
   3  -1   0 1481.76   28.47
   3  -1   0 1467.44   38.98
   3  -1   0 1496.34   40.66
  -3   1   0 1523.28   38.97
   3  -1   1  997.50   33.12
  -3   1  -1  986.92   32.93
   3  -1   2 2529.74   62.20
  -3   1  -2 2471.98   62.38
  -3   1  -3   17.06    5.43
   3  -1   3    8.31    3.68
  -3   1  -4 1437.56   53.51
   3  -1   4 1440.82   50.55
   3  -1   5  350.51   25.59
  -3   1  -5  364.41   27.99
  -3   1  -6  845.68   46.66
   3  -1   6  866.42   43.34
  -3   1  -7   76.91   14.74
  -3   1  -7   80.38   11.87
   3  -1   7   83.70   14.25
  -3   1  -8   12.13    7.64
   3  -1   8    3.88    4.21
  -3   1  -8   12.57    6.13
  -3   1  -9 1036.46   51.66
  -3   1  -9  925.23   59.45
  -3   1 -10  231.36   30.55
  -3   1 -11  132.49   25.86
   3   0 -12  112.22   21.34
   3   0 -11  393.14   39.46
   3   0 -11  391.23   37.81
   3   0 -10   68.49   15.92
   3   0 -10  108.26   18.50
   3   0  -9   92.99   18.10
   3   0  -8 1920.40   83.74
   3   0  -8 1881.18   85.61
   3   0  -7  358.39   32.04
   3   0  -7  421.72   37.26
   3   0  -6 1012.24   48.58
   3   0  -6  999.30   57.14
  -3   0   6 1064.64   41.33
   3   0  -5  594.05   32.36
  -3   0   5  559.89   26.90
   3   0  -4  644.06   30.18
   3   0  -4  606.54   37.31
   3   0  -4  581.52   16.32
  -3   0   3   54.67    3.61
   3   0  -3   67.50   10.47
   3   0  -3   68.94    6.83
   3   0  -3   63.31    8.42
   3   0  -2    8.51    2.06
  -3   0   2   13.12    2.49
   3   0  -2   10.70    3.40
   3   0  -1 7068.00  121.32
   3   0  -1 7194.99  115.22
   3   0   0 1705.21   43.40
   3   0   0 1773.48   43.73
  -3   0  -1 3611.89   77.40
   3   0   1 3512.64   75.29
   3   0   2  269.05   18.43
  -3   0  -2  276.82   11.06
  -3   0  -2  282.92   19.22
  -3   0  -3   94.92    7.95
   3   0   3   85.87   11.29
  -3   0  -3   87.05   11.60
  -3   0  -4 3504.95   90.71
   3   0   4 3693.13   90.33
  -3   0  -4 3546.06   73.10
  -3   0  -5   17.33    6.09
  -3   0  -5   33.01    6.40
   3   0   5   31.50    8.13
  -3   0  -6  445.63   26.43
   3   0   6  468.35   32.54
  -3   0  -6  403.09   31.35
  -3   0  -7   11.29    6.81
   3   0   7   11.03    4.82
  -3   0  -7   12.71    4.62
   3   0   8  474.42   36.75
  -3   0  -8  398.47   35.64
  -3   0  -8  417.01   30.82
   3   0   9   37.00    9.89
  -3   0  -9   18.18    8.08
  -3   0 -10    7.76    5.73
   3   1 -12    3.34    5.93
   3   1 -11  312.43   38.70
   3   1 -10  -14.05    8.78
   3   1  -9 1219.34   73.76
   3   1  -8   20.05    8.99
   3   1  -8   37.77   13.30
   3   1  -7  174.53   22.57
   3   1  -7  169.19   25.49
  -3  -1   7  168.52   13.12
   3   1  -6 4895.42  121.84
   3   1  -5  909.44   53.82
   3   1  -5  910.21   42.00
   3   1  -4 2243.94   61.34
   3   1  -4 2250.13   77.34
   3   1  -3  155.78   13.88
   3   1  -3  166.17    7.72
   3   1  -3  172.33   16.95
   3   1  -3  169.51    9.11
   3   1  -2   34.01    5.87
   3   1  -2   39.12    5.14
   3   1  -1 2184.11   51.12
   3   1  -1 2131.23   50.50
   3   1   0  136.40    7.63
   3   1   0  151.72   11.22
   3   1   0  137.50   12.00
   3   1   1 2577.35   46.30
   3   1   1 2581.68   65.02
   3   1   1 2577.77   55.64
  -3  -1  -1 2537.51   65.30
  -3  -1  -2  937.34   28.65
   3   1   2  929.54   38.16
   3   1   2  954.75   31.00
  -3  -1  -2  899.25   37.72
  -3  -1  -3 3966.68   79.12
   3   1   3 4034.24   95.78
  -3  -1  -3 4007.04   95.28
  -3  -1  -4   54.88    8.01
   3   1   4   61.93   10.73
  -3  -1  -4   72.46   11.59
  -3  -1  -5  126.30   13.55
   3   1   5  106.97   15.20
  -3  -1  -5  110.53   15.48
  -3  -1  -6 1511.99   54.47
   3   1   6 1548.98   63.72
  -3  -1  -6 1414.89   61.62
  -3  -1  -7   87.15   16.01
  -3  -1  -7  119.71   16.11
   3   1   7   96.00   16.64
   3   1   8  560.88   41.73
  -3  -1  -8  515.59   40.69
  -3  -1  -9   11.29    6.64
   3   1   9   25.00    9.06
  -3  -1 -10   51.12   15.11
   3   2 -13   21.36   11.82
   3   2 -12    9.53    9.10
   3   2 -11  533.08   53.73
   3   2 -10   15.51    8.04
   3   2  -9  697.76   60.09
   3   2  -8  -20.48   10.81
   3   2  -8   12.95    9.16
   3   2  -7  919.98   64.42
   3   2  -7  971.23   54.19
   3   2  -6   24.37    8.17
   3   2  -6   23.10    9.79
   3   2  -5  137.77   16.24
   3   2  -5  120.90   20.24
   3   2  -4 5429.62  134.74
   3   2  -4 5391.09  113.68
   3   2  -4 5369.43   86.26
   3   2  -3 2128.59   58.71
   3   2  -3 2147.81   46.58
   3   2  -3 2150.68   50.25
   3   2  -2 4502.89   89.32
   3   2  -2 4616.67   89.18
   3   2  -1  769.12   31.17
   3   2  -1  738.02   26.87
   3   2   0    7.72    2.49
   3   2   0    6.66    2.43
   3   2   1 1426.81   50.52
   3   2   1 1555.41   39.24
  -3  -2  -2   34.46    7.28
   3   2   2   34.66    7.86
   3   2   2   41.30    5.53
  -3  -2  -3 1030.67   39.41
   3   2   3 1140.34   32.82
   3   2   3 1065.88   47.49
  -3  -2  -3 1091.90   46.37
  -3  -2  -4   27.21    6.57
  -3  -2  -4   24.82    7.28
   3   2   4   43.62   10.29
   3   2   4   30.14    4.98
  -3  -2  -5 1167.70   47.70
   3   2   5 1240.76   56.76
  -3  -2  -5 1171.25   53.65
   3   2   6   18.66    7.20
  -3  -2  -6   12.57    4.97
  -3  -2  -6   10.84    3.91
  -3  -2  -7    2.39    4.32
   3   2   7   -1.19    4.02
   3   2   8  971.43   58.30
  -3  -2  -8  846.76   53.63
  -3  -2  -9   85.87   18.59
   3   2   9  100.83   19.08
   3   3 -14  222.74   39.28
   3   3 -13   88.05   23.97
   3   3 -12  529.78   57.83
   3   3 -11   16.57   11.85
   3   3 -10    6.01   10.24
   3   3  -9 2065.43  109.38
   3   3  -8  652.24   49.13
   3   3  -8  735.97   61.32
   3   3  -7  817.09   62.12
   3   3  -7  739.84   48.35
   3   3  -6   39.47   10.39
   3   3  -6   45.07   14.22
   3   3  -5 1101.50   49.54
   3   3  -5 1161.95   63.69
   3   3  -4   53.22   12.15
   3   3  -4   68.20   10.95
   3   3  -4   75.25    8.63
   3   3  -3   13.15    4.97
   3   3  -2 2768.66   67.27
   3   3  -2 2732.49   70.91
   3   3  -1 1071.72   34.83
   3   3  -1 1057.91   42.50
   3   3   0 5088.18  114.07
   3   3   0 5154.93   92.05
   3   3   1   16.65    3.47
   3   3   1   13.87    5.57
   3   3   2   30.86    4.57
   3   3   2   36.77    9.11
   3   3   3 2022.26   72.57
  -3  -3  -4   10.98    5.90
   3   3   4    8.41    5.60
   3   3   5  420.93   34.62
  -3  -3  -5  382.68   29.57
  -3  -3  -5  384.79   31.07
  -3  -3  -6    5.61    5.00
   3   3   6   11.56    6.24
   3   3   7  375.42   36.37
  -3  -3  -7  415.14   35.85
   3   3   8    4.32    6.81
   3   4 -14  117.77   29.70
   3   4 -13  -27.80   15.50
   3   4 -12  192.10   37.03
   3   4 -11   77.56   25.02
   3   4 -10 1226.73   87.82
   3   4  -9   -3.67    7.05
   3   4  -8   19.39    8.64
   3   4  -8   26.04    9.27
   3   4  -7 2646.10  115.94
   3   4  -7 2408.88   89.70
   3   4  -6 1003.40   65.67
   3   4  -6  979.33   53.13
  -3  -4   6  915.29   29.37
   3   4  -5 2888.49  106.86
   3   4  -5 2846.19   89.35
  -3  -4   5 2880.29   67.54
   3   4  -4  101.99   17.24
   3   4  -4  102.46   14.34
  -3  -4   4  100.86   11.98
  -3  -4   3   35.11    7.78
   3   4  -3   35.01    7.48
   3   4  -2  376.26   23.47
   3   4  -1  104.65   11.12
   3   4  -1  115.94   15.46
   3   4   0 1393.22   39.41
   3   4   0 1258.71   54.81
   3   4   1  593.71   21.37
   3   4   1  593.04   37.75
   3   4   2 2349.72   82.68
   3   4   3   10.74    6.55
   3   4   4   42.16   11.88
   3   4   5  874.73   54.48
   3   4   6  195.36   26.75
   3   4   7  283.80   33.15
   3   5 -13    2.84   12.81
   3   5 -12  470.60   58.95
   3   5 -11   54.76   19.54
   3   5 -10  853.73   74.59
   3   5  -9    0.21    5.60
   3   5  -8 1075.30   79.48
   3   5  -7  101.14   23.30
  -3  -5   7  104.79   10.77
   3   5  -7   89.02   17.56
   3   5  -6  276.54   34.82
   3   5  -6  228.00   27.47
  -3  -5   6  208.88   17.68
   3   5  -5 2822.28  108.07
   3   5  -5 2831.09   92.86
  -3  -5   5 2704.71   77.15
   3   5  -4 1064.06   59.96
   3   5  -4 1076.64   51.81
  -3  -5   4 1079.46   48.97
   3   5  -3 3067.89   86.46
  -3  -5   3 2923.74   90.18
  -3  -5   2    6.47    4.60
   3   5  -2    5.35    3.36
   3   5  -1  266.17   19.25
   3   5  -1  271.47   26.24
   3   5   0 1327.11   61.57
   3   5   1    7.96    5.35
   3   5   2  296.32   30.27
   3   5   3   23.47    9.66
   3   5   4 1051.45   62.14
   3   5   5   65.41   15.47
   3   5   6    9.16    4.35
   3   6 -13  654.49   71.42
   3   6 -12   33.25   13.99
   3   6 -11    2.93   11.59
   3   6 -10 1215.08   89.78
   3   6  -9  200.31   36.07
   3   6  -8 1108.50   82.18
   3   6  -7    2.23    8.38
  -3  -6   7    6.39    4.02
   3   6  -6  499.86   48.63
  -3  -6   6  551.57   34.64
   3   6  -5  109.62   21.41
  -3  -6   5   92.61   15.06
   3   6  -4  412.85   38.98
  -3  -6   4  477.69   36.38
   3   6  -3 1081.74   61.80
  -3  -6   3 1001.68   55.88
  -3  -6   2  661.07   46.33
   3   6  -1 2822.10  100.65
   3   6   0   37.09   11.75
   3   6   1   23.13    9.26
   3   6   2  641.84   49.07
   3   6   3   13.52    8.12
   3   6   4  332.45   37.43
   3   7 -13  251.26   44.81
   3   7 -12   84.61   25.37
   3   7 -11  829.20   76.52
   3   7 -10   61.40   22.50
   3   7  -9  348.96   48.48
   3   7  -8 1194.05   87.23
   3   7  -7  648.00   60.38
   3   7  -6 1742.95   95.67
  -3  -7   6 1656.36   71.22
   3   7  -5   29.73   13.25
  -3  -7   5   17.54    6.96
   3   7  -4  159.74   25.65
  -3  -7   4  168.06   24.38
   3   7  -3   45.20   13.03
  -3  -7   3   38.96   13.26
  -3  -7   2   64.87   16.74
   3   7  -1  419.94   40.55
   3   7   0   95.03   19.71
   3   7   1  935.46   63.15
   3   7   2  192.61   29.81
   3   7   3   98.13   21.69
   3   8 -12   72.84   24.63
   3   8 -11  322.16   48.11
   3   8 -10    0.62   12.15
   3   8 -10    3.19    7.14
   3   8  -9  908.72   80.39
   3   8  -8   52.22   18.86
   3   8  -7  235.53   37.66
   3   8  -6  547.95   55.36
  -3  -8   6  543.57   44.80
   3   8  -5  391.02   45.11
  -3  -8   5  346.52   37.02
   3   8  -4 1881.98   96.03
  -3  -8   4 1736.51   87.86
   3   8  -3  142.02   25.13
  -3  -8   3  138.75   25.10
   3   8  -2   40.18   12.92
   3   8  -2   45.35   15.11
   3   8  -1  266.42   34.96
   3   8   0   24.84   12.04
   3   8   1  164.41   28.81
   3   9 -11  234.92   40.94
   3   9 -10  101.26   28.91
   3   9 -10   71.75   23.22
   3   9  -9  660.51   71.10
   3   9  -8   46.48   18.37
   3   9  -7  147.66   31.00
   3   9  -6   20.97   12.41
  -3  -9   6   33.36   13.33
  -3  -9   5  261.04   34.19
   3   9  -5  280.10   40.07
   3   9  -4  263.71   37.29
  -3  -9   4  188.06   30.07
   3   9  -3  174.41   29.87
   3   9  -3  166.70   28.97
  -3  -9   3  164.46   29.49
   3   9  -2 1348.73   83.62
   3   9  -2 1282.36   82.59
   3   9  -1   31.74   13.06
   3   9  -1   35.30   14.35
   3  10 -10  291.67   48.77
   3  10 -10  199.67   37.96
   3  10  -9  377.51   54.59
   3  10  -8  248.54   43.16
   3  10  -7  897.87   79.26
   3  10  -6  -11.20    9.94
   3  10  -5  252.86   40.16
  -3 -10   5  239.76   36.10
   3  10  -4   59.94   20.06
  -3 -10   4   64.78   19.17
   3  10  -3   85.90   22.14
   3  10  -2   35.90   14.93
   4 -12   3  390.09   53.46
   4 -12   4   97.64   28.07
   4 -12   5  273.52   45.01
   4 -12   6   65.02   21.63
   4 -12   7  -28.89   15.10
   4 -12   8  384.25   50.95
   4 -12   9  -28.58   15.35
   4 -11   0  129.35   30.40
   4 -11   1  112.78   28.15
   4 -11   2   27.34   15.01
   4 -11   3  163.63   34.24
   4 -11   4  117.79   31.40
   4 -11   5  148.06   31.41
   4 -11   6   17.86   10.81
   4 -11   7  641.74   65.09
  -4  11  -8   -3.02    6.17
   4 -11   8   24.73   16.36
  -4  11  -9  -18.60   11.05
   4 -11   9   -9.34   10.09
  -4  11 -10  270.91   40.11
   4 -11  10  255.61   41.08
   4 -10  -2    8.22    9.78
   4 -10  -1   56.66   19.64
   4 -10   0  661.78   65.02
   4 -10   1  200.96   36.07
   4 -10   2  477.15   55.37
   4 -10   3  248.19   39.56
   4 -10   4   26.42   15.30
   4 -10   5  378.54   48.48
  -4  10  -6   65.34   16.90
   4 -10   6   64.17   20.61
  -4  10  -7  131.78   24.97
   4 -10   7  168.55   32.81
  -4  10  -8  -21.51   11.15
   4 -10   8  -17.12   11.78
  -4  10  -9  238.67   36.58
   4 -10   9  333.76   46.13
  -4  10 -10    9.13   10.15
   4 -10  10  -23.62   13.71
  -4  10 -11   35.49   14.19
   4  -9  -4   22.07   15.68
   4  -9  -3  137.91   28.71
   4  -9  -2  244.39   37.53
   4  -9  -1  168.63   30.93
   4  -9   0  -12.10    9.01
   4  -9   1  138.69   28.26
   4  -9   2  553.91   56.68
   4  -9   3   22.10   13.31
  -4   9  -4  922.57   51.91
   4  -9   4 1219.06   84.63
  -4   9  -5    5.94    4.49
   4  -9   5    3.54   10.69
  -4   9  -6    6.37    6.65
   4  -9   6   -6.52   14.05
  -4   9  -7  614.37   53.25
   4  -9   7  928.26   74.46
  -4   9  -8    1.98    8.17
   4  -9   8   17.55   12.19
  -4   9  -9   17.73   10.91
   4  -9   9   17.42   15.81
  -4   9 -10   15.85   11.51
   4  -9  10   16.65   12.00
  -4   9 -11   64.56   20.38
   4  -9  11   91.57   25.50
   4  -8  -6  415.25   47.85
   4  -8  -5   23.36   13.43
   4  -8  -4   -1.15    6.25
   4  -8  -3  780.76   62.79
   4  -8  -2   85.04   21.29
   4  -8  -1  801.48   64.05
   4  -8   0  367.89   43.24
   4  -8   0  352.90   23.18
   4  -8   1   18.27   11.97
   4  -8   2  452.06   49.06
  -4   8  -3  529.88   33.79
   4  -8   3  560.88   54.65
  -4   8  -4  223.73   24.97
   4  -8   4  266.02   39.43
  -4   8  -5   34.19   11.83
   4  -8   5   31.31   13.63
  -4   8  -6  895.49   59.82
   4  -8   6 1122.78   78.82
  -4   8  -7   -2.75    7.07
   4  -8   7  -20.51   12.44
  -4   8  -8   23.51   12.26
   4  -8   8    2.56    9.13
  -4   8  -9  250.02   36.59
  -4   8 -10   25.75   14.84
  -4   8 -11   38.82   18.18
   4  -7  -7   -9.45   11.71
   4  -7  -7   17.40   11.90
   4  -7  -6  176.66   27.61
   4  -7  -6  205.93   31.31
   4  -7  -5  182.84   26.45
   4  -7  -5  226.09   31.90
   4  -7  -4  317.99   37.13
   4  -7  -3    0.64    6.43
   4  -7  -2  453.10   44.82
   4  -7  -1 1184.57   42.05
   4  -7  -1 1267.34   75.87
   4  -7   0  195.37   29.79
   4  -7   0  176.15   16.40
  -4   7  -1  945.90   28.90
   4  -7   1 1112.61   72.96
  -4   7  -2  324.23   21.74
   4  -7   2  316.49   39.24
  -4   7  -3   22.12    7.35
   4  -7   3    1.80    6.13
  -4   7  -4  532.67   37.75
   4  -7   4  752.35   61.60
  -4   7  -5   55.52   13.92
   4  -7   5   74.26   20.22
  -4   7  -6   32.09   11.71
  -4   7  -7  160.33   25.83
  -4   7  -8  445.15   46.41
  -4   7  -9   29.19   13.27
  -4   7 -10   18.93   10.58
  -4   7 -11  139.42   29.98
   4  -6  -8    4.03    6.55
   4  -6  -7   38.04   13.55
   4  -6  -7   46.75   14.23
   4  -6  -6 1260.28   68.88
   4  -6  -6 1115.26   67.57
   4  -6  -5   11.93    7.22
   4  -6  -5   32.25   11.63
   4  -6  -4  435.84   40.01
   4  -6  -4  437.04   36.55
   4  -6  -3  422.80   34.28
   4  -6  -3  395.42   38.15
   4  -6  -3  397.76   22.45
   4  -6  -2  443.66   23.96
   4  -6  -2  425.48   40.41
   4  -6  -1  170.52   25.91
   4  -6  -1  153.79   14.38
   4  -6   0  538.26   47.95
   4  -6   1  187.76   29.18
  -4   6  -1  212.83   13.41
   4  -6   2  187.65   29.00
  -4   6  -2  162.81   15.13
  -4   6  -3 2126.38   69.61
   4  -6   3 2449.86  106.77
  -4   6  -4   10.58    5.02
  -4   6  -5   16.28    8.37
  -4   6  -6  583.59   45.32
  -4   6  -7   22.42    8.87
  -4   6  -8   52.57   16.32
  -4   6  -9  104.69   22.29
  -4   6 -10   83.87   22.68
  -4   6 -11  -15.12   11.02
   4  -5  -9   95.88   21.93
   4  -5  -8    5.19    8.22
   4  -5  -7  532.21   42.62
   4  -5  -7  523.49   43.11
   4  -5  -6   19.31    8.49
  -4   5   6   14.82    5.98
   4  -5  -6   13.20    7.27
   4  -5  -5  398.42   33.37
   4  -5  -5  404.96   35.44
   4  -5  -4  819.57   35.30
   4  -5  -4  819.67   46.10
   4  -5  -4  779.34   48.84
   4  -5  -3  464.08   32.64
   4  -5  -3  476.74   38.85
   4  -5  -3  464.46   24.74
   4  -5  -2  931.60   36.14
   4  -5  -2  918.05   44.79
   4  -5  -2  920.29   55.82
   4  -5  -1  518.01   26.54
   4  -5  -1  525.38   43.45
   4  -5   0   11.23    7.46
  -4   5   0   17.03    2.67
   4  -5   0   16.15    4.19
  -4   5  -1  180.84   12.72
   4  -5   1  199.56   28.21
  -4   5  -2  632.18   30.24
   4  -5   2  629.63   49.66
  -4   5  -3  219.19   20.38
  -4   5  -4   43.08    9.49
  -4   5  -5  972.02   53.35
  -4   5  -6   11.30    6.20
  -4   5  -7  156.29   24.43
  -4   5  -8  439.36   43.00
  -4   5  -9   20.35    8.91
  -4   5 -10   34.73   15.01
  -4   5 -11   63.19   19.48
   4  -4 -10   41.57   14.39
   4  -4  -9  571.23   48.04
   4  -4  -8   -5.63    7.50
   4  -4  -7  186.59   24.22
   4  -4  -7  156.28   20.85
   4  -4  -6  208.07   21.74
  -4   4   6  206.27   17.18
   4  -4  -6  224.64   23.95
   4  -4  -6  210.86   24.01
   4  -4  -5  376.51   26.02
   4  -4  -5  439.85   32.49
   4  -4  -5  399.86   31.57
   4  -4  -4  111.87   12.48
   4  -4  -4  114.10   15.50
   4  -4  -4  111.72   16.82
   4  -4  -3  601.96   34.02
   4  -4  -3  597.26   39.82
   4  -4  -3  581.44   27.94
   4  -4  -2  855.92   34.30
   4  -4  -2  876.88   39.29
   4  -4  -2  804.73   48.75
   4  -4  -1  138.57   21.24
   4  -4  -1  123.94    7.17
   4  -4  -1  149.85   15.21
   4  -4  -1  138.10   13.37
   4  -4   0 1952.17   44.46
  -4   4   0 1785.11   39.82
   4  -4   0 1833.79   81.62
  -4   4  -1   16.81    4.09
  -4   4  -2   15.35    5.14
  -4   4  -3 1260.20   49.20
  -4   4  -4  190.51   20.47
  -4   4  -5   24.70    8.24
  -4   4  -6  158.70   22.07
  -4   4  -7  515.03   42.82
  -4   4  -8   -1.80    4.43
  -4   4  -9  169.01   27.66
  -4   4 -10   79.62   20.33
  -4   4 -11    6.56    6.91
   4  -3 -10  627.54   51.11
   4  -3  -9    3.28    7.67
   4  -3  -8   42.05   11.37
   4  -3  -7  659.61   37.99
   4  -3  -7  627.77   43.06
  -4   3   6   10.26    3.49
   4  -3  -6   17.14    4.55
   4  -3  -6    5.29    4.54
   4  -3  -6   17.43    7.41
   4  -3  -6   12.75    5.33
   4  -3  -5  783.02   37.88
   4  -3  -5  868.76   41.86
   4  -3  -5  824.38   42.41
   4  -3  -5  871.14   31.11
   4  -3  -4  406.72   27.36
   4  -3  -4  420.06   19.76
   4  -3  -4  417.60   29.07
   4  -3  -4  404.88   24.07
   4  -3  -3   15.49    6.61
   4  -3  -3   12.97    3.91
   4  -3  -3   14.09    4.83
   4  -3  -3    7.72    3.46
   4  -3  -2  219.83   16.92
   4  -3  -2  235.64   17.25
   4  -3  -2  211.04    9.47
   4  -3  -2  218.13   23.16
   4  -3  -1 2224.39   57.58
   4  -3  -1 2141.99   58.20
   4  -3  -1 2365.01   45.68
   4  -3  -1 1995.26   79.22
  -4   3   0  344.15   16.59
  -4   3  -1   96.81    9.86
  -4   3  -2 2375.20   63.64
  -4   3  -3   47.88    9.03
  -4   3  -4  150.40   17.75
  -4   3  -5  767.72   44.56
  -4   3  -6   -0.78    4.06
  -4   3  -7   90.20   17.35
  -4   3  -8  265.59   31.85
  -4   3  -9   21.07    9.99
  -4   3 -10    6.53    7.87
  -4   3 -11  175.41   31.10
   4  -2 -11   37.19   13.20
   4  -2 -10  114.86   20.61
   4  -2  -9   57.25   14.16
   4  -2  -8  339.05   34.62
   4  -2  -8  359.52   28.09
   4  -2  -8  325.76   30.62
   4  -2  -7   81.35   15.07
   4  -2  -7   93.41   15.28
   4  -2  -7  128.12   16.28
   4  -2  -6  870.73   42.27
   4  -2  -6  804.61   42.48
  -4   2   6  786.71   23.56
   4  -2  -6  857.38   43.22
   4  -2  -6  826.41   36.14
   4  -2  -5 1089.64   47.48
   4  -2  -5  970.78   42.49
   4  -2  -5 1090.36   45.50
   4  -2  -5 1034.76   39.80
   4  -2  -4  169.54   15.92
   4  -2  -4  139.70   14.40
   4  -2  -4  147.22   14.32
   4  -2  -3 1512.61   44.97
   4  -2  -3 1643.85   48.72
   4  -2  -3 1537.26   48.17
   4  -2  -3 1601.16   56.65
   4  -2  -2 1009.56   33.77
   4  -2  -2 1058.89   37.73
   4  -2  -2  984.18   27.77
   4  -2  -1   89.59   10.42
   4  -2  -1   88.45    8.36
   4  -2   0  625.62   28.73
  -4   2   0  630.37   25.31
  -4   2   0  612.97   20.03
  -4   2  -1  876.69   32.91
  -4   2  -1  861.59   22.83
  -4   2  -2   21.09    5.94
  -4   2  -3  703.58   35.34
  -4   2  -4 1188.96   51.02
  -4   2  -5   49.11   11.54
  -4   2  -6  249.87   26.53
  -4   2  -7  668.79   46.31
  -4   2  -8   16.28    8.54
  -4   2  -9   59.84   17.05
  -4   2 -10   90.16   20.37
   4  -1 -11   37.56   10.52
   4  -1 -10  547.16   43.54
   4  -1  -9    2.64    3.56
   4  -1  -9    1.59    7.54
   4  -1  -9   13.97    6.02
   4  -1  -8  131.46   18.71
   4  -1  -8  115.92   19.53
   4  -1  -8  144.73   21.35
   4  -1  -7  319.81   30.66
   4  -1  -7  310.24   28.85
   4  -1  -7  323.16   26.65
   4  -1  -6  501.99   32.96
   4  -1  -6  461.55   37.13
   4  -1  -6  470.56   22.16
   4  -1  -5   12.91    4.30
   4  -1  -5   18.75    4.20
   4  -1  -4  877.80   36.41
   4  -1  -4  789.27   40.16
   4  -1  -4  906.78   31.76
  -4   1   3   52.44    4.94
   4  -1  -3   44.38    8.24
   4  -1  -3   70.45    9.72
   4  -1  -3   48.32    8.01
   4  -1  -3   59.61    7.80
   4  -1  -2  103.06    8.92
  -4   1   2  111.13    8.51
   4  -1  -2  121.52   12.31
   4  -1  -1 4082.69   69.07
   4  -1  -1 4110.44   85.90
   4  -1   0   90.35    9.86
   4  -1   0   97.96   10.82
  -4   1   0   96.44   10.29
  -4   1  -1    9.27    3.21
   4  -1   1   11.55    4.28
   4  -1   2 1206.39   44.19
  -4   1  -2 1243.97   45.48
  -4   1  -3  528.62   17.02
   4  -1   3  604.55   32.34
  -4   1  -3  565.74   31.83
  -4   1  -4   36.42    8.83
  -4   1  -4   44.83    5.67
   4  -1   4   44.07    9.34
  -4   1  -5  388.25   20.32
   4  -1   5  377.42   28.62
  -4   1  -5  380.52   30.06
  -4   1  -6  144.01   13.75
  -4   1  -6   99.44   16.01
   4  -1   6  143.58   18.66
  -4   1  -7    2.99    3.44
   4  -1   7    0.81    3.63
   4  -1   8  385.88   34.61
  -4   1  -8  373.93   36.08
  -4   1  -9   23.90   10.69
  -4   1 -10   -2.41    8.79
   4   0 -12    8.54    9.98
   4   0 -11  395.00   38.00
   4   0 -11  387.45   40.59
   4   0 -10   -1.23    6.33
   4   0  -9  307.34   34.79
   4   0  -9  264.71   32.91
   4   0  -8  255.30   31.84
   4   0  -8  308.72   31.81
   4   0  -7   85.15   14.89
   4   0  -7   70.08   17.09
   4   0  -6  765.12   41.62
   4   0  -5 1019.94   43.57
   4   0  -5 1016.74   54.21
   4   0  -4   15.51    3.37
   4   0  -4    3.40    3.14
   4   0  -4   15.48    5.05
   4   0  -3  202.27   10.82
  -4   0   3  220.37   10.89
   4   0  -3  186.14   15.68
   4   0  -2 2237.92   49.97
   4   0  -2 2294.82   59.21
   4   0  -1  199.38   13.84
   4   0  -1  187.87   14.96
   4   0   0  188.93   14.93
   4   0   0  222.43   15.74
   4   0   1 1302.58   41.68
   4   0   1 1334.99   45.12
  -4   0  -1 1272.33   45.74
  -4   0  -2    3.15    2.48
   4   0   2    1.76    2.87
   4   0   3  206.29   19.35
  -4   0  -3  173.21   17.96
  -4   0  -3  200.86   11.30
   4   0   4  731.86   39.50
  -4   0  -4  701.06   39.25
  -4   0  -4  755.96   27.13
  -4   0  -5    8.75    5.24
  -4   0  -5    7.05    2.62
   4   0   5   13.22    6.44
  -4   0  -6   23.11    7.93
   4   0   6   35.28    9.03
  -4   0  -6   34.68    7.28
   4   0   7  512.27   38.86
  -4   0  -7  518.58   40.20
   4   0   8   17.52    7.03
  -4   0  -8   29.49   10.68
   4   0   9   -2.90    7.29
  -4   0  -9    2.54    4.55
  -4   0 -10   64.49   16.18
   4   1 -12   16.09    8.98
   4   1 -11   16.09    9.70
   4   1 -10  182.39   31.11
   4   1  -9  429.90   46.14
   4   1  -9  345.92   37.67
   4   1  -8   49.41   13.19
   4   1  -8   44.99   14.89
   4   1  -7  677.32   43.11
   4   1  -6  469.70   41.86
   4   1  -6  494.86   33.54
   4   1  -5    8.47    4.33
   4   1  -5   21.68    8.10
   4   1  -4 1369.48   48.46
   4   1  -4 1381.45   57.89
   4   1  -4 1423.61   30.94
   4   1  -3  179.13   11.61
   4   1  -3  161.60   14.86
   4   1  -2   17.31    4.21
   4   1  -2   24.13    5.65
   4   1  -1 1363.35   42.93
   4   1  -1 1354.02   42.59
   4   1   0  866.36   20.96
   4   1   0  925.36   36.77
   4   1   1   97.03   10.35
   4   1   1   98.15   12.35
   4   1   2  646.27   34.63
   4   1   2  678.24   28.34
  -4  -1  -2  654.99   35.08
   4   1   3  994.47   45.64
   4   1   3  991.04   36.37
  -4  -1  -3  957.05   45.21
   4   1   4   13.51    5.24
  -4  -1  -4   18.24    6.91
  -4  -1  -4   13.75    4.70
   4   1   5  270.67   26.08
  -4  -1  -5  259.69   25.61
  -4  -1  -5  265.09   19.65
  -4  -1  -6  144.75   20.33
   4   1   6  179.71   22.22
  -4  -1  -7   19.31    8.51
   4   1   7   11.68    6.53
  -4  -1  -8  110.82   20.70
   4   1   8  103.40   19.02
  -4  -1  -9  123.55   22.61
   4   1   9  122.14   21.60
   4   2 -13   -9.48    9.31
   4   2 -12   53.57   18.28
   4   2 -11  249.05   38.09
   4   2 -10   75.12   21.52
   4   2  -9  205.22   28.53
   4   2  -9  166.71   29.71
   4   2  -8  388.14   44.40
   4   2  -8  392.22   36.35
   4   2  -7   46.24   11.13
   4   2  -7   62.41   16.45
   4   2  -6  208.40   28.46
   4   2  -6  186.31    8.63
   4   2  -5 2085.66   84.61
   4   2  -5 2028.25   68.34
   4   2  -5 2142.70   45.52
   4   2  -4   54.00    9.89
   4   2  -4   50.52   11.51
   4   2  -4   57.26    7.02
   4   2  -4   49.18    5.61
   4   2  -3   15.52    4.46
   4   2  -3   16.57    5.11
   4   2  -2 2031.38   56.19
   4   2  -2 2007.03   55.92
   4   2  -1  278.85   20.31
   4   2  -1  303.82   19.05
   4   2   0   40.26    6.66
   4   2   0   34.63    4.84
   4   2   0   26.56    6.91
   4   2   1  863.07   41.15
   4   2   1  948.07   33.34
   4   2   2  119.81   15.94
   4   2   2  115.69   11.01
  -4  -2  -3   60.08   11.58
   4   2   3   51.85   11.25
   4   2   3   65.35    8.37
   4   2   4  753.14   44.35
  -4  -2  -4  752.39   43.19
   4   2   5   37.60   10.44
  -4  -2  -5   48.57   11.62
  -4  -2  -6    5.51    5.10
   4   2   6    4.48    7.19
   4   2   7  296.11   32.02
  -4  -2  -7  320.19   32.57
  -4  -2  -8   52.88   14.46
   4   2   8   39.97   12.70
   4   3 -14  -31.01   15.83
   4   3 -13   26.00   14.50
   4   3 -12  159.79   33.36
   4   3 -11    1.56    9.49
   4   3 -10  526.65   56.76
   4   3  -9  570.23   57.60
   4   3  -9  485.83   44.74
   4   3  -8   -6.81    7.95
   4   3  -8    9.69    8.22
   4   3  -7  348.96   32.45
   4   3  -7  358.43   16.15
   4   3  -6  721.68   54.21
   4   3  -6  677.54   26.23
   4   3  -6  633.68   40.33
   4   3  -5   63.62    7.69
   4   3  -5   55.17   13.95
   4   3  -5   51.58   10.43
   4   3  -5   51.84    7.87
   4   3  -4  471.11   36.47
   4   3  -4  470.89   29.74
   4   3  -4  466.74   25.21
   4   3  -3 1056.66   42.62
   4   3  -3 1041.09   41.53
   4   3  -2    4.69    4.00
   4   3  -2    6.83    3.69
   4   3  -1  937.58   35.40
   4   3  -1  962.69   43.46
   4   3   0 1098.69   48.81
   4   3   0 1100.80   36.87
   4   3   1    9.15    3.24
   4   3   1    2.07    2.84
   4   3   2  201.04   13.76
   4   3   2  175.71   20.74
   4   3   3  679.88   43.18
   4   3   4   20.38    8.17
   4   3   5   -1.83    7.57
   4   3   6  194.49   25.74
   4   3   7   11.20    8.32
   4   4 -14  108.45   28.49
   4   4 -13   54.76   19.06
   4   4 -12  -11.66   10.83
   4   4 -11  231.41   40.45
   4   4 -10  132.39   29.00
   4   4  -9    5.98    5.82
   4   4  -8  489.23   52.65
   4   4  -8  408.77   39.00
   4   4  -7   65.26   17.69
   4   4  -7   69.17   14.72
   4   4  -6   22.90    8.33
   4   4  -6   12.71    7.45
   4   4  -5 1406.89   72.48
   4   4  -5 1428.08   60.42
   4   4  -4  222.27   26.43
   4   4  -4  209.52   20.91
   4   4  -4  204.97   19.16
   4   4  -3   27.90    7.38
   4   4  -3   24.92    7.44
   4   4  -2 1181.02   44.64
   4   4  -2 1075.18   49.74
   4   4  -1  693.95   31.22
   4   4  -1  608.77   38.21
   4   4   0   16.48    4.40
   4   4   0   17.14    7.13
   4   4   1  301.19   28.49
   4   4   2   55.79   12.69
   4   4   3    5.05    4.64
   4   4   4  274.13   30.53
   4   4   5   44.86   13.14
   4   4   6   -0.68    4.12
   4   5 -13  107.90   29.02
   4   5 -12  106.33   28.61
   4   5 -11   -3.86    7.92
   4   5 -10  194.69   35.90
   4   5  -9  706.90   67.07
   4   5  -9  593.63   51.42
   4   5  -8   13.00    9.69
   4   5  -8   -2.12    5.73
   4   5  -7   55.64   16.31
   4   5  -7   64.28   15.69
   4   5  -6  936.76   65.66
   4   5  -6  984.37   55.96
   4   5  -5   33.03   12.13
   4   5  -5   26.94    8.96
   4   5  -4  121.65   20.34
   4   5  -4  119.58   16.73
   4   5  -3  398.79   28.72
   4   5  -3  332.11   28.96
   4   5  -2    2.19    3.89
   4   5  -2    7.39    4.68
   4   5  -1   13.58    5.14
   4   5  -1   18.04    7.89
   4   5   0  674.33   45.39
   4   5   1   12.10    7.05
   4   5   2    0.95    3.73
   4   5   3  563.59   45.89
   4   5   4   10.93    7.61
   4   5   5   31.80   12.17
   4   6 -13   90.26   26.21
   4   6 -12   21.73   13.93
   4   6 -11  145.39   32.84
   4   6 -10  205.66   37.33
   4   6 -10  250.47   42.78
   4   6  -9   12.98   12.25
   4   6  -8  285.60   41.63
   4   6  -7  230.92   35.31
   4   6  -7  188.77   27.24
   4   6  -6   -3.54    5.89
   4   6  -6   10.86    9.23
   4   6  -5  578.57   50.32
   4   6  -5  558.31   41.58
   4   6  -4  292.46   34.17
   4   6  -4  342.09   30.38
   4   6  -3   65.07   12.92
   4   6  -3   73.93   15.26
   4   6  -2  391.89   36.09
   4   6  -1  398.62   37.16
   4   6   0    9.10    7.40
   4   6   1   41.11   11.89
   4   6   2  261.18   32.82
   4   6   3   31.98   13.55
   4   7 -12  185.48   37.45
   4   7 -11   17.35   12.92
   4   7 -10   70.64   23.46
   4   7  -9  420.45   54.38
   4   7  -8    3.80    9.28
   4   7  -7   11.01    8.67
   4   7  -6  338.07   42.50
   4   7  -5  204.95   31.70
   4   7  -4    7.33    5.89
   4   7  -4   14.37    6.91
   4   7  -3  514.19   47.71
   4   7  -3  453.00   41.83
   4   7  -2   65.55   16.23
   4   7  -1   12.32    8.73
   4   7   0  695.99   55.41
   4   7   1   44.28   15.47
   4   7   2   39.21   13.65
   4   8 -12  -19.53   13.69
   4   8 -11   28.38   16.01
   4   8 -10  278.60   47.96
   4   8  -9   -1.75   10.91
   4   8  -8   99.12   26.57
   4   8  -7  184.06   33.38
   4   8  -6    3.52    6.63
   4   8  -5  360.01   44.38
   4   8  -4  324.90   41.34
   4   8  -4  312.62   37.01
   4   8  -3   28.95   12.42
   4   8  -3   23.49   12.57
   4   8  -2   26.41   11.76
   4   8  -1  518.82   50.73
   4   8   0   22.00   11.29
   4   9 -10    7.72   13.36
   4   9  -9  212.23   40.41
   4   9  -8  128.81   30.15
   4   9  -7    3.13    8.23
   4   9  -6  535.13   58.94
   4   9  -5  162.99   31.79
   4   9  -5  123.37   24.73
   4   9  -4   -0.40    5.99
   4   9  -4    8.56    8.00
   4   9  -3  216.96   35.04
   4   9  -3  167.64   30.29
   4   9  -2  100.40   24.15
   4   9  -1   44.53   16.02
   4  10  -7   76.32   24.19
   4  10  -6   92.19   25.60
   4  10  -6  102.65   24.16
   4  10  -5    6.77    8.68
   4  10  -5   31.41   16.73
   5 -12   3   79.16   25.94
   5 -12   4  401.33   55.40
   5 -12   5  -43.98   19.52
   5 -12   6  238.46   41.92
   5 -12   7   21.55   16.22
   5 -12   8  126.57   30.29
   5 -12   9   95.37   28.28
   5 -11   0    3.30    8.38
   5 -11   1  693.52   70.16
   5 -11   2   84.25   24.56
   5 -11   3  490.61   58.81
   5 -11   4  385.41   52.09
   5 -11   5  291.97   46.12
   5 -11   6 1227.22   92.87
   5 -11   7   -4.18   12.93
   5 -11   8  138.95   30.77
   5 -11   9  -23.17   14.15
  -5  11  -9  -17.11   11.13
   5 -11  10   27.07   15.44
  -5  11 -10   31.18   14.68
   5 -10  -3   79.89   23.75
   5 -10  -2  255.97   40.56
   5 -10  -1  342.04   47.31
   5 -10   0   18.50    9.91
   5 -10   1  601.71   62.64
   5 -10   2   36.95   16.57
   5 -10   3 1090.22   85.16
   5 -10   4  104.88   26.68
   5 -10   5  472.19   57.61
   5 -10   6  251.62   41.39
   5 -10   7   88.62   24.94
  -5  10  -7   81.28   19.00
  -5  10  -8  861.42   66.79
   5 -10   8 1180.85   90.08
   5 -10   9  198.42   37.76
  -5  10  -9  124.17   26.60
   5 -10  10  116.43   29.69
  -5  10 -10   84.70   24.54
   5 -10  11   80.72   24.88
   5  -9  -5  110.40   25.49
   5  -9  -4  102.75   25.52
   5  -9  -3   20.11   12.44
   5  -9  -2 1582.55   97.19
   5  -9  -1  239.40   37.44
   5  -9   0  555.06   57.35
   5  -9   1  327.19   45.12
   5  -9   2  133.07   29.23
   5  -9   3 1542.38   98.70
   5  -9   4   47.22   17.86
  -5   9  -5  333.93   32.87
   5  -9   5  472.09   54.43
  -5   9  -6   17.66    6.75
   5  -9   6   41.34   21.25
  -5   9  -7  374.52   41.11
   5  -9   7  566.97   60.55
  -5   9  -8   25.45   11.30
   5  -9   8   61.77   20.77
  -5   9  -9   66.02   19.59
   5  -9   9  106.94   27.72
  -5   9 -10  579.70   59.81
  -5   9 -11   96.95   26.07
   5  -8  -6   11.74   10.00
   5  -8  -5  289.29   38.97
   5  -8  -4  126.88   24.81
   5  -8  -3   61.38   18.32
   5  -8  -2  432.51   47.05
   5  -8  -1    6.90    6.30
   5  -8   0 1133.07   47.44
   5  -8   0 1177.62   79.58
   5  -8   1  678.17   61.31
   5  -8   2 1553.31   94.45
   5  -8   3  250.85   37.57
  -5   8  -3  266.24   22.84
  -5   8  -4  397.45   32.32
   5  -8   4  539.47   55.57
  -5   8  -5 1223.89   64.21
   5  -8   5 1743.46  101.20
  -5   8  -6  124.94   22.43
   5  -8   6  164.72   31.16
  -5   8  -7  391.11   41.76
  -5   8  -8   -5.18    9.37
  -5   8  -9   30.20   13.10
  -5   8 -10   19.72   11.66
  -5   8 -11    4.11    7.28
   5  -7  -7   82.58   19.36
   5  -7  -7   73.79   19.00
   5  -7  -6  -29.94   12.44
   5  -7  -6   -0.23    5.89
   5  -7  -5 1825.67   86.11
   5  -7  -5 1674.22   87.90
   5  -7  -4  590.76   46.11
   5  -7  -4  622.00   52.44
   5  -7  -3  841.36   61.68
   5  -7  -2  323.57   22.96
   5  -7  -2  308.74   37.50
   5  -7  -1   24.85   11.06
   5  -7  -1   21.87    5.84
   5  -7   0  506.12   50.25
   5  -7   0  479.91   29.96
   5  -7   1   30.69   13.43
  -5   7  -1   41.99    5.62
  -5   7  -2 1295.96   44.96
   5  -7   2 1440.61   87.30
  -5   7  -3  237.83   21.67
   5  -7   3  277.03   39.38
  -5   7  -4 1445.51   63.54
   5  -7   4 1772.08   97.44
  -5   7  -5   16.86    8.09
  -5   7  -6   48.07   14.08
  -5   7  -7 1751.65   87.94
  -5   7  -8  212.46   32.02
  -5   7  -9  240.14   36.03
  -5   7 -10   18.39   12.05
  -5   7 -11   12.84   13.26
   5  -6  -8  238.61   33.82
   5  -6  -7   17.29    8.40
   5  -6  -7   37.07   11.85
   5  -6  -6  439.91   39.78
   5  -6  -6  471.54   42.06
   5  -6  -5   74.00   16.01
   5  -6  -5   69.56   16.64
   5  -6  -4   34.59    7.76
   5  -6  -4   48.40   12.01
   5  -6  -4   58.04   15.39
   5  -6  -3 2008.72   76.94
   5  -6  -3 1797.40   86.13
   5  -6  -3 1778.56   57.77
   5  -6  -2  884.58   39.13
   5  -6  -2  846.43   59.14
   5  -6  -1 2207.40   66.48
   5  -6  -1 2322.90  103.09
   5  -6   0  157.14   26.73
   5  -6   0  117.79   14.70
  -5   6  -1  219.52   14.37
   5  -6   1  248.93   34.29
  -5   6  -2 2353.11   65.04
   5  -6   2 2486.00  112.01
  -5   6  -3   21.18    6.79
  -5   6  -4  785.84   44.81
  -5   6  -5  137.57   20.41
  -5   6  -6  881.91   56.53
  -5   6  -7   17.45    9.99
  -5   6  -8    1.07    4.94
  -5   6  -9  732.77   61.76
  -5   6 -10  257.52   38.19
  -5   6 -11  418.74   51.11
   5  -5  -9  -10.52   11.47
   5  -5  -8 1127.38   67.67
   5  -5  -7  323.95   34.11
   5  -5  -7  339.68   33.89
   5  -5  -6 1032.16   57.76
   5  -5  -6  944.89   55.15
   5  -5  -5   93.09   16.90
   5  -5  -5   87.42   13.26
   5  -5  -5   68.31   14.37
   5  -5  -4  129.47   18.36
   5  -5  -4  121.84   14.12
   5  -5  -4  131.21   20.47
   5  -5  -3  290.03   25.98
   5  -5  -3  281.83   21.29
   5  -5  -3  293.25   31.87
   5  -5  -2  130.03   21.99
   5  -5  -2  135.23   16.74
   5  -5  -2  122.25   14.07
   5  -5  -1 2435.37   68.42
   5  -5  -1 2338.99   98.81
   5  -5   0 1487.13   47.67
   5  -5   0 1334.73   50.97
   5  -5   0 1547.93   42.49
  -5   5   0 1386.63   35.98
   5  -5   0 1440.78   78.31
  -5   5  -1 3208.25   71.29
   5  -5   1 3520.51  125.90
  -5   5  -2   56.42    9.30
  -5   5  -3    8.37    5.19
  -5   5  -4 2374.36   80.87
  -5   5  -5  372.94   33.20
  -5   5  -6  704.98   49.35
  -5   5  -7   32.10   12.27
  -5   5  -8  301.18   36.44
  -5   5  -9    8.30    7.88
  -5   5 -10   18.47   10.78
  -5   5 -11  294.93   42.08
   5  -4 -10    4.92    7.17
   5  -4  -9  426.93   41.09
   5  -4  -8    9.91    6.40
   5  -4  -7    6.18    5.07
   5  -4  -7    5.78    6.79
   5  -4  -7   -2.87    4.15
   5  -4  -6 2476.26   82.19
   5  -4  -6 2612.31   89.76
   5  -4  -6 2604.32   86.23
   5  -4  -5  905.70   43.03
   5  -4  -5 1072.84   51.66
   5  -4  -5  979.79   51.21
   5  -4  -4 1694.43   60.73
   5  -4  -4 1702.66   68.55
   5  -4  -4 1604.94   53.57
   5  -4  -3   32.33    9.67
   5  -4  -3   18.85    2.43
   5  -4  -3   32.18    7.25
   5  -4  -3   31.71    8.02
   5  -4  -3   24.80    4.07
   5  -4  -2   68.00   10.48
   5  -4  -2   88.79   17.45
   5  -4  -2   71.87   11.10
   5  -4  -2   61.87    5.42
   5  -4  -1 1765.33   56.64
   5  -4  -1 1654.46   55.52
   5  -4  -1 1903.87   42.66
   5  -4  -1 1821.40   83.08
  -5   4   0    9.87    2.95
   5  -4   0    8.94    3.79
  -5   4  -1 1272.49   41.78
  -5   4  -2  435.19   26.03
  -5   4  -3 4155.01  103.13
  -5   4  -4   14.72    6.89
  -5   4  -5    7.42    5.86
  -5   4  -6 1711.76   76.32
  -5   4  -7  252.35   30.25
  -5   4  -8  663.90   52.52
  -5   4  -9    5.81    6.94
  -5   4 -10   48.35   16.76
   5  -3 -10   76.21   17.66
   5  -3  -9  525.66   43.66
   5  -3  -8   14.00    5.53
   5  -3  -8    9.36    7.93
   5  -3  -7  641.93   42.62
   5  -3  -7  656.73   37.49
   5  -3  -7  689.91   44.35
   5  -3  -6   33.23    8.64
   5  -3  -6   49.75   10.54
   5  -3  -6   42.46    9.50
   5  -3  -6   47.25    8.57
   5  -3  -5  131.85   15.62
   5  -3  -5  143.08   17.54
   5  -3  -5  132.53   14.47
   5  -3  -5  119.08   15.60
   5  -3  -4 2024.27   65.06
   5  -3  -4 1987.98   70.88
   5  -3  -4 2035.38   63.25
   5  -3  -3 2038.06   60.82
   5  -3  -3 1993.18   43.69
   5  -3  -3 2013.38   61.34
   5  -3  -3 2089.88   77.01
   5  -3  -2 4586.01   95.92
   5  -3  -2 4685.22  102.41
   5  -3  -1    6.49    2.79
   5  -3  -1    7.59    3.97
  -5   3   0   51.14    7.52
   5  -3   0   42.37    8.38
  -5   3  -1 1812.98   44.06
  -5   3  -1 1908.12   54.69
  -5   3  -2   20.04    4.07
  -5   3  -2   21.32    6.08
  -5   3  -3 1333.58   52.65
  -5   3  -4   74.19   13.30
  -5   3  -5 1064.98   54.58
  -5   3  -6   24.62    8.08
  -5   3  -7  117.32   20.45
  -5   3  -8  780.79   56.38
  -5   3  -9  288.65   36.22
  -5   3 -10  405.82   44.49
   5  -2 -11   -6.16    9.44
   5  -2 -10   29.87   10.62
   5  -2  -9 1318.36   67.33
   5  -2  -9 1281.82   74.72
   5  -2  -8  795.82   45.65
   5  -2  -8  645.57   47.42
   5  -2  -8  778.31   47.55
   5  -2  -7 1484.63   66.09
   5  -2  -7 1485.52   62.93
   5  -2  -7 1598.23   66.50
   5  -2  -7 1517.13   50.84
   5  -2  -6   31.83    8.42
   5  -2  -6   43.52    9.49
   5  -2  -6   29.27    9.92
   5  -2  -6   45.70    8.01
   5  -2  -5  437.99   29.05
   5  -2  -5  443.30   28.78
   5  -2  -5  416.07   25.45
   5  -2  -4   52.04    9.84
   5  -2  -4   71.25   10.75
   5  -2  -4   51.26    9.29
   5  -2  -4   50.29    9.03
   5  -2  -3  124.68   12.64
   5  -2  -3  125.29   12.55
   5  -2  -3  108.58   13.18
   5  -2  -3  134.52   17.67
   5  -2  -2 3471.83   73.91
   5  -2  -2 3631.97   86.61
   5  -2  -1  714.89   25.49
   5  -2  -1  733.48   33.81
   5  -2   0 6148.51  123.84
  -5   2   0 6062.87  116.58
  -5   2  -1  308.89   10.62
  -5   2  -1  347.40   22.79
  -5   2  -2   83.43   12.14
  -5   2  -2   69.33    4.57
  -5   2  -3 2931.64   84.06
  -5   2  -4  317.41   26.87
  -5   2  -5  531.24   37.48
  -5   2  -6   12.56    6.98
  -5   2  -7  480.94   40.61
  -5   2  -8    3.41    5.52
  -5   2  -9   51.38   15.39
  -5   2 -10  144.45   26.66
   5  -1 -11   16.61    6.79
   5  -1 -10 1006.84   59.48
   5  -1 -10  914.88   67.67
   5  -1  -9   51.62   12.69
   5  -1  -9   64.79   16.73
   5  -1  -9   46.29   13.28
   5  -1  -8   55.08   13.18
   5  -1  -8   26.80    8.65
   5  -1  -8   58.67   14.15
   5  -1  -7 1835.22   73.62
   5  -1  -7 1886.42   68.32
   5  -1  -7 1756.42   82.46
   5  -1  -6  724.26   40.98
   5  -1  -6  685.00   25.61
   5  -1  -5 4197.91  102.91
   5  -1  -5 4217.29   83.29
   5  -1  -4   15.40    5.12
   5  -1  -4   12.19    4.20
   5  -1  -4    9.58    5.60
   5  -1  -4    7.63    2.98
  -5   1   4    7.65    1.81
   5  -1  -3  112.06   10.77
   5  -1  -3  105.61   12.76
   5  -1  -2 1439.06   37.84
   5  -1  -2 1492.61   50.55
   5  -1  -1  188.04   15.06
   5  -1  -1  184.17    9.81
   5  -1  -1  190.20   16.65
   5  -1   0 1100.71   41.05
   5  -1   0 1146.41   42.68
   5  -1   1  538.59   29.47
   5  -1   1  550.46   29.52
  -5   1  -1  516.00   29.59
   5  -1   2 4122.92   99.58
  -5   1  -2 4066.75  100.37
  -5   1  -3   50.65    3.85
  -5   1  -3   58.09   11.02
  -5   1  -4  208.21   11.43
   5  -1   4  214.49   22.03
  -5   1  -4  231.93   23.24
   5  -1   5 1337.92   59.79
  -5   1  -5 1175.70   57.77
   5  -1   6  191.15   23.19
  -5   1  -6  185.92   23.73
  -5   1  -7  947.35   57.81
   5  -1   7  991.59   56.96
  -5   1  -8    1.85    4.97
  -5   1  -9   44.57   15.52
   5   0 -12  366.04   38.85
   5   0 -11  115.86   20.50
   5   0 -11   99.50   20.95
   5   0 -10 1008.24   69.00
   5   0 -10  969.86   68.51
   5   0  -9  -10.84    7.23
   5   0  -9   -1.57    5.90
   5   0  -8  763.57   50.22
   5   0  -8  734.41   57.89
   5   0  -7   26.41    8.54
   5   0  -6  693.11   40.25
   5   0  -6  701.25   49.27
   5   0  -5 2176.07   69.86
   5   0  -5 2111.61   81.46
   5   0  -5 1965.22   42.45
   5   0  -4 1672.27   63.12
   5   0  -4 1666.93   56.92
   5   0  -3 5792.95  101.91
   5   0  -3 5910.65  121.67
   5   0  -2  105.82   10.65
   5   0  -2  117.19   13.06
   5   0  -1  533.10   26.57
   5   0  -1  536.81   28.67
   5   0   0 1467.39   49.66
   5   0   0 1459.87   48.84
  -5   0  -1   49.34    9.37
   5   0   1   65.24   10.33
   5   0   1   60.86    9.04
   5   0   2  996.09   45.02
   5   0   2 1041.45   41.12
  -5   0  -2 1036.50   47.15
  -5   0  -3   21.09    6.95
   5   0   3    9.82    3.98
   5   0   3   16.33    6.46
   5   0   4 1439.59   61.52
  -5   0  -4 1448.61   62.14
   5   0   5  234.21   25.05
  -5   0  -5  235.66   25.62
   5   0   6  218.52   25.51
  -5   0  -6  212.04   25.84
   5   0   7  451.73   39.18
  -5   0  -7  409.07   37.93
  -5   0  -8   83.06   18.66
   5   0   8  105.74   20.26
   5   0   9  383.57   39.53
  -5   0  -9  363.57   39.89
   5   1 -12   94.73   23.46
   5   1 -11  153.02   28.99
   5   1 -10  948.78   72.99
   5   1 -10  944.21   66.85
   5   1  -9  454.07   42.07
   5   1  -9  418.84   47.27
   5   1  -8 1351.75   67.83
   5   1  -7   21.13    9.91
   5   1  -7   12.65    7.21
   5   1  -6  978.25   49.05
   5   1  -6  919.05   58.82
   5   1  -5  144.42   17.07
   5   1  -5  118.63   18.73
   5   1  -5  138.25    8.62
   5   1  -5  119.15    7.33
   5   1  -4  237.00   20.59
   5   1  -4  239.66   24.34
   5   1  -4  231.95   13.70
   5   1  -3  900.19   31.97
   5   1  -3  885.24   38.97
   5   1  -2  440.35   23.68
   5   1  -2  406.54   25.07
   5   1  -1 6859.31  132.10
   5   1  -1 6913.76  132.14
   5   1   0  534.14   30.51
   5   1   0  558.95   28.72
   5   1   1  228.27   20.79
   5   1   1  226.51   17.81
   5   1   2 1605.59   60.58
   5   1   2 1494.27   49.28
  -5  -1  -3   83.89   14.64
   5   1   3   77.29   13.27
   5   1   3   69.32   10.02
   5   1   4  733.00   44.61
   5   1   4  740.18   34.62
  -5  -1  -4  714.38   44.05
  -5  -1  -5   24.92    8.49
   5   1   5   21.10    8.21
   5   1   6  314.15   32.20
  -5  -1  -6  260.74   29.66
  -5  -1  -7   32.21   12.19
   5   1   7   14.99    8.84
  -5  -1  -8  114.01   21.51
   5   1   8  111.44   21.53
   5   2 -13  212.26   37.85
   5   2 -12   69.78   22.19
   5   2 -11  791.40   72.06
   5   2 -11  815.52   66.63
   5   2 -10   93.56   21.61
   5   2 -10   85.42   22.39
   5   2  -9  489.20   52.99
   5   2  -9  455.32   42.35
   5   2  -8  571.67   53.57
   5   2  -8  512.74   41.39
   5   2  -7 1183.64   74.16
   5   2  -7 1145.23   58.52
   5   2  -6 3616.72  125.49
   5   2  -6 3529.92  101.38
   5   2  -6 3290.65   60.92
   5   2  -5   70.05   12.33
   5   2  -5   67.74    7.76
   5   2  -5   79.90   15.89
   5   2  -5   61.35    5.98
   5   2  -4  377.09   26.91
   5   2  -4  389.81   21.13
   5   2  -3  280.79   21.79
   5   2  -3  284.09   19.68
   5   2  -2  319.17   22.42
   5   2  -2  325.54   22.71
   5   2  -1  773.66   38.22
   5   2  -1  808.66   35.08
   5   2   0   61.95    6.23
   5   2   0   78.90   10.44
   5   2   1 2011.16   71.03
   5   2   1 2232.56   60.84
   5   2   2  518.11   35.77
   5   2   2  571.75   28.38
   5   2   3  498.68   36.47
   5   2   4  382.51   33.74
   5   2   5  251.78   28.58
  -5  -2  -5  227.84   26.66
   5   2   6  422.18   38.85
  -5  -2  -6  383.86   36.40
  -5  -2  -7   -5.91    6.02
   5   2   7   10.97    8.48
   5   3 -14  116.11   30.88
   5   3 -13  166.61   35.25
   5   3 -12  102.43   28.06
   5   3 -11  662.36   67.27
   5   3 -11  608.46   57.29
   5   3 -10   20.10   10.43
   5   3 -10    7.86    5.93
   5   3  -9  860.69   71.13
   5   3  -9  816.26   57.84
   5   3  -8   72.48   16.37
   5   3  -8   75.18   19.96
   5   3  -7  832.91   63.71
   5   3  -7  874.59   51.84
   5   3  -7  755.75   25.69
   5   3  -6 1068.16   66.88
   5   3  -6 1044.50   54.05
   5   3  -6 1041.73   35.65
   5   3  -5  409.22   37.72
   5   3  -5  398.61   30.39
   5   3  -5  430.99   24.18
   5   3  -4 3881.54  100.84
   5   3  -4 3863.58   90.90
   5   3  -3  769.05   38.04
   5   3  -3  677.86   35.21
   5   3  -2  595.63   31.70
   5   3  -2  527.72   32.62
   5   3  -1  740.91   40.37
   5   3  -1  764.47   34.61
   5   3   0   52.75    8.59
   5   3   0   44.59   10.84
   5   3   1  148.26   19.45
   5   3   1  184.36   15.62
   5   3   2   10.12    6.69
   5   3   3 1127.11   60.18
   5   3   4  128.94   20.64
   5   3   5  331.34   34.96
   5   3   6  105.43   20.94
   5   4 -13  160.85   35.37
   5   4 -12  269.11   44.97
   5   4 -11  286.62   44.99
   5   4 -10   56.51   20.57
   5   4 -10   36.29   13.56
   5   4  -9 1667.16  103.49
   5   4  -9 1535.39   82.58
   5   4  -8   75.74   21.88
   5   4  -8   72.88   16.82
   5   4  -7  416.87   45.71
   5   4  -7  440.12   37.68
   5   4  -7  433.59   24.63
   5   4  -6   23.02   10.50
   5   4  -6   26.10    6.60
   5   4  -6   19.94    7.84
   5   4  -5  835.88   57.06
   5   4  -5  900.10   48.26
   5   4  -5  886.42   41.37
   5   4  -4  159.99   18.85
   5   4  -4  113.55   15.27
   5   4  -3  225.49   21.32
   5   4  -3  195.65   21.20
   5   4  -2 3092.74   82.98
   5   4  -2 2809.48   90.54
   5   4  -1  319.56   22.83
   5   4  -1  281.73   27.68
   5   4   0  674.01   44.07
   5   4   1  387.37   34.31
   5   4   2    7.49    5.21
   5   4   3  576.82   45.45
   5   4   4   40.41   12.76
   5   4   5  187.39   28.27
   5   5 -13   49.50   20.71
   5   5 -12  444.84   58.47
   5   5 -11  111.03   29.15
   5   5 -10 1041.67   85.96
   5   5 -10  820.01   64.34
   5   5  -9  258.84   40.70
   5   5  -9  255.57   33.72
   5   5  -8  410.44   49.65
   5   5  -8  385.91   39.24
   5   5  -7 1920.47  103.13
   5   5  -7 1929.81   84.61
   5   5  -7 1855.52   64.66
   5   5  -6  153.63   27.30
   5   5  -6  162.85   22.66
   5   5  -6  123.81   16.56
   5   5  -5  513.79   46.46
   5   5  -5  543.74   39.61
   5   5  -5  491.56   34.91
   5   5  -4   40.63   13.56
   5   5  -4   32.45    9.68
   5   5  -4   33.53   10.05
   5   5  -3  134.26   17.40
   5   5  -3  113.87   18.06
   5   5  -2  217.45   20.96
   5   5  -2  201.95   24.80
   5   5  -1   26.86    9.43
   5   5   0 1244.83   66.86
   5   5   1  410.09   38.47
   5   5   2  837.95   57.68
   5   5   3  296.50   34.99
   5   6 -13   -0.69    7.29
   5   6 -12  314.59   50.15
   5   6 -11   39.13   19.29
   5   6 -10  491.37   60.48
   5   6  -9   83.99   24.46
   5   6  -9   84.28   20.12
   5   6  -8  496.46   55.85
   5   6  -8  423.55   43.55
   5   6  -7   14.30    9.73
   5   6  -7   46.71   13.11
   5   6  -7   34.20    9.30
   5   6  -6   20.74    8.02
   5   6  -6   29.81   12.47
   5   6  -6   36.30   10.82
   5   6  -5 2342.96  109.16
   5   6  -5 2397.19   91.19
   5   6  -5 2237.64   87.35
   5   6  -4  277.98   34.88
   5   6  -4  312.46   29.92
   5   6  -4  285.33   30.86
   5   6  -3  372.56   36.10
   5   6  -2  283.18   32.14
   5   6  -1   75.66   17.08
   5   6   0  243.06   31.44
   5   6   1    9.15    5.98
   5   6   2  274.84   35.43
   5   7 -12  -18.56   14.34
   5   7 -11  105.73   30.04
   5   7 -10  940.58   86.67
   5   7  -9   27.65   14.98
   5   7  -8  298.33   44.85
   5   7  -7    5.99    4.48
   5   7  -7   17.73   10.85
   5   7  -7    1.04    5.50
   5   7  -6  753.23   65.57
   5   7  -6  692.85   50.26
   5   7  -6  771.88   55.23
   5   7  -5   65.28   16.28
   5   7  -5   45.29   15.39
   5   7  -5   74.63   17.62
   5   7  -4    3.98    6.16
   5   7  -4    3.09    6.54
   5   7  -3  935.61   62.73
   5   7  -2  243.28   32.84
   5   7  -1  746.15   58.88
   5   7   0  101.48   22.37
   5   8 -11  537.54   68.38
   5   8 -10   49.83   19.90
   5   8  -9   12.38   11.52
   5   8  -8  900.35   80.88
   5   8  -7  110.44   21.50
   5   8  -7  120.59   28.61
   5   8  -6  416.39   51.09
   5   8  -6  338.54   38.83
   5   8  -5   54.86   17.37
   5   8  -5   99.11   21.51
   5   8  -4  118.75   25.81
   5   8  -4  127.37   25.45
   5   8  -3   40.25   15.23
   5   8  -3    4.98    6.93
   5   8  -2   45.86   15.75
   5   9  -9  886.15   85.36
   5   9  -8   10.19    7.09
   5   9  -7    6.82    9.24
   5   9  -7   16.64   10.47
   5   9  -6  989.96   83.44
   5   9  -6  864.07   67.09
   5   9  -5   32.29   15.06
   5   9  -5   41.02   13.90
   5   9  -4  338.54   46.15
   5   9  -4  279.05   39.18
   5  10  -7  232.73   36.50
   6 -12   3   30.34   16.15
   6 -12   4  158.53   35.40
   6 -12   5  145.26   35.28
   6 -12   6   -3.94    9.87
   6 -12   7  266.16   46.58
   6 -11  -1   60.22   21.40
   6 -11   0  205.53   38.62
   6 -11   1    3.69    9.35
   6 -11   2  101.84   26.23
   6 -11   3  249.59   42.50
   6 -11   4   13.39   11.56
   6 -11   5   -9.41   11.93
   6 -11   6  169.17   34.33
   6 -11   7   41.77   20.60
   6 -11   8   16.12   13.39
   6 -11   9  173.36   38.08
   6 -10  -3    0.68    9.63
   6 -10  -2  230.72   39.67
   6 -10  -1  223.24   38.08
   6 -10   0  -15.05   11.73
   6 -10   1  173.84   34.02
   6 -10   2  360.94   50.45
   6 -10   3   30.09   16.63
   6 -10   4  339.70   48.17
   6 -10   5   57.17   20.43
   6 -10   6   -0.45   12.06
   6 -10   7  153.14   34.99
  -6  10  -7  109.40   22.65
   6 -10   8   49.47   19.49
  -6  10  -8   35.48   14.37
   6 -10   9  -14.84   12.98
  -6  10  -9   -4.40    7.44
   6 -10  10   24.10   15.45
  -6  10 -10    1.71    6.71
   6  -9  -5    4.88    8.19
   6  -9  -4    8.28   12.77
   6  -9  -3  394.51   48.49
   6  -9  -2   21.22    9.00
   6  -9  -1   40.26   14.94
   6  -9   0  186.05   34.01
   6  -9   0  170.43   19.43
   6  -9   1   66.76   20.94
   6  -9   1   46.88   11.08
   6  -9   2   -4.66    8.85
   6  -9   3  420.77   51.65
   6  -9   4  121.93   28.61
   6  -9   5   21.32   13.18
  -6   9  -5   28.36    9.96
  -6   9  -6  662.31   50.84
   6  -9   6  889.11   77.95
   6  -9   7   68.65   23.73
  -6   9  -7   21.68   10.78
   6  -9   8   -6.65   10.00
  -6   9  -8    1.46    5.01
  -6   9  -9  109.43   26.55
  -6   9 -10    7.55   13.06
   6  -8  -6   37.97   14.81
   6  -8  -5   67.73   19.23
   6  -8  -4  276.11   37.29
   6  -8  -3   21.68   12.44
   6  -8  -2  262.67   37.33
   6  -8  -1  392.14   28.47
   6  -8  -1  444.97   48.95
   6  -8   0   58.45   18.85
   6  -8   0   81.03   13.92
   6  -8   1  374.73   46.87
   6  -8   2  409.62   50.13
   6  -8   3  109.35   25.62
  -6   8  -3   71.98   11.63
   6  -8   4   41.52   18.15
  -6   8  -4   22.13    8.13
  -6   8  -5  248.41   28.53
   6  -8   5  419.61   50.73
  -6   8  -6   43.02   14.27
  -6   8  -7    5.75    7.83
  -6   8  -8  409.87   45.83
  -6   8  -9   25.25   11.88
  -6   8 -10   44.67   18.11
   6  -7  -7    6.03    6.67
   6  -7  -7   15.33   10.90
   6  -7  -6  426.31   42.64
   6  -7  -6  471.79   45.65
   6  -7  -5   15.29    7.60
   6  -7  -5   42.60   12.64
   6  -7  -4   12.47    7.97
   6  -7  -4  -30.57   12.63
   6  -7  -3  284.49   36.67
   6  -7  -3  263.14   22.83
   6  -7  -2  703.05   38.32
   6  -7  -2  638.98   55.69
   6  -7  -1   14.02    9.36
   6  -7  -1    5.18    4.50
   6  -7   0  456.77   31.87
   6  -7   0  416.96   46.91
   6  -7   1  407.15   47.02
   6  -7   2   64.66   19.35
  -6   7  -2   43.08    8.19
  -6   7  -3 1059.30   48.10
   6  -7   3 1242.00   82.81
  -6   7  -4    0.89    3.39
  -6   7  -5   10.15    5.41
  -6   7  -6  234.61   29.87
  -6   7  -7  147.12   26.05
  -6   7  -8    5.08    6.53
  -6   7  -9   -8.56    7.96
  -6   7 -10  237.68   37.81
   6  -6  -8  -26.56   12.13
   6  -6  -7  440.53   42.37
   6  -6  -7  436.72   40.99
   6  -6  -6   -4.48    6.45
   6  -6  -6    1.08    6.67
   6  -6  -5  116.71   19.74
   6  -6  -5  117.02   21.66
   6  -6  -4  423.70   35.42
   6  -6  -4  380.80   39.09
   6  -6  -4  400.56   28.57
   6  -6  -3    1.36    4.84
   6  -6  -3   -2.40    3.29
   6  -6  -3    4.09    4.79
   6  -6  -2  271.33   23.15
   6  -6  -2  272.88   34.47
   6  -6  -1  312.53   25.12
   6  -6  -1  321.15   38.39
   6  -6   0   99.42   22.11
   6  -6   0  104.05   14.88
   6  -6   1   12.13   10.07
  -6   6  -1    8.67    3.60
  -6   6  -2 1136.91   44.66
  -6   6  -3  133.80   16.80
  -6   6  -4   27.97    9.35
  -6   6  -5  968.97   55.86
  -6   6  -6   -3.66    8.71
  -6   6  -7   99.78   20.51
  -6   6  -8  164.58   27.94
  -6   6  -9    1.17    4.92
  -6   6 -10   37.21   15.16
   6  -5  -9   87.58   20.71
   6  -5  -8   72.25   16.71
   6  -5  -7   58.63   14.84
   6  -5  -7   54.41   13.30
   6  -5  -6  229.33   24.15
   6  -5  -6  227.62   26.88
   6  -5  -6  239.36   27.47
   6  -5  -5  638.07   38.14
   6  -5  -5  741.22   46.20
   6  -5  -5  705.01   48.25
   6  -5  -4  228.98   24.36
   6  -5  -4  235.46   28.31
   6  -5  -4  223.40   21.29
   6  -5  -3  684.56   39.81
   6  -5  -3  665.40   36.65
   6  -5  -3  619.29   47.89
   6  -5  -2  979.19   46.29
   6  -5  -2  918.21   43.62
   6  -5  -2  894.35   60.35
   6  -5  -1   64.94   17.63
   6  -5  -1   46.48    6.44
   6  -5  -1   60.46   10.90
   6  -5   0  691.89   38.46
   6  -5   0  642.96   53.13
  -6   5  -1   43.13    7.97
  -6   5  -2  229.37   19.97
  -6   5  -3  119.91   16.05
  -6   5  -4  448.77   34.39
  -6   5  -5    0.92    5.92
  -6   5  -6   19.68    9.14
  -6   5  -7  942.17   62.32
  -6   5  -8   38.03   14.46
  -6   5  -9   96.05   22.12
  -6   5 -10   60.74   18.19
   6  -4  -9    0.29    7.34
   6  -4  -8   89.69   17.42
   6  -4  -7  393.08   34.54
   6  -4  -7  421.52   36.32
   6  -4  -7  430.49   33.09
   6  -4  -6  123.23   18.83
   6  -4  -6  125.08   17.58
   6  -4  -6  123.85   17.94
   6  -4  -5   97.48   15.47
   6  -4  -5   69.69   12.12
   6  -4  -5  105.43   17.02
   6  -4  -4  287.07   24.77
   6  -4  -4  304.45   30.01
   6  -4  -4  288.13   24.27
   6  -4  -3  594.48   33.99
   6  -4  -3  576.91   33.93
   6  -4  -3  621.05   45.52
   6  -4  -2   20.11    6.74
   6  -4  -2   18.22    7.81
   6  -4  -2   17.71    6.09
   6  -4  -1 1783.12   62.31
   6  -4  -1 1797.10   84.46
   6  -4   0  270.88   23.29
  -6   4  -1   29.92    7.01
  -6   4  -2 2269.31   70.11
  -6   4  -3   19.21    6.57
  -6   4  -4   73.30   13.73
  -6   4  -5  162.25   21.87
  -6   4  -6  185.60   25.10
  -6   4  -7   58.13   14.74
  -6   4  -8   11.80    9.03
  -6   4  -9  178.79   29.44
   6  -3 -10   31.44   13.01
   6  -3  -9    9.55    6.56
   6  -3  -8  598.24   45.58
   6  -3  -8  530.74   41.64
   6  -3  -7   62.26   13.55
   6  -3  -7   76.61   15.06
   6  -3  -7   65.37   11.70
   6  -3  -6  763.47   44.00
   6  -3  -6  821.62   45.35
   6  -3  -6  799.36   42.90
   6  -3  -6  824.58   41.37
   6  -3  -5  536.95   33.96
   6  -3  -5  534.59   34.62
   6  -3  -5  536.97   34.55
   6  -3  -4   25.71    8.68
   6  -3  -4   20.72    6.39
   6  -3  -4   24.46    6.71
   6  -3  -3  687.69   29.63
   6  -3  -3  748.84   34.74
   6  -3  -3  800.56   40.04
   6  -3  -3  708.60   46.71
   6  -3  -2  800.24   39.59
   6  -3  -2  777.63   33.12
   6  -3  -1  647.56   28.63
   6  -3  -1  673.13   36.20
   6  -3   0   86.99   12.95
  -6   3  -1 1332.84   33.96
  -6   3  -1 1408.40   51.28
  -6   3  -2   61.97   11.01
  -6   3  -2   64.42    6.00
  -6   3  -3   28.40    8.23
  -6   3  -4 1453.46   63.26
  -6   3  -5  154.41   21.15
  -6   3  -6  339.67   33.86
  -6   3  -7  294.19   33.41
  -6   3  -8   15.24    9.89
  -6   3  -9   22.01   11.28
   6  -2 -11   91.44   20.12
   6  -2 -10  172.08   29.23
   6  -2 -10  225.31   28.95
   6  -2  -9  124.98   22.84
   6  -2  -9  176.67   24.50
   6  -2  -8   25.36    8.97
   6  -2  -8   20.75    9.24
   6  -2  -7  315.06   29.80
   6  -2  -7  343.51   29.45
   6  -2  -7  312.74   32.23
   6  -2  -6 1297.13   57.88
   6  -2  -6 1287.46   54.67
   6  -2  -6 1199.82   44.27
   6  -2  -5  185.75   19.70
   6  -2  -5  173.15   17.90
   6  -2  -5  173.98   17.32
   6  -2  -5  154.78   18.24
   6  -2  -4  995.14   45.28
   6  -2  -4 1159.79   44.13
   6  -2  -4 1106.53   51.69
   6  -2  -4 1105.53   48.34
   6  -2  -3  245.43   17.72
   6  -2  -3  245.50   21.48
   6  -2  -3  243.44   25.80
   6  -2  -2   29.72    7.85
   6  -2  -2   10.26    3.60
   6  -2  -1 1934.07   63.00
   6  -2  -1 1837.21   45.01
   6  -2   0    9.20    4.45
   6  -2   1  194.98   19.32
  -6   2  -1  191.31   18.77
  -6   2  -2  162.58   18.45
  -6   2  -3  974.96   48.74
  -6   2  -4    1.16    4.88
  -6   2  -5   22.69    7.78
  -6   2  -6  791.44   52.34
  -6   2  -7  101.08   19.76
  -6   2  -8  206.40   29.89
  -6   2  -9    3.52    4.81
   6  -1 -11  525.36   45.56
   6  -1 -11  492.28   53.61
   6  -1 -10    6.92    4.35
   6  -1 -10   14.00    7.23
   6  -1  -9  247.88   31.08
   6  -1  -9  285.92   29.72
   6  -1  -9  220.40   30.90
   6  -1  -8  114.09   17.55
   6  -1  -8  109.27   19.51
   6  -1  -8  121.21   22.66
   6  -1  -7   73.80   14.14
   6  -1  -7   79.23   13.75
   6  -1  -6  295.34   26.87
   6  -1  -6  246.80   27.24
   6  -1  -6  289.01   23.95
   6  -1  -6  277.56   16.25
   6  -1  -5  411.96   30.00
   6  -1  -5  430.43   33.97
   6  -1  -5  443.76   27.19
  -6   1   5  406.22   14.40
   6  -1  -5  427.55   24.93
   6  -1  -4  443.75   24.73
   6  -1  -4  422.19   30.32
   6  -1  -4  411.01   29.46
   6  -1  -4  457.21   30.42
   6  -1  -3  207.48   14.87
   6  -1  -3  196.51   19.45
   6  -1  -2 3340.89   66.29
   6  -1  -2 3432.34   89.47
   6  -1  -1   70.69   11.42
   6  -1  -1   58.43    5.38
   6  -1  -1   50.73    8.48
   6  -1   0   21.50    6.27
   6  -1   0   14.78    5.68
   6  -1   1 1775.12   61.37
   6  -1   1 1747.74   59.55
  -6   1  -1 1626.13   60.74
  -6   1  -2    2.23    3.47
   6  -1   2    8.75    5.64
   6  -1   2   11.67    5.11
   6  -1   3  455.93   30.89
   6  -1   3  487.83   34.48
  -6   1  -3  502.14   35.70
  -6   1  -4   68.45   13.80
   6  -1   4   65.40   13.36
  -6   1  -5   54.15   13.37
   6  -1   5   51.30   12.97
   6  -1   6    3.43    4.36
  -6   1  -6   15.91    8.88
  -6   1  -7   87.86   18.27
   6  -1   7   87.99   17.07
  -6   1  -8  165.61   27.15
   6   0 -12  160.54   25.85
   6   0 -11   15.27   10.96
   6   0 -11   22.87   10.02
   6   0 -10  117.60   23.55
   6   0 -10  100.26   23.11
   6   0  -9  582.22   47.78
   6   0  -9  575.88   55.05
   6   0  -8  246.08   28.82
   6   0  -7 1027.25   55.18
   6   0  -7  980.48   62.47
   6   0  -6  360.01   30.01
   6   0  -6  297.26   32.21
   6   0  -5    9.66    4.00
   6   0  -5   10.65    6.21
   6   0  -5    5.07    3.96
   6   0  -4  439.38   32.60
   6   0  -4  442.15   30.28
   6   0  -3  162.42   13.73
   6   0  -3  156.57   17.08
   6   0  -2  792.03   34.39
   6   0  -2  865.44   40.44
   6   0  -1    4.60    3.80
   6   0  -1    3.11    1.03
   6   0  -1    7.71    3.56
   6   0   0 1658.42   58.17
   6   0   0 1691.00   57.88
   6   0   1   64.63   11.63
   6   0   1   55.43    9.89
  -6   0  -2   61.57   11.83
   6   0   2   60.78   11.85
   6   0   2   80.46   11.87
   6   0   3 1520.71   64.80
   6   0   3 1480.50   55.39
  -6   0  -3 1450.17   64.14
   6   0   4  303.01   29.28
   6   0   4  311.81   24.88
  -6   0  -4  258.87   27.37
   6   0   5  299.89   30.62
   6   0   5  304.32   25.40
  -6   0  -5  242.76   28.17
  -6   0  -6   51.77   13.92
   6   0   6   42.94   12.22
  -6   0  -7   31.31   13.33
   6   0   7   37.93   12.06
  -6   0  -8   36.29   12.58
   6   0   8   72.67   17.99
   6   1 -12   77.99   22.77
   6   1 -11   69.68   19.03
   6   1 -11   68.71   21.59
   6   1 -10  366.87   40.98
   6   1 -10  315.27   43.57
   6   1  -9    5.66    7.85
   6   1  -9    7.77    9.10
   6   1  -8  166.50   24.38
   6   1  -8  155.26   26.89
   6   1  -7  830.86   60.58
   6   1  -7  780.54   48.23
   6   1  -6   40.55   10.42
   6   1  -6   25.41   10.05
   6   1  -5 2810.97   86.38
   6   1  -5 2845.97   99.40
   6   1  -5 2712.87   59.03
   6   1  -4   20.26    4.98
   6   1  -4   14.79    6.04
   6   1  -3    0.24    3.88
   6   1  -3    1.68    2.20
   6   1  -2 1640.82   54.32
   6   1  -2 1702.11   58.84
   6   1  -1   24.30    6.62
   6   1  -1   17.27    5.66
   6   1  -1   10.66    2.08
   6   1   0  136.64   16.66
   6   1   0  134.73   15.25
   6   1   1    2.99    2.70
   6   1   1    3.73    3.64
   6   1   2  705.36   42.43
   6   1   2  727.56   36.33
   6   1   3    3.94    4.70
   6   1   3   -1.63    2.88
  -6  -1  -4   83.01   15.92
   6   1   4   99.61   17.64
   6   1   5  421.01   38.19
  -6  -1  -5  369.30   35.38
  -6  -1  -6   82.33   17.84
   6   1   6   74.72   16.90
   6   1   7  548.28   47.84
  -6  -1  -7  508.19   45.67
   6   2 -13   25.32   14.06
   6   2 -12  289.71   44.93
   6   2 -11   25.31   10.91
   6   2 -11   10.56   12.22
   6   2 -10  648.96   65.72
   6   2 -10  652.83   55.44
   6   2  -9   92.83   19.59
   6   2  -9   86.61   23.02
   6   2  -8   97.43   22.37
   6   2  -8   90.89   17.59
   6   2  -7  239.74   27.39
   6   2  -7  195.68   30.06
   6   2  -6  493.51   44.31
   6   2  -6  460.39   35.41
   6   2  -6  421.10   19.42
   6   2  -5  418.19   31.97
   6   2  -5  429.85   38.19
   6   2  -5  406.35   21.90
   6   2  -4  381.09   28.65
   6   2  -4  359.23   22.67
   6   2  -3 2302.76   67.64
   6   2  -3 2356.13   73.36
   6   2  -2    6.00    2.44
   6   2  -2    9.13    3.62
   6   2  -1  100.68   14.63
   6   2  -1   93.54   12.97
   6   2   0 1171.61   53.82
   6   2   0 1196.59   47.21
   6   2   1  126.16   17.97
   6   2   1  132.53   14.64
   6   2   2  720.45   45.31
   6   2   2  768.26   36.55
   6   2   3  172.00   23.02
   6   2   4  203.76   26.48
   6   2   5   -0.46    6.09
   6   2   6  127.55   23.17
   6   3 -13  204.74   39.89
   6   3 -12    3.81    8.42
   6   3 -11  181.21   31.39
   6   3 -11  213.60   39.41
   6   3 -10  576.24   52.65
   6   3  -9  221.00   37.11
   6   3  -9  220.15   30.29
   6   3  -8  763.47   65.19
   6   3  -8  711.74   51.48
   6   3  -7    3.27    4.89
   6   3  -7    8.71    5.09
   6   3  -6   50.69   14.54
   6   3  -6   71.88   14.71
   6   3  -6   67.95    9.40
   6   3  -5  507.54   43.95
   6   3  -5  516.56   36.33
   6   3  -5  520.23   28.90
   6   3  -4   17.38    6.34
   6   3  -4   26.00    7.25
   6   3  -3  101.70   14.93
   6   3  -3  121.63   15.86
   6   3  -2    7.20    4.65
   6   3  -2    5.51    3.77
   6   3  -1 1714.03   68.63
   6   3  -1 1843.21   61.31
   6   3   0   67.16   10.60
   6   3   0   88.87   15.68
   6   3   1   96.10   16.88
   6   3   2  877.16   53.65
   6   3   3   54.80   13.62
   6   3   4  481.73   43.15
   6   3   5   -0.82    4.92
   6   4 -13  120.42   31.22
   6   4 -12    8.98   11.20
   6   4 -11  171.68   31.06
   6   4 -11  224.07   41.11
   6   4 -10    5.23    8.56
   6   4 -10    9.79    7.06
   6   4  -9  206.02   36.39
   6   4  -9  188.81   28.72
   6   4  -8  211.95   28.37
   6   4  -8  181.90   32.60
   6   4  -7  249.28   36.00
   6   4  -7  257.95   30.16
   6   4  -6 2162.04   85.35
   6   4  -6 2019.98   98.73
   6   4  -6 2010.26   65.45
   6   4  -5   45.59   14.63
   6   4  -5   32.01    9.57
   6   4  -5   37.15    8.91
   6   4  -4   30.54    9.24
   6   4  -4   30.79    8.66
   6   4  -3  821.96   44.03
   6   4  -3  763.06   44.99
   6   4  -2   29.86    7.65
   6   4  -2   33.51   10.71
   6   4  -1  441.85   29.44
   6   4  -1  478.88   37.94
   6   4   0   13.37    7.65
   6   4   1  445.69   39.56
   6   4   2   -0.31    5.40
   6   4   3  280.62   33.73
   6   5 -13  118.78   31.65
   6   5 -12  146.63   35.15
   6   5 -11  326.39   43.34
   6   5 -10   16.25   10.63
   6   5 -10   -4.25    6.26
   6   5  -9   38.73   13.25
   6   5  -9   55.15   21.33
   6   5  -8   48.94   17.72
   6   5  -8   26.77   10.05
   6   5  -7  243.92   37.09
   6   5  -7  226.52   29.17
   6   5  -7  236.15   22.56
   6   5  -6  424.28   46.95
   6   5  -6  430.60   38.38
   6   5  -6  372.32   30.29
   6   5  -5   11.04   10.40
   6   5  -5    3.25    4.31
   6   5  -5   -2.91    5.89
   6   5  -4 1657.73   69.88
   6   5  -4 1450.33   67.59
   6   5  -3  120.42   17.46
   6   5  -3  121.21   19.78
   6   5  -2  290.83   31.59
   6   5  -1  910.99   57.66
   6   5   0   69.04   16.36
   6   5   1  286.49   34.54
   6   5   2   31.89   12.38
   6   6 -12  124.52   33.13
   6   6 -11  247.10   45.80
   6   6 -10    8.36    8.20
   6   6 -10    4.65    7.56
   6   6  -9 1124.04   90.25
   6   6  -9 1020.14   71.59
   6   6  -8   34.06   15.45
   6   6  -8   13.59    9.97
   6   6  -7  131.64   28.39
   6   6  -7  115.55   18.05
   6   6  -7  141.31   24.60
   6   6  -6  340.74   43.33
   6   6  -6  391.05   38.10
   6   6  -6  361.92   33.94
   6   6  -5  109.76   24.10
   6   6  -5  110.16   19.74
   6   6  -5  105.64   18.74
   6   6  -4   73.67   19.87
   6   6  -4   64.89   14.18
   6   6  -4   77.60   17.26
   6   6  -3  -11.93    7.74
   6   6  -2 1002.54   64.19
   6   6  -1   49.77   15.09
   6   6   0  232.10   32.04
   6   7 -11   24.85   15.26
   6   7 -10  411.03   58.65
   6   7  -9  229.13   34.80
   6   7  -9  187.92   38.16
   6   7  -8   31.00   15.65
   6   7  -8   51.12   16.47
   6   7  -7 1320.66   94.53
   6   7  -7 1151.49   65.61
   6   7  -7 1359.48   78.89
   6   7  -6   17.82   11.41
   6   7  -6    8.80    4.91
   6   7  -6    3.66    5.96
   6   7  -5  218.09   35.21
   6   7  -5  238.57   31.47
   6   7  -4  271.69   39.09
   6   7  -4  323.64   37.20
   6   7  -3  -15.33    9.54
   6   7  -2  238.26   33.56
   6   7  -1   45.23   15.60
   6   8  -9   26.10   15.47
   6   8  -8   94.90   27.16
   6   8  -7   18.86    9.95
   6   8  -7   61.35   21.09
   6   8  -6   -3.43    7.08
   6   8  -6  -24.32   11.61
   6   8  -5  919.23   77.59
   6   8  -5  831.63   64.26
   6   8  -4  178.46   33.38
   6   8  -4  164.05   29.78
   6   8  -3  147.53   28.61
   6   9  -7   56.72   16.93
   6   9  -6   64.78   19.11
   7 -11   0   -8.83   13.97
   7 -11   1  -12.34   11.42
   7 -11   2  785.00   76.20
   7 -11   3  -21.42   14.73
   7 -11   4  149.27   33.96
   7 -11   5   19.13   14.31
   7 -11   6  324.93   51.57
   7 -11   7   -0.29    8.92
   7 -10  -3  100.62   25.65
   7 -10  -2   52.53   19.00
   7 -10  -1  232.90   39.33
   7 -10   0  172.67   33.83
   7 -10   1 1130.15   88.16
   7 -10   2   -8.48   13.27
   7 -10   2    5.32    3.84
   7 -10   3   19.73   11.38
   7 -10   4  782.84   75.11
   7 -10   5   87.86   25.81
   7 -10   6  439.71   57.95
   7 -10   7   -0.22   11.70
   7 -10   8   68.28   27.62
  -7  10  -8   43.47   17.54
   7 -10   9   14.74   14.26
  -7  10  -9   21.44   12.26
   7  -9  -5  206.06   34.10
   7  -9  -4  569.65   57.11
   7  -9  -3   10.76    8.16
   7  -9  -2   13.20    9.57
   7  -9  -1  417.32   50.79
   7  -9   0   -2.63    9.81
   7  -9   0    0.28    3.72
   7  -9   1  340.88   31.38
   7  -9   1  408.02   52.16
   7  -9   2   -2.28   13.18
   7  -9   3 1109.93   87.46
   7  -9   4   91.72   26.50
   7  -9   5   31.34   16.81
  -7   9  -5   17.66    7.50
  -7   9  -6  582.50   48.18
   7  -9   6  825.39   77.12
   7  -9   7  200.67   39.21
  -7   9  -7  118.13   24.11
  -7   9  -8  278.83   38.66
  -7   9  -9    4.16    6.87
   7  -8  -6   -2.49    7.67
   7  -8  -5   64.81   18.42
   7  -8  -4  273.36   37.39
   7  -8  -3  161.69   29.17
   7  -8  -2 1839.54   69.67
   7  -8  -2 1708.64   98.74
   7  -8  -1   24.34   12.22
   7  -8  -1   35.53    9.23
   7  -8   0    3.66    7.28
   7  -8   0    6.13    4.69
   7  -8   1  713.44   45.05
   7  -8   1  829.29   71.67
   7  -8   2    8.81   10.23
  -7   8  -3  327.20   26.06
   7  -8   3  419.35   51.60
   7  -8   4   -6.76    9.06
  -7   8  -4    3.04    3.55
  -7   8  -5  403.58   36.81
  -7   8  -6  -14.96    8.24
  -7   8  -7  142.36   25.88
  -7   8  -8  117.28   25.20
  -7   8  -9   91.88   22.59
   7  -7  -7  752.06   59.05
   7  -7  -6   15.83    5.84
   7  -7  -6   11.44    9.13
   7  -7  -5   71.01   16.77
   7  -7  -5   55.25   15.22
   7  -7  -4  111.96   20.15
   7  -7  -4  105.83   22.15
   7  -7  -3  145.69   26.53
   7  -7  -3  138.47   18.18
   7  -7  -2  488.75   34.73
   7  -7  -2  454.42   47.87
   7  -7  -1  104.89   24.02
   7  -7  -1  113.21   16.31
   7  -7   0 1698.82   68.74
   7  -7   0 1732.00   99.35
   7  -7   1  142.55   28.32
   7  -7   1   79.06   14.99
  -7   7  -2  259.65   21.20
   7  -7   2  328.04   44.13
  -7   7  -3  896.96   45.65
  -7   7  -4  220.00   24.80
  -7   7  -5  483.04   40.45
  -7   7  -6   15.45   10.41
  -7   7  -7  167.94   27.89
  -7   7  -8   -0.65    7.68
  -7   7  -9   78.65   21.17
   7  -6  -8  171.47   28.24
   7  -6  -7  578.75   48.89
   7  -6  -6  109.70   20.62
   7  -6  -6   86.58   18.80
   7  -6  -5 1350.34   68.15
   7  -6  -5 1325.93   73.09
   7  -6  -5 1234.13   58.31
   7  -6  -4    9.15    7.54
   7  -6  -4   32.84   10.28
   7  -6  -4   24.47    8.42
   7  -6  -3  161.51   26.91
   7  -6  -3  188.17   22.73
   7  -6  -3  198.72   21.56
   7  -6  -2  884.33   46.67
   7  -6  -2  811.34   61.99
   7  -6  -1   49.56   16.26
   7  -6  -1   46.01   10.47
   7  -6   0  223.38   34.18
   7  -6   0  191.05   21.59
   7  -6   1   16.92   12.47
  -7   6  -1    8.44    4.11
   7  -6   1   15.93    6.95
  -7   6  -2 1756.23   61.49
  -7   6  -3   78.18   13.64
  -7   6  -4  235.96   25.60
  -7   6  -5  413.47   37.09
  -7   6  -6   79.36   18.37
  -7   6  -7  663.70   54.19
  -7   6  -8   -0.40    4.50
  -7   6  -9   21.87   10.38
   7  -5  -9   -4.38   10.61
   7  -5  -8  172.77   26.56
   7  -5  -7   -2.90    7.84
   7  -5  -6  378.08   32.81
   7  -5  -6  368.16   34.28
   7  -5  -6  383.71   34.82
   7  -5  -5  304.42   29.62
   7  -5  -5  296.21   31.86
   7  -5  -5  288.68   27.01
   7  -5  -4  254.30   25.91
   7  -5  -4  287.44   32.20
   7  -5  -4  325.21   27.85
   7  -5  -3 2764.29   86.50
   7  -5  -3 2732.54   85.93
   7  -5  -3 2521.13  105.37
   7  -5  -2   89.48   14.58
   7  -5  -2   57.94   15.11
   7  -5  -2   71.37   12.48
   7  -5  -1  352.53   28.45
   7  -5  -1  306.45   38.11
   7  -5   0  732.68   42.79
  -7   5  -1   17.16    5.26
   7  -5   1   11.66    4.89
  -7   5  -2  636.37   36.68
  -7   5  -3   46.17   11.15
  -7   5  -4  459.81   36.36
  -7   5  -5   68.57   14.71
  -7   5  -6  495.39   43.45
  -7   5  -7  124.24   22.62
  -7   5  -8   30.02   11.52
  -7   5  -9  256.17   36.33
   7  -4  -9  153.48   25.45
   7  -4  -8  865.92   57.46
   7  -4  -8  910.30   57.64
   7  -4  -7    8.90    5.59
   7  -4  -7   11.21    6.22
   7  -4  -6  367.37   32.04
   7  -4  -6  384.16   32.84
   7  -4  -6  334.02   29.61
   7  -4  -5  112.11   18.10
   7  -4  -5  120.27   17.08
   7  -4  -5  117.41   17.21
   7  -4  -4  160.73   22.94
   7  -4  -4  191.11   21.15
   7  -4  -4  158.25   18.41
   7  -4  -3  296.02   24.02
   7  -4  -3  298.92   26.20
   7  -4  -3  295.18   32.88
   7  -4  -2   15.12    6.82
   7  -4  -2   20.46    9.95
   7  -4  -2    3.91    2.57
   7  -4  -1 1982.81   70.78
   7  -4   0  673.34   40.40
   7  -4   1  477.40   34.55
  -7   4  -1  446.47   29.58
  -7   4  -2 1111.90   50.98
  -7   4  -3   63.32   12.73
  -7   4  -4  477.60   37.45
  -7   4  -5   22.44    9.19
  -7   4  -6  183.10   26.35
  -7   4  -7    2.25    5.24
  -7   4  -8   99.31   21.82
  -7   4  -9   -1.37    5.34
   7  -3 -10   23.67   10.84
   7  -3  -9  326.34   34.38
   7  -3  -9  301.45   35.82
   7  -3  -8  183.61   25.69
   7  -3  -8  194.31   25.52
   7  -3  -7   94.86   17.49
   7  -3  -7   78.97   15.35
   7  -3  -6 2303.90   83.63
   7  -3  -6 2378.05   81.37
   7  -3  -6 2221.59   74.32
   7  -3  -5  124.23   17.72
   7  -3  -5  125.47   16.57
   7  -3  -5  127.33   17.71
   7  -3  -4  158.43   16.59
   7  -3  -4  225.40   20.11
   7  -3  -4  204.55   22.10
   7  -3  -4  185.45   23.36
   7  -3  -3  522.85   29.03
   7  -3  -3  609.31   37.35
   7  -3  -3  508.13   42.13
   7  -3  -2  291.76   20.10
   7  -3  -2  318.70   26.86
   7  -3  -1  318.62   26.68
   7  -3   0   34.24    8.97
   7  -3   1 1357.11   58.73
  -7   3  -1 1319.03   54.41
   7  -3   2  145.85   19.33
  -7   3  -2  130.79   17.48
  -7   3  -3  935.65   50.48
  -7   3  -4  118.71   18.70
  -7   3  -5   85.13   16.61
  -7   3  -6  456.03   41.40
  -7   3  -7    7.11    7.02
  -7   3  -8    4.27    6.58
   7  -2 -11  546.28   48.44
   7  -2 -10    9.12    8.68
   7  -2 -10   11.65    5.62
   7  -2  -9  211.22   26.95
   7  -2  -9  224.59   30.20
   7  -2  -8    0.13    4.18
   7  -2  -8   -0.24    4.45
   7  -2  -7  702.84   47.13
   7  -2  -7  785.35   45.46
   7  -2  -6  307.57   29.06
   7  -2  -6  281.68   25.26
   7  -2  -5   57.84   11.18
   7  -2  -5   51.32   11.61
   7  -2  -5   69.53   11.49
   7  -2  -5   65.69   13.08
   7  -2  -4 2081.52   71.20
   7  -2  -4 2300.38   65.93
   7  -2  -4 2336.07   78.55
   7  -2  -4 2179.70   82.12
   7  -2  -3  268.42   18.75
   7  -2  -3  256.92   24.13
   7  -2  -2  963.33   33.59
   7  -2  -2 1056.00   49.76
   7  -2  -1  819.59   43.40
   7  -2   0   54.58   10.77
   7  -2   1  457.52   32.10
   7  -2   2  192.28   21.26
  -7   2  -2  170.72   20.51
   7  -2   3  481.66   34.93
  -7   2  -3  456.40   35.82
  -7   2  -4  118.55   18.88
  -7   2  -5  351.98   34.64
  -7   2  -6   47.51   13.99
  -7   2  -7  -11.80    8.01
  -7   2  -8  318.76   38.89
   7  -1 -12  301.38   44.57
   7  -1 -11  181.56   31.56
   7  -1 -11  189.77   27.60
   7  -1 -10   22.22   11.08
   7  -1 -10   11.02    7.27
   7  -1  -9  952.67   62.96
   7  -1  -9  870.22   52.72
   7  -1  -9  825.31   64.21
   7  -1  -8    5.99    5.42
   7  -1  -8    7.44    5.33
   7  -1  -7  452.00   37.76
   7  -1  -7  441.90   38.69
   7  -1  -7  512.64   34.74
   7  -1  -6  241.65   25.95
   7  -1  -6  269.83   23.19
   7  -1  -5  459.16   36.05
   7  -1  -5  538.43   30.43
   7  -1  -5  530.66   32.49
   7  -1  -5  472.20   34.51
   7  -1  -4   27.83    6.01
   7  -1  -4   46.46   10.23
   7  -1  -3   99.17   15.05
   7  -1  -3  111.14   10.87
   7  -1  -2 2457.29   53.04
   7  -1  -2 2598.66   80.99
   7  -1  -1  424.47   28.51
   7  -1  -1  397.86   29.32
   7  -1   0  645.39   36.90
   7  -1   0  637.65   37.35
   7  -1   1  229.30   23.03
   7  -1   1  212.51   21.39
  -7   1  -2   15.00    7.21
   7  -1   2   24.55    8.36
   7  -1   2   23.41    8.00
   7  -1   3  592.97   41.01
   7  -1   3  493.92   34.21
  -7   1  -3  535.78   39.86
  -7   1  -4   18.00    7.60
   7  -1   4   30.98   10.55
   7  -1   4   19.39    6.81
  -7   1  -5   54.18   14.03
   7  -1   5   62.10   14.66
   7  -1   5   61.26   13.00
  -7   1  -6   25.27   10.95
   7  -1   6   30.05   12.41
  -7   1  -7  267.82   33.89
   7   0 -12  163.00   25.89
   7   0 -12  175.49   32.69
   7   0 -11   16.01   10.06
   7   0 -11   24.21   13.27
   7   0 -10  669.69   47.29
   7   0 -10  683.13   56.64
   7   0 -10  569.62   56.55
   7   0  -9   38.22   14.57
   7   0  -9   41.84   12.31
   7   0  -8   50.75   13.64
   7   0  -8   84.44   19.61
   7   0  -7 2008.98   82.36
   7   0  -7 1920.55   91.94
   7   0  -6   26.67   10.27
   7   0  -6   38.65   10.68
   7   0  -5  470.45   34.44
   7   0  -5  470.01   38.01
   7   0  -4  127.00   17.53
   7   0  -3   44.83   10.01
   7   0  -3   42.65    7.97
   7   0  -2  172.48   10.12
   7   0  -2  192.09   18.17
   7   0  -2  198.73   20.79
   7   0  -1  143.89   16.77
   7   0  -1  146.39   17.44
   7   0   0  549.94   34.95
   7   0   0  559.22   34.60
   7   0   1  220.87   23.32
   7   0   1  243.00   22.53
   7   0   2 1323.12   61.74
   7   0   2 1391.78   56.58
   7   0   3  138.52   20.01
   7   0   3  116.59   15.67
   7   0   4    3.85    5.15
   7   0   4   11.64    5.48
   7   0   5  398.55   37.82
  -7   0  -5  418.61   39.25
  -7   0  -6   17.58   10.35
   7   0   6    1.06    6.13
  -7   0  -7   87.64   20.12
   7   1 -12  255.61   40.25
   7   1 -11   28.82   11.29
   7   1 -11   16.91   11.61
   7   1 -10  291.33   37.30
   7   1 -10  239.16   38.79
   7   1  -9    2.64    7.50
   7   1  -8  461.94   48.16
   7   1  -8  441.46   39.91
   7   1  -7    3.72    4.52
   7   1  -7   -1.10    4.28
   7   1  -6   13.43    7.60
   7   1  -6    7.39    4.69
   7   1  -5 1072.20   53.76
   7   1  -5 1103.80   61.94
   7   1  -5 1091.94   37.87
   7   1  -4  560.23   28.88
   7   1  -4  556.42   36.69
   7   1  -3  667.83   34.51
   7   1  -3  697.17   40.18
   7   1  -2  549.52   32.99
   7   1  -2  538.41   34.50
   7   1  -1   16.04    6.03
   7   1  -1   16.77    7.27
   7   1   0  188.12   21.41
   7   1   0  163.35   18.47
   7   1   1  188.62   22.87
   7   1   1  202.23   20.36
   7   1   2  339.08   31.72
   7   1   2  334.36   26.40
   7   1   3   -2.45    5.99
   7   1   4  448.20   40.01
   7   1   5  -21.15    9.90
   7   2 -13  251.48   44.08
   7   2 -12    0.72    6.04
   7   2 -12   -4.90   12.60
   7   2 -11    6.51    7.76
   7   2 -11    9.95   10.32
   7   2 -10  831.13   63.19
   7   2  -9   78.73   21.15
   7   2  -9   50.43   14.22
   7   2  -8  141.30   27.64
   7   2  -8  145.86   23.51
   7   2  -7   80.24   16.71
   7   2  -7   78.91   19.55
   7   2  -6  663.83   44.58
   7   2  -6  688.12   53.67
   7   2  -6  613.45   27.50
   7   2  -5    7.35    6.88
   7   2  -5    8.26    4.15
   7   2  -5    5.21    4.62
   7   2  -4   62.89   10.46
   7   2  -4   74.97   13.67
   7   2  -3  969.86   45.04
   7   2  -3  913.79   47.10
   7   2  -2   83.81   13.68
   7   2  -2   65.81   12.72
   7   2  -1 1473.49   62.21
   7   2  -1 1400.84   56.76
   7   2   0   63.50   11.17
   7   2   0   64.02   13.15
   7   2   1    2.16    3.01
   7   2   1    6.00    5.29
   7   2   2  462.37   39.04
   7   2   3  137.41   22.32
   7   2   4   18.65    7.26
   7   3 -13   94.16   27.28
   7   3 -12   12.75    7.25
   7   3 -12   25.37   15.31
   7   3 -11  539.36   63.61
   7   3 -11  497.80   52.69
   7   3 -10    3.27    7.12
   7   3 -10   -1.03    8.12
   7   3  -9    3.46    6.47
   7   3  -9  -10.52    9.70
   7   3  -8  724.61   64.78
   7   3  -8  788.19   55.90
   7   3  -7   39.08   15.37
   7   3  -7   41.56   13.51
   7   3  -6  626.75   53.55
   7   3  -6  691.11   46.70
   7   3  -6  634.43   32.06
   7   3  -5  333.12   37.12
   7   3  -5  387.63   33.16
   7   3  -5  331.40   25.02
   7   3  -4   89.17   13.87
   7   3  -4  113.87   17.58
   7   3  -3  169.81   20.37
   7   3  -3  158.72   19.54
   7   3  -2  596.07   37.10
   7   3  -2  551.95   38.62
   7   3  -1  390.05   33.62
   7   3  -1  377.94   28.59
   7   3   0   56.86   13.48
   7   3   1  805.08   52.78
   7   3   2   38.43   10.36
   7   3   3   17.17    8.01
   7   4 -13   77.86   26.30
   7   4 -12  -34.20   15.72
   7   4 -12   -7.23   10.63
   7   4 -11  263.48   44.44
   7   4 -11  149.38   29.37
   7   4 -10   43.43   18.84
   7   4 -10   45.48   16.54
   7   4  -9  588.36   62.62
   7   4  -9  559.29   50.28
   7   4  -8    6.36    4.47
   7   4  -8   -5.68   10.56
   7   4  -7  221.78   34.58
   7   4  -7  232.80   29.86
   7   4  -6 1068.05   74.05
   7   4  -6 1111.24   62.26
   7   4  -6 1054.43   48.46
   7   4  -5   81.12   20.45
   7   4  -5   92.09   17.06
   7   4  -5  127.30   17.71
   7   4  -4  470.99   36.45
   7   4  -4  466.05   35.40
   7   4  -3  115.61   17.39
   7   4  -3  104.88   17.72
   7   4  -2   74.07   15.68
   7   4  -2   75.28   13.56
   7   4  -1  211.64   27.04
   7   4   0  174.30   25.31
   7   4   1   15.31    7.54
   7   4   2   31.92   11.77
   7   5 -12   42.63   18.03
   7   5 -11  545.09   66.19
   7   5 -11  585.72   58.94
   7   5 -10   10.68    9.96
   7   5 -10   30.74   16.25
   7   5  -9  116.39   29.12
   7   5  -9  117.70   24.33
   7   5  -8   68.33   21.37
   7   5  -8   45.80   15.76
   7   5  -7  197.01   34.57
   7   5  -7  297.21   34.74
   7   5  -6   38.41   14.35
   7   5  -6   35.67   10.00
   7   5  -6   18.31    7.40
   7   5  -5  282.28   38.31
   7   5  -5  351.28   34.35
   7   5  -5  307.23   30.37
   7   5  -4  256.26   28.13
   7   5  -4  228.66   27.51
   7   5  -3   61.93   15.35
   7   5  -2  907.86   59.10
   7   5  -1   46.21   14.06
   7   5   0  -12.39    8.49
   7   5   1  140.72   24.98
   7   6 -11    6.85    7.59
   7   6 -11   12.93   14.10
   7   6 -10  114.52   24.91
   7   6 -10  160.13   36.79
   7   6  -9  405.52   55.95
   7   6  -9  346.30   42.84
   7   6  -8   35.64   16.79
   7   6  -8   19.78    7.10
   7   6  -7  281.08   42.99
   7   6  -7  234.30   33.17
   7   6  -6  192.32   27.40
   7   6  -6  154.18   31.46
   7   6  -6  170.14   24.05
   7   6  -5   66.08   16.19
   7   6  -5   38.94   16.41
   7   6  -5   71.29   16.99
   7   6  -4    3.80    5.48
   7   6  -3  243.15   32.43
   7   6  -2   91.39   20.66
   7   6  -1  -13.90    8.05
   7   7 -10  375.33   56.76
   7   7 -10  327.26   45.73
   7   7  -9   13.78   10.43
   7   7  -9   16.51    7.50
   7   7  -8  118.71   26.13
   7   7  -8  120.90   30.15
   7   7  -7  260.04   43.55
   7   7  -7  210.46   31.76
   7   7  -6  -26.57   14.39
   7   7  -6   11.38    7.91
   7   7  -5  420.78   52.20
   7   7  -5  393.22   41.87
   7   7  -4   19.52   11.87
   7   7  -4    4.12    7.14
   7   7  -3   -2.89    7.31
   7   8  -6  285.45   37.62
   7   8  -5   49.40   17.61
   8 -11   0   97.68   27.16
   8 -11   1   -7.86   10.52
   8 -11   2  423.23   58.91
   8 -11   3    3.28   10.64
   8 -11   3   10.92    7.63
   8 -11   4    9.14   16.97
   8 -11   5  758.03   78.50
   8 -10  -3  426.98   53.20
   8 -10  -2  106.57   26.23
   8 -10  -1   43.11   15.50
   8 -10   0  658.74   67.71
   8 -10   1   -9.55   11.37
   8 -10   1    6.62    5.13
   8 -10   2  303.36   48.29
   8 -10   2  229.28   28.52
   8 -10   3   53.88   20.71
   8 -10   4  177.26   37.06
   8 -10   5    6.60   13.12
   8 -10   6    8.07    9.84
   8 -10   7  691.74   77.88
  -8  10  -8  106.84   23.73
   8  -9  -5   77.21   21.22
   8  -9  -4    3.48    8.61
   8  -9  -3  391.86   48.78
   8  -9  -2   14.21    9.28
   8  -9  -1  647.73   44.23
   8  -9  -1  622.24   62.79
   8  -9   0  -15.43   14.80
   8  -9   0    8.78    5.67
   8  -9   1  -10.30   10.35
   8  -9   1    0.82    4.48
   8  -9   2 1124.32   63.78
   8  -9   2 1434.35   99.92
   8  -9   3  106.89   26.95
   8  -9   4  307.01   47.69
   8  -9   5  101.70   27.27
   8  -9   6  121.65   31.96
  -8   9  -6   73.04   17.21
  -8   9  -7   50.86   16.10
  -8   9  -8   -4.16   10.47
   8  -8  -5   51.75   15.71
   8  -8  -4   -0.15    8.60
   8  -8  -3  613.51   58.11
   8  -8  -2   14.40   10.44
   8  -8  -2   11.58    6.32
   8  -8  -1  307.43   42.42
   8  -8  -1  326.82   30.81
   8  -8   0   45.49   15.70
   8  -8   0   17.14    7.57
   8  -8   1  825.91   52.16
   8  -8   1 1099.65   83.58
   8  -8   2   18.40    8.09
   8  -8   2    5.89    3.70
   8  -8   3    4.56   10.96
  -8   8  -4  730.03   46.66
   8  -8   4 1014.55   83.11
  -8   8  -5  274.32   31.14
  -8   8  -6  554.23   47.74
  -8   8  -7   21.32    9.74
  -8   8  -8    4.72    6.60
   8  -7  -6  376.95   39.95
   8  -7  -5  229.98   29.72
   8  -7  -5  235.33   32.90
   8  -7  -4  900.15   66.16
   8  -7  -4  964.08   53.33
   8  -7  -3   27.64   12.11
   8  -7  -3   27.82    8.60
   8  -7  -2    6.86    8.14
   8  -7  -2    8.42    5.23
   8  -7  -1  873.50   50.39
   8  -7  -1  761.44   65.66
   8  -7   0  158.33   30.96
   8  -7   0  130.16   19.51
   8  -7   1  533.61   41.61
   8  -7   1  636.81   62.73
   8  -7   2   60.81   19.52
  -8   7  -2   51.42   10.35
   8  -7   2   33.30   10.53
  -8   7  -3  364.89   30.50
  -8   7  -4   17.83    8.42
  -8   7  -5   49.78   13.99
  -8   7  -6  655.57   52.57
  -8   7  -7  170.18   28.27
  -8   7  -8  326.89   41.64
   8  -6  -7   56.61   15.14
   8  -6  -6  236.91   29.40
   8  -6  -5   34.67   11.10
   8  -6  -5   35.58   10.80
   8  -6  -5   36.08   14.33
   8  -6  -4  430.53   36.42
   8  -6  -4  383.22   40.56
   8  -6  -4  427.07   34.58
   8  -6  -3   79.69   19.93
   8  -6  -3   77.84   15.13
   8  -6  -3   76.35   14.71
   8  -6  -2 2013.16   78.05
   8  -6  -2 1781.62   96.29
   8  -6  -1   69.11   19.40
   8  -6  -1   70.70   14.15
   8  -6   0   22.59   11.43
   8  -6   0    6.89    4.80
   8  -6   1 1250.30   63.38
   8  -6   2  216.83   27.16
  -8   6  -2  209.10   21.85
  -8   6  -3  708.32   44.21
  -8   6  -4    8.59    5.43
  -8   6  -5  126.38   22.32
  -8   6  -6   46.46   14.36
  -8   6  -7   48.86   15.37
  -8   6  -8  137.00   27.41
   8  -5  -8  140.14   23.25
   8  -5  -7 1346.33   70.34
   8  -5  -7 1340.14   70.68
   8  -5  -6   -3.65    8.33
   8  -5  -6   -5.90    5.30
   8  -5  -5    4.94    6.14
   8  -5  -5    5.99    5.24
   8  -5  -5    0.50    4.32
   8  -5  -4  664.23   41.97
   8  -5  -4  597.74   48.96
   8  -5  -4  713.55   44.79
   8  -5  -3   24.62   11.42
   8  -5  -3   14.56    7.29
   8  -5  -3   21.88    7.67
   8  -5  -2  775.64   46.69
   8  -5  -2  667.70   56.00
   8  -5  -1   57.76   18.44
   8  -5  -1   35.38   10.26
   8  -5   0 1282.13   61.53
  -8   5  -1   19.13    6.72
   8  -5   1   17.50    7.37
   8  -5   2  326.40   32.47
  -8   5  -2  310.68   27.74
  -8   5  -3 1038.69   55.28
  -8   5  -4  550.64   42.23
  -8   5  -5  826.98   55.69
  -8   5  -6    3.57    6.92
  -8   5  -7   39.42   14.67
  -8   5  -8   33.09   13.55
   8  -4  -9    9.23    7.69
   8  -4  -8  109.59   20.41
   8  -4  -8  118.58   20.58
   8  -4  -7  668.72   48.51
   8  -4  -7  675.39   46.80
   8  -4  -6  205.62   25.10
   8  -4  -6  176.55   22.40
   8  -4  -5 1900.67   71.82
   8  -4  -5 1918.98   81.22
   8  -4  -5 1841.72   75.52
   8  -4  -4  108.40   19.82
   8  -4  -4  131.33   17.01
   8  -4  -4  123.92   18.32
   8  -4  -3  175.71   26.44
   8  -4  -3  189.68   19.29
   8  -4  -3  193.59   22.74
   8  -4  -2 1532.45   55.00
   8  -4  -2 1659.36   68.85
   8  -4  -1   90.73   15.31
   8  -4   0  613.48   40.81
   8  -4   1    7.05    6.73
   8  -4   2  870.47   52.26
  -8   4  -2  812.88   46.86
  -8   4  -3   14.23    6.91
   8  -4   3   35.18   10.89
  -8   4  -4  129.99   20.75
  -8   4  -5  350.21   36.15
  -8   4  -6  120.08   22.14
  -8   4  -7  716.76   58.17
   8  -3 -10  754.88   56.51
   8  -3  -9    4.95    5.13
   8  -3  -9   26.17   10.48
   8  -3  -8  104.21   20.14
   8  -3  -8  113.49   19.51
   8  -3  -7  311.34   32.65
   8  -3  -7  340.86   31.62
   8  -3  -6  161.10   20.05
   8  -3  -6  137.81   20.64
   8  -3  -5  394.63   29.47
   8  -3  -5  377.09   32.98
   8  -3  -5  422.77   34.55
   8  -3  -4  163.39   23.73
   8  -3  -4  207.17   19.57
   8  -3  -4  205.11   23.55
   8  -3  -3 2880.33   75.89
   8  -3  -3 2860.69   93.20
   8  -3  -2  162.81   14.92
   8  -3  -2  177.19   21.87
   8  -3  -1  180.19   21.54
   8  -3   0  877.01   48.81
   8  -3   1  376.50   31.78
   8  -3   2 1305.41   62.68
  -8   3  -2 1217.92   59.85
  -8   3  -3    4.27    4.93
   8  -3   3   16.93    6.87
  -8   3  -4   85.25   17.40
   8  -3   4  121.75   19.90
  -8   3  -5    1.44    7.02
  -8   3  -6  188.84   29.16
  -8   3  -7  121.38   23.95
   8  -2 -11  149.66   29.04
   8  -2 -10  232.72   34.33
   8  -2 -10  231.40   30.50
   8  -2  -9  285.08   35.59
   8  -2  -9  308.61   32.28
   8  -2  -8 1525.82   77.73
   8  -2  -8 1547.71   70.21
   8  -2  -7   27.10    9.46
   8  -2  -7   30.22   11.28
   8  -2  -6  260.86   28.46
   8  -2  -6  243.35   23.38
   8  -2  -5  357.27   31.27
   8  -2  -5  378.58   27.00
   8  -2  -5  361.14   30.84
   8  -2  -5  413.10   34.17
   8  -2  -4    5.14    4.41
   8  -2  -4    0.79    3.51
   8  -2  -4    6.72    3.10
   8  -2  -3  571.71   27.57
   8  -2  -3  589.11   39.62
   8  -2  -2    6.46    5.45
   8  -2  -2   10.05    3.71
   8  -2  -1 1390.37   61.78
   8  -2   0  532.95   37.42
   8  -2   1  424.23   33.52
   8  -2   2  788.98   46.53
   8  -2   3  221.09   24.92
  -8   2  -3  255.37   28.90
   8  -2   4 1012.26   56.01
  -8   2  -4 1012.04   61.17
  -8   2  -5   17.07    8.39
   8  -2   5    9.47    6.40
  -8   2  -6  149.97   25.78
   8  -2   6  120.31   20.48
  -8   2  -7   52.41   16.21
   8  -1 -12   -4.47    9.35
   8  -1 -11  349.11   37.97
   8  -1 -11  354.31   45.07
   8  -1 -10   36.71   12.19
   8  -1 -10   17.78   11.21
   8  -1  -9  127.59   20.02
   8  -1  -9   94.09   20.36
   8  -1  -8  260.39   31.80
   8  -1  -8  211.91   24.67
   8  -1  -7  163.37   20.06
   8  -1  -7  154.93   22.98
   8  -1  -6 2701.86   95.65
   8  -1  -6 2580.77   78.98
   8  -1  -5  627.84   44.24
   8  -1  -5  728.14   36.00
   8  -1  -5  693.33   45.01
   8  -1  -4  133.43   13.52
   8  -1  -4  165.20   21.41
   8  -1  -3  763.03   29.61
   8  -1  -3  741.47   44.46
   8  -1  -2   33.26    9.30
   8  -1  -1  881.82   48.26
   8  -1   0   11.90    5.22
   8  -1   0   15.34    6.16
   8  -1   1  936.12   51.74
   8  -1   1  944.00   49.81
   8  -1   2   13.90    7.56
   8  -1   2    9.68    5.38
   8  -1   3  555.71   43.17
   8  -1   3  551.70   38.46
  -8   1  -4  147.20   23.46
   8  -1   4  133.43   21.56
   8  -1   4  123.15   18.35
  -8   1  -5  123.72   22.56
   8  -1   5  100.99   20.37
  -8   1  -6  837.78   61.31
   8   0 -12   48.10   18.81
   8   0 -11  962.90   61.26
   8   0 -11  890.96   71.29
   8   0 -10   36.99   12.63
   8   0 -10   36.15   15.27
   8   0 -10   28.37   13.24
   8   0  -9  167.07   22.39
   8   0  -9  157.47   26.58
   8   0  -8   65.40   16.49
   8   0  -8   71.85   18.32
   8   0  -7  205.58   26.73
   8   0  -7  171.81   27.50
   8   0  -6  397.40   35.20
   8   0  -6  316.35   35.00
   8   0  -5   59.45   14.45
   8   0  -5   64.79   13.62
   8   0  -4 2337.37   60.68
   8   0  -4 2237.42   82.15
   8   0  -3  290.20   23.34
   8   0  -3  268.83   26.65
   8   0  -2 1042.71   48.41
   8   0  -2 1169.96   55.37
   8   0  -1  615.43   38.56
   8   0  -1  609.67   39.11
   8   0   0  267.78   26.57
   8   0   0  287.43   26.92
   8   0   1 1261.89   61.91
   8   0   1 1307.63   59.03
   8   0   2    3.04    3.99
   8   0   2    4.37    5.40
   8   0   3  330.48   33.89
   8   0   3  348.74   29.69
   8   0   4    3.31    6.66
   8   0   5  177.79   26.99
   8   1 -12  143.59   30.50
   8   1 -12  211.03   29.79
   8   1 -11  191.58   32.87
   8   1 -11  170.22   35.93
   8   1 -10  147.26   27.54
   8   1  -9 1201.91   82.21
   8   1  -9 1297.90   76.63
   8   1  -8  311.16   40.14
   8   1  -8  345.02   36.60
   8   1  -7  657.69   48.31
   8   1  -7  664.66   56.46
   8   1  -6  425.01   37.47
   8   1  -6  433.25   42.42
   8   1  -5   18.67    8.93
   8   1  -5   15.60    4.86
   8   1  -5   15.09    6.33
   8   1  -4  316.25   24.07
   8   1  -4  370.12   31.92
   8   1  -3   14.23    6.21
   8   1  -3   16.83    6.32
   8   1  -2 2081.58   74.17
   8   1  -2 2111.11   76.97
   8   1  -1  207.16   23.19
   8   1  -1  228.14   23.70
   8   1   0  768.87   47.97
   8   1   0  801.04   44.66
   8   1   1  187.64   24.34
   8   1   1  207.17   22.20
   8   1   2   35.48    9.45
   8   1   2   25.77   10.37
   8   1   3 1046.35   63.64
   8   1   4   65.65   17.29
   8   2 -12  178.95   34.41
   8   2 -12  220.81   41.60
   8   2 -11    0.24    6.68
   8   2 -11   -2.65    9.35
   8   2 -10  273.20   37.39
   8   2 -10  306.02   44.18
   8   2  -9   73.23   21.06
   8   2  -9   92.02   20.80
   8   2  -8   49.15   16.07
   8   2  -8   49.45   14.59
   8   2  -7 2388.90  113.39
   8   2  -7 2335.14   95.72
   8   2  -6  255.32   29.19
   8   2  -6  232.15   32.97
   8   2  -5  799.52   49.76
   8   2  -5  657.94   53.27
   8   2  -5  742.45   37.54
   8   2  -4  249.77   26.70
   8   2  -4  238.28   22.51
   8   2  -3   29.98    8.63
   8   2  -3   21.16    7.27
   8   2  -2  711.17   44.21
   8   2  -2  798.38   45.73
   8   2  -1   10.36    5.10
   8   2  -1   10.49    6.35
   8   2   0  463.41   38.66
   8   2   0  429.72   32.40
   8   2   1   69.63   16.26
   8   2   2  661.60   50.49
   8   2   3   45.94   14.95
   8   3 -12  737.40   78.13
   8   3 -11   11.94    8.37
   8   3 -10  550.20   62.36
   8   3 -10  513.40   51.78
   8   3  -9   29.10   15.73
   8   3  -9    4.06    6.06
   8   3  -8  178.01   33.11
   8   3  -8  197.34   29.33
   8   3  -7  206.49   28.15
   8   3  -7  122.07   25.70
   8   3  -6   15.61    7.37
   8   3  -6   13.60    9.47
   8   3  -5 1272.69   78.70
   8   3  -5 1383.44   68.26
   8   3  -5 1174.82   52.70
   8   3  -4  665.90   45.49
   8   3  -4  684.62   41.83
   8   3  -3 1165.18   58.94
   8   3  -3 1199.82   59.32
   8   3  -2  249.97   25.81
   8   3  -2  273.96   29.05
   8   3  -1   37.36   11.36
   8   3  -1   26.18    7.83
   8   3   0  530.23   44.17
   8   3   1   25.69   10.98
   8   3   2  255.98   32.88
   8   4 -12   40.96   21.43
   8   4 -11  -37.44   15.81
   8   4 -11    6.78    9.97
   8   4 -10 1179.59   95.28
   8   4 -10 1127.55   78.80
   8   4  -9  354.09   50.89
   8   4  -9  348.69   41.16
   8   4  -8  391.69   50.71
   8   4  -8  473.40   45.90
   8   4  -7  147.72   30.31
   8   4  -7  102.51   20.87
   8   4  -6   92.78   23.43
   8   4  -6  117.07   21.41
   8   4  -5  179.12   31.29
   8   4  -5  203.45   26.77
   8   4  -5  219.34   24.60
   8   4  -4    2.48    4.03
   8   4  -4   11.25    6.54
   8   4  -3  857.24   51.49
   8   4  -3  878.83   55.11
   8   4  -2  162.18   24.36
   8   4  -1  832.94   57.30
   8   4   0    2.89    6.28
   8   4   1   10.45    7.89
   8   5 -12   40.70   19.36
   8   5 -11  426.72   60.50
   8   5 -10   36.81   18.11
   8   5 -10   38.17   15.56
   8   5  -9  -14.62   11.98
   8   5  -9    2.40    9.13
   8   5  -8  821.57   77.07
   8   5  -8  904.57   66.24
   8   5  -7  286.28   43.44
   8   5  -7  256.19   33.24
   8   5  -6  923.44   75.50
   8   5  -6  968.79   63.24
   8   5  -5   49.40   17.17
   8   5  -5   54.66   14.40
   8   5  -5   39.15   11.75
   8   5  -4   12.78    7.28
   8   5  -3  356.69   37.81
   8   5  -2   23.59   11.50
   8   5  -1  270.81   34.90
   8   6 -10   -4.30    8.60
   8   6 -10   -6.59    8.64
   8   6  -9  138.70   27.50
   8   6  -9  154.92   35.73
   8   6  -8   28.11   14.73
   8   6  -8   12.92    9.86
   8   6  -7   42.34   18.15
   8   6  -7   37.81   14.69
   8   6  -6  824.01   75.12
   8   6  -6  901.73   62.96
   8   6  -5  350.24   47.60
   8   6  -5  304.75   35.56
   8   6  -4  629.27   52.91
   8   6  -3   25.16   11.46
   8   7  -9  308.18   43.67
   8   7  -8  -11.04   12.55
   8   7  -5   39.64   14.43
   9 -12   4  -22.13   10.71
   9 -11   2  122.61   21.71
   9 -11   3   13.43    7.47
   9 -10  -2   -8.62   10.10
   9 -10  -1   45.86   16.54
   9 -10   0  210.77   39.05
   9 -10   0  173.18   24.33
   9 -10   1   11.77   11.99
   9 -10   1   -7.58    6.33
   9 -10   2  191.80   37.54
   9 -10   2  123.49   22.50
   9 -10   3  114.96   29.29
   9 -10   3   52.99   15.43
   9 -10   4   25.19   21.90
   9 -10   5   16.76   14.53
   9  -9  -4   97.62   22.96
   9  -9  -3   16.66   13.32
   9  -9  -2   67.98   20.25
   9  -9  -1  181.54   34.79
   9  -9  -1  226.68   27.49
   9  -9   0    6.72    9.42
   9  -9   0   12.31    7.09
   9  -9   1  287.27   46.88
   9  -9   1  258.66   30.22
   9  -9   2  231.30   41.03
   9  -9   2  165.71   26.44
   9  -9   3    5.20   13.30
   9  -9   3    7.65    8.83
   9  -9   4  216.44   41.65
   9  -9   5  135.87   33.94
  -9   9  -7   58.13   18.21
   9  -8  -4  104.69   23.86
   9  -8  -3  427.86   37.01
   9  -8  -3  346.58   44.37
   9  -8  -2   29.77   14.11
   9  -8  -2   29.83   10.00
   9  -8  -1   20.27    8.46
   9  -8  -1   -0.25    6.93
   9  -8   0  206.91   36.70
   9  -8   0  185.61   25.11
   9  -8   1  203.61   37.90
   9  -8   1  169.89   24.93
   9  -8   2   10.27   10.45
   9  -8   2   10.27    8.55
   9  -8   3  312.86   48.09
   9  -8   3  250.60   32.27
  -9   8  -4    9.96    6.87
  -9   8  -5   -0.33    6.09
  -9   8  -6  221.49   32.01
  -9   8  -7   38.55   14.46
   9  -7  -6   12.91    6.67
   9  -7  -5   41.81   11.91
   9  -7  -5   37.85   14.20
   9  -7  -4  348.38   41.75
   9  -7  -4  373.20   34.87
   9  -7  -3   -2.98    9.69
   9  -7  -3   10.84    6.33
   9  -7  -2  259.76   38.18
   9  -7  -2  347.98   33.67
   9  -7  -1  270.59   40.19
   9  -7  -1  298.89   31.31
   9  -7   0   11.26   10.20
   9  -7   0    3.29    4.53
   9  -7   1  227.52   38.13
   9  -7   1  279.96   31.32
   9  -7   2  348.14   36.56
  -9   7  -2  305.66   27.52
  -9   7  -3   21.03    8.36
   9  -7   3    9.76    6.35
  -9   7  -4   26.56    8.79
  -9   7  -5  238.58   31.39
  -9   7  -6   11.20    7.78
  -9   7  -7   27.51   11.69
   9  -6  -7   86.50   19.28
   9  -6  -6  135.40   22.84
   9  -6  -6  164.47   24.53
   9  -6  -5   48.55   12.91
   9  -6  -5   53.84   13.68
   9  -6  -4    5.15    3.90
   9  -6  -4    0.86    6.14
   9  -6  -3  419.49   36.46
   9  -6  -3  361.20   41.68
   9  -6  -2  227.96   34.95
   9  -6  -2  258.81   28.97
   9  -6  -1   37.70   15.77
   9  -6  -1   31.37   10.30
   9  -6   0  397.82   35.86
   9  -6   0  343.79   44.34
   9  -6   1  161.44   23.48
  -9   6  -2   16.87    6.96
   9  -6   2   10.85    7.06
  -9   6  -3  125.76   19.95
   9  -6   3  126.84   22.15
  -9   6  -4   65.18   15.90
  -9   6  -5    3.41    5.99
  -9   6  -6   94.49   21.39
  -9   6  -7   49.47   17.14
   9  -5  -8   26.86   10.60
   9  -5  -7  554.13   46.38
   9  -5  -7  518.80   43.94
   9  -5  -6  -11.84    7.23
   9  -5  -6   -6.49    5.26
   9  -5  -5   61.97   12.87
   9  -5  -5   91.31   17.12
   9  -5  -4  330.65   29.83
   9  -5  -4  325.04   32.31
   9  -5  -4  320.65   36.91
   9  -5  -3   41.92   14.08
   9  -5  -3   43.37   12.41
   9  -5  -3   33.99    9.47
   9  -5  -2  142.23   21.45
   9  -5  -2  114.25   24.52
   9  -5  -1  236.65   35.40
   9  -5  -1  252.34   28.49
   9  -5   0   40.02   11.66
   9  -5   1   16.59    6.53
   9  -5   2  530.82   43.46
  -9   5  -2  498.33   38.32
  -9   5  -3    0.66    3.96
   9  -5   3    0.74    3.92
  -9   5  -4   -1.62    4.61
   9  -5   4   -1.10    4.94
  -9   5  -5  184.14   28.69
  -9   5  -6   18.39    8.88
  -9   5  -7   26.22   13.82
   9  -4  -9   50.81   14.77
   9  -4  -9   30.37   11.12
   9  -4  -8  172.17   26.70
   9  -4  -8  180.15   25.77
   9  -4  -7   23.20    8.19
   9  -4  -7   22.31   10.70
   9  -4  -6  251.06   26.46
   9  -4  -6  224.29   27.92
   9  -4  -5  205.62   22.86
   9  -4  -5  190.11   24.91
   9  -4  -4    3.58    5.99
   9  -4  -4    4.55    4.96
   9  -4  -4    9.02    3.96
   9  -4  -3  477.83   31.00
   9  -4  -3  481.89   38.66
   9  -4  -3  409.68   42.80
   9  -4  -2  358.68   33.80
   9  -4  -1   22.71    9.54
   9  -4   0  137.63   20.92
   9  -4   1  405.95   36.27
   9  -4   2    8.49    6.01
  -9   4  -3   68.20   16.32
   9  -4   3   82.05   17.24
  -9   4  -4  150.18   23.88
   9  -4   4  139.78   23.08
  -9   4  -5   19.23    8.90
   9  -4   5    6.79   10.07
  -9   4  -6  159.71   27.09
   9  -4   6  116.85   23.28
   9  -4   7   84.21   19.75
   9  -3 -10  360.23   43.93
   9  -3 -10  298.02   35.66
   9  -3  -9    5.07    6.44
   9  -3  -9    8.61    6.95
   9  -3  -8   81.26   18.84
   9  -3  -8   85.94   17.21
   9  -3  -7  368.83   37.35
   9  -3  -7  409.70   35.28
   9  -3  -6   72.47   13.85
   9  -3  -6   56.61   13.89
   9  -3  -5    6.52    4.80
   9  -3  -5    1.96    4.49
   9  -3  -4  300.56   23.84
   9  -3  -4  321.38   31.68
   9  -3  -4  270.93   32.34
   9  -3  -3  133.49   20.58
   9  -3  -3  133.19   14.72
   9  -3  -2    6.67    5.73
   9  -3  -1  403.92   35.36
   9  -3   0   42.85   10.49
   9  -3   1   43.25   11.39
   9  -3   2  520.30   40.88
  -9   3  -3  151.33   23.27
   9  -3   3  156.07   22.87
  -9   3  -4   -1.20    5.04
   9  -3   4    2.48    6.69
  -9   3  -5  189.49   28.39
   9  -3   5  184.64   26.61
  -9   3  -6   75.56   18.94
   9  -3   6   98.01   19.14
   9  -2 -11  235.07   38.23
   9  -2 -10    5.28    5.93
   9  -2 -10    8.95    8.63
   9  -2  -9   32.12   12.51
   9  -2  -9   25.27    8.94
   9  -2  -8  324.32   36.33
   9  -2  -8  270.87   28.69
   9  -2  -7   31.08    8.88
   9  -2  -7   25.82   11.67
   9  -2  -6  173.70   24.52
   9  -2  -6  149.51   18.58
   9  -2  -5  270.37   23.10
   9  -2  -5  277.17   30.28
   9  -2  -4   11.77    7.37
   9  -2  -4    3.85    3.27
   9  -2  -3  325.49   31.40
   9  -2  -2  905.28   52.87
   9  -2  -1    3.44    5.27
   9  -2   0   96.69   16.98
   9  -2   1  472.40   38.00
   9  -2   2   50.08   12.07
   9  -2   3   27.46    9.82
   9  -2   4  133.52   20.84
  -9   2  -5   17.30    9.49
   9  -2   5   28.01   10.20
   9  -1 -11    2.29    7.85
   9  -1 -11    9.62    8.12
   9  -1 -10   77.76   17.22
   9  -1 -10  100.08   23.09
   9  -1  -9   45.88   14.80
   9  -1  -9   48.27   12.90
   9  -1  -8  -10.27    7.81
   9  -1  -8    3.98    4.59
   9  -1  -7  365.32   37.35
   9  -1  -7  426.17   32.50
   9  -1  -6  204.78   26.84
   9  -1  -6  212.91   28.37
   9  -1  -6  227.32   21.90
   9  -1  -5   13.16    8.66
   9  -1  -5   -3.52    3.18
   9  -1  -5   10.11    7.12
   9  -1  -4  380.22   34.51
   9  -1  -3  400.84   34.75
   9  -1  -2   20.84    8.50
   9  -1  -1  227.23   25.78
   9  -1   0  327.99   31.15
   9  -1   1    0.16    3.74
   9  -1   1   -7.66    7.13
   9  -1   2  386.72   37.00
   9  -1   2  378.93   33.65
   9  -1   3  116.73   18.59
   9  -1   4   -7.81    6.11
   9   0 -11  268.73   39.37
   9   0 -11  203.70   28.44
   9   0 -10    5.60    5.48
   9   0 -10   13.60   13.82
   9   0  -9   -1.32   11.14
   9   0  -9   13.01    7.69
   9   0  -8  393.04   40.94
   9   0  -8  431.63   34.40
   9   0  -7  110.44   24.11
   9   0  -7   85.71   14.52
   9   0  -7   65.71   16.43
   9   0  -6   93.58   20.17
   9   0  -6   78.65   12.57
   9   0  -6   66.37   16.01
   9   0  -5  288.38   33.50
   9   0  -5  340.64   33.23
   9   0  -4    0.48    6.43
   9   0  -3  124.07   19.31
   9   0  -2  525.95   36.91
   9   0  -2  526.02   39.49
   9   0  -1   22.90    8.56
   9   0  -1   21.88    9.03
   9   0   0   10.28    5.64
   9   0   0    6.71    5.77
   9   0   1  299.49   32.06
   9   0   1  326.90   30.77
   9   0   2  132.57   19.48
   9   0   2  149.43   23.52
   9   0   3   -3.37    6.62
   9   0   4  137.61   24.16
   9   1 -11   10.64    9.43
   9   1 -11   27.63   15.19
   9   1 -11   43.08   14.24
   9   1 -10  216.73   33.79
   9   1  -9  166.56   28.52
   9   1  -8   15.30    5.60
   9   1  -8   32.88   13.20
   9   1  -7  319.90   35.32
   9   1  -7  222.24   34.03
   9   1  -6  497.70   42.40
   9   1  -6  504.66   48.21
   9   1  -5   -4.52    6.52
   9   1  -5    6.64    5.90
   9   1  -4  131.29   16.89
   9   1  -4  127.35   20.23
   9   1  -3  535.68   36.81
   9   1  -3  545.30   40.76
   9   1  -2    7.78    5.39
   9   1  -2   -1.42    4.96
   9   1  -1  217.18   25.88
   9   1  -1  215.45   25.09
   9   1   0  152.75   22.49
   9   1   0  166.12   21.50
   9   1   1   21.45    7.72
   9   1   1   18.42    8.98
   9   1   2   85.30   18.79
   9   1   3  120.60   22.52
   9   2 -12   28.31   16.36
   9   2 -11  348.73   46.25
   9   2 -10   35.69   14.33
   9   2  -9    4.26    7.17
   9   2  -9    2.76    6.66
   9   2  -8  245.05   33.18
   9   2  -8  274.19   40.30
   9   2  -7  159.77   25.54
   9   2  -7  157.68   29.47
   9   2  -6   50.28   13.88
   9   2  -6   19.90   11.30
   9   2  -5  177.13   25.33
   9   2  -4  202.60   25.64
   9   2  -4  149.10   19.63
   9   2  -3   25.06    8.83
   9   2  -3   32.54   10.27
   9   2  -2  545.32   41.81
   9   2  -2  543.22   40.28
   9   2  -1  141.58   20.21
   9   2  -1  145.33   22.52
   9   2   0   46.91   13.70
   9   2   1  360.75   38.54
   9   2   2   84.07   19.82
   9   3 -11   37.39   18.02
   9   3 -10   17.41    6.15
   9   3 -10   31.13   16.67
   9   3  -9  302.35   39.32
   9   3  -9  214.75   38.61
   9   3  -8    0.09    6.25
   9   3  -8   14.93    8.59
   9   3  -7  189.08   33.57
   9   3  -7  155.06   25.69
   9   3  -6  457.11   50.62
   9   3  -6  464.65   42.52
   9   3  -5    7.60    7.62
   9   3  -4   70.60   14.24
   9   3  -4   69.85   16.40
   9   3  -3  185.52   24.69
   9   3  -3  194.77   25.60
   9   3  -2   57.96   14.82
   9   3  -2   90.65   16.73
   9   3  -1   10.20    7.29
   9   3   0  226.49   31.09
   9   4 -11  198.31   40.83
   9   4 -10   85.32   22.93
   9   4 -10  112.94   30.55
   9   4  -9    4.70    6.67
   9   4  -9   -2.51   11.12
   9   4  -8   47.16   19.05
   9   4  -8   60.59   17.50
   9   4  -7  326.90   46.41
   9   4  -7  379.87   41.34
   9   4  -6    6.01    7.97
   9   4  -6    3.67    6.48
   9   4  -5  143.83   29.28
   9   4  -5  155.17   24.39
   9   4  -4  180.09   25.85
   9   4  -4  155.42   23.56
   9   4  -3   -1.65    7.54
   9   4  -2  303.60   35.64
   9   4  -1   42.54   15.68
   9   5 -10   42.55   20.17
   9   5  -9   78.40   20.55
   9   5  -9  141.24   32.55
   9   5  -8    3.91    7.55
   9   5  -8   -2.29    9.17
   9   5  -7   60.66   21.82
   9   5  -7   28.57   13.31
   9   5  -6  101.09   25.66
   9   5  -6  112.07   21.90
   9   5  -5   78.29   23.30
   9   5  -4   30.35   11.30
   9   5  -3  270.49   34.87
   9   6  -8   64.67   19.61
   9   6  -7  250.64   35.31
  10 -11   2   89.03   20.57
  10 -10  -1    2.91    9.80
  10 -10   0  294.82   34.64
  10 -10   0  461.50   58.43
  10 -10   1    5.00   12.63
  10 -10   1   17.76   11.22
  10 -10   2  123.97   32.49
  10 -10   2  133.38   23.97
  10 -10   3  246.25   34.29
  10 -10   4  148.81   28.70
  10  -9  -4   31.18   15.32
  10  -9  -3  156.74   31.56
  10  -9  -2  225.74   39.06
  10  -9  -2  261.26   31.29
  10  -9  -1  100.50   27.79
  10  -9  -1  114.63   21.09
  10  -9   0  412.01   40.02
  10  -9   0  506.36   59.37
  10  -9   1  -23.16   14.06
  10  -9   1   -0.39    7.25
  10  -9   2  287.27   47.21
  10  -9   2  259.37   33.89
  10  -9   3   46.92   21.39
  10  -9   3   13.14   10.43
  10  -9   4  194.31   42.44
  10  -9   4  120.49   24.97
  10  -8  -4   25.38   12.80
  10  -8  -3  823.98   55.75
  10  -8  -3  832.45   69.66
  10  -8  -2   98.54   26.49
  10  -8  -2   89.51   19.02
  10  -8  -1  170.45   25.44
  10  -8  -1  151.91   31.08
  10  -8   0  273.86   43.01
  10  -8   0  275.59   33.00
  10  -8   1   92.42   26.82
  10  -8   1  103.80   21.04
  10  -8   2  780.85   58.99
  10  -8   2  893.00   81.50
  10  -8   3   64.85   24.24
  10  -8   3   45.95   14.59
  10  -8   4   89.28   22.26
 -10   8  -5   -3.10    6.27
 -10   8  -6   42.62   14.75
  10  -7  -6  165.24   26.14
  10  -7  -5  155.39   24.70
  10  -7  -4   14.78   10.47
  10  -7  -4   -0.03    4.22
  10  -7  -3  431.95   39.90
  10  -7  -3  383.20   46.04
  10  -7  -2   10.94    8.77
  10  -7  -2   14.93    6.87
  10  -7  -1  487.45   43.19
  10  -7  -1  424.80   52.21
  10  -7   0  118.01   28.23
  10  -7   0  116.36   21.42
  10  -7   1  482.56   44.06
  10  -7   1  573.69   62.17
  10  -7   2   85.01   19.32
  10  -7   3  173.55   28.58
 -10   7  -3  196.27   25.95
  10  -7   4  716.22   59.57
 -10   7  -4  581.67   48.23
 -10   7  -5   34.34   12.79
  10  -7   5   37.54   14.17
 -10   7  -6  136.65   26.26
  10  -6  -7   -0.83    9.92
  10  -6  -6  988.63   63.39
  10  -6  -6 1035.44   63.35
  10  -6  -5  286.97   30.90
  10  -6  -5  258.25   31.00
  10  -6  -4  397.72   43.64
  10  -6  -4  445.05   40.49
  10  -6  -3  419.19   39.31
  10  -6  -3  338.16   42.63
  10  -6  -2   38.54   15.51
  10  -6  -2   71.56   17.13
  10  -6  -1  574.33   46.58
  10  -6  -1  501.77   55.96
  10  -6   0   12.99    7.17
  10  -6   1  541.03   45.84
  10  -6   2    4.90    7.86
  10  -6   3  295.53   36.32
 -10   6  -3  257.95   30.53
 -10   6  -4   27.16   11.88
  10  -6   4   26.31   12.75
 -10   6  -5   25.45   10.66
  10  -6   5   18.94   11.79
 -10   6  -6  698.56   61.09
  10  -5  -8   86.52   20.42
  10  -5  -8  104.19   20.18
  10  -5  -7  115.22   21.01
  10  -5  -7  130.43   23.66
  10  -5  -6  108.72   19.00
  10  -5  -6  126.05   22.26
  10  -5  -5   -4.13    4.80
  10  -5  -5   13.45    7.43
  10  -5  -4  952.71   51.74
  10  -5  -4 1004.59   61.07
  10  -5  -3  198.77   31.97
  10  -5  -3  236.96   29.39
  10  -5  -2  659.59   49.21
  10  -5  -2  560.15   54.52
  10  -5  -1   87.53   17.98
  10  -5   0   72.08   16.22
  10  -5   1 1143.05   66.90
  10  -5   2   17.56    8.23
 -10   5  -3  147.80   23.89
  10  -5   3  187.83   28.60
 -10   5  -4    9.57    7.63
  10  -5   4    3.56    8.68
 -10   5  -5  225.17   32.74
  10  -5   5  258.10   35.20
  10  -5   6   32.35   13.50
  10  -4  -9  740.13   61.61
  10  -4  -9  813.45   58.02
  10  -4  -8  244.34   33.53
  10  -4  -8  200.20   26.59
  10  -4  -7  451.51   43.85
  10  -4  -7  471.53   39.47
  10  -4  -6   70.06   13.90
  10  -4  -6   55.70   16.37
  10  -4  -5   -0.49    7.31
  10  -4  -5   13.60    8.69
  10  -4  -4  349.87   35.45
  10  -4  -3   17.97   10.06
  10  -4  -3   30.78   10.70
  10  -4  -2  900.91   57.30
  10  -4  -1  199.74   27.15
  10  -4   0  974.35   60.31
  10  -4   1   90.57   18.58
  10  -4   2    3.33    6.49
  10  -4   3  689.78   52.60
 -10   4  -4  152.70   25.93
  10  -4   4  128.81   23.18
 -10   4  -5  177.61   29.23
  10  -4   5  207.29   30.18
  10  -4   6   23.47    9.97
  10  -3 -10   87.03   22.45
  10  -3  -9   -2.78    8.46
  10  -3  -9   -2.95    5.57
  10  -3  -8   10.65    8.34
  10  -3  -8   -1.71    6.74
  10  -3  -7 1215.47   72.59
  10  -3  -7 1259.91   62.59
  10  -3  -6  368.14   30.77
  10  -3  -6  295.03   34.24
  10  -3  -5  667.07   50.21
  10  -3  -4  136.91   22.61
  10  -3  -3    9.84    6.65
  10  -3  -2  832.80   54.95
  10  -3  -1   16.32    7.12
  10  -3   0  365.89   35.80
  10  -3   1   -6.13    6.89
  10  -3   2  620.59   48.03
  10  -3   3   -1.85    4.06
  10  -3   4    2.73    4.85
  10  -3   5  484.85   44.40
  10  -2 -10  350.04   37.49
  10  -2 -10  321.59   43.19
  10  -2  -9   -1.19    7.48
  10  -2  -9   -7.80    6.55
  10  -2  -8  161.38   27.83
  10  -2  -8  153.11   21.90
  10  -2  -7  175.00   21.46
  10  -2  -7  133.06   23.98
  10  -2  -6   15.05    7.24
  10  -2  -5  843.85   56.32
  10  -2  -4  332.60   34.60
  10  -2  -3 1452.90   72.68
  10  -2  -2   29.18   10.60
  10  -2  -1   25.52   10.08
  10  -2   0  766.96   52.02
  10  -2   1   10.52    4.75
  10  -2   2  296.93   32.65
  10  -2   3   -3.86    5.23
  10  -2   4  114.56   20.71
  10  -1 -10  803.51   67.69
  10  -1 -10  697.50   51.98
  10  -1  -9  213.16   32.97
  10  -1  -9  176.63   24.40
  10  -1  -8  914.21   65.71
  10  -1  -7  151.20   25.60
  10  -1  -6   30.89   11.49
  10  -1  -5  199.36   28.08
  10  -1  -5  218.53   28.22
  10  -1  -4   41.61   13.03
  10  -1  -3  871.44   55.64
  10  -1  -2   74.96   15.57
  10  -1  -1  857.01   54.27
  10  -1   0   11.58    7.18
  10  -1   1   25.35    9.51
  10  -1   2  801.76   52.89
  10  -1   3   71.35   16.90
  10   0 -11  332.20   37.06
  10   0 -10   -4.43    5.18
  10   0 -10   21.26    9.70
  10   0  -9   -1.53    5.94
  10   0  -8  714.96   58.28
  10   0  -7  226.27   31.69
  10   0  -6 1173.20   69.18
  10   0  -6 1028.18   69.63
  10   0  -5    7.92    6.63
  10   0  -5    4.30    7.60
  10   0  -4    2.18    7.19
  10   0  -3  621.10   46.49
  10   0  -2    8.95    6.00
  10   0  -1  266.05   29.78
  10   0  -1  237.85   27.91
  10   0   0    8.13    5.14
  10   0   0   13.61    8.83
  10   0   1  581.00   48.36
  10   0   1  631.22   45.44
  10   0   2    8.05    7.86
  10   1 -11  481.69   43.61
  10   1  -9  116.14   24.56
  10   1  -8   39.07   14.58
  10   1  -8   84.12   21.88
  10   1  -7  133.51   25.28
  10   1  -7  151.41   29.16
  10   1  -6  474.60   43.85
  10   1  -6  480.33   49.65
  10   1  -5  321.59   35.73
  10   1  -4 1121.74   64.62
  10   1  -3    0.46    4.74
  10   1  -3    1.60    4.62
  10   1  -2    4.70    5.07
  10   1  -2    4.21    4.47
  10   1  -1  324.41   34.33
  10   1  -1  292.97   31.22
  10   1   0   32.40   10.19
  10   1   0   68.49   17.36
  10   1   1  213.87   30.12
  10   2  -9  535.43   60.84
  10   2  -9  485.93   51.72
  10   2  -8   20.38   11.56
  10   2  -8   -9.76    9.29
  10   2  -7  117.49   23.79
  10   2  -7   70.18   20.33
  10   2  -6  136.27   24.53
  10   2  -6  155.50   29.84
  10   2  -5   12.61    6.27
  10   2  -4  161.15   22.11
  10   2  -4  174.54   25.51
  10   2  -3    3.65    6.13
  10   2  -3    2.50    4.00
  10   2  -2  899.78   58.54
  10   2  -2  975.57   57.97
  10   2  -1    9.53    8.72
  10   2   0   38.07   12.66
  10   3 -10   55.69   20.94
  10   3  -9  225.09   40.94
  10   3  -8  168.66   34.33
  10   3  -8  155.54   28.47
  10   3  -7 1030.18   82.88
  10   3  -7 1146.63   73.70
  10   3  -6   -2.95    6.67
  10   3  -6    8.25    8.81
  10   3  -5    6.70    6.53
  10   3  -5   20.69   13.18
  10   3  -4  192.99   25.98
  10   3  -4  180.27   26.96
  10   3  -3   27.86   10.60
  10   3  -3   31.67   11.59
  10   3  -2  172.29   26.92
  10   3  -1    4.53    6.72
  10   4  -9    9.16   10.55
  10   4  -8  170.38   37.26
  10   4  -7  222.79   39.04
  10   4  -7  260.79   35.83
  10   4  -6   41.76   17.43
  10   4  -6   44.34   15.57
  10   4  -5  658.36   66.44
  10   4  -5  701.79   55.84
  10   4  -3  116.53   22.71
  11 -10   0   22.28    8.90
  11  -9  -3  119.23   26.36
  11  -9  -2  148.48   31.32
  11  -9  -2  140.38   23.70
  11  -9  -1   -4.94    9.52
  11  -9  -1   23.91   10.72
  11  -9   0   75.91   18.82
  11  -9   0   76.91   24.36
  11  -9   1  224.89   42.03
  11  -9   1  211.00   31.26
  11  -9   2   57.99   17.36
  11  -8  -4  312.06   35.94
  11  -8  -3   11.11   10.19
  11  -8  -3   -6.21    6.09
  11  -8  -2   75.13   21.55
  11  -8  -2   75.89   17.83
  11  -8  -1   24.22   10.80
  11  -8  -1   15.75   10.28
  11  -8   0   71.51   23.67
  11  -8   0   71.93   18.03
  11  -8   1    8.72   13.29
  11  -8   1   17.48    9.79
  11  -8   2  129.00   32.52
  11  -8   2   97.03   21.38
  11  -8   3   47.46   16.08
  11  -7  -5  142.61   24.23
  11  -7  -4    4.14    4.91
  11  -7  -3  113.79   26.00
  11  -7  -3  143.26   24.51
  11  -7  -2  177.77   33.76
  11  -7  -2  225.95   30.65
  11  -7  -1  133.57   24.79
  11  -7  -1  102.75   26.29
  11  -7   0  332.36   48.91
  11  -7   0  357.30   39.88
  11  -7   1   72.72   23.87
  11  -7   1   46.97   15.16
  11  -7   2   34.62   12.01
  11  -7   3   41.12   15.91
 -11   7  -4   46.30   13.76
 -11   7  -5   85.60   20.71
  11  -6  -7  162.62   26.47
  11  -6  -7  167.65   28.36
  11  -6  -6   -5.15    6.18
  11  -6  -5   31.87   12.29
  11  -6  -4   64.74   16.50
  11  -6  -3  193.38   33.83
  11  -6  -3  231.58   31.10
  11  -6  -2   10.42   10.06
  11  -6  -2    7.16    4.12
  11  -6  -1  190.43   28.82
  11  -6  -1  172.98   34.59
  11  -6   0  242.13   32.35
  11  -6   1   -6.12    6.82
  11  -6   2  493.40   48.08
  11  -6   3    2.08    5.21
  11  -5  -8  371.03   42.78
  11  -5  -8  348.71   38.17
  11  -5  -7   23.65   10.55
  11  -5  -6  103.37   22.10
  11  -5  -5  247.60   32.55
  11  -5  -4   -2.08    5.27
  11  -5  -3  533.62   46.60
  11  -5  -2   73.20   20.80
  11  -5  -2   45.36   14.24
  11  -5  -1  115.98   22.26
  11  -5   0   10.64    8.10
  11  -5   1  338.00   38.22
  11  -5   2   90.50   20.12
  11  -5   3   40.09   14.31
  11  -5   4  379.94   43.12
  11  -4  -8  219.39   33.30
  11  -4  -7   74.26   19.38
  11  -4  -6  362.31   39.74
  11  -4  -5   28.20    9.50
  11  -4  -4  387.71   40.18
  11  -4  -3  391.96   39.83
  11  -4  -2   74.72   18.26
  11  -4  -1  477.64   44.29
  11  -4   0    6.78    6.29
  11  -4   1  134.46   23.84
  11  -4   2   60.45   16.34
  11  -4   3   56.91   15.32
  11  -4   4   45.63   14.76
  11  -3  -8  286.65   37.95
  11  -3  -7   35.81   13.88
  11  -3  -6  190.78   28.97
  11  -3  -5   27.20   10.57
  11  -3  -4  386.89   40.01
  11  -3  -3   -2.84    6.17
  11  -3  -2  503.27   45.08
  11  -3  -1   81.67   18.29
  11  -3   0   17.67   10.32
  11  -3   1  886.65   60.78
  11  -3   2    9.94    7.42
  11  -3   3   25.75   11.06
  11  -2  -8   45.86   15.33
  11  -2  -7  317.35   39.05
  11  -2  -6  110.46   22.11
  11  -2  -5   60.71   16.08
  11  -2  -4  523.47   46.36
  11  -2  -3   49.45   13.89
  11  -2  -2  168.65   25.14
  11  -2  -1    2.44    5.53
  11  -2   0  291.07   34.36
  11  -2   1   83.77   17.94
  11  -2   2    8.42    6.83
  11  -2   3  396.61   40.48
  11  -1  -8   46.83   15.61
  11  -1  -7  499.54   48.91
  11  -1  -6   49.67   15.17
  11  -1  -5  393.46   40.87
  11  -1  -4   76.12   17.83
  11  -1  -3   -3.66    6.15
  11  -1  -2  594.64   47.88
  11  -1  -1   22.51    7.86
  11  -1   0   63.05   16.41
  11  -1   1   26.95   11.68
  11  -1   2  106.36   20.17
  11   0  -8    0.38    5.20
  11   0  -7  311.69   39.02
  11   0  -6    8.06    7.41
  11   0  -5  154.61   28.27
  11   0  -5  192.01   28.45
  11   0  -4   32.83   12.30
  11   0  -3  673.24   51.58
  11   0  -2   17.27    8.30
  11   0  -1   26.81    9.93
  11   0   0  671.63   50.28
  11   1  -7   86.95   20.69
  11   1  -7   66.47   20.00
  11   1  -6   -1.19    6.03
  11   1  -6    2.58    5.05
  11   1  -5  297.09   36.37
  11   1  -5  255.77   38.16
  11   1  -4    4.87    6.23
  11   1  -3  254.97   30.35
  11   1  -3  286.62   33.31
  11   1  -2   11.61    7.86
  11   1  -2   16.84    8.93
  11   1  -1  206.22   27.63
  11   1  -1  244.45   32.82
  11   2  -8  360.08   50.38
  11   2  -7    4.11    7.70
  11   2  -6  593.71   52.84
  11   2  -6  530.15   58.39
  11   2  -5   18.50   11.48
  11   2  -5    0.10    4.84
  11   2  -4   -9.09    6.95
  11   2  -3  645.35   51.17
  11   2  -3  566.89   47.36
  11   2  -2    2.69    6.66
  11   3  -8  175.83   36.99
  11   3  -7   35.46   16.97
  11   3  -6  207.92   37.83
  11   3  -5   49.54   15.41
  11   3  -4  504.72   47.03
  12  -8  -2  146.00   32.41
  12  -8  -1  -12.23   12.17
  12  -8   0  110.71   27.49
  12  -7  -3  657.46   56.07
  12  -7  -2  -44.44   18.05
  12  -7  -2   14.55    9.51
  12  -7  -1    5.93    9.27
  12  -7  -1   11.94    7.33
  12  -7   0  377.38   53.62
  12  -7   1    7.05   11.30
  12  -6  -4   80.97   19.71
  12  -6  -3  180.39   28.99
  12  -6  -2   15.35    9.37
  12  -6  -1  320.42   47.52
  12  -6  -1  344.75   40.88
  12  -6   0    0.29    4.05
  12  -5  -5  -12.27    8.72
  12  -5  -4   58.22   17.02
  12  -5  -3  321.47   38.18
  12  -5  -2    9.79    8.37
  12  -5  -1   69.26   17.58
  12  -5   0   45.99   15.76
  12  -4  -5   40.52   14.05
  12  -4  -4  599.95   52.78
  12  -4  -3   -8.39    7.33
  12  -4  -2   42.24   14.36
  12  -4  -1  238.59   33.09
  12  -4   0    6.80    7.19
  12  -3  -5   50.87   15.34
  12  -3  -4  128.54   24.22
  12  -3  -3    8.52    7.27
  12  -3  -2  299.57   36.58
  12  -3  -1   55.35   15.64
  12  -3   0  114.01   22.71
  12  -2  -5   56.05   17.61
  12  -2  -4  291.02   36.40
  12  -2  -3   28.09   12.44
  12  -2  -2   58.63   16.53
  12  -2  -1   28.32   11.67
  12  -2   0  154.89   26.01
  12  -1  -5  407.83   43.86
  12  -1  -4    8.06    6.42
  12  -1  -3  167.42   27.20
  12  -1  -2  154.82   25.69
  12  -1  -1    1.46    4.99
  12   1  -5  104.17   26.65
   0   0   0    0.00    0.00
;
_shelx_hkl_checksum              43311
loop_
_space_group_symop_operation_xyz
'x, y, z'
'-x, -y, -z'
loop_
_atom_site_label
_atom_site_type_symbol
_atom_site_fract_x
_atom_site_fract_y
_atom_site_fract_z
_atom_site_U_iso_or_equiv
_atom_site_adp_type
_atom_site_occupancy
_atom_site_site_symmetry_order
_atom_site_calc_flag
_atom_site_refinement_flags_posn
_atom_site_refinement_flags_adp
_atom_site_refinement_flags_occupancy
Pt1 Pt 0.0000 0.0000 0.0000 0.01558(12) Uani 1 2 d S . P
Cl1 Cl 0.06475(19) -0.0103(2) 0.23069(19) 0.0155(4) Uani 1 1 d . . .
C3 C 0.7082(9) 0.3360(10) -0.0468(9) 0.0243(18) Uani 1 1 d . . .
H3A H 0.7796 0.2913 -0.0979 0.029 Uiso 1 1 calc R U .
H3B H 0.6283 0.3426 -0.1228 0.029 Uiso 1 1 calc R U .
C1 C 0.3709(8) 0.1971(9) 0.0644(8) 0.0157(15) Uani 1 1 d . . .
N1 N 0.2341(7) 0.1202(8) 0.0383(7) 0.0203(15) Uani 1 1 d . . .
C6 C 0.6216(9) 0.4625(9) 0.2316(8) 0.0213(18) Uani 1 1 d . . .
H6A H 0.7004 0.4564 0.3090 0.026 Uiso 1 1 calc R U .
H6B H 0.5471 0.5041 0.2798 0.026 Uiso 1 1 calc R U .
N2 N 0.5257(7) 0.2865(8) 0.0937(7) 0.0227(16) Uani 1 1 d . . .
C2 C 0.6164(9) 0.2095(10) 0.0039(9) 0.0213(17) Uani 1 1 d . . .
H2A H 0.5396 0.0954 -0.0882 0.026 Uiso 1 1 calc R U .
H2B H 0.6954 0.1889 0.0679 0.026 Uiso 1 1 calc R U .
C5 C 0.7129(9) 0.5886(10) 0.1833(9) 0.0251(18) Uani 1 1 d . . .
H5A H 0.7848 0.7035 0.2768 0.030 Uiso 1 1 calc R U .
H5B H 0.6330 0.6066 0.1177 0.030 Uiso 1 1 calc R U .
C4 C 0.8148(9) 0.5229(10) 0.0954(9) 0.0269(19) Uani 1 1 d . . .
H4A H 0.9038 0.5190 0.1649 0.032 Uiso 1 1 calc R U .
H4B H 0.8658 0.6049 0.0593 0.032 Uiso 1 1 calc R U .
I1S I 0.45295(6) 0.16232(6) 0.42262(5) 0.01900(13) Uani 1 1 d . . .
I3S I 0.81845(6) 0.54290(6) 0.67318(6) 0.02428(14) Uani 1 1 d . . .
I2S I 0.83658(6) 0.14762(6) 0.41715(6) 0.02245(14) Uani 1 1 d . . .
C1S C 0.7065(8) 0.2623(9) 0.5540(8) 0.0161(15) Uani 1 1 d . . .
H1SA H 0.7107 0.2261 0.6357 0.019 Uiso 1 1 calc R U .
loop_
_atom_site_aniso_label
_atom_site_aniso_U_11
_atom_site_aniso_U_22
_atom_site_aniso_U_33
_atom_site_aniso_U_23
_atom_site_aniso_U_13
_atom_site_aniso_U_12
Pt1 0.01380(19) 0.0101(2) 0.0192(2) 0.00386(16) 0.00844(15) 0.00358(15)
Cl1 0.0108(7) 0.0128(8) 0.0168(8) 0.0035(6) 0.0063(6) 0.0020(6)
C3 0.021(4) 0.025(4) 0.023(4) 0.010(3) 0.009(3) 0.006(3)
C1 0.017(3) 0.011(3) 0.013(3) 0.003(3) 0.007(3) 0.002(3)
N1 0.019(3) 0.010(3) 0.020(3) -0.001(3) 0.009(2) 0.004(2)
C6 0.021(4) 0.012(4) 0.020(4) 0.002(3) 0.009(3) 0.000(3)
N2 0.016(3) 0.014(3) 0.025(3) -0.001(3) 0.014(3) -0.001(2)
C2 0.020(4) 0.015(4) 0.020(4) 0.003(3) 0.008(3) 0.004(3)
C5 0.023(4) 0.015(4) 0.029(4) 0.009(3) 0.008(3) 0.000(3)
C4 0.019(4) 0.025(4) 0.030(4) 0.012(4) 0.011(3) 0.001(3)
I1S 0.0212(2) 0.0157(3) 0.0205(2) 0.0087(2) 0.00957(19) 0.00713(19)
I3S 0.0238(3) 0.0157(3) 0.0288(3) 0.0083(2) 0.0091(2) 0.0066(2)
I2S 0.0244(3) 0.0221(3) 0.0239(3) 0.0110(2) 0.0133(2) 0.0109(2)
C1S 0.020(3) 0.017(4) 0.012(3) 0.009(3) 0.007(3) 0.006(3)
loop_
_atom_type_symbol
_atom_type_description
_atom_type_scat_dispersion_real
_atom_type_scat_dispersion_imag
_atom_type_scat_source
C C 0.0033 0.0016 'International Tables Vol C Tables 4.2.6.8 and 6.1.1.4'
H H 0.0000 0.0000 'International Tables Vol C Tables 4.2.6.8 and 6.1.1.4'
N N 0.0061 0.0033 'International Tables Vol C Tables 4.2.6.8 and 6.1.1.4'
Cl Cl 0.1484 0.1585 'International Tables Vol C Tables 4.2.6.8 and 6.1.1.4'
I I -0.4742 1.8119 'International Tables Vol C Tables 4.2.6.8 and 6.1.1.4'
Pt Pt -1.7033 8.3905 'International Tables Vol C Tables 4.2.6.8 and 6.1.1.4'
loop_
_geom_angle_atom_site_label_1
_geom_angle_atom_site_label_2
_geom_angle_atom_site_label_3
_geom_angle
_geom_angle_site_symmetry_1
_geom_angle_site_symmetry_3
N1 Pt1 N1 180.0 . 2
N1 Pt1 Cl1 89.4(2) . 2
N1 Pt1 Cl1 90.6(2) 2 2
N1 Pt1 Cl1 90.6(2) . .
N1 Pt1 Cl1 89.4(2) 2 .
Cl1 Pt1 Cl1 180.0 2 .
C4 C3 C2 110.7(6) . .
C4 C3 H3A 109.5 . .
C2 C3 H3A 109.5 . .
C4 C3 H3B 109.5 . .
C2 C3 H3B 109.5 . .
H3A C3 H3B 108.1 . .
N1 C1 N2 179.0(9) . .
C1 N1 Pt1 177.1(6) . .
N2 C6 C5 109.2(6) . .
N2 C6 H6A 109.8 . .
C5 C6 H6A 109.8 . .
N2 C6 H6B 109.8 . .
C5 C6 H6B 109.8 . .
H6A C6 H6B 108.3 . .
C1 N2 C2 121.6(6) . .
C1 N2 C6 121.0(5) . .
C2 N2 C6 116.9(5) . .
N2 C2 C3 108.8(7) . .
N2 C2 H2A 109.9 . .
C3 C2 H2A 109.9 . .
N2 C2 H2B 109.9 . .
C3 C2 H2B 109.9 . .
H2A C2 H2B 108.3 . .
C6 C5 C4 112.1(7) . .
C6 C5 H5A 109.2 . .
C4 C5 H5A 109.2 . .
C6 C5 H5B 109.2 . .
C4 C5 H5B 109.2 . .
H5A C5 H5B 107.9 . .
C5 C4 C3 110.9(6) . .
C5 C4 H4A 109.5 . .
C3 C4 H4A 109.5 . .
C5 C4 H4B 109.5 . .
C3 C4 H4B 109.5 . .
H4A C4 H4B 108.0 . .
I2S C1S I1S 112.4(3) . .
I2S C1S I3S 113.4(3) . .
I1S C1S I3S 111.0(3) . .
I2S C1S H1SA 106.5 . .
I1S C1S H1SA 106.5 . .
I3S C1S H1SA 106.5 . .
loop_
_geom_bond_atom_site_label_1
_geom_bond_atom_site_label_2
_geom_bond_distance
_geom_bond_site_symmetry_2
Pt1 N1 1.965(6) .
Pt1 N1 1.965(6) 2
Pt1 Cl1 2.3330(19) 2
Pt1 Cl1 2.3330(19) .
C3 C4 1.559(10) .
C3 C2 1.532(11) .
C3 H3A 0.9900 .
C3 H3B 0.9900 .
C1 N1 1.150(8) .
C1 N2 1.306(8) .
C6 N2 1.479(8) .
C6 C5 1.509(11) .
C6 H6A 0.9900 .
C6 H6B 0.9900 .
N2 C2 1.460(8) .
C2 H2A 0.9900 .
C2 H2B 0.9900 .
C5 C4 1.497(10) .
C5 H5A 0.9900 .
C5 H5B 0.9900 .
C4 H4A 0.9900 .
C4 H4B 0.9900 .
I1S C1S 2.136(7) .
I3S C1S 2.137(7) .
I2S C1S 2.154(7) .
C1S H1SA 1.0000 .
loop_
_geom_torsion_atom_site_label_1
_geom_torsion_atom_site_label_2
_geom_torsion_atom_site_label_3
_geom_torsion_atom_site_label_4
_geom_torsion
C5 C6 N2 C1 -131.0(8)
C5 C6 N2 C2 56.4(10)
C1 N2 C2 C3 130.9(8)
C6 N2 C2 C3 -56.5(9)
C4 C3 C2 N2 53.1(9)
N2 C6 C5 C4 -53.7(9)
C6 C5 C4 C3 54.9(10)
C2 C3 C4 C5 -54.5(10)
