#------------------------------------------------------------------------------
#$Date: 2016-02-04 14:02:20 +0200 (Thu, 04 Feb 2016) $
#$Revision: 175841 $
#$URL: svn://www.crystallography.net/cod/cif/7/11/87/7118701.cif $
#------------------------------------------------------------------------------
#
# This file is available in the Crystallography Open Database (COD),
# http://www.crystallography.net/
#
# All data on this site have been placed in the public domain by the
# contributors.
#
data_7118701
loop_
_publ_author_name
'Jeannin, Olivier'
'Canadell, Enric'
'Auban-Senzier, Pascale'
'Fourmigu\'e, Marc'
_publ_section_title
;
 Correlating conduction properties with the molecular symmetry:
 segregation of Z and E isomers in the charge-assisted, halogen-bonded
 cocrystal [(Z,E)-Me2I2TTF]2Br.
;
_journal_issue                   2
_journal_name_full
'Chemical communications (Cambridge, England)'
_journal_page_first              308
_journal_page_last               311
_journal_paper_doi               10.1039/c5cc08176a
_journal_volume                  52
_journal_year                    2016
_chemical_compound_source        'synthesis as described'
_chemical_formula_moiety         'C8 H6 I2 S4'
_chemical_formula_sum            'C8 H6 I2 S4'
_chemical_formula_weight         484.17
_chemical_name_systematic        (E)-Me2I2TTF
_space_group_IT_number           14
_symmetry_cell_setting           monoclinic
_symmetry_Int_Tables_number      14
_symmetry_space_group_name_Hall  '-P 2yn'
_symmetry_space_group_name_H-M   'P 1 21/n 1'
_atom_sites_solution_hydrogens   geom
_audit_conform_dict_location     ftp://ftp.iucr.org/pub/cif_core.dic
_audit_conform_dict_name         cif_core.dic
_audit_conform_dict_version      2.4.3
_audit_creation_date             2015-09-30T10:23:02-00:00
_audit_creation_method           'WinGX routine CIF_UPDATE'
_audit_update_record
;
2015-09-30 deposited with the CCDC.
2015-10-20 downloaded from the CCDC.
;
_cell_angle_alpha                90
_cell_angle_beta                 96.285(2)
_cell_angle_gamma                90
_cell_formula_units_Z            2
_cell_length_a                   6.2612(3)
_cell_length_b                   15.4368(8)
_cell_length_c                   6.6118(4)
_cell_measurement_reflns_used    4515
_cell_measurement_temperature    150(2)
_cell_measurement_theta_max      27.49
_cell_measurement_theta_min      3.1
_cell_measurement_wavelength     0.71073
_cell_volume                     635.21(6)
_computing_cell_refinement       'Bruker APEX2 (Bruker, 2006)'
_computing_data_collection       'Bruker APEX2 (Bruker, 2006)'
_computing_data_reduction        'Bruker APEX2 (Bruker, 2006)'
_computing_molecular_graphics    'Ortep-3 for Windows (Farrugia, 1997)'
_computing_publication_material  'WinGX publication routines (Farrugia, 1999)'
_computing_structure_refinement  'SHELXL-2014/7 (Sheldrick, 2014)'
_computing_structure_solution    'SIR-92 (Altomare et al., 1994)'
_diffrn_ambient_temperature      150(2)
_diffrn_detector                 'CCD plate'
_diffrn_measured_fraction_theta_full 1
_diffrn_measured_fraction_theta_max 0.999
_diffrn_measurement_device_type  'APEXII, Bruker-AXS'
_diffrn_measurement_method       'CCD rotation images, thick slices'
_diffrn_orient_matrix_UB_11      -0.103759
_diffrn_orient_matrix_UB_12      0.013778
_diffrn_orient_matrix_UB_13      0.100156
_diffrn_orient_matrix_UB_21      -0.097187
_diffrn_orient_matrix_UB_22      -0.047203
_diffrn_orient_matrix_UB_23      -0.058668
_diffrn_orient_matrix_UB_31      0.07488
_diffrn_orient_matrix_UB_32      -0.042173
_diffrn_orient_matrix_UB_33      0.098385
_diffrn_radiation_probe          x-ray
_diffrn_radiation_source         'fine-focus sealed tube'
_diffrn_radiation_type           MoK\a
_diffrn_radiation_wavelength     0.71073
_diffrn_reflns_av_R_equivalents  0.0446
_diffrn_reflns_av_unetI/netI     0.0391
_diffrn_reflns_laue_measured_fraction_full 1
_diffrn_reflns_laue_measured_fraction_max 0.999
_diffrn_reflns_limit_h_max       8
_diffrn_reflns_limit_h_min       -8
_diffrn_reflns_limit_k_max       17
_diffrn_reflns_limit_k_min       -20
_diffrn_reflns_limit_l_max       8
_diffrn_reflns_limit_l_min       -7
_diffrn_reflns_number            5319
_diffrn_reflns_point_group_measured_fraction_full 1
_diffrn_reflns_point_group_measured_fraction_max 0.999
_diffrn_reflns_theta_full        25.242
_diffrn_reflns_theta_max         27.52
_diffrn_reflns_theta_min         2.639
_diffrn_standards_number         0
_exptl_absorpt_coefficient_mu    5.568
_exptl_absorpt_correction_T_max  0.513
_exptl_absorpt_correction_T_min  0.155
_exptl_absorpt_correction_type   multi-scan
_exptl_absorpt_process_details
;
  [Sheldrick, G.M. (2002). SADABS Bruker AXS Inc., Madison, Wisconsin, USA]
;
_exptl_crystal_colour            orange
_exptl_crystal_density_diffrn    2.531
_exptl_crystal_density_method    'not measured'
_exptl_crystal_description       plate
_exptl_crystal_F_000             448
_exptl_crystal_recrystallization_method 'Re-crystallisation from solvent: '
_exptl_crystal_size_max          0.24
_exptl_crystal_size_mid          0.22
_exptl_crystal_size_min          0.08
_refine_diff_density_max         1.156
_refine_diff_density_min         -1.666
_refine_diff_density_rms         0.183
_refine_ls_extinction_method     none
_refine_ls_goodness_of_fit_ref   1.177
_refine_ls_hydrogen_treatment    constr
_refine_ls_matrix_type           full
_refine_ls_number_constraints    0
_refine_ls_number_parameters     71
_refine_ls_number_reflns         1459
_refine_ls_number_restraints     4
_refine_ls_restrained_S_all      1.177
_refine_ls_R_factor_all          0.0388
_refine_ls_R_factor_gt           0.0374
_refine_ls_shift/su_max          0
_refine_ls_shift/su_mean         0
_refine_ls_structure_factor_coef Fsqd
_refine_ls_weighting_details
'w=1/[\s^2^(Fo^2^)+6.6972P] where P=(Fo^2^+2Fc^2^)/3'
_refine_ls_weighting_scheme      calc
_refine_ls_wR_factor_gt          0.0923
_refine_ls_wR_factor_ref         0.0931
_reflns_Friedel_coverage         0
_reflns_number_gt                1404
_reflns_number_total             1459
_reflns_threshold_expression     'I > 2\s(I)'
_cod_data_source_file            c5cc08176a2.cif
_cod_data_source_block           Me2I2TTF
_cod_original_sg_symbol_H-M      'P 21/n'
_cod_database_code               7118701
_shelx_res_file
;
 
    shelx.res created by SHELXL-2014/7
 
 
TITL SIR92 run in space group P 21/n
CELL  0.71073   6.2612  15.4368   6.6118   90.000   96.285   90.000
ZERR     2.00   0.0003   0.0008   0.0004    0.000    0.002    0.000
LATT   1
SYMM  1/2 - X, 1/2 + Y, 1/2 - Z
SFAC  C    H    S    I
UNIT  16 12 8 4
MERG   2
DFIX     2.070   0.002 I1B C3
DFIX     1.500   0.020 C4B C2
DFIX 2.8 0.02 S1 C4B
FLAT     0.100 C2 C3 S1 C4B
EADP I1A I1B
EADP C4A C4B
FMAP   2
PLAN   25
ACTA
BOND   $H
CONF
L.S.  64
TEMP  -123.00
WGHT    0.000000    6.697200
FVAR       0.41885   0.96564
C1    1    0.918729    0.026021    0.520950    11.00000    0.01622    0.01636 =
         0.01711    0.00219   -0.00057    0.00116
C2    1    0.609745    0.137208    0.500868    11.00000    0.01175    0.01453 =
         0.02187   -0.00275   -0.00138    0.00314
C3    1    0.597143    0.097348    0.675430    11.00000    0.01189    0.01653 =
         0.02120   -0.00367   -0.00138    0.00228
S1    3    0.816252    0.109341    0.355381    11.00000    0.02048    0.02240 =
         0.02106    0.00575    0.00438    0.00879
S2    3    0.792404    0.017601    0.745201    11.00000    0.02179    0.02094 =
         0.01981    0.00417    0.00438    0.00713
PART    1
C4A   1    0.423570    0.113550    0.829557    21.00000    0.01447    0.01546 =
         0.01466   -0.00480    0.00661   -0.00137
AFIX  33
H4A1  2    0.452339    0.074939    0.947036    21.00000   -1.50000
H4A2  2    0.431644    0.173921    0.875611    21.00000   -1.50000
H4A3  2    0.279672    0.101783    0.761087    21.00000   -1.50000
AFIX   0
I1A   4    0.405072    0.233809    0.376342    21.00000    0.02240    0.02180 =
         0.02853    0.00215   -0.00023    0.00897
PART    2
I1B   4    0.355381    0.129424    0.851078   -21.00000    0.02240    0.02180 =
         0.02853    0.00215   -0.00023    0.00897
C4B   1    0.451153    0.205075    0.417873   -21.00000    0.01447    0.01546 =
         0.01466   -0.00480    0.00661   -0.00137
AFIX  33
H4B1  2    0.490364    0.226102    0.287043   -21.00000   -1.50000
H4B2  2    0.306735    0.179841    0.398553   -21.00000   -1.50000
H4B3  2    0.453100    0.253471    0.513984   -21.00000   -1.50000
AFIX   0
HKLF    4
 
REM  SIR92 run in space group P 21/n
REM R1 =  0.0374 for    1404 Fo > 4sig(Fo)  and  0.0388 for all    1459 data
REM     71 parameters refined using      4 restraints
 
END
 
WGHT      0.0000      6.7672
 
REM Highest difference peak  1.156,  deepest hole -1.666,  1-sigma level  0.183
Q1    1   0.3521  0.1425  0.7780  11.00000  0.05    1.16
Q2    1   0.4349  0.1150  0.9027  11.00000  0.05    0.88
Q3    1   0.4957  0.1053  0.8174  11.00000  0.05    0.83
Q4    1   0.3924  0.2398  0.5115  11.00000  0.05    0.73
Q5    1   0.5628  0.1019  0.7112  11.00000  0.05    0.67
Q6    1   0.3682  0.1794  0.2912  11.00000  0.05    0.67
Q7    1   0.5016  0.2647  0.4333  11.00000  0.05    0.61
Q8    1   0.4966  0.2367  0.2365  11.00000  0.05    0.59
Q9    1   0.7914  0.1356  0.3050  11.00000  0.05    0.55
Q10   1   0.8462  0.1019  0.2696  11.00000  0.05    0.49
Q11   1   0.8033 -0.0139  0.7977  11.00000  0.05    0.48
Q12   1   0.3704  0.1619  0.5328  11.00000  0.05    0.47
Q13   1   0.7880  0.0849  0.3156  11.00000  0.05    0.47
Q14   1   0.8218  0.0179  0.6549  11.00000  0.05    0.45
Q15   1   0.8786  0.0382  0.7709  11.00000  0.05    0.44
Q16   1   0.6066  0.1390  0.5933  11.00000  0.05    0.44
Q17   1   0.7600  0.1032  0.3425  11.00000  0.05    0.43
Q18   1   0.7060  0.1147  0.4773  11.00000  0.05    0.43
Q19   1   1.0000  0.0000  0.5000  10.50000  0.05    0.42
Q20   1   0.8682  0.1011  0.4230  11.00000  0.05    0.42
Q21   1   0.5291  0.1947  0.3659  11.00000  0.05    0.41
Q22   1   0.3592  0.2994  0.4799  11.00000  0.05    0.40
Q23   1   0.2865  0.3244  0.6100  11.00000  0.05    0.40
Q24   1   0.2867  0.0611  1.1003  11.00000  0.05    0.39
Q25   1   0.1835  0.1389  0.5505  11.00000  0.05    0.38
;
_shelx_res_checksum              11528
_shelx_hkl_file
;
   1   0   0    9.41    0.98   2
  -1   0   0   10.08    1.00   2
   1   0   0    9.66    1.01   2
  -1   0   0   10.43    1.05   2
   2   0   0   53.13    3.07   3
   2   0   0   47.89    4.15   2
   2   0   0   52.80    4.13   2
  -2   0   0   45.96    3.05   3
  -2   0   0   46.90    4.13   2
  -2   0   0   48.38    4.10   2
  -3   0   0    2.92    1.20   2
  -3   0   0    2.95    0.76   3
   3   0   0    6.59    1.35   2
   3   0   0    3.27    1.16   2
   3   0   0    3.10    0.71   3
  -3   0   0    2.81    1.18   2
  -4   0   0 1668.81  106.33   2
   4   0   0 1571.10  106.33   2
   4   0   0 1591.17  106.10   2
  -5   0   0    6.15    1.99   2
   5   0   0    5.77    1.91   2
   6   0   0  744.00   51.04   2
  -6   0   0  737.85   50.73   2
  -7   0   0    3.84    2.23   2
   7   0   0    1.11    1.57   2
   8   0   0   37.14    5.42   2
   0  -1   0   -1.72    0.06   2
   0  -1   0   -1.74    0.04   1
   0   1   0   -1.72    0.05   2
   0   1   0   -1.70    0.05   1
   1  -1   0   29.20    2.43   2
   1  -1   0   30.28    2.44   2
   1  -1   0   28.72    1.96   3
  -1   1   0   28.88    2.41   2
  -1   1   0   31.00    2.44   2
  -2  -1   0 5444.99  350.28   2
   2  -1   0 5140.60  349.28   2
  -2  -1   0 5161.81  349.51   2
  -2  -1   0 5179.48  278.05   3
   2  -1   0 5117.42  349.12   2
   2  -1   0 5102.44  279.19   3
  -2   1   0 5577.55  349.83   2
   2   1   0 5378.17  349.69   2
  -2   1   0 5288.23  348.70   2
   2   1   0 5824.39  352.05   2
   3  -1   0  290.47   18.22   3
   3  -1   0  297.48   23.01   2
  -3  -1   0  365.21   18.19   3
  -3  -1   0  391.35   23.50   2
  -3  -1   0  393.61   23.68   2
   3  -1   0  303.38   23.15   2
  -3   1   0  305.17   23.15   2
   3   1   0  374.93   23.35   2
   3   1   0  375.14   23.62   2
  -3   1   0  299.44   23.08   2
   4  -1   0  530.86   36.80   2
   4  -1   0  529.26   29.09   3
  -4  -1   0  542.35   37.06   2
   4  -1   0  540.89   37.04   2
   4   1   0  570.57   37.31   2
  -4   1   0  536.13   36.91   2
   4   1   0  559.00   36.98   2
  -5  -1   0  596.04   41.32   2
   5  -1   0  610.39   41.39   2
   5  -1   0  591.07   41.01   2
   5   1   0  593.99   41.53   2
  -5   1   0  620.80   41.24   2
   6  -1   0   60.24    6.30   2
  -6  -1   0   59.99    6.33   2
  -6   1   0   64.43    6.40   2
   6   1   0   56.94    6.39   2
  -7  -1   0   49.49    5.93   2
   7  -1   0   54.96    6.08   2
   7   1   0   43.57    5.89   2
   8  -1   0  253.03   20.78   2
   8   1   0  275.89   21.42   2
   0  -2   0 1134.62   73.03   1
  -1   2   0  419.59   27.59   2
  -1   2   0  418.71   27.60   2
   2  -2   0 1766.44  108.92   2
  -2  -2   0 1716.80  107.21   2
   2  -2   0 1568.87  107.30   2
   2  -2   0 1507.03   86.55   3
  -2  -2   0 1581.31  106.96   2
  -2   2   0 1569.08  106.69   2
   2   2   0 1702.10  107.28   2
  -2   2   0 1606.19  106.76   2
   2   2   0 1680.04  106.99   2
   3  -2   0  186.28   11.58   3
  -3  -2   0  220.33   11.33   3
  -3  -2   0  225.60   15.03   2
  -3  -2   0  239.89   15.33   2
   3  -2   0  191.95   14.71   2
   3  -2   0  183.05   14.57   2
   3   2   0  228.97   15.01   2
   3   2   0  246.64   15.45   2
  -3   2   0  192.23   14.71   2
  -3   2   0  180.63   14.55   2
   4  -2   0 1385.76   91.83   2
   4  -2   0 1336.12   91.54   2
  -4  -2   0 1359.84   91.89   2
   4  -2   0 1367.31   73.09   3
  -4  -2   0 1419.85   72.81   3
   4   2   0 1383.31   91.83   2
   4   2   0 1448.03   92.33   2
  -4   2   0 1402.70   91.67   2
   5  -2   0   24.86    3.26   2
   5  -2   0   22.03    3.05   2
   5  -2   0   22.59    2.20   3
  -5   2   0   23.25    3.15   2
   6  -2   0  627.07   44.27   2
  -6  -2   0  659.55   44.48   2
  -6   2   0  633.11   44.07   2
   6   2   0  644.55   44.87   2
  -7  -2   0   70.14    7.52   2
   7  -2   0   72.83    7.43   2
   7   2   0   70.08    7.85   2
   8  -2   0   31.20    4.93   2
   8   2   0   35.33    5.59   2
   0  -3   0   12.85    1.46   1
   0  -3   0   11.64    1.87   2
  -1  -3   0 1804.78  107.23   2
  -1  -3   0 1723.28  106.98   2
   1   3   0 1771.80  108.93   2
  -1   3   0 1409.36  106.43   2
   1   3   0 1670.65  107.21   2
  -1   3   0 1429.75  106.59   2
  -2  -3   0 1810.63  112.37   2
   2  -3   0 1687.77  111.97   2
   2  -3   0 1695.46  111.97   2
   2  -3   0 1655.16   90.69   3
  -2  -3   0 1648.48  112.47   2
   2   3   0 1750.35  112.31   2
  -2   3   0 1572.33  111.85   2
   2   3   0 1812.45  112.78   2
  -2   3   0 1776.55  111.97   2
  -3  -3   0  113.62    8.92   2
  -3  -3   0  112.84    9.10   2
  -3  -3   0  112.07    6.37   3
   3   3   0  123.91    9.39   2
   3   3   0  115.50    8.88   2
  -4  -3   0 1991.32  101.80   3
   4  -3   0 1916.38  127.97   2
  -4  -3   0 1884.55  128.36   2
   4  -3   0 1904.69  128.09   2
   4  -3   0 1897.50  102.29   3
   4   3   0 2144.69  129.10   2
  -4   3   0 1900.52  127.88   2
   5  -3   0  141.73    9.08   3
   5  -3   0  149.85   11.89   2
  -5  -3   0  168.64   12.37   2
   5  -3   0  151.31   11.74   2
  -5   3   0  136.87   11.54   2
   5   3   0  176.64   12.92   2
   6  -3   0  404.35   29.44   2
   6  -3   0  416.23   22.99   3
  -6  -3   0  425.16   29.83   2
  -6   3   0  405.06   29.17   2
   6   3   0  420.47   30.36   2
   7  -3   0   72.54    7.87   2
  -7  -3   0   86.51    8.56   2
   7   3   0   92.57    9.21   2
   0  -4   0 2080.12  135.14   1
   0  -4   0 1898.82  137.67   2
   0   4   0 2310.44  138.05   2
   1  -4   0 1373.41   81.40   2
  -1  -4   0 1245.61   81.61   2
  -1  -4   0 1152.94   81.74   2
   1   4   0 1033.43   81.28   2
  -1   4   0 1296.15   80.94   2
  -1   4   0 1327.13   80.93   2
   2  -4   0  264.64   13.82   3
  -2  -4   0  220.52   17.02   2
  -2  -4   0  229.22   17.27   2
   2  -4   0  252.37   16.63   2
   2  -4   0  257.92   16.68   2
  -2   4   0  253.85   16.54   2
  -2   4   0  259.81   16.61   2
   2   4   0  222.28   16.92   2
   2   4   0  228.49   17.48   2
  -3  -4   0  335.93   20.78   2
   3  -4   0  260.00   19.64   2
  -3  -4   0  327.87   20.45   2
   3  -4   0  262.02   15.93   3
   3  -4   0  260.85   19.65   2
  -3   4   0  277.48   19.68   2
  -3   4   0  248.61   19.45   2
   3   4   0  334.14   20.35   2
   4  -4   0  250.29   18.49   2
   4  -4   0  262.33   18.46   2
   4  -4   0  249.36   14.78   3
  -4  -4   0  262.71   18.98   2
  -4  -4   0  289.88   14.13   3
  -4   4   0  234.32   18.18   2
   4   4   0  285.97   19.76   2
   5  -4   0    5.55    1.70   2
   5  -4   0    4.55    1.54   2
  -5  -4   0    2.34    1.61   2
   5  -4   0    6.59    1.37   3
  -5   4   0    5.17    1.67   2
   5   4   0    3.23    1.83   2
   6  -4   0  834.78   43.80   3
   6  -4   0  816.10   55.25   2
  -6  -4   0  760.25   55.51   2
   6   4   0  790.52   56.38   2
  -6   4   0  848.31   54.98   2
  -7  -4   0   42.34    5.59   2
   7  -4   0   37.70    4.96   2
   7   4   0   38.80    5.87   2
   0  -5   0   17.86    2.38   2
   0  -5   0   17.02    1.75   1
   0   5   0   21.70    2.63   2
   1  -5   0   97.83    7.12   2
   1   5   0  111.79    8.23   2
  -1   5   0  101.13    6.82   1
  -1   5   0   89.56    7.02   2
  -2  -5   0 3182.49  191.01   2
  -2  -5   0 2899.69  189.57   2
   2  -5   0 2815.33  189.51   2
   2  -5   0 2880.44  153.23   3
   2   5   0 2942.11  192.49   2
  -2   5   0 2794.92  188.65   2
   2   5   0 2830.72  189.08   2
  -2   5   0 2789.66  188.44   2
   3  -5   0  150.44   10.95   2
   3  -5   0  153.02   10.94   2
   3  -5   0  150.09    9.15   3
  -3   5   0  159.14   10.93   2
  -3   5   0  142.72   10.72   2
   4  -5   0  723.24   46.58   2
   4  -5   0  752.27   37.59   3
  -4  -5   0  647.25   36.44   3
   4  -5   0  730.64   46.65   2
  -4  -5   0  617.49   47.02   2
  -4   5   0  729.54   46.33   2
   4   5   0  650.53   47.83   2
   5  -5   0  105.66    9.04   2
  -5  -5   0  118.37    9.90   2
   5  -5   0  112.15    9.23   2
   5  -5   0  107.67    7.29   3
  -5   5   0  105.88    8.84   2
   5   5   0  138.23   11.05   2
   6  -5   0   44.80    3.98   3
  -6  -5   0   53.68    6.05   2
   6  -5   0   46.64    5.30   2
   6   5   0   55.56    6.70   2
  -6   5   0   47.20    5.08   2
   7  -5   0   11.52    2.18   3
   7  -5   0   11.56    2.96   2
   7   5   0    6.30    3.09   2
   0  -6   0 2372.18  163.10   2
   0  -6   0 2315.71  158.89   1
   0   6   0 2780.51  163.60   2
  -1  -6   0  485.41   35.81   2
  -1  -6   0  433.54   35.34   2
   1  -6   0  556.02   34.68   2
  -1   6   0  564.37   34.71   2
  -1   6   0  554.23   33.69   1
   2  -6   0  638.65   39.50   2
  -2  -6   0  538.19   40.28   2
  -2   6   0  635.94   38.40   1
  -2   6   0  645.31   39.39   2
   2   6   0  483.62   39.82   2
  -2   6   0  611.57   39.25   2
   3  -6   0  666.60   47.96   2
  -3  -6   0  760.30   49.10   2
   3  -6   0  715.00   48.09   2
   3  -6   0  705.69   39.09   3
  -3   6   0  707.38   47.81   2
   3   6   0  784.12   49.96   2
  -4  -6   0  758.76   51.61   2
   4  -6   0  736.84   40.91   3
   4  -6   0  764.04   50.64   2
   4  -6   0  719.88   50.53   2
  -4   6   0  741.13   50.28   2
   4   6   0  819.61   52.71   2
   5  -6   0   56.74    5.27   2
  -5  -6   0   40.48    5.48   2
   5  -6   0   54.92    4.33   3
  -5   6   0   54.91    4.96   2
   5   6   0   53.21    6.54   2
  -6  -6   0  333.90   26.78   2
   6  -6   0  391.65   21.02   3
   6  -6   0  404.07   26.40   2
   6   6   0  320.21   27.57   2
   7  -6   0   95.59    7.15   3
  -7  -6   0  110.00   10.44   2
   7  -6   0  101.21    9.36   2
   7   6   0  106.90   11.26   2
  -7   6   0   97.38    9.25   1
   0  -7   0   14.83    2.43   2
   0  -7   0   11.97    1.55   1
   0   7   0   19.20    2.72   2
  -1  -7   0 1099.93   67.86   2
  -1  -7   0  975.19   67.29   2
   1  -7   0  988.05   66.26   2
  -1   7   0  960.06   64.50   1
  -1   7   0 1028.27   66.40   2
   1   7   0  976.95   67.35   2
   2  -7   0 1396.77   87.84   2
  -2  -7   0 1400.83   89.20   2
  -2  -7   0 1348.84   89.39   2
   2  -7   0 1272.89   71.20   3
  -2   7   0 1292.82   87.55   2
  -2   7   0 1310.72   87.63   2
  -2   7   0 1333.19   85.58   1
   3  -7   0  225.70   16.00   2
  -3  -7   0  223.14   17.09   2
   3  -7   0  233.54   13.68   3
  -3   7   0  227.79   15.49   1
  -3   7   0  226.09   15.67   2
   4  -7   0  300.34   20.40   2
  -4  -7   0  249.03   21.15   2
   4  -7   0  304.69   16.97   3
   4  -7   0  310.04   20.35   2
   4   7   0  236.38   21.78   2
  -4   7   0  319.82   20.07   2
  -5  -7   0  205.84   16.30   2
   5  -7   0  195.31   14.99   2
   5  -7   0  204.23   12.52   3
  -5   7   0  209.41   14.76   2
   5   7   0  198.69   17.15   2
   6  -7   0   33.71    4.28   2
  -6  -7   0   44.95    5.68   2
   6  -7   0   31.11    3.48   3
   6   7   0   41.44    6.23   2
  -6   7   0   33.52    4.25   1
   7  -7   0   86.67    8.43   2
   7  -7   0   91.62    6.80   3
  -7  -7   0   95.65    9.79   2
  -7   7   0   83.48    8.43   1
   7   7   0   90.72   10.57   2
   0  -8   0 4825.44  329.39   2
   0  -8   0 4598.22  321.60   1
   0   8   0 5719.97  331.61   2
  -1  -8   0  653.42   47.39   2
   1  -8   0  725.51   46.52   2
  -1  -8   0  720.15   47.78   2
  -1   8   0  705.98   45.14   1
  -1   8   0  663.84   46.60   2
   1   8   0  701.52   47.54   2
   2  -8   0   35.24    3.23   2
  -2   8   0   33.65    2.96   1
  -2   8   0   31.09    2.96   2
  -2   8   0   31.98    3.05   2
  -3  -8   0 1008.41   64.68   2
   3  -8   0  938.72   51.45   3
   3  -8   0  947.12   62.96   2
  -3   8   0  924.17   62.55   2
  -3   8   0  929.83   61.32   1
   4  -8   0  345.20   24.25   2
   4  -8   0  346.48   20.26   3
  -4  -8   0  403.71   26.19   2
  -4   8   0  330.47   23.52   1
   4   8   0  309.63   26.26   2
  -4   8   0  354.97   23.83   2
  -5  -8   0   40.14    5.15   2
   5  -8   0   31.05    3.43   3
  -5   8   0   26.62    3.51   1
  -5   8   0   28.71    3.37   2
   5   8   0   34.15    5.49   2
   6  -8   0  262.86   15.40   3
  -6  -8   0  229.27   19.92   2
   6  -8   0  259.56   18.66   2
  -6   8   0  259.10   18.44   1
   6   8   0  230.98   21.02   2
   7  -8   0  271.21   20.01   2
  -7  -8   0  262.38   21.57   2
   7  -8   0  261.30   16.10   3
  -7   8   0  262.34   19.73   1
   7   8   0  248.88   22.75   2
  -1  -9   0 1105.63   68.19   2
   1  -9   0  958.88   66.79   2
  -1  -9   0 1035.92   67.96   2
  -1   9   0  950.28   67.03   2
  -1   9   0  919.52   64.92   1
   1   9   0 1071.75   68.00   2
  -2  -9   0  994.90   70.12   2
  -2  -9   0 1059.23   70.54   2
   2  -9   0  991.44   56.07   3
   2  -9   0 1057.80   68.60   2
  -2   9   0 1021.98   68.40   2
  -2   9   0 1045.55   66.83   1
   2   9   0 1080.05   70.58   2
  -3  -9   0   28.31    4.24   2
   3  -9   0   21.54    2.74   2
   3  -9   0   30.74    3.23   3
  -3   9   0   23.23    2.52   2
  -3   9   0   23.80    2.62   1
   3   9   0   20.05    4.37   2
   4  -9   0  202.99   14.57   2
   4  -9   0  197.17   12.66   3
  -4  -9   0  179.79   15.95   2
  -4   9   0  198.84   14.09   1
  -4   9   0  204.00   14.04   2
   5  -9   0 1461.71   78.02   3
  -5  -9   0 1510.08   98.50   2
  -5   9   0 1382.43   94.01   1
  -6  -9   0    2.50    2.38   2
   6  -9   0    5.58    1.74   3
   6   9   0    2.58    2.60   2
  -6   9   0    5.93    2.17   1
   7  -9   0   10.39    2.41   3
  -7  -9   0    9.24    3.96   2
   7   9   0   10.50    4.65   2
  -7   9   0    8.48    2.97   1
   0 -10   0   36.82    4.24   2
   0 -10   0   33.98    2.85   1
   0  10   0   39.52    4.36   2
  -1 -10   0   31.23    3.41   1
   1 -10   0   34.87    3.85   2
  -1 -10   0   32.86    4.41   2
  -1 -10   0   34.35    4.39   2
  -1  10   0   36.60    3.63   1
   1  10   0   35.10    4.36   2
  -1  10   0   31.94    3.87   2
  -2 -10   0  387.38   28.47   2
   2 -10   0  427.94   26.84   2
   2 -10   0  384.36   22.65   3
  -2 -10   0  321.28   27.82   2
   2  10   0  394.39   28.50   2
  -2  10   0  387.52   26.63   2
  -2  10   0  406.85   25.96   1
  -3 -10   0 1248.61   86.44   2
   3 -10   0 1277.71   69.03   3
   3 -10   0 1319.53   84.49   2
  -3  10   0 1357.31   82.41   1
   3  10   0 1168.95   86.60   2
  -3  10   0 1272.69   83.96   2
   4 -10   0  141.81   10.02   3
  -4 -10   0  165.44   13.35   2
   4  10   0  124.22   13.11   2
  -4  10   0  137.68   10.65   1
  -4  10   0  147.13   10.54   2
  -5 -10   0    6.18    3.09   2
   5 -10   0    9.67    2.30   3
   5  10   0   12.17    4.10   2
  -5  10   0   10.22    2.31   1
  -6 -10   0  194.49   16.87   2
   6 -10   0  196.50   12.51   3
  -6  10   0  195.86   14.36   1
   6  10   0  144.44   16.68   2
  -7 -10   0  353.05   26.17   2
   7  10   0  262.18   26.08   2
   0 -11   0    4.12    1.79   2
   0  11   0    5.98    1.94   2
  -1 -11   0 1042.87   75.92   1
  -1 -11   0 1270.45   79.53   2
  -1 -11   0 1245.19   79.59   2
  -1  11   0 1086.87   78.47   2
   1  11   0 1256.47   79.44   2
   2 -11   0   12.26    2.53   3
  -2 -11   0    9.76    2.89   2
   2 -11   0   11.81    2.35   2
  -2  11   0   12.26    2.45   2
  -2  11   0   11.76    2.01   1
   2  11   0   13.46    3.39   2
  -3 -11   0  181.69   17.44   2
   3 -11   0  224.75   14.24   3
   3 -11   0  232.65   16.10   2
   3  11   0  209.45   18.01   2
  -3  11   0  232.07   15.53   1
  -3  11   0  227.69   15.65   2
  -4 -11   0  522.62   40.37   2
   4 -11   0  608.27   32.45   3
  -4  11   0  627.86   37.52   1
   4  11   0  466.29   40.52   2
   5 -11   0  373.71   22.46   3
  -5 -11   0  373.24   29.01   2
  -5  11   0  366.36   25.71   1
   6 -11   0   76.04    6.56   3
  -6 -11   0   91.27    9.92   2
   6  11   0   51.51    8.67   2
  -6  11   0   70.05    6.97   1
   0 -12   0   69.74    7.03   2
   0  12   0   78.67    7.08   2
  -1 -12   0 1869.77  116.45   2
   1 -12   0 1474.93  115.09   2
  -1 -12   0 1837.35  116.13   2
  -1  12   0 1752.55  115.31   2
   1  12   0 1782.83  116.07   2
   2 -12   0   43.14    4.57   3
   2 -12   0   48.82    4.90   2
  -2  12   0   46.16    4.80   2
  -2  12   0   48.74    4.57   1
  -3 -12   0  448.20   34.99   2
   3 -12   0  468.92   27.94   3
  -3  12   0  461.50   32.62   2
   3  12   0  537.34   35.77   2
  -3  12   0  480.89   32.10   1
  -4 -12   0    1.13    2.34   2
   4 -12   0    5.28    2.02   3
   4  12   0    5.03    2.88   2
  -4  12   0    4.70    1.76   1
  -5 -12   0    4.57    3.12   2
   5 -12   0    5.41    2.10   3
   5  12   0    3.55    2.76   2
  -5  12   0    4.85    1.99   1
  -6 -12   0  113.15   12.92   2
   6 -12   0  134.14    9.82   3
   6  12   0   93.81   12.74   2
  -6  12   0  138.58   10.80   1
   0 -13   0    4.05    1.95   2
   0  13   0    5.64    1.99   2
   1 -13   0  875.15   67.72   2
  -1 -13   0 1028.91   68.79   2
  -1 -13   0 1007.18   68.43   2
  -1  13   0 1048.91   67.80   2
   1  13   0 1089.23   68.69   2
  -2 -13   0  237.13   18.69   2
   2 -13   0  235.01   15.10   3
   2  13   0  272.14   19.03   2
  -2  13   0  211.60   16.59   1
  -2  13   0  215.87   16.95   2
   3 -13   0  202.94   14.29   3
  -3 -13   0  204.54   18.04   2
  -3  13   0  219.27   15.76   1
   3  13   0  240.65   18.54   2
   4 -13   0    2.41    1.63   3
  -4 -13   0    3.03    2.59   2
  -4  13   0    1.30    1.43   1
   4  13   0    6.62    3.18   2
  -5 -13   0  299.05   26.44   2
   5 -13   0  325.29   20.69   3
  -5  13   0  348.11   23.30   1
   5  13   0  326.74   27.06   2
  -6 -13   0   92.08   11.38   2
   6 -13   0   94.85    8.19   3
   6  13   0   84.07   11.26   2
   0 -14   0  260.30   19.94   2
   0  14   0  273.07   19.79   2
  -1 -14   0  106.74    9.63   2
  -1  14   0   92.43    8.48   2
   1  14   0  106.45    9.45   2
  -2 -14   0    6.35    2.58   2
   2 -14   0   10.78    2.67   3
   2  14   0    5.36    2.42   2
  -2  14   0    9.04    2.47   1
  -2  14   0    9.64    2.28   2
  -3 -14   0  875.27   63.17   2
   3 -14   0  884.93   50.54   3
  -3  14   0  907.36   59.57   1
   3  14   0  943.33   63.24   2
  -4 -14   0    2.25    2.55   2
   4 -14   0    2.09    1.71   3
   4  14   0    6.16    3.05   2
  -4  14   0    3.60    1.75   1
   5 -14   0    1.24    1.59   3
  -5 -14   0    3.90    3.35   2
  -5  14   0    1.95    1.69   1
   5  14   0    6.04    3.44   2
   0 -15   0    6.44    2.22   2
   0  15   0    8.62    2.39   2
   1 -15   0  505.78   28.89   3
  -1 -15   0  488.68   35.32   2
  -1  15   0  488.87   34.18   2
   1  15   0  490.66   35.05   2
  -2 -15   0   15.44    3.82   2
   2 -15   0   13.48    3.02   3
   2  15   0   14.57    3.72   2
  -3 -15   0    7.67    3.14   2
   3 -15   0    4.07    1.90   3
  -3  15   0    0.73    1.60   1
   3  15   0    6.68    2.94   2
   4 -15   0   37.54    4.71   3
  -4 -15   0   22.09    5.71   2
  -4  15   0   38.62    4.57   1
   4  15   0   35.28    5.94   2
  -5 -15   0  470.87   39.60   2
   5 -15   0  516.48   31.38   3
   5  15   0  571.99   40.35   2
   0 -16   0   30.41    4.36   2
  -1 -16   0  331.65   24.51   2
   1 -16   0  306.94   20.01   3
   1  16   0  336.11   24.28   2
  -2 -16   0    7.85    3.04   2
   2 -16   0   11.73    2.89   3
   2  16   0    8.51    3.00   2
  -3 -16   0  566.65   41.79   2
   3 -16   0  562.32   33.53   3
  -3  16   0  567.14   39.14   1
   3  16   0  582.53   41.44   2
  -4 -16   0   11.21    4.19   2
   4 -16   0   18.07    3.76   3
   4  16   0   13.53    4.22   2
  -4  16   0   13.82    3.16   1
   0 -17   0    1.56    1.60   2
   0 -17   0    1.72    1.44   3
   1 -17   0  446.37   26.01   3
  -1 -17   0  416.66   31.29   2
  -2 -17   0   19.77    4.47   2
   2 -17   0   24.22    4.17   3
  -3 -17   0    7.68    1.96   3
   3 -17   0    0.97    1.63   3
  -3 -17   0    7.28    3.26   2
  -3  17   0    3.05    2.25   1
  -4 -17   0    3.10    2.94   2
   4 -17   0    0.68    1.56   3
   0 -18   0   51.62    5.35   3
   0 -18   0   52.63    6.04   2
   1 -18   0   76.06    7.26   3
  -1 -18   0  103.45    7.48   3
  -1 -18   0   88.35    8.65   2
   1 -18   0   73.89    7.92   2
   2 -18   0    7.77    2.62   3
  -2 -18   0    5.71    1.95   3
  -2 -18   0    5.98    2.77   2
   3 -18   0  543.78   31.46   3
  -3 -18   0  531.42   38.66   2
  -3 -18   0  485.46   29.24   3
   0 -19   0    0.31    1.44   3
   0 -19   0    1.47    1.72   2
   1 -19   0  249.58   15.72   3
  -1 -19   0  211.53   18.03   2
   1 -19   0  224.46   17.77   2
  -1 -19   0  228.73   14.90   3
   2 -19   0  228.63   15.24   3
  -2 -19   0  210.54   13.89   3
  -2 -19   0  207.94   17.88   2
   0 -20   0   93.68    9.48   2
   0 -20   0  110.58    8.68   3
   8   0  -1   -1.00    1.38   2
  -7   0   1  620.53   42.06   2
   7   0  -1  566.98   42.00   2
  -6   0   1    2.73    1.87   2
   6   0  -1    3.06    1.67   2
   5   0  -1  506.98   26.68   3
  -5   0   1  507.37   34.85   2
   5   0  -1  486.57   34.90   2
   4   0  -1   12.22    1.18   3
  -4   0   1   13.62    2.33   2
   4   0  -1   12.56    2.17   2
   4   0  -1   11.82    2.04   2
  -3   0   1  864.00   55.92   2
  -3   0   1  849.08   55.83   2
   3   0  -1  815.42   44.01   3
   3   0  -1  838.89   55.76   2
   3   0  -1  826.87   55.90   2
  -2   0   1   19.40    2.16   1
   2   0  -1   19.59    2.09   2
  -2   0   1   20.81    2.16   2
  -2   0   1   18.63    2.13   2
   2   0  -1   19.99    2.14   2
  -1   0   1 4528.96  293.61   1
  -1   0   1 4853.22  300.65   2
  -1   0   1 4147.21  299.78   2
   1   0  -1 4650.60  299.96   2
   1   0  -1 4615.97  300.49   2
   0   0   1   21.67    1.89   2
   0   0  -1   26.61    1.95   2
  -1   0  -1   27.95    2.66   2
  -1   0  -1   19.63    2.20   2
   1   0   1   24.21    2.41   2
  -2   0  -1   22.94    2.23   2
   2   0   1   21.18    2.23   2
   2   0   1   24.49    2.53   2
  -2   0  -1   21.55    2.96   2
   3   0   1 1041.69   71.00   2
   3   0   1 1098.10   71.29   2
  -3   0  -1 1089.17   71.91   2
  -3   0  -1 1093.01   71.02   2
  -3   0  -1 1060.02   56.72   3
   4   0   1    6.43    1.72   2
   4   0   1    8.52    1.82   2
  -4   0  -1    5.09    1.51   2
  -5   0  -1 1815.37  120.67   2
   5   0   1 1775.22  120.89   2
   5   0   1 1891.67  120.77   2
  -6   0  -1    7.27    2.34   2
   6   0   1    4.11    1.92   2
   7   0   1  148.46   12.79   2
   8  -1  -1    2.37    1.95   2
   8   1  -1    0.94    1.86   2
   7  -1  -1   54.27    6.32   2
  -7  -1   1   54.99    6.47   2
  -7   1   1   49.99    6.16   2
   7   1  -1   50.91    6.37   2
  -6  -1   1   88.30    7.81   2
   6  -1  -1   67.63    7.22   2
  -6   1   1   71.94    7.32   2
   6   1  -1   77.44    7.68   2
   5  -1  -1 1094.98   72.88   2
  -5  -1   1 1032.74   72.81   2
   5  -1  -1 1122.37   57.27   3
   5   1  -1 1034.40   72.98   2
  -5   1   1 1140.82   72.90   2
   4  -1  -1   18.53    1.61   3
   4  -1  -1   18.88    2.66   2
   4  -1  -1   15.31    2.51   2
  -4   1   1   20.79    2.74   2
   3  -1  -1 1123.98   74.49   2
  -3  -1   1 1148.63   74.63   2
  -3  -1   1 1139.93   74.69   2
   3  -1  -1 1133.26   74.60   2
   3  -1  -1 1103.03   59.21   3
  -3   1   1 1101.86   74.55   2
   3   1  -1 1121.77   74.72   2
  -3   1   1 1095.51   74.47   2
   3   1  -1 1143.91   58.85   3
   3   1  -1 1161.07   74.55   2
   2  -1  -1   23.07    2.54   2
   2  -1  -1   23.07    2.56   2
  -2  -1   1   24.25    2.60   2
  -2  -1   1   23.00    2.58   2
  -2   1   1   29.34    2.75   1
   2   1  -1   26.64    2.64   2
  -2   1   1   25.00    2.59   2
  -2   1   1   23.71    2.57   2
   2   1  -1   26.09    2.70   2
  -1  -1   1  275.55   19.23   2
   1  -1  -1  312.63   18.94   1
   1  -1  -1  268.08   19.23   2
  -1  -1   1  251.46   19.17   2
   1  -1  -1  327.48   19.36   2
   1   1  -1  277.90   18.81   1
  -1   1   1  314.30   19.32   2
  -1   1   1  285.83   19.27   2
   1   1  -1  257.88   19.19   2
  -1   1   1  306.44   18.93   1
   1   1  -1  266.42   19.17   2
   0  -1  -1 1031.68   61.89   2
   0  -1   1  893.82   61.92   2
   0   1   1 1018.12   63.16   2
   0   1  -1  842.92   61.83   2
  -1  -1  -1 1896.55  118.77   2
   1  -1   1 1500.28  117.29   2
  -1  -1  -1 1720.51  117.79   2
  -1   1  -1 1916.52  117.78   2
  -1   1  -1 1820.08   93.87   3
  -1   1  -1 1891.38  117.51   2
   2  -1   1   37.69    3.29   2
   2  -1   1   42.15    3.47   2
   2  -1   1   38.62    2.77   3
  -2   1  -1   41.83    3.32   2
  -2   1  -1   44.02    4.01   2
  -2   1  -1   40.53    2.80   3
   3  -1   1 1069.94   69.38   2
   3  -1   1 1095.87   69.56   2
  -3  -1  -1  993.61   55.40   3
  -3  -1  -1 1077.01   70.66   2
  -3  -1  -1  947.34   69.40   2
  -3   1  -1 1134.83   69.44   2
   3   1   1 1019.93   69.56   2
  -3   1  -1 1117.21   70.19   2
   3   1   1  988.89   69.85   2
  -3   1  -1 1077.03   55.59   3
   4  -1   1  126.58   10.66   2
  -4  -1  -1  165.36    8.59   3
   4  -1   1  128.30   10.81   2
  -4  -1  -1  160.37   11.11   2
  -4   1  -1  119.86   10.61   2
   4   1   1  155.09   11.44   2
   4   1   1  164.45   11.22   2
   5  -1   1  408.52   27.76   2
  -5  -1  -1  370.67   27.73   2
   5  -1   1  408.89   27.98   2
   5   1   1  405.10   27.98   2
   5   1   1  375.97   28.15   2
  -5   1  -1  416.20   27.82   2
  -6  -1  -1   15.00    3.19   2
   6   1   1   16.78    3.09   2
   7  -1   1  458.76   32.36   2
   7   1   1  434.39   32.49   2
   8  -2  -1    2.88    2.08   2
   8   2  -1    2.51    2.28   2
   7  -2  -1  636.89   42.40   2
  -7  -2   1  561.41   42.05   2
   7   2  -1  566.98   42.54   2
  -7   2   1  622.07   42.05   2
   6  -2  -1    5.61    1.18   3
   6  -2  -1    5.70    2.18   2
  -6  -2   1    1.49    1.67   2
  -6   2   1    5.98    2.18   2
   6   2  -1    2.79    1.82   2
  -5  -2   1  642.92   43.15   2
   5  -2  -1  605.84   33.46   3
   5  -2  -1  618.95   42.91   2
  -5   2   1  627.48   42.83   2
   5   2  -1  634.81   43.35   2
   4  -2  -1   29.27    3.21   2
   4  -2  -1   27.05    2.21   3
  -4  -2   1   24.17    3.31   2
   4  -2  -1   29.12    3.31   2
  -4   2   1   27.05    3.21   2
   4   2  -1   26.28    3.42   2
  -3  -2   1 1123.19   82.68   2
  -3  -2   1 1252.68   82.82   2
   3  -2  -1 1340.90   82.80   2
   3  -2  -1 1396.02   82.82   2
  -3   2   1 1321.42   82.71   2
   3   2  -1 1169.12   82.60   2
  -3   2   1 1234.09   82.60   2
   3   2  -1 1181.95   82.85   2
   2  -2  -1  293.21   20.25   2
  -2   2   1  282.19   20.15   2
  -2   2   1  305.94   19.86   1
  -2   2   1  302.44   20.23   2
   1  -2  -1 3666.48  230.65   1
  -1  -2   1 3570.92  235.40   2
   1  -2  -1 3745.46  236.21   2
  -1  -2   1 3376.94  235.22   2
  -1  -2   1 3619.22  230.19   1
  -1   2   1 3052.49  235.05   2
   1   2  -1 3842.15  187.16   3
   1   2  -1 3494.54  235.70   2
  -1   2   1 3571.60  235.69   2
   1   2  -1 3841.12  235.32   2
  -1   2   1 3585.72  229.95   1
   0  -2   1   52.59    3.55   2
   0   2  -1   49.96    3.50   2
   0   2  -1   54.80    3.06   3
   0   2  -1   47.86    3.51   2
   1  -2   1 1961.74  100.79   3
  -1  -2  -1 1787.91  126.37   2
   1  -2   1 1927.96  124.77   2
   1  -2   1 1943.65  124.76   2
  -1   2  -1 1923.85  100.18   3
   2  -2   1   26.28    2.41   2
   2  -2   1   20.31    2.25   2
   2  -2   1   24.98    2.11   3
  -2  -2  -1   24.86    3.62   2
  -2  -2  -1   26.94    2.78   2
  -2   2  -1   24.39    2.76   2
  -2   2  -1   24.05    2.28   2
   2   2   1   31.44    3.40   2
   2   2   1   32.85    3.02   2
  -3  -2  -1 2816.95  190.97   2
   3  -2   1 2871.27  191.99   2
   3  -2   1 2887.39  193.30   2
  -3  -2  -1 2837.82  152.49   3
   3  -2   1 2872.44  154.34   3
  -3   2  -1 3102.05  191.31   2
  -3   2  -1 2882.04  190.60   2
   3   2   1 2839.89  191.03   2
   3   2   1 3179.74  196.64   2
  -3   2  -1 2936.02  152.79   3
  -4  -2  -1   59.72    5.45   2
  -4  -2  -1   61.32    4.01   3
   4   2   1   62.95    6.01   2
   4   2   1   57.93    5.48   2
  -5  -2  -1  680.23   50.76   2
   5  -2   1  765.11   50.90   2
   5  -2   1  785.15   50.74   2
   5   2   1  711.48   51.41   2
  -5   2  -1  815.33   50.76   2
  -6  -2  -1   40.41    5.05   2
   6  -2   1   48.82    5.18   2
   6   2   1   45.72    5.50   2
  -6   2  -1   45.50    4.94   2
   7  -2   1   16.54    3.61   2
   7   2   1   20.00    4.24   2
   8  -3  -1   36.58    5.36   2
   8   3  -1   35.80    5.72   2
   7  -3  -1   14.41    3.55   2
  -7  -3   1   15.74    3.87   2
  -7   3   1   12.60    3.46   1
   7   3  -1   14.45    3.92   2
  -6  -3   1   12.97    3.29   2
   6  -3  -1   15.82    3.38   2
   6  -3  -1   14.22    1.85   3
  -6   3   1   15.27    3.30   1
  -6   3   1   16.49    3.26   2
   6   3  -1   15.06    3.59   2
   5  -3  -1  760.09   40.42   3
  -5  -3   1  725.20   51.50   2
   5  -3  -1  757.96   51.37   2
  -5   3   1  789.66   51.22   2
   5   3  -1  742.74   51.89   2
   4  -3  -1  389.25   20.38   3
   4  -3  -1  390.84   25.96   2
   4  -3  -1  399.25   25.89   2
  -4  -3   1  328.57   25.84   2
  -4   3   1  362.59   25.65   2
   4   3  -1  353.12   26.20   2
  -3  -3   1 3239.85  212.97   2
  -3  -3   1 3250.67  212.97   2
   3  -3  -1 3399.44  213.96   2
   3  -3  -1 3317.84  212.86   2
  -3   3   1 3295.21  207.99   1
  -3   3   1 2891.59  212.54   2
   3   3  -1 3439.41  215.34   2
  -3   3   1 3215.69  212.73   2
   3   3  -1 3262.75  212.83   2
  -2  -3   1  588.89   35.52   2
  -2  -3   1  569.39   35.49   2
   2  -3  -1  498.31   35.25   2
   2  -3  -1  517.51   35.32   2
   2   3  -1  536.25   35.55   2
  -2   3   1  494.48   34.43   1
  -2   3   1  477.75   35.15   2
  -2   3   1  488.62   35.19   2
   2   3  -1  578.10   35.40   2
  -1  -3   1   70.59    5.31   1
  -1  -3   1   69.47    5.39   2
  -1  -3   1   69.74    4.09   3
  -1  -3   1   75.65    5.46   2
   1   3  -1   74.77    5.39   2
   1   3  -1   67.76    4.08   3
   1   3  -1   68.75    5.45   2
   0  -3   1  338.35   22.53   2
   0  -3   1  327.91   18.26   3
   0   3  -1  341.20   18.27   3
   0   3  -1  321.23   22.53   2
   0   3  -1  332.28   22.48   2
   0   3   1  396.62   23.10   2
  -1  -3  -1 7469.42  566.88   2
   1  -3   1 9376.16  453.64   3
  -1  -3  -1 8067.57  568.43   2
   1   3   1 8579.94  571.92   2
  -1   3  -1 9654.62  453.36   3
  -2  -3  -1  647.94   46.24   2
   2  -3   1  760.79   45.59   2
  -2  -3  -1  595.91   47.22   2
   2  -3   1  738.67   36.93   3
  -2   3  -1  736.56   45.39   2
  -2   3  -1  725.73   36.90   3
   2   3   1  619.65   46.21   2
  -2   3  -1  703.10   45.78   2
   3  -3   1  756.66   47.15   2
   3  -3   1  732.78   38.06   3
   3  -3   1  757.80   47.24   2
  -3  -3  -1  641.37   47.54   2
  -3   3  -1  748.21   47.57   2
   3   3   1  680.78   47.72   2
   3   3   1  670.59   48.37   2
  -3   3  -1  697.85   46.96   2
   4  -3   1    4.02    1.09   3
   4  -3   1    3.60    1.20   2
   4  -3   1    4.85    1.38   2
  -4  -3  -1    6.94    1.74   2
  -4  -3  -1    7.06    1.11   3
   4   3   1    6.77    1.81   2
   4   3   1    6.08    1.99   2
  -4   3  -1    2.72    1.09   2
   5  -3   1  491.18   33.07   2
  -5  -3  -1  470.75   33.27   2
   5  -3   1  443.93   26.18   3
   5  -3   1  472.60   32.80   2
  -5   3  -1  482.89   32.73   2
   5   3   1  510.87   34.27   2
   6  -3   1   45.28    5.38   2
  -6  -3  -1   61.18    6.06   2
  -6   3  -1   45.43    5.25   2
   6   3   1   67.35    6.79   2
   7  -3   1  417.50   29.20   2
  -7  -3  -1  375.50   29.14   2
   7   3   1  414.49   30.33   2
  -7  -4   1  170.65   14.65   2
   7  -4  -1  177.71   14.43   2
  -7   4   1  171.66   14.23   1
   7   4  -1  163.59   15.08   2
   6  -4  -1    9.68    2.72   2
   6  -4  -1   12.14    1.80   3
  -6  -4   1   17.72    3.69   2
   6   4  -1   19.36    4.14   2
  -6   4   1   10.96    2.88   1
  -6   4   1   11.42    2.82   2
   5  -4  -1  131.66   10.46   2
  -5  -4   1  134.93   10.96   2
   5  -4  -1  134.71   10.66   2
   5  -4  -1  128.68    8.03   3
  -5   4   1  128.82   10.31   2
  -5   4   1  120.31   10.22   1
   4  -4  -1  367.02   20.00   3
   4  -4  -1  344.64   25.06   2
   4  -4  -1  376.95   25.15   2
  -4  -4   1  343.06   25.31   2
  -4   4   1  337.06   24.80   2
  -4   4   1  354.05   24.53   1
   4   4  -1  394.66   25.99   2
   3  -4  -1  123.69    8.80   2
  -3  -4   1  100.83    8.79   2
   3  -4  -1  131.70    8.90   2
  -3   4   1  117.89    8.59   2
   3   4  -1  100.75    8.97   2
   3   4  -1  100.06    8.66   2
  -3   4   1  120.02    8.56   1
  -2  -4   1   29.60    3.00   2
  -2  -4   1   29.46    3.02   2
  -2  -4   1   30.82    1.79   3
   2   4  -1   31.40    3.19   2
   2   4  -1   30.45    2.94   2
  -1  -4   1 7927.08  517.19   1
  -1  -4   1 8280.33  530.02   2
  -1  -4   1 8137.92  530.07   2
   1  -4  -1 7814.68  529.50   2
  -1  -4   1 8314.69  422.96   3
   1  -4  -1 8018.06  518.29   1
   1   4  -1 8656.62  530.64   2
  -1   4   1 7541.84  529.98   2
   1   4  -1 8191.93  529.20   2
  -1   4   1 7971.00  518.31   1
   0  -4   1 1002.43   59.68   2
   0  -4  -1  774.76   58.87   1
   0  -4  -1  894.89   60.18   2
   0  -4   1  950.09   47.97   3
   0   4  -1  926.58   47.91   3
   0   4  -1 1000.07   59.51   2
   0   4   1  817.72   59.98   2
   1  -4   1  499.18   26.94   3
  -1  -4  -1  522.56   34.77   2
   1  -4   1  484.53   32.84   2
  -1  -4  -1  518.50   34.45   2
  -1   4  -1  486.95   26.89   3
  -2  -4  -1  310.36   20.41   2
  -2  -4  -1  293.75   19.06   2
   2  -4   1  269.70   17.79   2
   2   4   1  269.36   18.84   2
   2   4   1  221.12   19.29   2
  -2   4  -1  263.01   14.79   3
  -2   4  -1  263.28   17.55   2
  -2   4  -1  242.37   17.78   2
   3  -4   1 1117.39   75.74   2
  -3  -4  -1 1220.94   76.77   2
   3  -4   1 1167.68   75.87   2
   3  -4   1 1136.56   61.12   3
  -3   4  -1 1084.13   75.53   2
   3   4   1 1210.17   77.70   2
   3   4   1 1173.97   76.71   2
  -3   4  -1 1121.25   76.01   2
  -4  -4  -1    9.82    2.21   2
   4  -4   1    6.73    1.59   2
   4  -4   1    6.79    1.40   3
  -4  -4  -1    8.46    1.17   3
   4  -4   1    6.81    1.57   2
   4   4   1   11.81    2.87   2
  -4   4  -1    6.75    1.45   2
   5  -4   1  308.31   18.11   3
   5  -4   1  338.19   22.72   2
   5  -4   1  320.11   22.42   2
  -5  -4  -1  300.27   22.99   2
   5   4   1  308.43   23.96   2
  -5   4  -1  335.55   22.29   2
   6  -4   1  227.25   16.62   2
  -6  -4  -1  205.50   16.87   2
   6   4   1  222.96   18.02   2
   7  -4   1    5.16    2.18   2
  -7  -4  -1    7.85    2.89   2
   7   4   1    4.17    2.58   2
   7  -5  -1    3.91    1.31   3
   7  -5  -1    1.65    1.68   2
  -7  -5   1    4.27    2.72   2
   7   5  -1    4.91    2.71   2
  -7   5   1    4.31    2.29   1
   6  -5  -1  775.65   51.52   2
   6  -5  -1  758.23   40.57   3
  -6  -5   1  736.60   51.94   2
  -6   5   1  728.27   50.25   1
   6   5  -1  732.05   52.63   2
  -6   5   1  758.31   51.01   2
   5  -5  -1  281.92   16.16   3
   5  -5  -1  303.09   20.53   2
   5  -5  -1  281.16   20.50   2
  -5  -5   1  269.54   20.85   2
  -5   5   1  266.88   19.94   1
  -5   5   1  284.81   20.17   2
   5   5  -1  281.51   21.50   2
   4  -5  -1  218.21   16.12   2
  -4  -5   1  253.09   16.85   2
   4  -5  -1  204.96   16.00   2
   4  -5  -1  215.58   13.02   3
  -4   5   1  214.05   15.71   1
  -4   5   1  195.27   15.71   2
   4   5  -1  259.99   17.37   2
   3  -5  -1 2169.75  145.60   2
   3  -5  -1 2227.32  145.69   2
  -3  -5   1 2317.64  146.06   2
  -3  -5   1 2282.77  146.03   2
   3   5  -1 2407.65  146.57   2
  -3   5   1 2093.77  145.39   2
  -3   5   1 2051.06  142.15   1
  -2  -5   1  309.52   21.08   2
   2  -5  -1  278.49   20.80   2
  -2  -5   1  314.80   16.21   3
  -2  -5   1  320.15   21.15   2
  -2   5   1  282.60   20.77   2
   2   5  -1  315.23   20.98   2
  -2   5   1  278.43   20.68   2
  -2   5   1  293.13   20.33   1
   2   5  -1  344.28   21.53   2
   1  -5  -1  188.25   12.61   1
  -1  -5   1  172.60   12.32   1
  -1  -5   1  185.53   12.86   2
   1  -5  -1  198.54   12.88   2
  -1  -5   1  175.99   10.11   3
  -1  -5   1  167.45   12.71   2
   1   5  -1  193.62   12.99   2
   1   5  -1  169.20   12.67   2
  -1   5   1  183.65   12.72   2
  -1   5   1  193.34   12.68   1
   0  -5   1  236.78   14.03   3
   0  -5  -1  266.60   17.58   1
   0  -5   1  225.50   17.29   2
   0   5   1  297.96   17.95   2
   0   5  -1  250.05   17.09   2
   1  -5   1 4491.92  242.06   3
   1  -5   1 4474.40  298.17   2
  -1  -5  -1 4282.34  298.84   2
   1   5   1 5056.48  306.59   2
   2  -5   1  100.58    7.40   2
   2  -5   1  112.15    6.68   3
   2  -5   1  101.96    7.38   2
   2   5   1  130.53    9.88   2
  -2   5  -1   97.73    7.24   2
   3  -5   1  307.76   19.10   2
   3  -5   1  242.52   18.89   2
   3  -5   1  284.37   15.83   3
  -3  -5  -1  285.81   20.24   2
   3   5   1  267.32   20.01   2
   3   5   1  229.41   20.58   2
  -3   5  -1  307.10   18.79   2
  -3   5  -1  301.51   19.21   2
   4  -5   1 1261.99   67.55   3
  -4  -5  -1 1275.23   84.81   2
   4  -5   1 1260.67   83.78   2
   4  -5   1 1282.79   83.71   2
   4   5   1 1262.53   85.88   2
  -4   5  -1 1273.48   83.42   2
  -5  -5  -1  215.65   11.67   3
   5  -5   1  193.30   14.95   2
   5  -5   1  185.45   12.16   3
  -5  -5  -1  214.55   15.94   2
  -5   5  -1  197.80   14.61   2
   5   5   1  224.32   17.20   2
  -6  -5  -1   11.80    3.19   2
   6  -5   1   14.60    2.69   2
   6  -5   1   15.52    2.46   3
   6   5   1   11.60    3.68   2
  -7  -5  -1  443.12   33.56   2
   7  -5   1  467.14   32.95   2
   7   5   1  479.41   35.14   2
   7  -6  -1  492.21   34.94   2
  -7  -6   1  458.42   35.55   2
   7  -6  -1  508.65   27.42   3
   7   6  -1  482.52   36.74   2
  -7   6   1  489.54   34.31   1
   6  -6  -1   26.22    2.92   3
   6  -6  -1   24.84    3.85   2
  -6  -6   1   29.64    4.70   2
   6   6  -1   37.38    5.40   2
  -6   6   1   28.04    3.98   1
  -6   6   1   30.36    3.93   2
   5  -6  -1  392.51   26.45   2
  -5  -6   1  380.19   27.07   2
   5  -6  -1  365.87   26.28   2
   5  -6  -1  355.52   21.05   3
  -5   6   1  360.30   25.91   2
   5   6  -1  410.21   28.08   2
  -5   6   1  341.99   25.62   1
   4  -6  -1 1379.59   75.14   3
  -4  -6   1 1493.96   94.17   2
   4  -6  -1 1424.46   93.41   2
   4  -6  -1 1421.58   93.45   2
  -4   6   1 1357.59   93.04   2
   4   6  -1 1496.70   94.80   2
  -4   6   1 1301.80   91.10   1
  -3  -6   1 1373.49   95.34   2
   3  -6  -1 1468.95   95.09   2
  -3  -6   1 1500.31   95.60   2
   3   6  -1 1497.21   96.08   2
  -3   6   1 1375.89   92.72   1
  -3   6   1 1427.40   94.80   2
  -2  -6   1    6.88    1.62   2
  -2  -6   1    6.70    1.63   2
  -2  -6   1    7.48    0.98   3
   2   6  -1   11.16    2.24   2
   2   6  -1    7.01    1.61   2
  -1  -6   1  832.75   52.84   2
  -1  -6   1  795.94   51.14   1
  -1  -6   1  756.23   52.59   2
   1  -6  -1  769.99   51.38   1
   1  -6  -1  804.82   52.67   2
  -1  -6   1  824.91   42.15   3
  -1   6   1  770.45   51.50   1
  -1   6   1  750.61   52.49   2
   1   6  -1  861.97   52.98   2
   1   6  -1  766.27   52.54   2
   0  -6   1  130.24    8.96   2
   0  -6  -1  111.55    9.26   2
   0  -6   1  132.17    9.00   2
   0   6   1  104.28    9.09   2
  -1  -6  -1  737.11   56.39   2
   1  -6   1  882.14   44.73   3
   1  -6   1  853.32   54.87   2
   1   6   1  867.12   57.13   2
   2  -6   1 2288.39  163.00   2
   2  -6   1 2391.64  131.15   3
  -2  -6  -1 2814.60  165.77   2
  -2  -6  -1 2540.15  164.64   2
   2   6   1 2465.24  165.23   2
   3  -6   1 1429.82   72.73   3
   3  -6   1 1409.45   89.78   2
  -3   6  -1 1376.32   89.36   2
   3   6   1 1196.40   91.89   2
  -3   6  -1 1423.26   89.77   2
  -4  -6  -1   13.06    2.90   2
   4  -6   1    8.38    1.52   2
   4  -6   1    9.58    1.80   2
   4  -6   1    8.15    1.68   3
  -4   6  -1    8.85    1.46   2
   4   6   1    9.74    3.01   2
   5  -6   1  634.08   35.55   3
   5  -6   1  641.74   43.86   2
  -5  -6  -1  619.98   45.00   2
  -5   6  -1  687.66   43.48   2
   5   6   1  656.14   46.56   2
  -6  -6  -1  607.94   44.29   2
   6  -6   1  634.97   34.91   3
   6  -6   1  636.94   43.27   2
   6   6   1  642.04   45.90   2
   7  -6   1   38.85    5.07   2
  -7  -6  -1   47.67    6.16   2
   7   6   1   48.90    7.13   2
  -7  -7   1  135.55   12.40   2
   7  -7  -1  124.75    8.59   3
   7  -7  -1  122.13   11.05   2
   7   7  -1  134.99   13.29   2
  -7   7   1  109.59   10.73   1
   6  -7  -1  135.60   11.46   2
  -6  -7   1  137.72   12.43   2
   6  -7  -1  138.64    9.19   3
   6   7  -1  154.71   13.64   2
  -6   7   1  127.79   11.15   1
  -5  -7   1 1076.20   75.31   2
   5  -7  -1 1162.32   60.01   3
  -5   7   1 1119.95   74.01   2
   5   7  -1 1131.50   76.37   2
  -5   7   1 1065.86   72.64   1
   4  -7  -1   48.49    4.66   2
   4  -7  -1   43.64    4.07   3
  -4   7   1   46.55    4.45   1
  -4   7   1   46.57    4.35   2
   4   7  -1   32.60    5.09   2
  -3  -7   1  194.96   13.80   2
  -3  -7   1  183.69    9.72   3
   3  -7  -1  166.07   12.93   2
  -3   7   1  163.73   12.57   1
  -3   7   1  170.06   12.73   2
   3   7  -1  184.77   14.18   2
  -2  -7   1 1385.18   71.24   3
   2  -7  -1 1250.89   89.13   2
  -2  -7   1 1333.93   89.54   2
  -2  -7   1 1451.21   89.84   2
  -2   7   1 1257.95   88.93   2
  -2   7   1 1282.72   87.11   1
   2   7  -1 1517.93   90.32   2
  -1  -7   1    9.19    1.53   3
  -1  -7   1   10.09    1.43   1
  -1  -7   1   11.16    1.83   2
  -1  -7   1   10.96    1.95   2
   1  -7  -1   12.22    1.72   1
   1   7  -1   12.42    2.07   2
  -1   7   1   11.07    1.67   2
  -1   7   1   13.40    1.89   1
   0  -7  -1  453.80   27.50   2
   0  -7  -1  445.46   26.31   1
   0  -7   1  358.63   21.43   3
   0  -7   1  332.48   26.44   2
   0  -7   1  350.58   26.64   2
   0   7  -1  361.81   26.24   2
   0   7   1  430.34   27.30   2
   1  -7   1  238.58   13.14   3
  -1   7  -1  219.83   14.82   2
  -1   7  -1  213.43   15.00   2
  -2  -7  -1  543.54   38.28   2
   2  -7   1  534.37   35.73   2
   2  -7   1  548.55   29.69   3
   2   7   1  534.29   38.21   2
   3  -7   1 1466.11   75.02   3
  -3  -7  -1 1380.61   94.28   2
  -3   7  -1 1360.91   91.84   2
  -3   7  -1 1425.67   92.17   2
   4  -7   1  301.62   21.45   2
   4  -7   1  304.13   18.02   3
  -4  -7  -1  358.17   23.58   2
   4  -7   1  302.67   21.49   2
  -4   7  -1  319.34   21.04   2
   4   7   1  287.40   24.04   2
   5  -7   1  269.13   16.51   3
   5  -7   1  270.47   19.76   2
  -5  -7  -1  297.17   21.60   2
   5   7   1  282.94   22.79   2
   6  -7   1   50.62    5.35   2
   6  -7   1   49.28    4.58   3
  -6  -7  -1   61.89    6.80   2
   6   7   1   50.75    7.35   2
   7  -7   1  164.19   12.48   2
  -7  -7  -1  144.51   13.51   2
   7  -7   1  150.85   10.04   3
   7   7   1  125.53   14.26   2
  -7  -8   1  247.87   21.46   2
   7  -8  -1  280.72   16.16   3
  -7   8   1  265.50   19.94   1
   7   8  -1  247.53   22.51   2
  -6  -8   1    2.61    2.14   2
   6  -8  -1    4.00    1.48   3
   6   8  -1    4.51    2.88   2
  -6   8   1    4.11    2.00   1
   5  -8  -1   79.66    6.54   3
  -5  -8   1   94.40    9.00   2
   5   8  -1  107.48   10.02   2
  -5   8   1   84.81    7.36   2
  -5   8   1   78.54    7.43   1
   4  -8  -1  203.12   15.13   2
   4  -8  -1  182.12   12.64   3
  -4  -8   1  220.18   16.25   2
  -4   8   1  192.01   14.60   1
   4   8  -1  224.23   17.03   2
  -4   8   1  201.35   14.72   2
   3  -8  -1  262.24   17.45   2
  -3  -8   1  228.79   17.98   2
  -3  -8   1  203.66   13.18   3
  -3   8   1  273.23   17.01   1
  -3   8   1  275.85   17.16   2
   3   8  -1  201.73   18.15   2
  -2  -8   1 1106.16   71.93   2
   2  -8  -1 1139.06   71.29   2
  -2  -8   1 1026.03   71.60   2
  -2  -8   1  905.04   56.75   3
  -2   8   1 1103.07   71.01   2
  -2   8   1 1182.79   69.68   1
   2   8  -1 1050.68   72.13   2
  -1  -8   1  932.07   52.69   3
   1  -8  -1 1038.13   65.90   2
  -1  -8   1 1005.52   66.10   2
  -1  -8   1  949.19   65.91   2
  -1  -8   1 1021.21   63.47   1
  -1  -8   1 1050.59   63.55   1
   1  -8  -1  964.64   63.81   1
  -1   8   1  994.12   65.55   2
   1   8  -1  946.80   65.96   2
  -1   8   1  973.63   64.32   1
   0  -8  -1 1584.08  114.12   2
   0  -8   1 1795.23  113.75   2
   0  -8   1 1928.74  114.04   2
   0  -8   1 1694.33   91.26   3
   0  -8  -1 1736.26  111.02   1
   0   8  -1 1723.33  113.39   2
   0   8   1 1615.77  114.17   2
   1  -8   1   50.05    4.02   3
  -1  -8  -1   39.65    5.14   2
  -1   8  -1   50.39    3.97   2
  -1   8  -1   50.63    3.51   1
   2  -8   1  211.30   16.57   2
   2  -8   1  255.28   14.62   3
  -2  -8  -1  280.65   19.20   2
  -3  -8  -1  181.58   13.63   2
   3  -8   1  155.54   10.02   3
   3   8   1  158.88   13.74   2
  -3   8  -1  142.82   10.73   2
  -4  -8  -1   34.03    5.27   2
   4  -8   1   47.13    4.21   2
   4  -8   1   47.88    4.17   3
  -4   8  -1   47.26    3.61   2
   5  -8   1  781.08   39.94   3
  -5  -8  -1  745.65   50.61   2
   5  -8   1  742.68   48.33   2
   5   8   1  594.59   51.02   2
   6  -8   1  125.73   10.58   2
  -6  -8  -1  147.86   12.76   2
   6  -8   1  133.27    9.24   3
   6   8   1  130.78   13.58   2
  -7  -8  -1   16.03    4.45   2
   7  -8   1   12.38    2.59   3
   7  -8   1   14.13    3.12   2
   7   8   1   14.67    4.93   2
  -7  -9   1   68.76    8.87   2
   7  -9  -1   77.56    6.23   3
   7   9  -1   57.59    9.08   2
  -7   9   1   72.24    7.60   1
   6  -9  -1  277.06   17.07   3
  -6  -9   1  295.03   22.59   2
   6   9  -1  261.66   23.13   2
  -6   9   1  275.32   20.39   1
  -5  -9   1   96.29   10.75   2
   5  -9  -1  121.67    8.71   3
  -5   9   1  126.96    9.95   1
  -5   9   1  129.21    9.74   2
   4  -9  -1   81.60    6.52   3
  -4  -9   1   69.04    7.77   2
   4  -9  -1   95.22    7.43   2
  -4   9   1   84.66    6.79   2
  -4   9   1   83.42    6.95   1
   4   9  -1   60.06    7.98   2
   3  -9  -1  412.74   29.10   2
  -3  -9   1  388.68   22.83   3
  -3  -9   1  470.29   30.47   2
   3   9  -1  426.58   30.75   2
  -3   9   1  425.86   28.79   2
  -3   9   1  408.19   28.33   1
  -2  -9   1  795.20   55.48   2
  -2  -9   1  888.77   55.90   2
  -2  -9   1  754.89   43.87   3
   2  -9  -1  878.46   55.00   2
  -2   9   1  830.76   53.64   1
  -2   9   1  805.73   54.57   2
   2   9  -1  781.09   55.89   2
  -1  -9   1  150.65   12.81   2
  -1  -9   1  162.30   10.30   3
  -1  -9   1  188.22   11.39   1
  -1  -9   1  165.02   13.04   2
  -1  -9   1  176.49   11.33   1
   1   9  -1  156.51   12.84   2
   0  -9   1 1389.86   85.69   2
   0  -9   1 1119.03   68.58   3
   0  -9  -1 1362.15   83.37   1
   0  -9   1 1353.97   85.58   2
   0  -9  -1 1299.68   86.16   2
   0   9   1 1201.87   86.07   2
  -1  -9  -1  965.81   58.21   2
   1  -9   1  820.94   46.01   3
  -1   9  -1  752.42   55.89   2
  -1   9  -1  858.23   54.46   1
   2  -9   1  639.86   35.13   3
  -2  -9  -1  577.64   44.10   2
   2   9   1  685.88   44.80   2
  -2   9  -1  631.50   40.72   1
  -3  -9  -1   10.28    3.17   2
   3   9   1   18.46    4.17   2
   4  -9   1  599.58   32.30   3
  -4  -9  -1  607.26   41.32   2
   4  -9   1  594.72   38.68   2
  -4   9  -1  546.85   37.72   2
   4   9   1  518.00   41.58   2
  -5  -9  -1    2.88    2.41   2
   5  -9   1    2.13    1.31   3
   5   9   1    2.30    2.41   2
  -6  -9  -1    3.52    2.64   2
   6  -9   1    1.64    1.39   3
   6   9   1    3.82    2.91   2
  -7  -9  -1  244.01   20.92   2
   7  -9   1  274.06   15.90   3
   7   9   1  212.25   21.80   2
   7 -10  -1   55.55    5.23   3
  -7 -10   1   34.00    6.61   2
  -7  10   1   54.37    6.40   1
   6 -10  -1   13.14    2.79   3
  -6 -10   1   21.58    5.02   2
  -6  10   1   12.98    3.14   1
   6  10  -1   15.18    4.82   2
  -5 -10   1   36.62    5.53   2
   5 -10  -1   31.40    3.86   3
  -5  10   1   29.24    4.01   1
   5  10  -1   34.16    5.81   2
  -4 -10   1  823.31   54.66   2
  -4 -10   1  747.50   41.23   3
   4 -10  -1  761.33   43.45   3
   4  10  -1  665.57   54.55   2
  -4  10   1  821.24   51.69   1
  -4  10   1  855.74   52.51   2
   3 -10  -1   88.75    7.69   2
  -3  10   1   90.00    7.36   2
  -3  10   1   91.43    7.50   1
  -2 -10   1  170.26   14.26   2
  -2 -10   1  168.87   14.19   2
  -2 -10   1  163.06   10.82   3
   2 -10  -1  192.37   13.67   2
  -2  10   1  188.60   13.29   2
  -2  10   1  194.80   13.31   1
   1 -10  -1  741.13   48.03   1
  -1 -10   1  663.31   50.26   2
  -1 -10   1  812.03   47.47   1
   1 -10  -1  791.02   50.39   2
  -1 -10   1  705.26   40.30   3
  -1 -10   1  731.75   50.61   2
  -1  10   1  729.72   50.03   2
   0 -10  -1  326.87   24.07   2
   0 -10  -1  350.09   22.59   1
   0 -10   1  384.98   23.73   2
   0 -10   1  313.64   19.14   3
   0  10  -1  296.15   23.03   2
   0  10   1  309.07   24.04   2
   1 -10   1  100.17    8.44   2
   1 -10   1  103.59    7.68   3
  -1  10  -1  113.83    7.86   1
  -1  10  -1  114.93    8.28   2
   2 -10   1 1490.84   84.39   3
  -2 -10  -1 1604.86  106.00   2
  -2  10  -1 1475.36  100.79   1
  -2  10  -1 1559.60  102.86   2
   2  10   1 1767.62  106.35   2
   3 -10   1  402.30   23.18   3
  -3 -10  -1  365.28   29.30   2
  -3  10  -1  387.79   26.03   1
   3  10   1  433.40   30.13   2
  -4 -10  -1   76.05    8.67   2
   4 -10   1   88.58    6.70   3
   4  10   1   70.13    8.84   2
  -4  10  -1   81.15    6.32   1
   5 -10   1   81.57    6.77   3
  -5  10  -1   85.80    7.05   1
  -6 -10  -1  199.44   17.34   2
   6 -10   1  196.85   12.81   3
   6  10   1  168.36   17.67   2
  -6  10  -1  189.59   14.35   1
   6 -11  -1  341.51   21.52   3
  -6 -11   1  351.14   28.18   2
  -6  11   1  360.90   25.38   1
   5 -11  -1  225.24   14.87   3
  -5 -11   1  203.78   18.81   2
  -5  11   1  246.50   17.10   1
   4 -11  -1   34.01    4.19   3
  -4 -11   1   34.53    2.84   3
  -4 -11   1   42.14    5.76   2
   4  11  -1   37.16    5.86   2
  -4  11   1   38.80    4.11   2
  -4  11   1   37.17    4.25   1
   3 -11  -1  196.93   14.29   2
  -3 -11   1  185.03   15.40   2
  -3 -11   1  172.43   11.04   3
  -3  11   1  192.58   13.78   2
  -3  11   1  183.73   13.79   1
  -2 -11   1  766.21   58.35   2
   2 -11  -1  997.06   58.03   2
  -2 -11   1  785.03   58.41   2
  -2 -11   1  898.48   46.36   3
  -2  11   1  887.26   56.32   1
  -2  11   1  921.55   57.43   2
   2  11  -1  718.22   58.33   2
   1 -11  -1    6.48    2.10   2
  -1 -11   1    9.52    2.56   2
  -1 -11   1    7.53    2.22   2
  -1 -11   1   13.15    2.34   3
   1  11  -1   14.74    3.05   2
  -1  11   1    6.94    2.16   2
   0 -11  -1  732.29   48.95   1
   0 -11  -1  701.57   51.35   2
   0 -11   1  822.62   50.86   2
   0 -11   1  820.38   50.99   2
   0  11  -1  711.02   50.46   2
   0  11   1  700.72   51.40   2
   1 -11   1  853.80   59.69   2
  -1 -11  -1  834.48   58.57   1
  -1 -11  -1 1014.88   61.49   2
   1 -11   1  808.20   48.80   3
  -1  11  -1  876.29   57.99   1
   1  11   1  953.97   61.44   2
  -1  11  -1  921.36   59.41   2
   2 -11   1   90.79    7.52   3
  -2 -11  -1  101.97    9.75   2
  -2  11  -1   98.98    7.09   2
  -2  11  -1  101.23    7.37   1
   2  11   1  115.36    9.95   2
   3 -11   1  194.50   12.63   3
   3  11   1  164.43   15.78   2
  -3  11  -1  203.60   13.18   1
  -4 -11  -1  727.07   56.20   2
   4 -11   1  817.83   44.65   3
  -4  11  -1  806.95   52.10   1
   4  11   1  842.41   57.31   2
   5 -11   1   45.96    5.00   3
  -5 -11  -1   49.28    7.14   2
  -5  11  -1   54.47    5.13   1
   5  11   1   61.76    8.22   2
   6 -11   1   49.61    5.26   3
  -6 -11  -1   46.49    7.44   2
   6  11   1   49.10    8.07   2
  -6  11  -1   52.13    5.45   1
  -6 -12   1   69.40    9.42   2
   6 -12  -1   72.48    6.87   3
  -6  12   1   79.99    7.76   1
   5 -12  -1    0.48    1.16   3
  -5 -12   1    2.51    2.64   2
   5  12  -1    1.40    2.24   2
  -5  12   1    1.45    1.71   1
  -4 -12   1  716.46   54.71   2
   4 -12  -1  777.38   43.80   3
  -4  12   1  828.95   51.83   1
  -3 -12   1   45.49    3.79   3
  -3 -12   1   38.99    5.51   2
   3  12  -1   40.33    5.84   2
   2 -12  -1   91.08    8.15   2
  -2 -12   1   96.85    6.67   3
  -2 -12   1  102.03    7.25   1
  -2 -12   1   83.21    8.67   2
  -2 -12   1   90.58    8.92   2
   2  12  -1   85.10    8.82   2
  -2  12   1   90.68    7.92   1
  -2  12   1   77.84    7.65   2
  -1 -12   1  473.25   32.90   2
   1 -12  -1  445.74   32.65   2
  -1 -12   1  486.21   32.91   2
  -1 -12   1  481.67   26.45   3
   1  12  -1  473.95   32.80   2
  -1  12   1  415.80   32.46   2
   0 -12  -1 1081.29   74.03   2
   0 -12   1 1159.90   73.45   2
   0 -12   1 1150.51   73.22   2
   0 -12   1 1003.74   59.16   3
   0  12  -1 1095.65   73.06   2
   0  12   1 1060.31   73.95   2
   1 -12   1    2.88    1.44   3
  -1 -12  -1    5.29    2.12   2
   1 -12   1    3.43    1.45   2
   1  12   1    4.40    2.03   2
  -1  12  -1    6.58    1.62   2
  -2 -12  -1  563.31   40.46   2
   2 -12   1  510.03   32.23   3
  -2  12  -1  595.79   37.59   2
  -2  12  -1  560.97   37.20   1
   2  12   1  597.11   40.49   2
  -3 -12  -1   85.56    8.98   2
   3 -12   1   78.01    6.76   3
  -3  12  -1   69.52    6.12   1
   3  12   1  100.33    9.35   2
  -4 -12  -1   19.75    4.90   2
   4 -12   1   14.15    3.07   3
  -4  12  -1   17.59    2.48   1
   4  12   1   22.32    5.13   2
   5 -12   1   88.84    7.15   3
  -5 -12  -1   59.04    8.74   2
   5  12   1   65.55    9.22   2
  -5  12  -1   85.64    6.84   1
  -6 -12  -1  560.95   43.52   2
   6 -12   1  620.79   34.03   3
   6  12   1  543.15   44.13   2
   6 -13  -1  470.99   28.74   3
  -6 -13   1  443.48   37.07   2
  -6  13   1  509.18   33.82   1
   5 -13  -1    4.85    2.08   3
  -5 -13   1    2.90    2.67   2
  -5  13   1    1.44    1.78   1
   5  13  -1    0.60    2.07   2
  -4 -13   1   21.81    2.49   3
   4 -13  -1   30.73    4.03   3
  -4 -13   1   18.00    4.73   2
   4  13  -1   15.95    4.65   2
  -4  13   1   29.41    3.92   1
  -3 -13   1   62.43    7.66   2
  -3 -13   1   79.85    5.51   3
  -3  13   1   68.88    6.49   2
  -3  13   1   62.52    6.45   1
   3  13  -1   73.42    8.21   2
  -2 -13   1  867.17   44.87   3
  -2 -13   1  767.78   56.60   2
   2  13  -1  799.95   56.75   2
  -2  13   1  853.46   54.82   1
  -2  13   1  802.34   55.59   2
  -1 -13   1   32.87    3.52   3
  -1 -13   1   23.55    3.97   2
   1 -13  -1   28.69    4.28   2
  -1 -13   1   26.03    4.07   2
   1  13  -1   23.85    3.90   2
  -1  13   1   30.37    4.25   2
   0 -13  -1  415.62   31.88   2
   0 -13   1  426.77   25.74   3
   0 -13   1  459.33   31.19   2
   0 -13   1  488.48   31.58   2
   0  13  -1  466.19   31.16   2
   0  13   1  407.18   31.67   2
   1 -13   1   30.42    3.85   3
   1 -13   1   30.70    3.92   2
  -1 -13  -1   35.53    4.76   2
   1  13   1   38.24    4.84   2
  -1  13  -1   33.58    3.67   2
   2 -13   1   59.65    5.99   3
  -2 -13  -1   77.83    7.88   2
   2  13   1   83.00    7.89   2
  -2  13  -1   58.75    5.59   1
   3 -13   1   24.03    4.02   3
  -3 -13  -1   16.34    4.48   2
   3  13   1   24.74    5.09   2
  -3  13  -1   28.53    3.02   1
  -4 -13  -1  920.39   70.43   2
   4 -13   1  971.17   56.12   3
   4  13   1 1124.82   71.44   2
  -4  13  -1 1025.13   65.77   1
  -5 -13  -1   13.01    4.63   2
   5 -13   1   14.73    3.26   3
   5  13   1   11.92    4.39   2
  -5  13  -1   19.80    2.98   1
   5 -14  -1    0.98    1.55   3
  -5 -14   1   -0.11    2.32   2
  -5  14   1    2.60    2.01   1
   5  14  -1    1.96    2.54   2
   4 -14  -1  818.75   44.21   3
  -4 -14   1  648.55   54.71   2
  -4  14   1  833.99   52.12   1
   4  14  -1  784.09   55.56   2
  -3 -14   1  136.81   14.09   2
  -3 -14   1  166.46   10.42   3
   3  14  -1  161.79   14.61   2
  -3  14   1  179.90   13.17   1
  -2 -14   1   60.97    5.00   3
  -2 -14   1   58.49    6.76   2
   2  14  -1   58.86    6.75   2
  -2  14   1   40.91    5.54   2
  -1 -14   1   47.81    4.69   3
  -1 -14   1   56.72    6.12   2
   1  14  -1   53.85    5.88   2
  -1  14   1   44.89    5.60   2
   0 -14   1  169.96   11.74   3
   0 -14   1  166.13   13.68   2
   0  14  -1  181.18   13.56   2
   0  14   1  175.80   14.20   2
  -1 -14  -1   14.71    3.62   2
   1 -14   1   18.19    2.81   2
   1 -14   1   17.53    3.31   3
  -1  14  -1   23.18    2.90   2
   1  14   1   13.80    3.45   2
   2 -14   1 1253.35   71.76   3
  -2 -14  -1 1346.94   89.35   2
  -2  14  -1 1302.46   85.25   1
   2  14   1 1351.08   89.07   2
   3 -14   1    3.11    1.73   3
  -3 -14  -1    5.68    2.88   2
  -3  14  -1    5.38    1.72   1
   3  14   1    2.90    2.22   2
   4 -14   1    3.85    2.01   3
  -4 -14  -1    5.28    3.04   2
   4  14   1    4.99    2.93   2
  -4  14  -1    3.69    1.63   1
  -5 -14  -1   38.75    7.15   2
   5 -14   1   48.59    5.52   3
   5  14   1   50.16    7.58   2
   5 -15  -1  149.31   11.47   3
  -5 -15   1  126.94   14.56   2
   5  15  -1  140.87   14.73   2
  -5  15   1  158.19   12.63   1
  -4 -15   1    6.21    3.43   2
   4 -15  -1   10.70    2.88   3
   4  15  -1   10.35    3.78   2
  -4  15   1    5.68    2.51   1
  -3 -15   1   65.22    8.38   2
   3 -15  -1   81.26    7.04   3
  -3 -15   1   75.28    5.93   3
  -3  15   1   77.40    7.70   1
   3  15  -1   78.17    8.72   2
  -2 -15   1  743.28   55.19   2
  -2 -15   1  777.60   43.63   3
   2  15  -1  855.31   55.46   2
  -1 -15   1    6.70    1.98   3
  -1 -15   1    5.86    2.37   2
  -1  15   1    1.84    1.67   2
   1  15  -1    6.04    2.34   2
   0 -15   1  690.72   44.88   2
   0 -15   1  643.73   36.72   3
   0  15   1  604.58   44.87   2
   1 -15   1   48.62    5.37   3
  -1 -15  -1   52.13    6.29   2
   1 -15   1   54.33    5.52   2
   1  15   1   60.32    6.38   2
   2 -15   1  232.70   16.33   3
  -2 -15  -1  276.85   20.35   2
  -2  15  -1  242.72   18.09   1
   2  15   1  247.64   19.70   2
   3 -15   1  209.77   15.01   3
  -3 -15  -1  227.33   18.83   2
  -3  15  -1  222.40   15.95   1
   3  15   1  217.00   18.35   2
   4 -15   1  374.89   25.35   3
  -4 -15  -1  443.03   32.64   2
   4  15   1  431.27   32.11   2
  -4  15  -1  410.11   28.35   1
  -5 -15  -1    3.58    3.16   2
   5 -15   1    0.69    1.64   3
   5  15   1    8.89    4.03   2
   4 -16  -1  197.51   13.78   3
  -4 -16   1  170.63   17.19   2
  -4  16   1  200.14   15.45   1
  -3 -16   1    0.15    1.86   2
   3 -16  -1    3.22    1.66   3
  -3 -16   1    0.51    1.25   3
  -3  16   1    3.16    2.34   1
  -2 -16   1  588.49   33.27   3
  -2 -16   1  590.91   42.39   2
  -1 -16   1   26.34    4.14   2
  -1 -16   1   22.68    3.31   3
   0 -16   1  950.88   51.79   3
   0 -16   1  928.30   63.32   2
   0  16   1  916.95   63.56   2
   1 -16   1   29.40    3.73   2
   1 -16   1   26.09    3.85   3
  -1 -16  -1   20.61    3.90   2
   1  16   1   18.32    3.95   2
  -2 -16  -1  253.15   20.84   2
   2 -16   1  272.13   17.55   3
   2  16   1  266.83   20.75   2
  -3 -16  -1   46.59    6.86   2
   3 -16   1   54.84    5.94   3
   3  16   1   49.92    6.72   2
  -3  16  -1   51.52    5.42   1
  -4 -16  -1    4.15    3.09   2
   4 -16   1    4.46    2.27   3
   4  16   1    2.18    2.37   2
   4 -17  -1   19.87    3.97   3
  -4 -17   1   23.33    5.74   2
  -4  17   1   15.24    4.07   1
  -3 -17   1    0.99    1.48   3
   3 -17  -1    3.15    1.79   3
  -3 -17   1    1.94    2.20   2
  -2 -17   1  425.54   31.68   2
  -2 -17   1  422.99   24.79   3
  -1 -17   1    8.60    2.91   2
  -1 -17   1    7.85    2.37   3
   0 -17  -1  248.57   20.82   2
   0 -17   1  281.27   20.59   2
   0 -17   1  291.39   17.69   3
   1 -17   1    6.93    2.26   2
   1 -17   1    5.82    2.33   3
  -1 -17  -1    6.61    2.61   2
   1  17   1    6.89    2.47   2
  -2 -17  -1  188.83   16.25   2
   2 -17   1  176.07   13.47   3
   2  17   1  208.48   16.28   2
   3 -17   1   47.62    5.98   3
  -3 -17  -1   67.92    7.87   2
   3  17   1   64.85    7.42   2
  -3  17  -1   45.83    5.84   1
   4 -17   1  162.23   12.72   3
  -4 -17  -1  163.53   15.74   2
   4  17   1  164.87   15.27   2
  -3 -18   1   30.50    5.29   2
   3 -18  -1   17.95    3.82   3
  -2 -18   1    7.74    3.09   2
   2 -18  -1    4.16    2.09   3
  -1 -18   1    8.31    2.40   3
  -1 -18   1    9.81    3.03   2
   0 -18   1   86.57    7.48   3
   0 -18  -1   95.09    8.91   2
   0 -18   1   75.98    7.97   2
  -1 -18  -1   27.48    4.39   2
   1 -18   1   20.26    3.98   3
   1 -18   1   17.82    3.22   2
   2 -18   1  617.48   43.80   2
  -2 -18  -1  628.53   45.59   2
   2 -18   1  673.51   37.65   3
   3 -18   1   16.60    3.94   3
  -3 -18  -1   15.04    4.34   2
   2 -19  -1  225.05   15.21   3
  -2 -19   1  214.29   18.12   2
  -2 -19   1  213.29   14.11   3
  -1 -19   1    7.65    2.39   3
  -1 -19   1    8.35    2.85   2
   0 -19  -1  140.90   13.95   2
   0 -19   1  195.78   12.69   3
   0 -19   1  177.94   14.04   2
   1 -19   1   44.90    5.33   3
   1 -19   1   38.97    4.91   2
  -1 -19  -1   40.97    5.71   2
   2 -19   1    6.54    2.71   3
  -2 -19  -1    5.75    2.67   2
   2 -19   1    5.97    2.15   2
   8   0  -2  177.76   15.70   2
   7   0  -2    1.17    1.64   2
  -7   0   2    4.09    2.49   2
  -6   0   2  158.51   13.37   2
  -6   0   2  167.29   13.69   1
   6   0  -2  158.42   13.38   2
  -5   0   2    1.45    1.52   1
  -5   0   2    0.66    1.33   2
   5   0  -2    0.27    0.45   3
   5   0  -2    0.85    1.28   2
   4   0  -2  207.18   15.53   2
  -4   0   2  212.70   15.49   1
  -4   0   2  205.49   15.52   2
  -3   0   2    3.00    1.14   2
  -3   0   2    2.31    1.12   2
  -3   0   2    2.58    1.18   1
   3   0  -2    4.84    1.38   2
   3   0  -2    3.39    1.23   2
   2   0  -2 9476.60  630.87   2
   2   0  -2 9999.99  633.45   2
  -2   0   2 9508.20  618.16   1
   2   0  -2 9641.95  618.28   1
  -2   0   2 9271.68  631.89   2
  -2   0   2 9947.88  632.78   2
  -1   0   2    5.10    1.30   1
  -1   0   2    6.01    1.15   2
   1   0  -2    7.05    1.24   1
  -1   0   2    5.21    1.09   2
   1   0  -2    6.74    1.19   2
   0   0   2  441.18   30.80   2
   0   0  -2  483.77   30.85   2
  -1   0  -2   10.84    1.23   2
   1   0   2   11.59    1.51   2
   2   0   2 2765.24  199.21   2
  -2   0  -2 3044.61  158.84   3
  -2   0  -2 3297.89  198.64   2
  -2   0  -2 3042.07  198.57   2
  -3   0  -2    8.98    1.57   2
   3   0   2   10.87    1.89   2
   3   0   2   11.18    2.04   2
  -4   0  -2  845.90   57.12   2
   4   0   2  860.89   57.67   2
   4   0   2  866.83   57.57   2
  -5   0  -2    5.85    1.86   2
   5   0   2    7.40    2.14   2
   5   0   2    6.56    1.96   2
   6   0   2   39.24    4.78   2
  -6   0  -2   40.18    4.65   2
   7   0   2    2.07    1.71   2
  -8  -1   2    8.77    3.45   2
   8  -1  -2    8.05    3.14   2
   8   1  -2    8.34    3.22   2
   7  -1  -2  155.72   13.57   2
  -7  -1   2  154.16   13.56   2
   7   1  -2  154.26   13.68   2
  -7   1   2  159.42   13.48   2
  -6  -1   2  438.97   30.84   1
   6  -1  -2  432.86   22.92   3
  -6  -1   2  439.46   30.85   2
   6  -1  -2  406.44   30.58   2
  -6   1   2  395.96   30.18   1
   6   1  -2  429.04   30.82   2
  -6   1   2  432.11   30.64   2
  -5  -1   2  368.35   24.96   1
   5  -1  -2  313.08   18.52   3
  -5  -1   2  379.29   25.12   2
   5  -1  -2  334.33   24.74   2
   5   1  -2  365.97   25.04   2
  -5   1   2  322.23   24.61   2
  -5   1   2  325.98   24.37   1
  -4  -1   2 1361.44   85.96   2
  -4  -1   2 1306.70   84.25   1
   4  -1  -2 1307.34   85.84   2
  -4   1   2 1304.18   85.79   2
  -4   1   2 1284.73   83.98   1
   4   1  -2 1233.70   67.33   3
   4   1  -2 1229.70   85.76   2
  -3  -1   2   10.81    1.98   1
  -3  -1   2   12.65    2.05   2
  -3  -1   2    9.49    1.79   2
   3  -1  -2    8.99    2.03   2
   3  -1  -2    9.23    1.85   2
   3   1  -2    9.84    1.76   2
   3   1  -2   10.60    1.90   2
  -3   1   2    9.06    2.00   1
  -3   1   2    8.61    1.93   2
  -3   1   2    8.95    1.74   2
   2  -1  -2  558.81   35.97   2
   2  -1  -2  531.93   35.21   1
  -2  -1   2  530.78   35.94   2
  -2  -1   2  562.34   35.97   2
   2  -1  -2  518.99   35.89   2
  -2   1   2  526.64   35.21   1
   2   1  -2  528.88   35.80   2
  -2   1   2  532.74   35.89   2
   2   1  -2  539.63   35.94   2
  -2   1   2  530.26   35.90   2
   2   1  -2  512.78   35.06   1
   1  -1  -2   13.84    1.70   2
   1  -1  -2   12.58    1.71   1
  -1   1   2   13.07    1.64   2
  -1   1   2   14.62    1.68   2
   0  -1   2 7110.67  460.29   2
   0  -1  -2 6837.08  460.79   2
   0   1   2 6807.84  461.06   2
   0   1  -2 7359.26  459.76   2
  -1  -1  -2    7.39    1.21   2
   1  -1   2    9.43    1.23   2
   1   1   2    9.01    1.51   2
  -1   1  -2    9.60    1.18   2
  -1   1  -2   10.36    1.04   2
   2  -1   2  109.47    8.61   2
   2  -1   2  109.22    8.26   2
  -2  -1  -2  113.39    8.19   2
  -2  -1  -2  131.54    8.92   2
   2   1   2   89.51    9.04   2
  -2   1  -2  101.05    7.68   2
  -2   1  -2  111.02    7.93   2
   3  -1   2  729.77   49.50   2
   3  -1   2  770.98   49.50   2
  -3  -1  -2  696.73   49.24   2
   3   1   2  747.20   50.23   2
  -3   1  -2  780.53   50.22   2
  -3   1  -2  715.81   49.04   2
   3   1   2  744.27   49.85   2
  -4  -1  -2  792.31   54.78   2
   4  -1   2  791.64   54.98   2
   4  -1   2  824.50   54.96   2
  -4   1  -2  797.06   54.60   2
   4   1   2  846.37   55.39   2
   4   1   2  876.28   55.76   2
  -5  -1  -2   57.93    5.70   2
   5   1   2   65.83    6.39   2
   5   1   2   63.05    6.29   2
  -6  -1  -2  457.54   31.73   2
   6  -1   2  437.33   31.86   2
   6   1   2  459.63   32.43   2
   7  -1   2   17.53    3.68   2
   7   1   2   19.74    4.13   2
   8  -2  -2  339.13   26.59   2
  -8  -2   2  346.23   26.64   2
   8   2  -2  348.75   27.03   2
  -7  -2   2   15.39    3.75   2
   7  -2  -2    9.33    3.07   2
   7   2  -2   16.68    4.00   2
  -7   2   2    8.40    2.92   2
  -6  -2   2  118.37   10.73   2
   6  -2  -2  122.73    7.25   3
   6  -2  -2  124.37   10.78   2
  -6   2   2  121.01   10.56   2
   6   2  -2  116.67   10.79   2
  -6   2   2  117.22   10.58   1
   5  -2  -2  222.62   17.32   2
  -5  -2   2  249.56   17.90   1
   5  -2  -2  214.47   12.84   3
  -5  -2   2  235.87   17.51   2
  -5   2   2  234.15   17.27   2
   5   2  -2  224.88   17.48   2
  -5   2   2  228.18   17.07   1
   4  -2  -2 1262.88   86.47   2
  -4  -2   2 1341.57   86.69   2
  -4  -2   2 1329.36   85.09   1
   4   2  -2 1304.21   86.66   2
  -4   2   2 1305.14   84.60   1
  -4   2   2 1258.89   86.32   2
   3  -2  -2  297.98   24.01   2
   3  -2  -2  319.12   24.10   2
  -3  -2   2  405.87   24.24   1
  -3  -2   2  407.71   24.43   2
  -3   2   2  297.55   23.54   1
   3   2  -2  408.80   24.57   2
  -3   2   2  306.75   23.98   2
  -2  -2   2 1157.98   73.18   1
  -2  -2   2 1160.92   74.72   2
   2  -2  -2 1168.34   73.22   1
   2  -2  -2 1186.13   74.86   2
  -2  -2   2 1120.08   74.75   2
  -2   2   2 1093.44   74.69   2
  -2   2   2 1152.24   73.19   1
  -2   2   2 1071.44   74.65   2
   2   2  -2 1167.57   74.61   2
   2   2  -2 1035.01   74.62   2
  -1  -2   2   44.43    3.71   2
  -1  -2   2   48.10    3.79   2
  -1  -2   2   41.15    3.63   1
   1   2  -2   47.42    3.68   2
   1   2  -2   44.42    3.72   2
   1   2  -2   45.55    3.67   1
   0  -2  -2  387.27   26.30   2
   0  -2   2  388.88   26.01   2
   0   2  -2  392.79   25.91   2
   0   2  -2  420.57   21.13   3
   0   2   2  372.06   26.29   2
   1  -2   2   78.41    5.62   2
  -1   2  -2   78.30    4.91   3
  -1   2  -2   77.15    5.37   2
  -1   2  -2   74.94    5.36   2
  -2  -2  -2 4322.95  279.72   2
  -2  -2  -2 4196.54  278.32   2
   2  -2   2 4402.14  279.82   2
  -2   2  -2 4400.96  277.75   2
  -2   2  -2 3954.28  277.62   2
   3  -2   2    7.22    1.40   2
  -3  -2  -2    9.50    1.73   2
   3  -2   2    7.94    1.45   2
  -3   2  -2   11.49    2.17   2
   3   2   2    5.45    1.99   2
   3   2   2    9.35    2.14   2
  -3   2  -2    5.88    1.20   2
   4  -2   2  598.66   40.75   2
  -4  -2  -2  566.87   40.85   2
   4  -2   2  588.48   40.72   2
   4   2   2  646.39   42.12   2
   4   2   2  628.66   41.52   2
  -4   2  -2  601.82   40.47   2
  -5  -2  -2  230.67   16.99   2
   5  -2   2  220.76   16.76   2
  -5   2  -2  229.40   16.54   2
   5   2   2  241.03   17.98   2
   6  -2   2  162.17   13.34   2
  -6  -2  -2  172.18   13.47   2
   6   2   2  178.54   14.37   2
   7  -2   2   12.76    3.01   2
   7   2   2    5.21    2.55   2
  -7  -3   2   24.48    4.54   2
   7  -3  -2   27.88    4.41   2
   7   3  -2   25.67    5.25   2
  -7   3   2   31.42    4.54   2
  -6  -3   2 1106.51   74.69   2
   6  -3  -2 1112.05   58.36   3
   6  -3  -2 1154.60   74.67   2
   6   3  -2 1074.78   74.88   2
  -6   3   2 1055.41   72.80   1
  -6   3   2 1090.28   74.22   2
   5  -3  -2   96.22    8.41   2
   5  -3  -2   90.93    5.99   3
  -5   3   2   94.29    8.22   1
  -5   3   2   90.17    8.13   2
  -4  -3   2  459.14   32.32   1
  -4  -3   2  464.34   32.61   2
   4  -3  -2  475.57   32.51   2
   4   3  -2  466.37   32.74   2
  -4   3   2  466.36   31.76   1
  -4   3   2  478.43   32.35   2
  -3  -3   2  797.32   48.48   2
   3  -3  -2  730.25   48.36   2
   3  -3  -2  645.53   48.19   2
  -3  -3   2  777.33   48.57   2
  -3   3   2  650.23   48.08   2
  -3   3   2  694.47   47.27   1
   3   3  -2  740.01   48.55   2
  -2  -3   2  528.85   34.69   2
  -2  -3   2  515.77   34.75   2
   2  -3  -2  505.07   34.09   1
   2  -3  -2  522.06   34.82   2
  -2  -3   2  502.15   34.00   1
   2   3  -2  519.62   34.58   2
  -2   3   2  530.04   34.75   2
   2   3  -2  523.40   27.14   3
   2   3  -2  488.55   34.67   2
  -2   3   2  498.07   34.72   2
  -2   3   2  530.17   34.16   1
  -1  -3   2   42.05    3.44   2
  -1  -3   2   38.18    3.22   1
  -1  -3   2   40.31    3.43   2
   1   3  -2   41.13    2.63   3
   1   3  -2   42.64    3.36   2
   1   3  -2   42.69    3.34   1
   1   3  -2   36.88    3.36   2
   0  -3  -2 1970.19  131.76   2
   0  -3   2 1961.88  131.87   2
   0   3  -2 2100.74  131.26   2
   0   3  -2 2123.56  105.44   3
   0   3   2 1893.15  131.74   2
   1  -3   2   29.51    2.36   3
   1  -3   2   30.50    2.29   2
  -1   3  -2   32.88    2.45   3
  -2  -3  -2 1088.33   83.85   2
  -2  -3  -2 1295.92   83.65   2
   2  -3   2 1290.30   82.44   2
   2  -3   2 1264.54   66.57   3
   2  -3   2 1411.47   82.57   2
   2   3   2 1196.38   84.83   2
   3  -3   2  126.84    9.58   2
   3  -3   2  129.92    9.57   2
  -3   3  -2  140.56    9.60   2
   3   3   2  153.39   11.65   2
  -3   3  -2  121.13    9.20   2
  -4  -3  -2 1134.54   76.38   2
   4  -3   2 1082.57   75.79   2
   4  -3   2 1125.78   75.89   2
   4   3   2 1206.12   77.80   2
   4   3   2 1206.86   77.02   2
  -4   3  -2 1131.97   75.51   2
   5  -3   2  125.49   10.77   2
  -5  -3  -2  155.07   11.45   2
   5   3   2  166.48   12.73   2
  -5   3  -2  128.97   10.53   2
  -6  -3  -2  619.27   45.82   2
   6  -3   2  700.77   45.87   2
   6   3   2  684.96   47.26   2
   7  -3   2  182.98   14.74   2
   7   3   2  185.35   15.94   2
  -7  -4   2    8.75    3.17   2
   7  -4  -2    4.40    2.24   2
  -7   4   2    4.82    2.37   2
   7   4  -2   11.87    3.59   2
   6  -4  -2  205.86   15.94   2
  -6  -4   2  205.38   16.24   2
   6  -4  -2  187.53   11.68   3
   6   4  -2  220.55   16.84   2
  -6   4   2  197.69   15.57   2
  -6   4   2  182.63   15.32   1
  -5  -4   2  167.82   12.37   2
   5  -4  -2  140.31    8.92   3
   5  -4  -2  139.14   11.67   2
  -5  -4   2  139.54   12.31   1
   5   4  -2  160.18   12.52   2
  -5   4   2  139.07   11.45   2
  -5   4   2  128.81   11.27   1
  -4  -4   2  693.37   47.91   2
   4  -4  -2  752.35   47.88   2
  -4  -4   2  599.51   47.01   1
  -4   4   2  728.44   47.57   2
   4   4  -2  727.21   48.28   2
  -4   4   2  716.93   46.72   1
  -3  -4   2  225.84   17.09   2
  -3  -4   2  238.76   17.09   2
  -3  -4   2  210.40   16.86   1
   3   4  -2  220.34   17.20   2
  -3   4   2  292.34   17.25   2
   2  -4  -2 1602.32  103.40   1
   2  -4  -2 1603.15  105.71   2
  -2  -4   2 1569.75  105.58   2
  -2  -4   2 1643.56  103.29   1
  -2  -4   2 1669.51  105.61   2
   2   4  -2 1614.86   83.86   3
  -2   4   2 1517.65  105.59   2
   2   4  -2 1602.05  105.69   2
   2   4  -2 1671.98  105.49   2
  -2   4   2 1575.10  103.38   1
  -2   4   2 1593.26  105.59   2
  -1  -4   2  994.72   67.48   1
  -1  -4   2 1174.50   69.49   2
  -1  -4   2 1134.56   69.48   2
   1  -4  -2  939.59   69.59   2
   1  -4  -2  915.91   68.29   1
   1   4  -2 1168.70   55.50   3
  -1   4   2  935.24   69.56   2
   1   4  -2 1193.84   69.39   2
  -1   4   2  976.31   68.44   1
   1   4  -2 1097.75   69.43   2
   1   4  -2 1071.85   67.75   1
   0  -4   2   33.93    2.84   2
   0  -4   2   36.93    2.68   3
   0   4  -2   32.64    2.68   2
   0   4   2   43.62    3.59   2
   0   4  -2   35.71    2.63   3
  -1  -4  -2  220.44   15.99   2
   1   4   2  218.08   16.21   2
   2  -4   2  216.64   14.96   2
   2  -4   2  212.71   14.89   2
   2  -4   2  215.53   12.75   3
  -2  -4  -2  229.70   16.68   2
   2   4   2  250.91   18.04   2
   3  -4   2   58.51    4.29   3
   3  -4   2   58.60    4.63   2
  -3   4  -2   57.11    4.22   2
  -3   4  -2   60.85    4.21   2
   4  -4   2 1492.49   96.82   2
  -4  -4  -2 1387.80   97.54   2
   4  -4   2 1580.05   96.88   2
   4   4   2 1363.42   98.83   2
  -4   4  -2 1520.26   96.34   2
   5  -4   2   89.43    8.09   2
  -5  -4  -2  105.61    8.96   2
   5   4   2  122.36   10.41   2
  -5   4  -2   98.63    7.83   2
  -6  -4  -2  131.98   11.46   2
   6  -4   2  132.74   11.02   2
   6   4   2  146.06   12.90   2
   7  -4   2   13.13    3.12   2
   7   4   2   23.27    4.94   2
  -7  -5   2   56.46    7.11   2
   7  -5  -2   54.28    6.53   2
   7   5  -2   60.86    7.57   2
   6  -5  -2  340.85   23.48   2
   6  -5  -2  327.24   17.95   3
  -6  -5   2  276.51   23.34   2
   6   5  -2  286.60   23.88   2
  -6   5   2  310.49   22.85   2
  -6   5   2  326.47   22.89   1
  -5  -5   2    6.11    2.22   2
   5  -5  -2    4.53    1.34   3
  -5  -5   2    2.84    1.99   1
   5  -5  -2    2.90    1.50   2
   5   5  -2    5.65    2.34   2
  -5   5   2    3.39    1.61   2
  -5   5   2    1.80    1.48   1
  -4  -5   2  985.17   62.47   2
  -4   5   2  858.98   61.64   2
   4   5  -2  988.78   62.82   2
  -4   5   2  862.84   60.54   1
   3  -5  -2   45.89    4.77   2
  -3  -5   2   51.90    5.08   1
  -3  -5   2   59.04    5.01   2
  -3  -5   2   54.36    4.99   2
   3   5  -2   60.24    5.31   2
  -3   5   2   43.90    4.56   1
  -3   5   2   39.42    4.43   2
  -2  -5   2  149.66   12.31   1
  -2  -5   2  158.95   12.66   2
   2   5  -2  157.85   12.78   2
  -2   5   2  199.01   13.02   2
  -2   5   2  210.24   13.01   2
  -2   5   2  201.42   12.92   1
   2   5  -2  162.61   12.56   2
  -1  -5   2  809.77   58.12   2
  -1  -5   2  884.24   58.19   2
   1  -5  -2  965.24   58.67   2
   1  -5  -2  931.33   57.67   1
  -1  -5   2  815.27   46.49   3
  -1   5   2  962.19   58.57   2
   1   5  -2  848.98   46.47   3
   1   5  -2  839.25   56.71   1
  -1   5   2  974.80   57.90   1
   1   5  -2  890.93   58.07   2
   1   5  -2  787.76   58.09   2
   0  -5   2 1730.35   93.24   3
   0  -5   2 1769.95  116.15   2
   0  -5  -2 1854.25  116.87   2
   0  -5  -2 1716.36  114.72   1
   0   5   2 1763.30  116.72   2
   0   5  -2 1826.07   93.24   3
   1  -5   2  643.98   31.61   3
  -1  -5  -2  570.33   40.05   2
   1   5   2  537.12   40.12   2
   2  -5   2  683.75   41.30   2
  -2  -5  -2  537.84   43.14   2
   2  -5   2  648.20   34.12   3
   2  -5   2  694.47   41.30   2
   2   5   2  570.23   44.19   2
   3  -5   2  253.67   18.07   2
  -3  -5  -2  315.58   20.14   2
   3  -5   2  252.58   15.31   3
   3  -5   2  260.66   18.08   2
   3   5   2  261.11   20.74   2
   4  -5   2  182.81   12.92   2
   4  -5   2  175.94   11.00   3
  -4  -5  -2  177.71   14.07   2
   4  -5   2  178.31   12.89   2
  -4   5  -2  191.67   12.33   2
   4   5   2  168.09   15.15   2
  -5  -5  -2   61.43    6.52   2
   5   5   2   68.02    7.76   2
  -6  -5  -2  700.38   49.74   2
   6  -5   2  742.28   48.93   2
   6   5   2  710.69   51.40   2
   7  -5   2    1.40    1.44   2
   7   5   2    2.99    2.42   2
  -7  -6   2   26.12    5.28   2
   7  -6  -2   17.29    3.98   2
   7   6  -2   26.41    5.62   2
   6  -6  -2   10.10    2.03   3
  -6  -6   2   18.23    3.96   2
   6  -6  -2   10.92    2.95   2
   6   6  -2   19.00    4.38   2
  -6   6   2    9.45    2.81   1
  -6   6   2    7.46    2.40   2
  -5  -6   2  145.09   12.15   2
   5  -6  -2  142.66    9.36   3
  -5   6   2  136.20   11.32   1
  -5   6   2  135.26   11.20   2
   5   6  -2  152.67   12.70   2
  -4  -6   2  610.98   45.29   2
   4  -6  -2  738.24   45.41   2
  -4  -6   2  567.85   44.57   1
   4   6  -2  651.75   45.88   2
  -4   6   2  684.04   44.88   2
  -4   6   2  717.65   44.29   1
   3  -6  -2  239.60   15.53   2
  -3  -6   2  198.19   15.24   2
  -3  -6   2  185.61   15.22   2
  -3  -6   2  176.05   14.97   1
   3   6  -2  202.40   15.62   2
  -3   6   2  219.47   15.13   2
  -3   6   2  233.29   15.13   1
   2  -6  -2 1417.25   93.74   2
  -2  -6   2 1478.32   93.66   2
  -2  -6   2 1423.62   74.36   3
   2  -6  -2 1332.26   91.59   1
  -2  -6   2 1359.66   91.34   1
  -2  -6   2 1500.60   93.75   2
   2   6  -2 1579.06   94.02   2
  -2   6   2 1338.80   91.70   1
  -2   6   2 1346.24   93.56   2
   1  -6  -2  364.96   28.35   1
  -1  -6   2  469.39   28.58   2
  -1  -6   2  437.72   28.55   2
  -1  -6   2  449.21   22.87   3
   1  -6  -2  395.15   28.85   2
   1   6  -2  448.21   22.81   3
   1   6  -2  455.26   28.61   2
   1   6  -2  444.34   28.38   2
  -1   6   2  383.76   28.62   1
  -1   6   2  375.30   28.67   2
   0  -6   2   12.75    1.41   2
   0  -6  -2   15.36    2.37   2
   0  -6  -2   13.42    2.36   1
   0   6   2   13.78    2.13   2
  -1  -6  -2 1443.25   93.68   2
   1  -6   2 1339.30   74.18   3
   1   6   2 1429.67   93.89   2
   2  -6   2 3120.29  170.33   3
  -2  -6  -2 2962.28  211.86   2
   2   6   2 3586.94  213.41   2
   3  -6   2  436.96   27.67   2
  -3  -6  -2  384.40   29.59   2
   3  -6   2  423.60   23.24   3
   3  -6   2  411.00   27.60   2
   4  -6   2  178.49   10.59   3
  -4  -6  -2  139.76   13.24   2
   4  -6   2  180.32   12.04   2
   5  -6   2  134.08    9.36   3
   5  -6   2  146.14   10.94   2
  -5  -6  -2  151.90   12.45   2
   5   6   2  147.01   13.66   2
  -6  -6  -2   35.98    5.06   2
   6  -6   2   32.55    3.97   2
   6   6   2   35.86    6.05   2
   7  -6   2   21.55    3.46   2
   7   6   2   28.22    6.20   2
  -7  -7   2   66.33    8.14   2
   7  -7  -2   63.65    5.33   3
   7   7  -2   66.78    8.68   2
   6  -7  -2  276.33   15.78   3
  -6  -7   2  232.18   20.18   2
   6   7  -2  247.14   21.13   2
  -6   7   2  271.56   19.56   1
  -6   7   2  260.25   19.24   2
  -5  -7   2   30.89    4.42   2
   5  -7  -2   28.29    3.29   3
   5   7  -2   27.96    4.70   2
  -5   7   2   25.60    3.75   1
  -5   7   2   30.03    3.69   2
  -4  -7   2  200.85   14.61   2
  -4  -7   2  192.08   14.56   1
  -4   7   2  161.33   13.46   2
  -4   7   2  165.68   13.48   1
   4   7  -2  200.70   15.15   2
  -3  -7   2 1096.39   74.85   2
   3  -7  -2 1127.39   74.67   2
  -3  -7   2 1154.99   74.81   2
  -3  -7   2 1098.81   73.21   1
  -3   7   2 1102.33   72.98   1
   3   7  -2 1187.69   75.40   2
  -3   7   2 1073.34   74.31   2
  -2  -7   2   40.11    4.00   2
  -2  -7   2   39.76    4.04   2
  -2  -7   2   37.79    2.77   3
  -2  -7   2   38.59    3.68   1
   2   7  -2   43.43    4.29   2
  -1  -7   2  226.56   13.33   3
  -1  -7   2  228.26   16.62   2
   1  -7  -2  275.98   17.36   2
  -1  -7   2  224.08   16.53   2
   1  -7  -2  250.04   16.98   1
   1   7  -2  230.25   16.61   2
   1   7  -2  218.51   16.40   2
  -1   7   2  259.03   17.07   2
   0  -7   2 3124.36  167.68   3
   0  -7  -2 3526.55  210.29   2
   0  -7   2 3382.08  209.61   2
   0  -7  -2 3055.23  205.26   1
   0   7  -2 3107.95  208.48   2
   0   7  -2 3240.43  203.61   1
   0   7   2 2988.18  209.72   2
   1  -7   2  566.17   29.35   3
  -1  -7  -2  460.79   37.17   2
   1  -7   2  541.07   35.32   2
   1  -7   2  589.46   35.53   2
   1   7   2  513.34   37.66   2
  -2  -7  -2   38.04    5.07   2
   2   7   2   49.19    5.92   2
   3  -7   2  390.66   22.35   3
   3  -7   2  379.03   26.23   2
  -3  -7  -2  395.13   28.84   2
   3  -7   2  399.69   26.30   2
   3   7   2  415.59   29.78   2
   4  -7   2  582.78   37.78   2
   4  -7   2  559.13   31.37   3
  -4  -7  -2  659.17   40.52   2
   4  -7   2  546.24   37.66   2
   4   7   2  475.46   40.55   2
   5  -7   2    8.56    2.04   3
  -5  -7  -2   16.17    3.74   2
   5  -7   2   10.26    1.88   2
   5   7   2   11.71    3.94   2
  -6  -7  -2   84.54    9.17   2
   6  -7   2  107.81    8.15   2
   6   7   2   76.63   10.19   2
   7  -7   2  228.31   16.46   2
   7   7   2  188.12   18.98   2
  -7  -8   2    3.40    2.90   2
   7  -8  -2    3.60    1.58   3
   7   8  -2    3.96    3.13   2
  -6  -8   2   25.03    4.49   2
   6  -8  -2   18.50    2.74   3
   6   8  -2   25.25    5.49   2
  -6   8   2   17.23    3.71   1
  -5  -8   2  569.80   40.04   2
   5  -8  -2  552.79   31.83   3
   5   8  -2  596.87   41.04   2
  -5   8   2  541.48   38.18   1
  -5   8   2  553.02   38.60   2
  -4  -8   2   78.52    8.16   2
  -4  -8   2   80.19    8.15   1
   4   8  -2   77.52    8.50   2
  -4   8   2  102.16    7.76   2
  -4   8   2  103.75    8.01   1
   3  -8  -2  126.98    9.81   2
  -3  -8   2  111.12    9.50   1
  -3  -8   2  110.25    9.78   2
  -3  -8   2  127.20    9.90   2
   3   8  -2  123.94   10.39   2
  -3   8   2  116.94    9.35   2
  -3   8   2  120.43    9.52   1
  -2  -8   2 2255.91  111.85   3
   2  -8  -2 2101.73  140.33   2
   2  -8  -2 1982.37  136.90   1
  -2  -8   2 2144.90  140.17   2
  -2  -8   2 2242.54  140.47   2
  -2  -8   2 2084.94  136.49   1
  -2   8   2 2078.99  140.06   2
  -2   8   2 2047.45  137.21   1
   2   8  -2 2252.91  140.68   2
  -1  -8   2  715.64   37.39   3
  -1  -8   2  714.00   46.64   2
  -1  -8   2  697.98   46.45   2
   1  -8  -2  676.20   47.06   2
   1  -8  -2  650.01   45.87   1
  -1   8   2  660.62   46.76   2
   1   8  -2  753.41   46.66   2
   0  -8   2   47.84    4.17   2
   0  -8   2   49.56    3.84   3
   0   8  -2   49.56    3.80   2
   1  -8   2  342.02   25.15   2
   1  -8   2  404.71   21.29   3
   1  -8   2  388.55   25.27   2
   1   8   2  372.60   27.61   2
  -2  -8  -2  833.76   58.00   2
   2  -8   2  808.72   45.54   3
   2  -8   2  813.59   55.05   2
   2   8   2  921.31   58.92   2
  -3  -8  -2   90.42    8.34   2
   3  -8   2   74.18    5.68   3
   3  -8   2   66.49    5.35   2
   4  -8   2  352.05   23.30   2
  -4  -8  -2  318.87   25.76   2
   4  -8   2  360.47   20.16   3
   4  -8   2  385.06   23.51   2
   4   8   2  284.87   26.22   2
   5  -8   2  648.88   42.49   2
   5  -8   2  668.21   35.46   3
  -5  -8  -2  652.51   45.14   2
   5   8   2  549.95   45.90   2
  -6  -8  -2   11.26    3.60   2
   6  -8   2    3.17    1.46   3
   6  -8   2    3.02    1.41   2
   6   8   2    6.14    3.34   2
   7  -9  -2  526.74   29.00   3
  -7  -9   2  492.30   37.78   2
   7   9  -2  478.40   38.80   2
   6  -9  -2  131.27    9.39   3
  -6  -9   2  133.13   12.54   2
  -6   9   2  132.70   11.22   1
   6   9  -2  119.72   13.01   2
   5  -9  -2  165.65   11.24   3
  -5  -9   2  163.54   14.21   2
  -5   9   2  162.57   12.73   2
   5   9  -2  153.18   14.69   2
  -5   9   2  168.52   13.04   1
  -4  -9   2  552.86   35.42   1
  -4  -9   2  517.84   36.29   2
  -4   9   2  484.83   34.59   1
  -4   9   2  477.99   34.87   2
   4   9  -2  514.08   36.88   2
   3  -9  -2  892.76   61.32   2
  -3  -9   2  899.23   61.77   2
  -3  -9   2  930.86   48.14   3
  -3  -9   2  922.73   59.90   1
  -3   9   2  892.16   60.93   2
  -3   9   2  886.46   59.98   1
   3   9  -2  952.57   62.39   2
   2  -9  -2  421.97   28.34   2
  -2  -9   2  382.35   26.57   1
  -2  -9   2  405.38   28.29   2
   2  -9  -2  431.22   27.35   1
  -2  -9   2  352.52   27.77   2
  -2  -9   2  389.48   22.05   3
  -2   9   2  431.06   28.05   2
  -2   9   2  413.60   27.74   1
   2   9  -2  400.00   28.44   2
  -1  -9   2  166.43   13.56   2
   1  -9  -2  203.63   14.53   2
  -1  -9   2  179.52   11.13   3
  -1  -9   2  193.32   13.89   2
   1  -9  -2  196.04   13.83   1
   1   9  -2  188.96   13.77   2
  -1   9   2  192.61   14.05   2
   0  -9   2  782.89   53.62   2
   0  -9  -2  803.26   53.22   1
   0  -9   2  791.09   43.56   3
   0  -9  -2  813.00   55.05   2
   0   9  -2  823.08   53.11   2
   0   9   2  821.50   54.84   2
   1  -9   2  202.40   11.62   3
   1  -9   2  171.48   13.02   2
   1  -9   2  194.42   13.08   2
   1   9   2  175.29   15.19   2
   2  -9   2   62.82    5.00   3
   2  -9   2   59.70    4.46   2
   3  -9   2 1680.59  110.54   2
   3  -9   2 1659.73   90.23   3
  -3  -9  -2 1588.31  113.51   2
   3   9   2 1842.88  114.54   2
  -4  -9  -2   66.22    7.59   2
   4  -9   2   51.61    5.02   3
   4   9   2   69.98    8.10   2
  -5  -9  -2    6.59    2.98   2
   5  -9   2    8.26    2.10   3
   5   9   2    8.32    3.63   2
   6  -9   2  262.59   16.05   3
   6  -9   2  275.33   18.42   2
  -6  -9  -2  245.96   20.90   2
   6   9   2  215.55   21.84   2
   6 -10  -2   46.09    4.81   3
  -6 -10   2   45.87    6.64   2
  -6  10   2   46.10    5.62   1
   6  10  -2   36.95    6.71   2
  -5 -10   2  712.53   48.48   2
   5 -10  -2  663.98   38.44   3
  -5  10   2  688.70   45.98   1
   5  10  -2  640.37   48.93   2
  -5  10   2  685.99   46.35   2
  -4 -10   2  326.15   24.00   2
   4  10  -2  278.03   24.07   2
  -4  10   2  323.28   22.54   1
  -4  10   2  327.43   22.53   2
  -3 -10   2   58.26    5.32   1
   3 -10  -2   48.92    5.47   2
  -3 -10   2   55.14    3.80   3
  -3 -10   2   54.29    6.02   2
  -3  10   2   48.86    5.29   1
   3  10  -2   56.79    6.39   2
  -3  10   2   51.61    5.21   2
  -2 -10   2   29.73    2.79   3
  -2 -10   2   33.20    2.80   1
  -2 -10   2   30.08    3.75   2
   2 -10  -2   30.22    3.91   2
  -2 -10   2   31.61    3.96   2
   2  10  -2   29.27    4.07   2
  -2  10   2   25.12    3.42   2
  -2  10   2   28.64    3.80   1
   1 -10  -2  507.68   35.53   2
  -1 -10   2  502.82   34.85   2
  -1 -10   2  532.00   35.07   2
  -1 -10   2  510.27   28.14   3
   1 -10  -2  485.62   34.03   1
  -1  10   2  463.93   34.91   2
   1  10  -2  553.89   34.95   2
   0 -10   2  189.76   14.18   2
   0 -10   2  209.20   12.03   3
   0 -10  -2  179.43   14.08   1
   0 -10   2  185.17   13.96   2
   0  10   2  159.52   14.68   2
   0  10  -2  220.05   13.48   2
   1 -10   2 1336.73   69.15   3
   1 -10   2 1255.58   84.73   2
   1 -10   2 1284.09   84.64   2
   1  10   2 1267.51   87.19   2
   2 -10   2  170.30   12.16   2
  -2 -10  -2  204.49   15.33   2
   2 -10   2  164.77   11.32   3
  -3 -10  -2  215.97   18.86   2
   3 -10   2  232.60   14.67   3
   3 -10   2  232.04   16.04   2
   3  10   2  265.49   19.74   2
   4 -10   2  324.18   18.97   3
  -4 -10  -2  288.35   24.24   2
   4  10   2  316.65   25.07   2
   5 -10   2  716.23   39.02   3
  -5 -10  -2  673.27   49.61   2
   5  10   2  681.88   50.83   2
   6 -10   2    4.60    1.81   3
  -6 -10  -2    4.69    3.26   2
   6  10   2    3.56    2.94   2
  -6 -11   2  471.87   35.48   2
   6 -11  -2  443.93   27.42   3
  -6  11   2  472.72   32.89   1
   5 -11  -2   26.79    3.72   3
  -5 -11   2   20.21    4.92   2
  -5  11   2   26.16    4.04   1
   5  11  -2   25.05    5.71   2
  -4 -11   2   22.79    4.08   2
  -4  11   2   19.72    3.13   2
  -4  11   2   21.83    3.48   1
   4  11  -2   16.35    4.35   2
  -3 -11   2  778.89   53.01   2
  -3 -11   2  839.33   50.44   1
  -3 -11   2  797.62   41.07   3
  -3  11   2  719.84   50.88   1
   3  11  -2  675.02   52.91   2
  -3  11   2  764.49   51.73   2
  -2 -11   2   51.79    5.73   2
  -2 -11   2   56.37    4.35   3
  -2 -11   2   48.97    5.51   2
   2 -11  -2   68.39    6.19   2
   2  11  -2   42.71    5.50   2
  -1 -11   2  502.19   36.88   2
  -1 -11   2  533.13   29.81   3
  -1 -11   2  529.71   37.00   2
  -1  11   2  579.47   37.34   2
   1  11  -2  529.52   36.73   2
   0 -11   2   49.18    4.42   3
   0 -11   2   41.67    4.57   2
   0 -11   2   47.89    4.83   2
   0 -11  -2   48.62    4.93   1
   0  11  -2   49.06    4.16   2
   0  11   2   44.86    5.52   2
   1 -11   2  417.63   27.70   2
  -1 -11  -2  403.31   28.23   1
   1 -11   2  385.81   23.43   3
   1 -11   2  428.89   27.87   2
   1  11   2  390.64   29.95   2
  -1  11  -2  400.90   26.48   1
   2 -11   2  380.13   24.73   2
   2 -11   2  376.30   21.79   3
  -2 -11  -2  353.93   27.40   2
   2  11   2  354.37   27.60   2
   3 -11   2  611.34   42.41   2
   3 -11   2  622.50   36.11   3
  -3 -11  -2  645.64   45.86   2
   3  11   2  691.32   46.21   2
   4 -11   2  188.51   13.16   3
  -4 -11  -2  193.75   17.27   2
   4  11   2  216.02   17.91   2
   5 -11   2   37.44    4.34   3
  -5 -11  -2   32.73    6.00   2
   6 -11   2   69.51    6.32   3
  -6 -11  -2   55.88    8.43   2
   6  11   2   60.09    9.05   2
   6 -12  -2   14.72    3.33   3
  -6 -12   2    6.32    3.76   2
   6  12  -2    5.51    3.53   2
  -6  12   2   14.78    3.79   1
   5 -12  -2  312.28   19.65   3
  -5 -12   2  343.47   25.47   2
  -5  12   2  330.31   22.94   1
   5  12  -2  249.70   24.65   2
  -4 -12   2  111.80   12.41   2
  -4  12   2  152.94   11.58   2
  -4  12   2  154.93   11.94   1
  -3 -12   2  422.86   23.92   3
  -3 -12   2  415.55   31.56   2
  -3  12   2  466.80   30.30   1
   3  12  -2  362.28   31.36   2
  -3  12   2  484.13   30.52   2
  -2 -12   2   54.97    5.99   2
  -2 -12   2   52.66    4.48   3
  -2 -12   2   52.50    5.98   2
   2  12  -2   48.86    5.93   2
  -2  12   2   53.38    5.50   2
  -2  12   2   53.11    5.85   1
  -1 -12   2 1544.38  104.77   2
  -1 -12   2 1495.61  104.65   2
  -1 -12   2 1560.56   84.07   3
   1  12  -2 1531.37  104.31   2
  -1  12   2 1733.73  105.24   2
   0 -12   2    7.08    2.01   3
   0 -12   2    8.57    2.12   2
   0 -12   2    6.22    1.93   2
   0  12  -2    6.99    1.58   2
   1 -12   2  323.60   20.05   3
   1 -12   2  299.50   23.04   2
   1 -12   2  362.77   23.46   2
  -1 -12  -2  346.21   23.68   1
   1  12   2  340.60   25.54   2
   2 -12   2   17.16    2.11   2
   2 -12   2   17.12    3.18   3
  -2 -12  -2   26.99    4.25   2
  -2  12  -2   14.35    1.73   1
   2  12   2   24.06    4.05   2
   3 -12   2   74.90    6.50   3
  -3 -12  -2   77.75    8.63   2
  -3  12  -2   74.85    5.51   1
   3  12   2   70.88    8.27   2
   4 -12   2  200.76   13.00   3
  -4 -12  -2  154.87   15.95   2
  -4  12  -2  197.29   12.80   1
   4  12   2  168.40   16.21   2
   5 -12   2  258.17   16.98   3
  -5 -12  -2  237.21   21.89   2
  -5  12  -2  256.52   18.17   1
   5  12   2  301.30   23.44   2
   6 -13  -2   10.61    3.00   3
  -6 -13   2    9.73    4.46   2
   6  13  -2    8.69    4.20   2
  -5 -13   2   14.40    4.51   2
   5 -13  -2   15.73    3.43   3
  -5  13   2   17.32    3.83   1
   5  13  -2    9.03    3.86   2
  -4 -13   2   89.57    9.52   2
  -4  13   2   85.26    8.06   1
   4  13  -2   68.12    8.93   2
  -3 -13   2  462.98   27.72   3
  -3 -13   2  467.70   36.33   2
  -3  13   2  538.18   35.07   1
  -3  13   2  535.38   35.17   2
  -2 -13   2    2.62    1.93   2
  -2 -13   2    1.25    1.22   3
   2  13  -2    1.97    1.74   2
  -1 -13   2  541.11   40.58   2
  -1 -13   2  573.82   32.89   3
   1  13  -2  578.78   40.30   2
  -1  13   2  644.37   41.39   2
   0 -13   2   83.72    7.19   2
   0 -13   2   74.75    6.33   3
   0  13  -2   71.59    6.20   2
   0  13   2   71.69    7.92   2
   1 -13   2  523.63   33.55   2
   1 -13   2  431.63   28.10   3
   1  13   2  501.40   35.59   2
   2 -13   2   15.71    2.24   2
   2 -13   2   13.03    3.02   3
  -2 -13  -2   12.00    3.54   2
  -2  13  -2   15.38    1.97   1
   3 -13   2  450.71   27.76   3
  -3 -13  -2  488.65   35.05   2
  -3  13  -2  462.81   30.75   1
   3  13   2  477.92   34.85   2
   4 -13   2  122.66    9.63   3
  -4 -13  -2  112.77   12.23   2
   4  13   2  136.79   12.80   2
  -4  13  -2  117.74    8.90   1
   5 -13   2    2.17    1.68   3
  -5 -13  -2    3.45    3.07   2
   5  13   2    4.09    2.99   2
  -5 -14   2  300.56   27.08   2
   5 -14  -2  381.19   21.90   3
   5  14  -2  283.80   26.92   2
  -5  14   2  372.89   25.23   1
  -4 -14   2    5.92    3.17   2
  -4  14   2   16.93    3.67   1
   4  14  -2    7.49    3.47   2
  -3 -14   2   13.76    2.43   3
  -3 -14   2   14.10    3.95   2
   3  14  -2   21.94    4.75   2
  -3  14   2   14.24    3.25   2
  -3  14   2   11.12    3.24   1
  -2 -14   2  102.38    7.67   3
  -2 -14   2   91.37    9.68   2
  -2  14   2  119.19    9.92   2
   2  14  -2  105.61    9.91   2
  -1 -14   2  187.62   12.32   3
  -1 -14   2  185.25   14.99   2
   1  14  -2  179.35   14.43   2
  -1  14   2  189.10   15.44   2
   0 -14   2    7.85    2.43   3
   0 -14   2    8.43    2.36   2
  -1 -14  -2 1000.64   73.48   2
   1 -14   2 1224.90   72.23   2
   1 -14   2  991.77   59.28   3
   1  14   2 1087.93   74.02   2
  -2 -14  -2   84.33    8.98   2
   2 -14   2   88.93    7.10   2
   2 -14   2   79.59    7.40   3
  -2  14  -2   83.46    6.75   1
   2  14   2   90.69    9.08   2
   3 -14   2  121.19   10.10   3
  -3 -14  -2  145.15   13.05   2
   3  14   2  142.80   12.81   2
  -3  14  -2  129.70    9.68   1
  -4 -14  -2   10.74    3.91   2
   4 -14   2    1.33    1.63   3
  -4  14  -2    1.92    1.24   1
   4  14   2    4.81    2.71   2
  -5 -14  -2  272.29   24.10   2
   5 -14   2  279.42   18.91   3
   5  14   2  302.61   24.53   2
   5 -15  -2   94.45    8.37   3
  -5  15   2   86.81    9.14   1
  -4 -15   2   23.18    5.59   2
  -4  15   2   33.33    4.97   1
  -3 -15   2  532.24   30.43   3
  -3 -15   2  553.88   40.01   2
  -2 -15   2    8.93    2.33   3
  -2 -15   2    5.73    2.62   2
  -2  15   2    1.58    1.75   2
  -1 -15   2   94.62    8.66   2
  -1 -15   2   90.36    7.19   3
  -1  15   2   71.98    8.51   2
   0 -15   2  116.56    9.44   2
   0 -15   2   96.52    8.21   3
   0  15   2   94.32    9.98   2
  -1 -15  -2  210.34   16.91   2
   1 -15   2  209.67   15.29   2
   1 -15   2  179.54   13.69   3
   1  15   2  212.05   17.01   2
  -2 -15  -2    4.54    2.50   2
   2 -15   2   10.02    2.11   2
   2 -15   2    7.48    2.55   3
   2  15   2    5.20    2.47   2
  -2  15  -2    7.71    2.07   1
   3 -15   2  756.10   46.70   3
  -3 -15  -2  830.87   58.21   2
   3  15   2  824.76   57.92   2
  -3  15  -2  872.64   53.90   1
  -4 -15  -2   27.27    5.97   2
   4 -15   2   20.54    4.14   3
   4  15   2   23.24    5.34   2
  -4 -16   2    3.06    2.67   2
  -4  16   2    3.77    2.71   1
  -3 -16   2   24.29    5.34   2
  -3 -16   2   25.32    3.32   3
  -2 -16   2   10.52    2.66   3
  -2 -16   2    6.94    2.92   2
  -1 -16   2  470.81   33.46   2
  -1 -16   2  461.80   27.22   3
  -1  16   2  452.25   33.94   2
   0 -16   2    8.15    2.63   3
   0 -16   2    7.57    2.37   2
   0  16   2    3.00    2.15   2
   1 -16   2  262.21   17.43   2
   1 -16   2  233.59   15.73   3
  -1 -16  -2  207.89   18.42   2
   1  16   2  217.01   18.50   2
  -2 -16  -2    2.28    2.12   2
   2 -16   2    2.16    1.85   3
   2 -16   2    1.21    1.27   2
   2  16   2    4.93    2.47   2
   3 -16   2   58.76    5.21   2
   3 -16   2   55.95    6.33   3
  -3 -16  -2   50.21    7.27   2
  -3  16  -2   63.48    5.54   1
   3  16   2   48.23    6.88   2
  -4 -16  -2    8.23    3.79   2
   4 -16   2    7.56    2.62   3
   4  16   2    6.15    3.15   2
  -4 -17   2    0.47    2.26   2
   4 -17  -2    3.60    1.97   3
  -3 -17   2  466.18   35.33   2
  -2 -17   2   63.48    5.89   3
  -2 -17   2   60.24    7.47   2
  -1 -17   2  105.39   10.07   2
  -1 -17   2  104.88    8.47   3
   0 -17   2   77.33    7.32   2
   0 -17   2   71.59    6.81   3
   0  17   2   59.09    7.44   2
   1 -17   2   82.43    7.83   3
   1 -17   2   82.05    7.79   2
  -1 -17  -2   94.46    9.35   2
   1  17   2   89.68    9.08   2
   2 -17   2    3.94    1.57   2
   2 -17   2    1.29    2.10   3
  -2 -17  -2    3.81    2.60   2
   2  17   2    2.31    1.98   2
   3 -17   2  332.38   21.92   3
  -3 -17  -2  345.27   26.62   2
   3 -17   2  346.58   23.40   2
   3  17   2  310.26   25.85   2
  -3 -18   2    2.88    2.53   2
  -2 -18   2   59.34    5.79   3
  -2 -18   2   60.37    7.45   2
  -1 -18   2  226.03   18.18   2
  -1 -18   2  225.93   15.12   3
   0 -18  -2    5.11    2.52   2
   0 -18   2   11.20    3.04   3
   0 -18   2    9.23    2.73   2
  -1 -18  -2  428.11   35.61   2
   1 -18   2  534.78   34.64   2
   1 -18   2  511.28   29.97   3
  -2 -18  -2  159.44   14.89   2
   2 -18   2  157.67   12.78   3
   2 -18   2  184.83   13.13   2
  -2 -19   2   11.73    3.78   2
  -1 -19   2  224.61   18.31   2
  -1 -19   2  230.40   15.35   3
   0 -19   2  108.07    9.16   3
   0 -19  -2   97.68   10.51   2
   0 -19   2  120.81   10.23   2
   1 -19   2  157.82   12.39   2
   1 -19   2  145.20   11.70   3
  -1 -19  -2  146.21   13.65   2
   7   0  -3   92.20    9.71   2
  -7   0   3   98.91    9.80   2
  -6   0   3    3.12    2.02   2
   6   0  -3    2.92    1.92   2
  -5   0   3 1185.55   77.83   2
   5   0  -3 1086.46   77.65   2
  -5   0   3 1189.32   76.45   1
  -4   0   3    8.58    2.25   2
  -4   0   3    4.63    1.88   1
   4   0  -3    4.80    1.75   2
   3   0  -3 1228.09   77.53   2
  -3   0   3 1281.47   77.63   2
  -3   0   3  983.09   75.57   1
  -2   0   3   14.09    2.28   1
  -2   0   3   15.66    2.24   2
  -2   0   3   17.26    2.36   2
   2   0  -3   14.26    2.22   1
   2   0  -3   17.02    2.31   2
  -1   0   3  499.17   34.12   2
   1   0  -3  507.92   34.14   2
   1   0  -3  493.31   33.59   1
  -1   0   3  525.95   34.21   2
   0   0  -3   17.76    2.03   2
   0   0   3   18.24    2.05   2
   1   0   3  692.05   44.18   2
  -1   0  -3  629.45   43.78   2
  -2   0  -3    9.35    1.46   2
   2   0   3    6.23    2.04   2
  -2   0  -3    8.21    1.36   2
   3   0   3 2189.69  146.77   2
  -3   0  -3 2252.78  145.37   2
  -4   0  -3    7.44    1.70   2
   4   0   3   11.99    2.54   2
  -5   0  -3  572.35   39.93   2
   5   0   3  606.13   40.85   2
   6   0   3    1.43    1.32   2
   7   0   3  475.10   34.19   2
  -7  -1   3  508.75   38.17   2
   7  -1  -3  551.12   38.51   2
   7   1  -3  502.71   38.34   2
  -7   1   3  554.78   38.34   2
   6  -1  -3    8.14    2.77   2
  -6  -1   3   11.99    3.26   2
   6   1  -3   15.73    3.64   2
  -6   1   3    7.98    2.77   2
  -5  -1   3  423.98   29.99   1
  -5  -1   3  449.28   30.46   2
   5  -1  -3  399.98   30.06   2
   5   1  -3  424.61   22.36   3
   5   1  -3  426.88   30.33   2
  -5   1   3  411.30   29.74   1
  -5   1   3  418.25   30.13   2
  -4  -1   3  187.30   14.62   1
   4  -1  -3  194.24   14.68   2
  -4  -1   3  185.54   14.67   2
   4   1  -3  179.15   14.58   2
  -4   1   3  222.67   14.83   1
  -4   1   3  184.30   14.56   2
  -3  -1   3  754.72   51.25   2
   3  -1  -3  811.69   50.25   1
   3  -1  -3  783.76   51.29   2
   3   1  -3  687.48   51.03   2
  -3   1   3  747.16   51.17   2
  -3   1   3  774.69   50.29   1
  -2  -1   3  472.37   33.13   1
  -2  -1   3  472.02   33.68   2
  -2  -1   3  497.48   33.70   2
   2   1  -3  461.30   32.90   1
   2   1  -3  461.94   33.61   2
  -2   1   3  619.10   34.14   2
   1  -1  -3 1907.02  122.70   2
   1  -1  -3 1810.38  120.22   1
  -1  -1   3 1892.94  122.61   2
  -1  -1   3 1946.74  122.61   2
   1   1  -3 1797.20  119.88   1
  -1   1   3 1834.76  122.65   2
   1   1  -3 1889.14  122.48   2
   0  -1  -3   48.08    4.06   2
   0   1   3   45.98    4.03   2
  -1  -1  -3  416.58   29.56   2
   1  -1   3  465.08   29.67   2
  -1   1  -3  464.02   29.41   2
   1   1   3  418.27   29.90   2
   2  -1   3    6.63    2.16   2
  -2   1  -3   11.45    1.48   2
  -2   1  -3   12.09    1.51   2
   2   1   3   20.31    3.21   2
   3  -1   3 1080.77   69.86   2
  -3  -1  -3 1041.43   69.14   2
  -3   1  -3 1066.07   68.76   2
   3   1   3  985.45   70.67   2
   4  -1   3  133.04    9.99   2
  -4   1  -3  135.86    9.35   2
   4   1   3   97.77   10.09   2
   5  -1   3  876.45   59.55   2
  -5  -1  -3  821.45   59.05   2
  -5   1  -3  913.95   59.01   2
   5   1   3  918.99   60.34   2
   6  -1   3  113.78    9.79   2
   6   1   3  112.26   10.24   2
   7  -1   3   64.30    6.87   2
   7   1   3   63.64    7.16   2
  -7  -2   3   14.48    3.90   2
   7  -2  -3   10.25    3.29   2
   7   2  -3   11.60    3.63   2
  -7   2   3    7.71    3.00   2
   6  -2  -3    6.16    2.33   2
  -6  -2   3    5.73    2.45   2
  -6   2   3    5.22    2.34   2
   6   2  -3    5.89    2.40   2
   5  -2  -3  470.33   32.29   2
  -5  -2   3  414.33   31.79   1
  -5  -2   3  410.70   32.08   2
   5   2  -3  414.47   32.12   2
  -5   2   3  495.67   32.34   2
  -5   2   3  515.94   32.10   1
  -4  -2   3  198.53   16.93   2
   4  -2  -3  247.62   17.31   2
  -4   2   3  255.50   17.30   2
  -4   2   3  252.61   17.10   1
   4   2  -3  195.82   16.89   2
   3  -2  -3  865.76   59.42   1
  -3  -2   3  910.83   59.54   1
  -3  -2   3  988.22   60.78   2
  -3  -2   3  921.14   60.80   2
  -3   2   3  856.54   60.58   2
   3   2  -3  919.69   60.76   2
  -3   2   3  877.87   59.52   1
   2  -2  -3   30.87    3.60   2
   2  -2  -3   29.97    3.58   1
  -2  -2   3   41.67    3.79   1
  -2  -2   3   42.07    3.74   2
   2   2  -3   40.67    3.65   2
  -2   2   3   27.68    3.37   2
  -2   2   3   27.55    3.42   2
  -2   2   3   25.97    3.46   1
   2   2  -3   42.89    3.67   1
   1  -2  -3  118.02    9.85   2
   1  -2  -3  117.11   10.00   1
  -1  -2   3  146.15    9.84   2
  -1  -2   3  140.78    9.83   2
   1   2  -3  142.75    9.69   1
   1   2  -3  145.65    9.71   2
  -1   2   3  121.16    9.87   2
   0  -2   3  326.36   24.27   2
   0  -2  -3  401.97   24.75   2
   0   2  -3  324.89   24.13   2
   0   2   3  397.71   24.78   2
   1  -2   3 3751.27  254.41   2
  -1  -2  -3 3692.09  252.54   2
  -1   2  -3 3865.39  252.37   2
   1   2   3 4072.57  256.02   2
  -1   2  -3 3977.63  252.29   2
  -2  -2  -3  175.38   15.32   2
   2  -2   3  203.59   15.73   2
  -2   2  -3  228.39   14.37   2
  -2   2  -3  233.23   14.36   2
   3  -2   3  186.13   12.88   2
  -3  -2  -3  152.19   12.73   2
  -3   2  -3  183.19   12.12   2
   4  -2   3   31.90    3.43   2
   4  -2   3   28.70    3.83   2
  -4  -2  -3   25.61    3.31   2
  -4   2  -3   30.32    3.01   2
   4   2   3   30.34    4.34   2
   5  -2   3  120.77    9.43   2
  -5  -2  -3  107.74    9.27   2
   5   2   3  117.43   10.56   2
   6   2   3    8.12    2.81   2
   7  -2   3  264.45   19.92   2
   7   2   3  259.76   20.91   2
   7  -3  -3  272.14   20.84   2
  -7  -3   3  237.24   20.56   2
  -7   3   3  294.83   20.87   2
   7   3  -3  239.15   20.83   2
  -6  -3   3   54.92    6.68   2
   6  -3  -3   66.29    6.96   2
   6  -3  -3   64.14    4.47   3
   6   3  -3   51.37    6.58   2
  -6   3   3   68.37    6.94   2
   5  -3  -3  193.35   15.90   2
  -5  -3   3  213.72   16.40   1
  -5  -3   3  206.45   16.17   2
   5   3  -3  216.51   16.34   2
  -5   3   3  202.58   15.85   2
  -5   3   3  199.90   15.72   1
  -4  -3   3  339.70   22.83   2
   4  -3  -3  299.44   22.47   2
  -4  -3   3  308.89   22.46   1
   4   3  -3  321.73   22.72   2
  -4   3   3  302.06   22.36   2
  -4   3   3  300.96   22.09   1
  -3  -3   3  201.33   16.07   2
  -3  -3   3  213.98   16.29   2
  -3  -3   3  206.06   15.98   1
   3   3  -3  201.84   12.01   3
  -3   3   3  263.18   16.56   2
  -3   3   3  267.77   16.56   1
   3   3  -3  215.00   16.30   2
  -2  -3   3   32.98    3.42   1
  -2  -3   3   35.54    3.54   2
  -2  -3   3   32.15    3.38   2
   2   3  -3   33.19    3.36   1
   2   3  -3   32.19    3.40   2
   1  -3  -3 4698.88  304.13   2
  -1  -3   3 4655.13  306.61   2
   1  -3  -3 4415.84  299.35   1
  -1  -3   3 4834.24  306.58   2
   1   3  -3 4936.81  243.51   3
  -1   3   3 4573.68  307.53   2
   1   3  -3 4740.71  303.91   2
   1   3  -3 4422.85  298.08   1
   0  -3   3  226.35   15.31   2
   0  -3   3  221.27   15.31   2
   0   3  -3  223.79   15.11   2
   1  -3   3    9.41    1.18   2
  -1   3  -3    7.37    0.85   2
   2  -3   3   65.59    6.06   2
  -2  -3  -3   75.85    6.76   2
   2   3   3   75.00    7.60   2
  -3  -3  -3 1602.43  101.04   2
   3  -3   3 1546.47  100.10   2
   3   3   3 1361.16  102.41   2
  -3   3  -3 1645.91   99.45   2
  -3   3  -3 1452.41   99.32   2
   4  -3   3   27.30    3.03   2
   4  -3   3   26.45    3.55   2
  -4   3  -3   26.71    2.64   2
   5  -3   3  254.81   17.70   2
  -5  -3  -3  232.87   17.96   2
   5   3   3  243.62   19.52   2
   6  -3   3  115.92    9.86   2
   6   3   3  124.33   11.58   2
   7  -3   3    2.52    1.67   2
   7   3   3    5.48    2.71   2
  -7  -4   3    6.83    3.10   2
   7  -4  -3    6.85    2.80   2
   7   4  -3    9.77    3.52   2
  -7   4   3    9.09    3.05   2
   6  -4  -3  205.27   16.21   2
  -6  -4   3  184.90   16.12   2
   6  -4  -3  205.38   11.97   3
  -6   4   3  206.06   15.93   2
   6   4  -3  190.90   16.42   2
  -5  -4   3  272.15   21.78   2
   5  -4  -3  298.73   21.84   2
   5   4  -3  295.70   22.13   2
  -5   4   3  295.62   21.57   2
  -5   4   3  303.43   21.46   1
  -4  -4   3   12.51    2.94   1
  -4  -4   3   14.36    2.91   2
   4   4  -3   14.45    3.01   2
  -4   4   3    9.62    2.36   2
  -4   4   3   12.29    2.68   1
   3  -4  -3 2754.48  172.64   1
  -3  -4   3 2812.10  176.29   2
  -3  -4   3 2527.69  172.32   1
  -3  -4   3 2642.98  176.34   2
   3   4  -3 2780.59  176.43   2
   3   4  -3 2738.92  139.99   3
  -3   4   3 2642.59  172.51   1
  -3   4   3 2578.64  176.17   2
   2  -4  -3  693.68   47.07   1
  -2  -4   3  726.46   47.57   2
  -2  -4   3  737.54   47.70   2
  -2  -4   3  684.12   46.44   1
   2   4  -3  741.95   47.69   2
  -2   4   3  681.55   47.71   2
   2   4  -3  718.56   46.49   1
  -2   4   3  648.84   46.92   1
   2   4  -3  754.78   37.62   3
   1  -4  -3  820.56   52.69   2
  -1  -4   3  773.45   52.17   2
  -1  -4   3  750.11   52.19   2
   1  -4  -3  776.91   52.06   1
  -1   4   3  841.90   52.69   2
   1   4  -3  811.22   41.79   3
   1   4  -3  729.72   50.86   1
   1   4  -3  792.74   52.01   2
   0  -4   3   46.63    4.27   2
   0  -4  -3   68.09    5.18   2
   0  -4  -3   63.90    5.95   1
   0   4  -3   51.54    4.12   2
   0   4   3   63.04    5.16   2
   1  -4   3 2540.36  173.14   2
   1   4   3 2756.11  174.04   2
  -2  -4  -3   19.64    3.21   2
   2   4   3   19.55    4.16   2
  -3  -4  -3  372.22   26.60   2
   3  -4   3  398.09   25.19   2
   3   4   3  341.55   27.92   2
  -4  -4  -3  527.40   34.34   2
   4  -4   3  489.42   33.08   2
   4   4   3  450.85   35.52   2
   5  -4   3  250.26   18.61   2
  -5  -4  -3  272.59   19.55   2
   5   4   3  263.57   21.13   2
   6  -4   3    2.49    1.42   2
   6   4   3    1.93    2.00   2
   7  -4   3  348.00   24.32   2
   7   4   3  310.63   26.05   2
  -7  -5   3  131.93   12.72   2
   7   5  -3  139.16   13.25   2
  -7   5   3  139.04   12.17   2
   6  -5  -3  104.85    7.18   3
  -6  -5   3  102.70    9.97   2
   6   5  -3  103.25   10.23   2
  -6   5   3   97.72    9.28   2
  -5  -5   3  356.24   26.92   2
  -5   5   3  384.95   26.34   1
   5   5  -3  363.16   27.19   2
  -5   5   3  370.66   26.46   2
  -4  -5   3  137.99   11.37   1
  -4  -5   3  148.31   11.48   2
  -4   5   3  133.04   10.98   1
  -4   5   3  130.65   10.90   2
   4   5  -3  138.38   11.47   2
  -3  -5   3  559.15   38.61   2
  -3  -5   3  516.98   37.61   1
  -3  -5   3  584.22   38.51   2
   3  -5  -3  569.70   38.02   1
  -3   5   3  576.78   38.05   1
   3   5  -3  564.55   29.75   3
   3   5  -3  571.57   38.70   2
  -3   5   3  563.40   38.47   2
  -2  -5   3   26.74    2.88   1
  -2  -5   3   28.93    3.09   2
  -2  -5   3   28.36    3.16   2
   2   5  -3   27.53    3.11   2
   2   5  -3   26.92    2.09   3
  -1  -5   3 2026.02  136.65   2
   1  -5  -3 2141.52  137.24   2
   1  -5  -3 1926.45  134.56   1
  -1  -5   3 2107.22  136.60   2
  -1   5   3 2010.06  137.05   2
   1   5  -3 2153.03  109.39   3
   1   5  -3 2317.27  136.51   2
   1   5  -3 2026.50  136.52   2
   1   5  -3 2072.42  133.43   1
   0  -5   3   50.81    4.01   2
   0   5  -3   50.47    3.69   2
   1  -5   3   64.19    4.67   2
   1  -5   3   67.36    4.68   2
  -2  -5  -3  728.20   49.97   2
   2  -5   3  702.26   47.52   2
   2   5   3  746.63   51.06   2
  -3  -5  -3  743.91   49.36   2
   3  -5   3  675.03   47.18   2
   3   5   3  736.07   50.96   2
   4  -5   3   36.99    3.89   2
  -4  -5  -3   25.26    4.06   2
   4  -5   3   37.61    3.34   2
   5  -5   3  626.04   40.75   2
  -5  -5  -3  593.03   41.92   2
   5   5   3  581.68   43.72   2
   6  -5   3  120.68    9.69   2
   6   5   3  111.87   11.84   2
  -7  -6   3   15.17    4.24   2
   7   6  -3   19.29    4.97   2
   6  -6  -3  280.85   16.42   3
  -6  -6   3  264.99   21.32   2
  -6   6   3  269.20   20.49   2
   6   6  -3  272.39   21.85   2
  -5  -6   3  700.56   50.86   2
  -5   6   3  709.23   50.15   2
   5   6  -3  776.40   51.53   2
  -5   6   3  756.83   49.65   1
  -4  -6   3   64.57    6.28   2
  -4  -6   3   65.02    6.41   1
  -4   6   3   50.94    5.74   1
  -4   6   3   49.85    5.54   2
   4   6  -3   70.39    6.65   2
  -3  -6   3  328.73   21.43   2
   3  -6  -3  290.64   21.11   1
  -3  -6   3  280.26   20.70   1
  -3  -6   3  293.36   21.37   2
   3   6  -3  300.53   21.52   2
  -3   6   3  290.74   21.16   2
  -3   6   3  297.08   21.18   1
  -2  -6   3  138.90   10.04   1
  -2  -6   3  150.25   10.75   2
   2  -6  -3  126.20   10.94   1
  -2  -6   3  159.19   10.96   2
   2   6  -3  149.67   10.85   2
   2   6  -3  157.13    8.23   3
  -2   6   3  122.48   10.91   1
  -2   6   3  128.75   10.81   2
  -1  -6   3   11.89    1.74   2
  -1  -6   3   11.61    1.78   2
   1   6  -3   12.78    1.73   2
   1   6  -3   11.57    1.65   1
   1   6  -3   13.04    1.78   2
   0  -6   3  451.41   33.13   2
   0  -6  -3  520.87   34.46   1
   0   6   3  533.67   34.39   2
   1  -6   3 1814.92  114.83   2
   1  -6   3 1753.91  114.84   2
   1  -6   3 1715.07   93.06   3
   1   6   3 1767.94  117.17   2
  -2  -6  -3   72.15    7.73   2
   2  -6   3   95.73    5.85   3
   2   6   3   66.05    8.14   2
   3  -6   3  272.24   17.34   2
  -3  -6  -3  226.01   19.42   2
   3   6   3  272.51   21.16   2
   4  -6   3  510.30   32.94   2
  -4  -6  -3  515.51   35.18   2
   4  -6   3  473.55   33.41   2
   4   6   3  460.48   36.20   2
  -5  -6  -3  199.70   15.25   2
   5  -6   3  171.37   13.33   2
   5   6   3  185.64   16.75   2
  -6  -6  -3    6.72    2.73   2
   6  -6   3    3.59    1.57   2
   6   6   3    5.88    3.08   2
  -7  -7   3  388.68   30.19   2
   7   7  -3  400.43   31.12   2
   6  -7  -3    2.05    1.34   3
  -6  -7   3    4.23    2.47   2
   6   7  -3    4.47    2.73   2
  -6   7   3    1.41    1.67   2
  -5  -7   3   47.87    5.74   2
  -5   7   3   41.19    5.07   1
   5   7  -3   43.01    5.79   2
  -5   7   3   36.53    4.66   2
  -4  -7   3 1016.28   65.92   2
  -4  -7   3  957.06   64.32   1
   4   7  -3 1019.54   66.27   2
  -4   7   3  939.85   64.12   1
  -4   7   3  917.89   65.03   2
  -3  -7   3  100.53    8.80   2
  -3  -7   3  100.60    8.62   2
  -3  -7   3   97.80    8.32   1
   3  -7  -3  110.86    8.95   1
  -3   7   3  108.71    8.71   2
   3   7  -3  102.69    8.97   2
  -3   7   3  111.01    9.02   1
  -2  -7   3   17.88    1.92   1
  -2  -7   3   17.69    2.51   2
  -2  -7   3   16.92    2.50   2
   2   7  -3   21.20    2.73   2
   2   7  -3   18.16    1.77   3
   1  -7  -3  343.43   24.46   1
  -1  -7   3  338.49   23.83   2
  -1  -7   3  376.49   23.88   2
   1   7  -3  333.50   23.68   2
   1   7  -3  351.03   23.15   1
  -1   7   3  347.19   24.50   2
   0  -7  -3  725.98   50.96   1
   0  -7   3  794.42   50.38   2
   0  -7   3  781.45   41.09   3
   0  -7   3  773.53   50.32   2
   0   7  -3  780.20   48.85   1
   0   7   3  717.42   51.47   2
   1  -7   3  552.51   29.16   3
   1   7   3  503.92   37.10   2
  -2  -7  -3  548.71   37.64   2
   2  -7   3  473.74   28.97   3
   2   7   3  562.89   38.64   2
   3  -7   3  351.03   22.31   3
  -3  -7  -3  383.46   28.91   2
   3   7   3  461.33   30.73   2
   4  -7   3    4.50    1.05   2
  -4  -7  -3    4.90    2.36   2
   4   7   3    2.05    1.97   2
  -5  -7  -3  274.89   20.94   2
   5  -7   3  295.15   18.75   2
   5   7   3  215.96   21.70   2
   6  -7   3  474.45   31.53   2
  -6  -7  -3  475.72   33.71   2
   6   7   3  410.61   35.05   2
  -7  -8   3   20.42    5.22   2
   7   8  -3   16.00    4.95   2
   6  -8  -3  140.49    9.76   3
  -6  -8   3  134.04   12.69   2
   6   8  -3  130.59   13.06   2
  -6   8   3  134.40   11.41   2
  -5  -8   3  309.13   24.97   2
   5   8  -3  338.70   25.77   2
  -5   8   3  351.14   24.34   1
  -5   8   3  333.77   24.08   2
  -4  -8   3  171.82   15.16   2
  -4  -8   3  177.35   14.78   1
  -4   8   3  222.85   15.31   1
  -4   8   3  211.89   14.94   2
   4   8  -3  186.69   15.75   2
  -3  -8   3  346.09   23.65   2
  -3  -8   3  327.82   22.67   1
  -3  -8   3  333.69   23.79   2
   3  -8  -3  320.89   23.26   1
  -3   8   3  322.75   23.42   1
   3   8  -3  353.57   24.18   2
  -3   8   3  306.30   23.32   2
  -2  -8   3 1216.99   76.03   2
  -2  -8   3 1143.70   76.09   2
   2  -8  -3 1106.59   74.88   1
  -2   8   3 1087.96   76.11   2
   2   8  -3 1166.46   76.14   2
  -2   8   3 1134.20   75.27   1
  -1  -8   3   60.58    4.97   2
  -1  -8   3   57.25    4.20   3
  -1  -8   3   56.78    4.96   2
   1   8  -3   53.57    4.78   2
   0  -8   3  296.43   21.17   2
   0  -8  -3  370.70   22.93   1
   0  -8   3  295.38   21.19   2
   0  -8   3  299.51   17.78   3
   0   8   3  339.33   22.78   2
   0   8  -3  296.75   20.37   1
   1  -8   3  115.80    7.66   3
   1  -8   3  108.18    7.96   2
   1  -8   3  117.64    7.88   2
   1   8   3  123.19   10.54   2
  -2  -8  -3   58.27    7.07   2
   2  -8   3   80.93    5.52   3
   2   8   3   61.29    7.70   2
   3  -8   3  857.88   45.43   3
  -3  -8  -3  756.32   57.34   2
   3   8   3  876.44   58.81   2
  -4  -8  -3  361.25   27.30   2
   4  -8   3  345.81   24.07   2
   4  -8   3  357.57   21.10   3
   4   8   3  383.09   28.48   2
   5  -8   3   86.60    7.06   2
  -5  -8  -3  101.06    9.83   2
   5   8   3   90.83   10.66   2
  -6  -8  -3   63.21    7.50   2
   6  -8   3   50.03    5.05   2
   6   8   3   55.94    8.33   2
  -6  -9   3   14.32    4.10   2
   6  -9  -3   13.29    2.90   3
   6   9  -3   14.77    4.48   2
  -5  -9   3  139.51   12.24   2
  -5   9   3  121.16   10.69   2
   5   9  -3  135.19   12.67   2
  -5   9   3  127.12   11.16   1
  -4  -9   3  262.86   20.81   2
  -4  -9   3  306.46   20.30   1
  -4   9   3  265.48   20.02   2
   4   9  -3  271.37   21.39   2
  -4   9   3  267.72   20.24   1
  -3  -9   3  492.62   34.80   1
  -3  -9   3  505.15   36.31   2
  -3  -9   3  477.07   36.48   2
   3   9  -3  512.93   36.92   2
  -3   9   3  573.43   36.45   2
  -3   9   3  594.53   36.35   1
  -2  -9   3  732.92   49.46   2
  -2  -9   3  678.31   49.50   2
   2  -9  -3  727.36   48.94   1
  -2   9   3  813.57   50.04   2
   2   9  -3  683.96   49.52   2
  -2   9   3  766.03   49.62   1
  -1  -9   3  688.98   45.45   2
  -1  -9   3  689.43   36.80   3
   1  -9  -3  670.77   45.54   1
  -1  -9   3  697.30   45.60   2
  -1   9   3  679.28   46.26   2
   1   9  -3  643.11   45.22   2
   0  -9   3  837.72   64.74   2
   0  -9   3 1072.48   65.03   2
   0  -9  -3  959.95   65.03   1
   0  -9   3 1058.26   53.08   3
   0   9  -3 1033.98   63.10   1
   0   9   3  944.16   66.43   2
   1  -9   3   10.72    1.48   2
   1  -9   3    8.05    1.85   3
   1  -9   3    9.31    1.13   2
   1   9   3    6.90    2.61   2
  -2  -9  -3  624.28   42.79   2
   2  -9   3  558.58   33.27   3
   2   9   3  620.65   43.59   2
   3  -9   3  171.51   11.54   3
  -3  -9  -3  173.08   15.27   2
   3   9   3  195.98   16.25   2
  -4  -9  -3   73.20    8.67   2
   4  -9   3   83.45    6.44   3
   4   9   3   75.79    9.10   2
  -5  -9  -3  410.99   31.72   2
   5  -9   3  440.79   24.75   3
   5   9   3  404.71   32.92   2
  -6  -9  -3   61.50    7.80   2
   6  -9   3   53.12    5.06   2
   6   9   3   53.67    8.43   2
  -6 -10   3  162.70   15.33   2
   6 -10  -3  180.48   12.12   3
   6  10  -3  157.91   15.92   2
  -5  10   3   35.46    4.82   1
  -5  10   3   35.82    4.41   2
   5  10  -3   21.45    5.33   2
  -4 -10   3   41.66    5.42   2
   4  10  -3   41.36    5.80   2
  -4  10   3   37.31    4.91   1
  -4  10   3   40.63    4.67   2
  -3 -10   3  231.57   17.23   2
  -3  10   3  208.49   16.53   2
   3  10  -3  239.25   17.65   2
  -3  10   3  209.31   16.73   1
  -2 -10   3  356.97   25.30   2
  -2 -10   3  345.19   24.91   2
  -2 -10   3  354.55   19.86   3
  -2  10   3  349.65   25.32   2
   2  10  -3  366.02   25.32   2
  -1 -10   3   20.46    2.52   3
  -1 -10   3   20.84    2.76   2
  -1 -10   3   17.14    2.53   2
   1  10  -3   20.32    2.55   2
   0 -10   3 1190.10   76.48   2
   0 -10   3 1143.67   62.23   3
   0 -10  -3 1137.75   76.19   1
   0  10   3 1162.96   78.29   2
   1 -10   3  745.32   41.70   3
   1 -10   3  794.44   50.00   2
   1 -10   3  823.78   50.30   2
   1  10   3  661.48   52.84   2
   2 -10   3  594.00   33.00   3
  -2 -10  -3  584.32   41.92   2
   2  10   3  581.02   42.62   2
  -3 -10  -3    8.22    3.12   2
   3  10   3   10.37    3.43   2
  -4 -10  -3  208.38   18.80   2
   4 -10   3  219.89   14.47   3
   4  10   3  254.75   19.98   2
   5 -10   3   16.34    3.18   3
  -5 -10  -3   16.34    4.62   2
   5  10   3   16.95    5.09   2
  -6 -10  -3    6.58    3.54   2
   6  10   3    4.23    3.05   2
  -6 -11   3    4.02    3.21   2
   6 -11  -3    1.40    1.71   3
   6  11  -3    2.68    2.99   2
  -5 -11   3    6.14    3.06   2
  -5  11   3    6.82    2.32   2
  -5  11   3    8.89    2.92   1
   5  11  -3    4.11    2.90   2
  -4 -11   3  512.12   38.52   2
  -4  11   3  539.21   37.31   1
   4  11  -3  524.49   39.14   2
  -4  11   3  567.76   37.50   2
  -3 -11   3   10.66    2.90   2
   3  11  -3   12.03    3.22   2
  -2 -11   3  123.92    9.91   2
  -2 -11   3  121.81   10.19   2
  -2 -11   3  123.99    7.91   3
   2  11  -3  112.75   10.00   2
  -2  11   3  116.44   10.11   2
  -1 -11   3  815.93   51.35   2
  -1 -11   3  784.27   41.49   3
  -1 -11   3  744.01   51.02   2
   1  11  -3  732.03   50.64   2
  -1  11   3  715.36   51.81   2
   0 -11   3  157.65   10.51   3
   0 -11   3  161.44   11.85   2
   0 -11  -3  160.70   12.73   1
   0  11   3  163.12   13.58   2
   1 -11   3    2.12    1.37   3
   1 -11   3    2.67    0.89   2
  -1 -11  -3   10.33    2.75   1
   1 -11   3    1.20    0.87   2
   1  11   3    9.43    3.11   2
  -2 -11  -3  792.73   54.88   2
   2 -11   3  765.20   43.44   3
   2  11   3  792.75   55.57   2
  -3 -11  -3  275.70   21.65   2
   3 -11   3  260.22   16.70   3
   3  11   3  266.61   21.81   2
  -4 -11  -3   10.16    3.81   2
   4 -11   3    8.31    2.46   3
   4  11   3   12.35    4.11   2
   5 -11   3    2.42    1.57   3
  -5 -11  -3    3.22    2.91   2
   5  11   3    5.36    3.20   2
  -6 -12   3  489.49   35.78   2
   6 -12  -3  499.70   27.95   3
   6  12  -3  374.03   35.06   2
  -5 -12   3   41.08    6.41   2
   5  12  -3   37.54    6.62   2
  -4 -12   3   28.37    4.82   2
  -4  12   3   29.54    4.09   2
   4  12  -3   23.22    5.28   2
  -4  12   3   24.61    4.10   1
  -3 -12   3  130.40   11.74   2
  -3  12   3  135.51   11.15   2
   3  12  -3  125.45   11.83   2
  -3  12   3  133.90   11.65   1
  -2 -12   3 1209.78   81.50   2
  -2 -12   3 1266.92   65.02   3
  -2  12   3 1219.26   81.41   2
   2  12  -3 1147.49   81.19   2
  -1 -12   3   44.11    4.83   2
  -1 -12   3   43.48    4.17   3
   1  12  -3   40.58    4.21   2
   0 -12   3  118.14    8.52   3
   0 -12   3  116.76    9.22   2
   0  12   3  115.97   10.91   2
   1 -12   3  199.74   13.67   2
   1 -12   3  194.77   12.84   3
  -1 -12  -3  202.29   15.19   1
   1 -12   3  191.33   13.65   2
   1  12   3  174.40   16.35   2
  -2 -12  -3   22.98    4.82   2
   2  12   3   26.67    4.85   2
   3 -12   3   42.60    4.54   3
  -3 -12  -3   36.93    5.78   2
   3  12   3   32.06    5.56   2
  -4 -12  -3 1229.79   87.11   2
   4 -12   3 1291.65   69.34   3
   4  12   3 1263.79   87.28   2
  -5 -12  -3   25.52    6.12   2
   5  12   3   28.27    6.36   2
  -5 -13   3   47.35    7.17   2
  -4 -13   3  512.55   37.25   2
   4  13  -3  434.86   36.90   2
  -4  13   3  557.10   35.92   1
  -3 -13   3  129.34   12.54   2
  -3 -13   3  145.85    9.19   3
  -3  13   3  161.20   13.00   1
   3  13  -3  111.38   12.20   2
  -3  13   3  165.78   12.33   2
  -2 -13   3   31.10    4.43   2
  -2 -13   3   26.14    3.20   3
  -2  13   3   24.70    4.01   2
   2  13  -3   27.67    4.20   2
  -1 -13   3    0.60    1.19   3
  -1 -13   3    0.88    1.28   2
  -1  13   3    1.07    1.57   2
   0 -13   3  281.05   17.40   3
   0 -13   3  282.36   20.02   2
   0  13   3  270.23   21.94   2
   1 -13   3   71.05    5.89   2
   1 -13   3   69.78    6.42   3
   2 -13   3  788.90   44.06   3
  -2 -13  -3  793.63   54.81   2
   2  13   3  752.33   55.06   2
   3 -13   3   12.26    2.93   3
  -3 -13  -3    5.91    3.03   2
   3  13   3    7.08    3.10   2
   4 -13   3    6.93    2.39   3
  -4 -13  -3    3.29    2.72   2
   4  13   3    4.29    2.86   2
  -5 -13  -3  154.81   16.14   2
   5 -13   3  191.48   13.06   3
   5  13   3  171.54   16.66   2
  -5 -14   3  150.58   15.09   2
  -4 -14   3    6.59    3.18   2
  -3 -14   3    2.14    2.00   2
  -3 -14   3    2.58    1.45   3
  -3  14   3    5.54    2.29   2
  -2 -14   3  195.14   12.82   3
  -2 -14   3  195.85   16.29   2
  -2  14   3  211.89   16.44   2
  -1 -14   3    9.78    2.56   3
  -1 -14   3    7.51    2.45   2
  -1  14   3   13.01    3.52   2
   0 -14   3  623.05   41.85   2
   0 -14   3  614.88   35.07   3
   0  14   3  587.98   43.96   2
   1 -14   3    2.30    1.26   2
   1 -14   3    4.45    2.09   3
   1  14   3    2.47    2.23   2
  -2 -14  -3  184.65   15.45   2
   2 -14   3  164.09   12.09   2
   2 -14   3  162.59   12.39   3
   2  14   3  194.45   15.91   2
  -2  14  -3  169.57   11.90   1
   3 -14   3   95.03    8.33   3
  -3 -14  -3   92.86   10.00   2
   3  14   3   81.84    9.58   2
  -3  14  -3   96.72    6.66   1
  -4 -14  -3  269.44   22.83   2
   4 -14   3  270.02   18.21   3
   4  14   3  279.03   22.81   2
  -4 -15   3  309.61   25.32   2
  -3 -15   3    1.44    1.44   3
  -3 -15   3    1.47    2.07   2
  -2 -15   3  169.96   14.66   2
  -2 -15   3  155.47   11.36   3
  -2  15   3  188.31   15.00   2
  -1 -15   3   14.50    3.15   3
  -1 -15   3   13.35    3.30   2
  -1  15   3   16.27    4.13   2
   0 -15   3  471.36   33.72   2
   0 -15   3  468.41   28.62   3
   0  15   3  508.94   36.32   2
  -1 -15  -3   52.20    6.64   2
   1 -15   3   55.04    5.12   2
   1 -15   3   48.53    5.68   3
   1  15   3   48.21    6.89   2
  -2 -15  -3  390.84   29.58   2
   2 -15   3  371.91   24.18   3
   2 -15   3  384.05   26.31   2
   2  15   3  407.05   29.94   2
  -3 -15  -3    2.30    2.42   2
   3 -15   3    5.09    2.38   3
  -3  15  -3    5.32    1.45   1
   3  15   3    5.04    2.72   2
   4 -15   3   20.75    4.42   3
  -4 -15  -3   31.20    6.43   2
   4  15   3   31.08    5.64   2
  -4 -16   3   73.00    9.34   2
  -3 -16   3   11.48    3.86   2
  -2 -16   3  502.75   36.76   2
  -1 -16   3   14.59    3.33   3
  -1 -16   3   21.11    3.72   2
  -1  16   3   10.10    3.72   2
   0 -16   3  143.97   11.62   3
   0 -16   3  168.52   13.08   2
   0  16   3  163.97   14.94   2
   1 -16   3   24.83    4.58   3
  -1 -16  -3   29.05    4.88   2
   1 -16   3   25.36    3.41   2
   1  16   3   23.72    5.24   2
  -2 -16  -3   40.10    5.95   2
   2 -16   3   29.89    5.32   3
   2  16   3   38.36    5.75   2
   3 -16   3    7.63    2.98   3
  -3 -16  -3    5.60    2.99   2
   3  16   3    4.07    2.67   2
  -3 -17   3   15.10    4.44   2
  -2 -17   3   98.24    8.11   3
  -2 -17   3  100.92   10.36   2
  -1 -17   3    0.74    1.77   2
  -1 -17   3   -0.21    1.69   3
   0 -17   3  296.08   19.75   3
   0 -17   3  299.20   22.51   2
   0  17   3  314.86   24.64   2
   1 -17   3   17.36    2.93   2
   1 -17   3   13.23    3.76   3
  -2 -17  -3  278.04   22.90   2
   2 -17   3  292.21   19.61   3
   2  17   3  285.29   22.97   2
  -2 -18   3  134.59   10.54   3
  -2 -18   3  153.31   13.70   2
  -1 -18   3    2.81    2.26   2
  -1 -18   3    4.99    2.42   3
   0 -18   3  360.96   25.73   2
   0 -18   3  331.23   22.20   3
   1 -18   3    4.99    1.98   2
  -1 -18  -3    6.73    3.11   2
   1 -18   3    4.76    2.59   3
   7   0  -4    0.01    1.77   2
  -7   0   4    1.15    2.13   2
  -6   0   4  193.20   15.52   2
   6   0  -4  174.69   15.22   2
   5   0  -4    2.49    1.65   2
  -5   0   4    0.50    1.47   2
   4   0  -4  857.88   57.16   2
  -4   0   4  820.29   57.06   2
  -3   0   4    1.60    1.32   1
   3   0  -4    1.20    1.15   1
  -3   0   4    1.82    1.21   2
  -2   0   4  841.81   56.33   2
  -2   0   4  805.70   55.53   1
   2   0  -4  820.02   55.20   1
  -2   0   4  888.56   56.42   2
  -1   0   4    5.06    1.45   2
  -1   0   4    6.34    1.59   2
   1   0  -4    9.22    2.04   1
   0   0   4 1624.57  106.91   2
   1   0   4    6.19    1.53   2
   2   0   4   75.36    7.24   2
  -2   0  -4   72.75    6.10   2
   3   0   4    5.38    2.34   2
  -3   0  -4    7.09    1.56   2
   4   0   4  689.27   47.13   2
  -4   0  -4  675.18   45.66   2
   5   0   4    3.62    1.85   2
   6   0   4  213.05   16.78   2
   7  -1  -4   86.09    9.47   2
  -7  -1   4   90.70    9.64   2
   7   1  -4   98.07    9.94   2
  -7   1   4   91.53    9.62   2
  -6  -1   4  141.12   12.34   2
   6  -1  -4  128.70   12.08   2
  -6   1   4  153.09   12.53   2
   6   1  -4  125.06   12.05   2
  -5  -1   4    0.23    1.35   2
   5  -1  -4    2.58    1.67   2
  -5   1   4    1.40    1.64   2
   5   1  -4    0.91    1.50   2
  -4  -1   4  392.90   26.89   2
  -4  -1   4  372.49   26.52   1
   4   1  -4  372.71   26.71   2
  -4   1   4  367.95   26.44   1
  -4   1   4  354.31   26.64   2
   3  -1  -4    4.67    1.76   1
  -3  -1   4    8.73    2.27   1
  -3  -1   4    9.26    2.22   2
  -3   1   4    3.89    1.66   2
   3   1  -4    7.96    2.02   1
  -3   1   4    4.38    1.78   1
  -2  -1   4 2581.36  163.60   2
   2  -1  -4 2541.03  160.20   1
  -2  -1   4 2299.04  160.13   1
  -2  -1   4 2471.28  163.59   2
   2   1  -4 2455.17  159.94   1
  -2   1   4 2493.93  163.64   2
  -2   1   4 2452.39  160.58   1
  -2   1   4 2634.48  163.78   2
  -1  -1   4   59.59    5.01   2
   1  -1  -4   40.28    4.98   1
  -1  -1   4   61.73    5.05   2
   1   1  -4   57.79    5.13   1
   0  -1   4   24.48    2.57   2
   0   1   4   17.55    2.42   2
   1  -1   4   45.21    4.40   2
   1   1   4   57.58    4.92   2
  -2  -1  -4 1917.39  119.75   2
   2  -1   4 1746.24  120.25   2
  -2   1  -4 1796.54  118.78   2
   2   1   4 1796.98  120.79   2
  -3  -1  -4   16.38    2.36   2
   3   1   4   15.04    3.77   2
  -4  -1  -4  328.08   23.87   2
   4  -1   4  361.04   24.79   2
   4   1   4  342.76   25.60   2
  -4   1  -4  347.06   23.60   2
   5  -1   4   10.87    2.65   2
   5   1   4   10.91    2.98   2
   6  -1   4   49.60    5.71   2
   6   1   4   61.94    6.76   2
   7  -2  -4  103.66   10.70   2
  -7  -2   4  106.69   10.84   2
   7   2  -4  116.07   11.28   2
  -7   2   4  114.67   10.95   2
  -6  -2   4  465.07   33.65   2
   6  -2  -4  442.07   33.44   2
   6   2  -4  455.71   33.69   2
  -6   2   4  482.26   33.62   2
  -5  -2   4   56.18    6.06   2
  -5   2   4   38.52    5.33   2
   5   2  -4   54.22    5.95   2
  -4  -2   4  443.54   31.18   2
  -4  -2   4  402.46   30.57   1
  -4   2   4  470.59   31.23   2
  -4   2   4  467.29   30.92   1
   4   2  -4  412.74   30.97   2
  -3  -2   4   76.22    7.03   1
  -3  -2   4   83.57    7.12   2
   3  -2  -4   71.41    6.90   1
  -3   2   4   67.03    6.75   2
   3   2  -4   81.43    7.03   2
   3   2  -4   81.97    6.89   1
   2  -2  -4   18.88    2.96   1
  -2  -2   4   20.18    2.94   1
  -2  -2   4   24.03    2.92   2
  -2  -2   4   24.17    2.96   2
  -2   2   4   18.25    3.23   1
  -2   2   4   16.17    2.72   2
   2   2  -4   24.80    3.00   1
  -1  -2   4   11.88    1.89   2
  -1  -2   4   12.28    1.88   2
   1   2  -4   10.94    1.94   1
   0  -2   4 3245.45  211.87   2
   0  -2  -4 3093.46  206.96   1
   0   2   4 3313.67  213.43   2
   1  -2   4    6.44    1.38   2
   1   2   4    4.82    1.51   2
  -1   2  -4    6.19    1.22   2
   2  -2   4  153.65   12.35   2
  -2  -2  -4  154.21   12.33   2
  -2   2  -4  162.54   10.92   2
   2   2   4  159.08   13.21   2
   3  -2   4  257.62   19.38   2
  -3  -2  -4  270.97   19.02   2
  -3   2  -4  270.02   17.91   2
   3   2   4  253.52   21.08   2
   4  -2   4  250.15   18.89   2
  -4  -2  -4  266.35   18.86   2
  -4   2  -4  268.76   18.11   2
   4   2   4  265.14   20.72   2
   5   2   4    5.49    2.46   2
   6  -2   4  402.94   29.87   2
   6   2   4  447.99   31.62   2
  -7  -3   4    1.18    2.16   2
   7   3  -4    1.91    2.21   2
  -7   3   4    6.23    2.80   2
  -6  -3   4   54.68    6.81   2
  -6   3   4   55.88    6.49   2
   6   3  -4   55.19    6.84   2
  -5  -3   4  246.20   18.65   2
   5   3  -4  240.24   18.63   2
  -5   3   4  226.65   18.18   2
  -4  -3   4  650.69   43.31   2
  -4  -3   4  587.49   42.34   1
  -4   3   4  650.19   43.14   2
  -4   3   4  628.02   42.51   1
   4   3  -4  599.63   43.07   2
  -3  -3   4  204.71   15.37   1
  -3  -3   4  235.05   15.88   2
  -3   3   4  162.99   15.17   2
  -3   3   4  172.50   15.32   1
   3   3  -4  238.37   15.81   2
   3   3  -4  234.41   15.35   1
  -2  -3   4  758.63   53.08   1
   2  -3  -4  824.32   53.87   1
  -2  -3   4  839.13   54.43   2
  -2  -3   4  778.13   54.36   2
  -2   3   4  866.63   54.75   2
   2   3  -4  799.48   53.12   1
  -1  -3   4    9.66    1.69   2
  -1  -3   4    8.92    1.85   2
   1   3  -4   14.93    2.01   1
  -1   3   4    9.13    2.08   2
   0  -3   4   85.52    6.71   2
   0  -3   4   96.37    6.83   2
   0   3  -4   93.06    6.55   2
   0   3   4   71.19    6.97   2
   1  -3   4   13.01    1.72   2
  -1   3  -4   13.90    1.51   2
  -1   3  -4   13.65    1.60   2
  -2  -3  -4  986.94   68.69   2
   2  -3   4  904.24   67.93   2
  -2   3  -4 1073.14   66.49   2
   2   3   4 1111.11   69.91   2
  -3  -3  -4   15.81    2.75   2
   3  -3   4    9.57    2.14   2
   3   3   4   17.45    4.32   2
   4  -3   4  617.23   39.85   2
  -4  -3  -4  581.10   40.28   2
   4   3   4  560.69   42.20   2
   5  -3   4  229.65   17.88   2
   5   3   4  276.87   20.66   2
   6  -3   4   86.87    8.08   2
   6   3   4  107.89   10.32   2
  -7  -4   4   27.38    5.08   2
   7   4  -4   29.28    5.18   2
  -7   4   4   29.31    4.84   2
  -6  -4   4  545.85   41.06   2
   6   4  -4  589.45   41.57   2
  -6   4   4  589.51   40.84   2
  -5  -4   4    4.70    2.17   2
   5   4  -4    4.20    2.22   2
  -5   4   4   11.19    2.78   2
  -4  -4   4  444.54   32.21   2
  -4  -4   4  452.66   31.76   1
  -4   4   4  472.58   31.97   1
   4   4  -4  470.48   32.40   2
  -4   4   4  434.51   31.96   2
  -3  -4   4  285.81   20.88   1
  -3  -4   4  322.67   21.61   2
   3  -4  -4  269.51   21.12   1
  -3   4   4  281.75   21.28   2
   3   4  -4  320.08   16.22   3
   3   4  -4  314.24   21.49   2
  -3   4   4  271.31   21.22   1
  -2  -4   4  333.27   23.68   2
  -2  -4   4  327.56   23.53   2
   2  -4  -4  349.61   23.99   1
  -2   4   4  348.64   23.94   2
   2   4  -4  329.29   23.00   1
  -1  -4   4   26.22    2.84   2
  -1  -4   4   24.36    2.84   2
   1   4  -4   25.15    2.77   1
   0  -4   4  321.75   21.09   2
   0  -4   4  299.37   21.02   2
   0  -4  -4  299.82   22.57   1
   0   4  -4  306.40   20.91   1
   0   4  -4  319.89   20.73   2
   0   4   4  296.94   21.78   2
   1  -4   4  125.95    8.22   2
   1   4   4   94.40    9.06   2
   2  -4   4 1315.47   82.47   2
  -2  -4  -4 1213.60   83.53   2
   2   4   4 1190.68   84.23   2
  -3  -4  -4  168.46   12.63   2
   3  -4   4  130.77   10.95   2
   3   4   4  173.95   14.68   2
  -4  -4  -4  626.89   40.45   2
   4  -4   4  567.68   39.02   2
   4   4   4  545.80   42.07   2
   5   4   4    3.12    2.28   2
   6  -4   4  362.06   24.90   2
   6   4   4  334.65   27.38   2
  -7  -5   4   20.86    4.86   2
   7   5  -4   25.34    5.48   2
  -7   5   4   18.13    4.26   2
  -6  -5   4   94.95    9.38   2
   6   5  -4   97.59    9.75   2
  -6   5   4   76.36    8.37   2
  -5  -5   4   17.36    3.73   2
   5   5  -4   13.13    3.43   2
  -5   5   4   12.15    3.00   2
  -4  -5   4  416.55   32.33   1
  -4  -5   4  429.38   33.05   2
   4   5  -4  486.97   33.48   2
  -4   5   4  505.91   33.15   2
  -4   5   4  510.26   33.08   1
   3  -5  -4  834.00   51.48   1
  -3  -5   4  695.87   50.34   1
  -3  -5   4  739.43   51.85   2
  -3  -5   4  771.60   51.69   2
   3   5  -4  734.86   51.81   2
  -3   5   4  805.18   51.42   1
  -3   5   4  792.42   51.96   2
   3   5  -4  745.09   40.45   3
   2  -5  -4  384.45   29.21   1
  -2  -5   4  430.76   29.26   2
  -2  -5   4  449.53   29.15   2
   2   5  -4  430.30   28.45   1
  -2   5   4  407.55   29.41   2
  -2   5   4  419.63   29.72   1
   2   5  -4  428.39   29.14   2
  -1  -5   4  732.97   45.97   2
  -1  -5   4  725.92   45.87   2
   1  -5  -4  622.48   46.12   1
   1   5  -4  704.02   44.77   1
  -1   5   4  633.73   46.28   2
   0  -5   4   33.23    3.22   2
   0  -5  -4   24.08    4.24   1
   0   5  -4   40.22    2.97   2
   0   5  -4   37.60    3.40   1
   1  -5   4  416.87   28.21   2
   1  -5   4  391.39   28.18   2
   1   5   4  468.94   30.20   2
   2  -5   4  450.58   29.02   2
  -2  -5  -4  404.37   30.55   2
   2   5   4  410.38   31.29   2
   3  -5   4  111.88    7.58   2
  -3  -5  -4   89.23    9.11   2
   3   5   4   99.76   10.76   2
  -4  -5  -4  563.43   38.42   2
   4  -5   4  584.89   36.60   2
   4   5   4  475.36   39.68   2
   5  -5   4    0.81    1.01   2
  -5  -5  -4    3.55    1.99   2
   5   5   4    2.62    2.17   2
   6  -5   4   77.70    6.86   2
   6   5   4   72.42    9.17   2
  -7  -6   4    8.85    3.61   2
   7   6  -4    9.53    3.79   2
  -6  -6   4  166.38   15.39   2
   6   6  -4  180.93   15.99   2
  -6   6   4  196.54   15.12   2
  -5  -6   4   24.74    4.32   2
  -5   6   4   34.74    4.43   2
   5   6  -4   27.53    4.47   2
  -4  -6   4  337.16   23.45   2
  -4  -6   4  315.76   22.75   1
  -4   6   4  290.95   22.80   2
   4   6  -4  334.18   23.63   2
  -4   6   4  300.07   22.91   1
  -3  -6   4  218.16   16.71   2
   3  -6  -4  217.81   16.88   1
  -3  -6   4  236.33   16.66   2
  -3  -6   4  219.12   15.94   1
  -3   6   4  219.94   16.95   1
  -3   6   4  209.72   16.60   2
   3   6  -4  229.05   12.44   3
   3   6  -4  235.64   16.93   2
  -2  -6   4   37.03    3.85   2
  -2  -6   4   33.58    3.83   2
   2   6  -4   35.27    3.84   2
   2   6  -4   32.51    3.61   1
  -1  -6   4  781.65   51.53   2
  -1  -6   4  757.09   51.65   2
   1  -6  -4  798.88   52.24   1
  -1   6   4  809.09   52.43   2
   1   6  -4  726.05   50.29   1
   0  -6   4 2616.33  172.95   2
   0  -6  -4 2755.16  171.48   1
   0   6   4 2543.35  174.10   2
   0   6  -4 2696.26  168.92   1
   0   6  -4 2630.15  172.31   2
   1  -6   4  642.34   40.71   2
   1  -6   4  628.44   40.77   2
   1   6   4  576.56   42.69   2
  -2  -6  -4   10.19    3.07   2
   2   6   4   10.66    3.35   2
  -3  -6  -4   76.06    7.84   2
   3  -6   4   70.44    5.42   2
   3   6   4   84.54    9.24   2
  -4  -6  -4  137.90   12.60   2
   4  -6   4  161.72   10.62   2
   4   6   4  132.72   13.75   2
  -5  -6  -4   15.92    3.71   2
   5  -6   4    6.25    1.65   2
   5   6   4    8.56    3.51   2
   6  -6   4  309.37   20.90   2
   6   6   4  264.77   24.13   2
  -6  -7   4    3.32    2.44   2
   6   7  -4    2.79    2.49   2
  -6   7   4    1.18    1.63   2
  -5  -7   4  428.68   31.91   2
   5   7  -4  457.42   32.53   2
  -5   7   4  428.43   31.20   2
  -4  -7   4   13.39    3.00   1
  -4  -7   4   15.35    3.41   2
   4   7  -4   15.12    3.54   2
  -3  -7   4    9.07    2.27   2
   3  -7  -4   12.47    2.97   1
  -3  -7   4    8.85    2.31   2
  -3  -7   4    8.03    1.91   1
   3   7  -4    9.48    2.48   2
  -3   7   4   11.17    2.82   1
  -3   7   4   10.71    2.55   2
   2  -7  -4 1691.78  119.81   1
  -2  -7   4 1941.20  121.62   2
  -2  -7   4 1911.08  121.83   2
   2   7  -4 1912.04  118.82   1
   2   7  -4 1810.74  121.61   2
  -2   7   4 1800.95  122.04   2
  -1  -7   4  332.82   22.73   2
  -1  -7   4  336.89   22.57   2
   1  -7  -4  301.48   23.61   1
  -1   7   4  321.81   23.50   2
   1   7  -4  339.29   22.07   1
   0  -7   4    7.21    1.28   2
   0   7  -4    9.54    1.44   1
   1  -7   4  439.73   30.00   2
   1  -7   4  448.86   29.96   2
   1   7   4  475.71   32.68   2
  -2  -7  -4 1041.41   68.85   2
   2   7   4  959.85   69.42   2
  -3  -7  -4   28.43    4.80   2
   3   7   4   39.01    6.00   2
   4  -7   4   71.45    4.95   2
  -4  -7  -4   53.65    6.97   2
   4   7   4   51.02    7.61   2
  -5  -7  -4  397.63   29.62   2
   5  -7   4  419.74   27.11   2
   5   7   4  366.85   31.09   2
   6  -7   4   28.96    3.36   2
   6   7   4   23.74    6.01   2
  -6  -8   4   63.68    7.98   2
  -6   8   4   72.65    7.48   2
   6   8  -4   77.39    8.96   2
  -5  -8   4   10.30    3.37   2
  -5   8   4   11.21    2.88   2
   5   8  -4   12.96    3.81   2
  -4  -8   4  274.56   19.07   1
  -4  -8   4  256.84   20.03   2
  -4   8   4  252.96   19.74   1
  -4   8   4  256.48   19.54   2
   4   8  -4  268.79   20.39   2
  -3  -8   4  428.17   30.20   2
  -3  -8   4  446.29   29.95   2
   3  -8  -4  406.32   29.87   1
  -3   8   4  442.61   30.39   1
  -3   8   4  392.32   29.84   2
   3   8  -4  438.70   30.34   2
  -2  -8   4  205.67   15.55   2
   2  -8  -4  236.47   16.67   1
  -2  -8   4  197.05   15.69   2
   2   8  -4  192.72   15.56   2
  -2   8   4  241.96   16.41   2
   1  -8  -4   13.75    3.15   1
  -1  -8   4    6.72    1.64   2
  -1  -8   4    5.81    1.50   2
   1   8  -4    5.82    1.50   1
  -1   8   4    9.72    2.43   2
   0  -8  -4  637.41   42.16   1
   0  -8   4  600.94   40.73   2
   0  -8   4  639.57   40.68   2
   0   8  -4  604.77   39.56   1
   0   8   4  574.01   42.17   2
   1  -8   4    3.40    0.77   2
   1  -8   4    4.09    0.80   2
   1   8   4    6.52    2.41   2
  -2  -8  -4   45.96    6.12   2
   2   8   4   53.37    7.03   2
  -3  -8  -4  786.97   56.88   2
   3   8   4  843.85   58.30   2
  -4  -8  -4  185.80   16.31   2
   4   8   4  197.70   17.45   2
  -5  -8  -4    1.69    2.45   2
   5  -8   4    3.35    1.14   2
   5   8   4    4.71    3.10   2
  -6  -9   4   77.08    8.86   2
   6   9  -4   74.25    9.15   2
  -6   9   4   67.74    7.38   2
  -5  -9   4  312.05   24.19   2
   5   9  -4  310.58   24.59   2
  -5   9   4  311.93   23.09   2
  -4  -9   4  417.84   31.82   2
  -4   9   4  444.23   31.28   2
   4   9  -4  462.07   32.37   2
  -3  -9   4    2.74    1.70   2
  -3   9   4    6.31    2.46   1
   3   9  -4    3.57    1.95   2
  -3   9   4    4.18    1.78   2
  -2  -9   4  158.31   12.57   2
   2  -9  -4  169.42   13.29   1
  -2  -9   4  170.44   12.45   2
  -2   9   4  166.94   13.11   2
   2   9  -4  150.35   12.35   2
   1  -9  -4  371.61   28.32   1
  -1  -9   4  424.41   27.72   2
  -1  -9   4  415.85   27.48   2
   1   9  -4  408.20   26.79   1
  -1   9   4  376.71   28.48   2
   0  -9  -4    4.92    2.12   1
   0  -9   4    2.53    0.96   2
   0  -9   4    3.65    1.10   2
   0   9   4    4.52    1.99   2
   0   9  -4    2.31    0.91   1
   1  -9   4  454.48   30.75   2
   1   9   4  481.53   34.14   2
  -2  -9  -4  319.46   24.86   2
   2   9   4  329.34   25.92   2
  -3  -9  -4   38.96    5.86   2
   3   9   4   43.39    6.54   2
  -4  -9  -4  199.23   17.89   2
   4   9   4  227.19   19.04   2
  -5  -9  -4  452.50   35.03   2
   5   9   4  486.90   36.66   2
  -6 -10   4  160.60   15.00   2
   6  10  -4  154.16   15.37   2
  -5 -10   4   28.92    5.06   2
  -5  10   4   24.83    3.95   2
   5  10  -4   28.32    5.80   2
  -4 -10   4   14.30    3.49   2
  -4  10   4   10.25    2.75   2
   4  10  -4   17.10    4.06   2
  -3 -10   4  453.70   32.89   2
  -3  10   4  457.38   33.06   1
  -3  10   4  464.93   32.70   2
   3  10  -4  471.62   33.01   2
  -2 -10   4    6.06    2.00   2
  -2  10   4    7.50    2.35   2
   2  10  -4    3.56    1.67   2
  -1 -10   4  481.63   34.21   2
   1 -10  -4  520.37   35.03   1
  -1  10   4  502.49   35.38   2
   0 -10   4  139.84   10.29   2
   0 -10   4  135.25   10.17   2
   0 -10  -4  152.74   12.14   1
   0  10  -4  136.71    9.81   1
   0  10   4  145.46   12.25   2
   1 -10   4  456.59   25.96   3
   1 -10   4  436.48   30.20   2
  -1 -10  -4  477.61   32.54   1
   1  10   4  449.59   33.57   2
   2 -10   4  191.17   11.78   3
  -2 -10  -4  165.61   15.03   2
   2  10   4  168.91   15.92   2
  -3 -10  -4  547.22   40.69   2
   3  10   4  571.94   41.67   2
  -4 -10  -4   20.59    4.99   2
   4  10   4   18.16    4.90   2
  -5 -10  -4   16.52    4.87   2
   5  10   4   19.23    5.35   2
  -6 -11   4    7.57    3.76   2
  -5 -11   4  335.31   25.63   2
  -5  11   4  311.64   23.81   2
  -4 -11   4   64.26    7.60   2
   4  11  -4   63.22    7.80   2
  -4  11   4   76.52    7.21   2
  -3 -11   4   66.78    7.17   2
  -3  11   4   73.60    7.13   2
   3  11  -4   65.70    7.17   2
  -2 -11   4  115.41    9.69   2
   2  11  -4  103.31    9.18   2
  -2  11   4  116.31   10.05   2
  -1 -11   4  435.72   29.89   2
  -1  11   4  424.05   30.99   2
   0 -11  -4   35.39    5.25   1
   0 -11   4   52.28    4.60   3
   0 -11   4   52.63    4.45   2
   0  11  -4   53.22    4.15   1
   0  11   4   40.45    5.68   2
   1 -11   4  425.66   28.01   2
  -1 -11  -4  439.26   30.24   1
   1 -11   4  412.33   24.41   3
   1  11   4  395.73   31.50   2
  -2 -11  -4  127.39   11.11   2
   2 -11   4   89.05    7.79   3
   2  11   4  105.98   11.32   2
  -3 -11  -4   12.92    3.96   2
   3 -11   4   20.32    3.35   3
   3  11   4   12.64    4.12   2
  -4 -11  -4  113.92   12.26   2
   4  11   4  133.33   12.94   2
  -5 -11  -4  222.92   20.38   2
   5  11   4  254.10   21.55   2
  -5 -12   4    8.05    3.46   2
  -4 -12   4   18.53    4.48   2
  -4  12   4   16.67    3.69   2
  -3 -12   4  744.72   52.86   2
  -3  12   4  775.74   52.58   2
  -2 -12   4   36.67    4.71   2
  -1 -12   4  141.14   11.33   2
  -1  12   4  145.82   12.56   2
   0 -12   4   34.79    3.93   3
   0 -12   4   35.21    3.62   2
   0  12   4   32.81    5.07   2
   1 -12   4  246.53   14.86   3
  -1 -12  -4  229.09   17.71   1
   1  12   4  203.21   18.98   2
  -2 -12  -4  109.26   10.94   2
   2  12   4  112.56   11.82   2
  -3 -12  -4  417.03   32.92   2
   3 -12   4  439.58   26.26   3
   3  12   4  461.05   33.92   2
  -4 -12  -4   19.02    5.09   2
   4  12   4   18.43    4.80   2
  -5 -13   4  168.55   15.93   2
  -4 -13   4   27.61    5.20   2
  -4  13   4   43.12    5.29   2
  -3 -13   4  168.64   14.84   2
  -3  13   4  179.29   14.56   2
  -2 -13   4    4.89    2.16   2
  -2  13   4    2.52    1.88   2
  -1 -13   4  522.53   30.64   3
  -1 -13   4  552.60   37.42   2
  -1  13   4  540.46   38.87   2
   0 -13   4    4.22    1.46   2
   0 -13   4    4.22    1.86   3
   0  13   4    1.50    1.78   2
   1 -13   4  361.30   21.53   3
   1 -13   4  367.64   23.55   2
   1  13   4  310.42   27.33   2
  -2 -13  -4    6.89    3.04   2
   2 -13   4    7.45    2.37   3
   2  13   4    6.30    3.09   2
  -3 -13  -4   60.00    7.62   2
   3 -13   4   55.03    5.96   3
   3  13   4   61.67    8.04   2
  -4 -13  -4   65.34    8.60   2
   4 -13   4   73.24    6.77   3
   4  13   4   58.04    8.16   2
  -4 -14   4    5.03    2.87   2
  -3 -14   4  231.78   19.88   2
  -3  14   4  263.45   19.73   2
  -2 -14   4    4.90    2.33   2
  -2  14   4   18.32    4.12   2
  -1 -14   4  586.96   39.28   2
  -1 -14   4  544.71   32.23   3
  -1  14   4  554.07   40.82   2
   0 -14   4  112.11    8.91   3
   0 -14   4  128.37    9.42   2
   0  14   4   95.71   11.17   2
   1 -14   4  314.95   20.54   3
   1 -14   4  335.75   22.29   2
   1  14   4  329.49   26.63   2
  -2 -14  -4   31.72    5.32   2
   2  14   4   33.84    5.89   2
   3 -14   4  257.60   17.15   3
  -3 -14  -4  257.36   21.01   2
   3  14   4  237.90   21.08   2
  -4 -15   4   15.08    4.54   2
  -3 -15   4    4.73    2.71   2
  -2 -15   4   87.66    8.82   2
  -2  15   4   80.75    9.02   2
  -1 -15   4  250.47   17.05   3
  -1 -15   4  281.22   20.49   2
  -1  15   4  276.33   22.17   2
   0 -15   4    8.28    2.69   3
   0 -15   4    9.66    2.39   2
   0  15   4   14.49    4.33   2
   1 -15   4  484.48   29.88   3
   1 -15   4  541.71   33.63   2
   1  15   4  456.04   37.57   2
   2 -15   4   29.94    5.06   3
  -2 -15  -4   30.38    5.32   2
   2  15   4   33.32    5.79   2
  -3 -15  -4   35.75    5.83   2
   3 -15   4   19.54    4.36   3
   3  15   4   31.07    5.53   2
  -3 -16   4  293.73   23.77   2
  -2 -16   4    3.77    2.50   2
  -2  16   4    1.96    2.33   2
  -1 -16   4    2.50    2.02   2
  -1 -16   4    1.91    1.84   3
  -1  16   4    1.23    2.22   2
   0 -16   4    1.76    1.52   2
   0 -16   4    0.84    1.75   3
   0  16   4    3.05    2.67   2
  -1 -16  -4    3.67    2.57   2
   1 -16   4    0.31    1.76   3
   1  16   4    3.35    2.73   2
   2 -16   4   12.29    3.63   3
  -2 -16  -4   13.74    4.23   2
   2  16   4   10.21    3.91   2
  -2 -17   4   47.65    5.55   3
  -2 -17   4   66.18    7.55   2
  -1 -17   4  119.92   10.15   3
  -1 -17   4  140.65   11.89   2
   0 -17   4    3.51    2.35   3
   0 -17   4    9.01    2.59   2
   0  17   4    5.91    3.40   2
  -1 -17  -4  171.86   15.21   2
   1 -17   4  144.73   12.40   3
   1  17   4  171.54   15.92   2
  -7   0   5  571.20   41.64   2
  -6   0   5    0.26    1.55   2
  -5   0   5  153.58   13.18   2
  -4   0   5    3.91    2.03   2
  -3   0   5  639.81   42.86   2
  -3   0   5  578.59   42.31   1
   3   0  -5  640.86   42.02   1
  -2   0   5    6.37    1.99   2
   2   0  -5    7.55    2.17   1
  -1   0   5  206.88   16.03   2
  -1   0   5  221.66   16.18   2
   1   0  -5  233.37   16.55   1
   0   0   5    6.33    1.65   2
   0   0  -5    3.84    2.24   1
   1   0   5  883.27   59.27   2
  -2   0  -5    7.81    1.94   2
   2   0   5    9.49    2.65   2
   3   0   5  719.05   53.53   2
  -3   0  -5  796.15   50.76   2
   4   0   5    3.19    1.98   2
   5   0   5  315.08   23.63   2
   6   0   5    0.21    1.34   2
  -7  -1   5   79.49    8.63   2
   7   1  -5   75.26    8.56   2
  -7   1   5   53.14    7.68   2
  -6  -1   5  109.12   10.61   2
  -6   1   5  110.91   10.57   2
   6   1  -5  101.79   10.40   2
  -5  -1   5  483.77   35.29   2
  -5   1   5  498.87   35.34   2
   4  -1  -5  195.58   14.91   1
  -4   1   5  181.77   14.95   2
  -3  -1   5  540.34   38.58   1
   3  -1  -5  559.52   38.38   1
  -3  -1   5  561.35   39.03   2
   3   1  -5  600.47   38.38   1
  -3   1   5  580.54   39.13   2
  -3   1   5  531.46   38.81   1
  -2  -1   5  224.68   15.22   2
   2  -1  -5  189.41   15.01   1
  -2  -1   5  198.50   14.99   2
   2   1  -5  206.57   14.86   1
  -2   1   5  176.24   14.83   2
  -1  -1   5   12.29    2.28   2
  -1  -1   5   13.54    2.42   2
   1  -1  -5   18.79    3.16   1
  -1   1   5   15.56    2.65   2
  -1   1   5   18.69    2.68   2
   1   1  -5   12.67    2.73   1
   0  -1   5   11.48    2.01   2
   0  -1  -5    7.75    2.73   1
   0   1   5    7.87    1.95   2
   0   1  -5   10.20    2.79   1
   1  -1   5 1013.55   65.80   2
   1   1   5  957.12   66.01   2
   2  -1   5  173.18   13.36   2
  -2  -1  -5  142.23   12.34   2
  -2   1  -5  178.04   11.81   2
   2   1   5  153.71   13.40   2
  -3  -1  -5  761.62   46.61   2
   3  -1   5  650.53   48.43   2
  -3   1  -5  698.98   45.79   2
   3   1   5  634.66   49.15   2
   4  -1   5  101.89    9.00   2
   4   1   5   91.45    9.61   2
   5  -1   5  203.24   16.06   2
   5   1   5  210.90   17.03   2
   6  -1   5   16.51    3.49   2
  -7  -2   5  115.19   11.52   2
  -7   2   5  123.71   11.61   2
   7   2  -5  102.66   11.24   2
  -6  -2   5   53.84    6.86   2
  -6   2   5   63.54    7.16   2
   6   2  -5   50.60    6.69   2
  -5  -2   5  157.80   13.06   2
   5   2  -5  153.14   12.97   2
  -5   2   5  135.60   12.58   2
  -4  -2   5   17.16    3.18   2
   4  -2  -5   18.53    3.78   1
  -4   2   5   19.63    3.32   2
   3  -2  -5  107.65    9.11   1
  -3  -2   5   94.36    8.89   1
  -3  -2   5   88.98    8.61   2
  -3   2   5  109.20    9.63   1
   3   2  -5   86.60    8.39   1
  -3   2   5  121.51    9.27   2
  -2  -2   5  398.34   28.02   2
   2  -2  -5  437.06   28.35   1
  -2  -2   5  364.21   27.89   2
   2   2  -5  359.05   27.36   1
  -2   2   5  447.24   28.49   2
   1  -2  -5 2037.81  142.90   1
  -1  -2   5 2244.17  145.16   2
  -1  -2   5 2268.41  145.23   2
  -1   2   5 2228.47  145.44   2
   1   2  -5 2254.91  142.19   1
   0  -2   5  210.57   14.69   2
   0  -2   5  213.76   14.74   2
   0   2  -5  222.47   15.45   1
   0   2   5  165.85   14.68   2
   1  -2   5   35.66    4.02   2
   1   2   5   50.09    4.83   2
   2  -2   5   10.12    2.68   2
  -2  -2  -5   19.43    3.06   2
  -2   2  -5   11.08    1.62   2
   2   2   5   16.34    3.62   2
  -3  -2  -5  321.53   21.74   2
   3  -2   5  299.10   22.73   2
   3   2   5  277.42   24.00   2
   4   2   5    8.82    3.13   2
   5  -2   5  377.80   26.59   2
   5   2   5  368.38   28.39   2
   6  -2   5    1.14    1.28   2
   6   2   5    1.23    1.84   2
  -6  -3   5   96.00    9.80   2
   6   3  -5  101.09   10.02   2
  -6   3   5   91.80    9.55   2
  -5  -3   5  101.16    9.96   2
  -5   3   5  119.75   10.23   2
   5   3  -5  102.32   10.09   2
  -4  -3   5    3.54    1.82   2
   4  -3  -5    3.07    2.02   1
  -4   3   5    2.90    1.74   2
   3  -3  -5  977.22   66.37   1
  -3  -3   5 1012.49   66.08   1
  -3  -3   5  981.12   67.39   2
  -3   3   5 1062.71   67.23   1
  -3   3   5  984.20   67.45   2
   3   3  -5  980.73   65.79   1
  -2  -3   5   19.26    2.91   2
   2  -3  -5   19.18    3.39   1
  -2  -3   5   22.82    3.08   2
   2   3  -5   24.42    3.18   1
  -2   3   5   16.96    2.87   2
  -1  -3   5  235.57   17.90   2
  -1  -3   5  251.99   18.02   2
   1  -3  -5  254.25   19.06   1
   1   3  -5  244.90   17.74   1
  -1   3   5  267.73   18.46   2
   0  -3  -5  134.67   11.63   1
   0  -3   5  125.86    9.71   2
   0  -3   5  114.61    9.58   2
   0   3   5  141.00   10.48   2
   0   3  -5  128.89   10.19   1
   1  -3   5 1494.73   98.67   2
   1   3   5 1498.84   99.63   2
   2  -3   5   11.95    2.62   2
  -2  -3  -5    3.39    1.94   2
   2   3   5    6.98    2.53   2
  -3  -3  -5   10.85    2.74   2
   3  -3   5   11.92    2.80   2
   3   3   5    6.85    3.16   2
   4  -3   5   59.40    5.52   2
   4   3   5   52.06    7.31   2
   5  -3   5   61.78    5.83   2
   5   3   5   60.71    7.71   2
  -6  -4   5    9.79    3.38   2
   6   4  -5   10.95    3.55   2
  -6   4   5   12.78    3.59   2
  -5  -4   5  323.72   25.39   2
  -5   4   5  345.64   25.36   2
   5   4  -5  350.55   25.75   2
   4  -4  -5  149.09   12.87   1
  -4  -4   5  148.89   12.69   2
  -4   4   5  149.20   12.58   2
   4   4  -5  165.31   12.98   2
   3  -4  -5  230.95   16.44   1
  -3  -4   5  202.98   15.80   2
  -3  -4   5  199.95   15.31   1
  -3   4   5  175.47   16.12   1
  -3   4   5  225.22   16.15   2
   3   4  -5  206.02   15.44   1
   2  -4  -5    4.33    2.04   1
  -2  -4   5    1.25    1.15   2
  -2  -4   5    0.90    1.08   2
  -2   4   5    4.36    1.78   2
   2   4  -5    1.47    1.18   1
  -1  -4   5 1369.23   83.93   2
  -1  -4   5 1242.70   83.84   2
   1  -4  -5 1198.57   83.57   1
  -1   4   5 1214.70   84.27   2
   1   4  -5 1295.12   82.10   1
   0  -4   5   10.07    1.96   2
   0  -4   5   10.28    1.85   2
   0   4  -5   12.58    2.25   1
   1  -4   5  155.02   10.66   2
   1   4   5  128.09   11.50   2
   2  -4   5  294.35   22.13   2
  -2  -4  -5  309.25   23.27   2
   2   4   5  327.28   24.09   2
  -3  -4  -5  738.04   51.18   2
   3  -4   5  740.38   50.22   2
   3   4   5  755.17   53.85   2
   4  -4   5   18.19    2.40   2
   4   4   5    8.48    3.42   2
   5  -4   5  174.27   13.07   2
   5   4   5  176.43   16.08   2
  -6  -5   5   56.05    7.14   2
   6   5  -5   60.85    7.48   2
  -6   5   5   53.46    6.59   2
  -5  -5   5  323.41   25.05   2
  -5   5   5  354.86   24.96   2
   5   5  -5  317.63   25.10   2
   4  -5  -5    1.62    1.90   1
  -4  -5   5    0.81    1.41   2
   4   5  -5    1.60    1.56   2
  -4   5   5    1.81    1.52   2
   3  -5  -5  402.75   28.06   1
  -3  -5   5  387.12   27.78   2
  -3   5   5  389.36   27.86   2
   3   5  -5  377.93   26.93   1
  -2  -5   5  226.27   15.34   2
   2  -5  -5  168.24   15.61   1
  -2  -5   5  212.08   15.37   2
  -2   5   5  194.84   15.56   2
   2   5  -5  214.63   14.95   1
   1  -5  -5   19.98    4.06   1
  -1  -5   5   16.14    2.53   2
  -1  -5   5   16.07    2.50   2
   1   5  -5   20.92    2.75   1
  -1   5   5   23.10    3.24   2
   0  -5   5   72.51    6.17   2
   0  -5  -5   89.75    8.55   1
   0  -5   5   70.75    6.20   2
   0   5   5   90.44    7.48   2
   0   5  -5   72.89    6.33   1
   1  -5   5  750.32   50.91   2
   1  -5   5  753.42   51.00   2
   1   5   5  801.66   52.84   2
  -2  -5  -5   12.90    3.47   2
   2   5   5   19.12    4.31   2
   3  -5   5  201.31   14.15   2
  -3  -5  -5  193.10   15.98   2
   3   5   5  198.17   17.90   2
   4  -5   5  231.92   16.57   2
  -4  -5  -5  248.98   18.55   2
   4   5   5  229.32   20.31   2
   5  -5   5   90.28    7.53   2
   5   5   5  101.04   10.90   2
  -6  -6   5   61.13    7.47   2
   6   6  -5   58.49    7.50   2
  -6   6   5   51.66    6.65   2
  -5  -6   5   55.49    6.77   2
  -5   6   5   54.77    6.40   2
   5   6  -5   59.04    7.06   2
  -4  -6   5  139.60   11.78   2
  -4   6   5  122.88   11.27   2
   4   6  -5  144.93   11.93   2
   3  -6  -5  143.85   12.16   1
  -3  -6   5  133.45   11.48   2
  -3   6   5  143.38   11.70   2
  -2  -6   5    2.24    1.25   2
   2  -6  -5    4.26    2.25   1
  -2  -6   5    2.88    1.40   2
   2   6  -5    3.77    1.56   1
  -2   6   5    3.34    1.60   2
  -1  -6   5  797.44   53.22   2
  -1  -6   5  778.92   53.01   2
   1  -6  -5  805.26   54.13   1
   1   6  -5  781.65   51.90   1
  -1   6   5  802.68   54.08   2
   0  -6   5  260.98   17.83   2
   0  -6   5  251.21   17.65   2
   0  -6  -5  232.60   19.55   1
   0   6   5  241.19   18.94   2
   0   6  -5  276.02   17.59   1
   1  -6   5   16.84    2.01   2
   1  -6   5   16.52    2.06   2
  -2  -6  -5  121.00   11.21   2
   2  -6   5  123.03    9.37   2
   2   6   5  113.33   11.52   2
   3  -6   5  193.23   14.73   2
  -3  -6  -5  223.26   17.62   2
   3   6   5  249.00   19.79   2
  -4  -6  -5    8.05    2.98   2
   4  -6   5   11.98    1.65   2
   4   6   5    7.50    3.32   2
   5  -6   5  311.83   19.82   2
   5   6   5  239.44   23.07   2
  -6  -7   5  247.86   20.97   2
   6   7  -5  275.24   21.83   2
  -6   7   5  251.27   20.13   2
  -5  -7   5  176.95   15.39   2
  -5   7   5  180.42   14.89   2
   5   7  -5  189.09   15.86   2
  -4  -7   5   10.21    2.79   2
  -4   7   5    6.04    2.29   2
   4   7  -5   11.42    3.13   2
   3  -7  -5  234.93   18.82   1
  -3  -7   5  245.97   18.49   2
  -3   7   5  236.33   18.44   2
   3   7  -5  256.89   18.55   2
   2  -7  -5  191.71   15.97   1
  -2  -7   5  202.37   15.12   2
   2   7  -5  202.98   14.64   1
  -2   7   5  198.82   15.49   2
   1  -7  -5    3.15    2.23   1
  -1  -7   5    6.15    1.73   2
  -1   7   5    4.59    1.89   2
   1   7  -5    5.26    1.61   1
   0  -7   5  276.95   20.16   2
   0  -7  -5  311.42   22.48   1
   0   7   5  300.28   21.77   2
   0   7  -5  283.75   19.73   1
   1  -7   5  317.68   22.26   2
   1  -7   5  330.39   22.17   2
   1   7   5  340.61   24.86   2
   2  -7   5   38.93    3.57   2
  -2  -7  -5   30.27    5.01   2
   2  -7   5   39.80    3.03   2
   2   7   5   32.10    5.56   2
  -3  -7  -5  286.46   23.11   2
   3   7   5  310.03   24.96   2
  -4  -7  -5  398.73   30.71   2
   4  -7   5  422.82   27.61   2
   4   7   5  416.61   32.49   2
   5   7   5   46.64    7.25   2
  -6  -8   5    0.44    2.10   2
   6   8  -5   -0.23    2.25   2
  -6   8   5    1.84    2.00   2
  -5  -8   5   42.15    5.77   2
  -5   8   5   29.27    4.68   2
   5   8  -5   36.54    5.71   2
  -4  -8   5  357.92   26.71   2
  -4   8   5  343.58   26.26   2
   4   8  -5  378.88   26.99   2
   3  -8  -5  221.69   16.93   1
  -3  -8   5  187.43   16.04   2
   3   8  -5  193.86   16.09   2
  -3   8   5  237.38   16.63   2
   2  -8  -5  172.82   13.68   1
  -2  -8   5  144.15   12.25   2
   2   8  -5  144.90   11.84   1
  -2   8   5  174.22   13.15   2
   1  -8  -5   71.07    7.73   1
  -1  -8   5   71.99    6.28   2
   1   8  -5   73.32    6.10   1
  -1   8   5   67.39    7.04   2
   0  -8  -5  119.74   11.30   1
   0  -8   5  123.74    9.36   2
   0   8   5  122.69   10.91   2
   0   8  -5  130.52    9.16   1
   1  -8   5  318.03   19.88   2
  -1  -8  -5  287.37   22.53   1
   1   8   5  260.11   22.32   2
  -2  -8  -5  440.43   31.11   2
   2   8   5  383.33   31.52   2
  -3  -8  -5  226.71   18.82   2
   3   8   5  226.40   20.06   2
  -4  -8  -5    3.16    2.40   2
   4   8   5    4.38    2.81   2
   5   8   5  128.13   13.55   2
  -6  -9   5   27.56    5.86   2
  -6   9   5   34.90    5.11   2
  -5  -9   5  189.02   16.97   2
  -5   9   5  216.10   16.56   2
  -4  -9   5  148.38   13.56   2
  -4   9   5  171.73   13.46   2
   4   9  -5  161.47   13.94   2
  -3  -9   5  103.42    9.30   2
  -3   9   5   92.23    9.09   2
   3   9  -5  107.74    9.32   2
  -2  -9   5  663.14   46.41   2
   2  -9  -5  687.39   46.86   1
  -2   9   5  685.97   47.18   2
   1  -9  -5    3.98    2.45   1
  -1  -9   5    9.35    2.10   2
   1   9  -5   11.16    2.15   1
   0  -9   5  267.79   19.53   2
   0  -9  -5  305.20   21.90   1
   0   9  -5  265.88   18.96   1
   0   9   5  296.81   21.71   2
   1  -9   5  238.60   16.25   2
   1   9   5  237.37   19.45   2
  -2  -9  -5  213.05   17.78   2
   2   9   5  208.99   18.69   2
  -3  -9  -5  237.57   19.62   2
   3   9   5  232.63   20.67   2
  -4  -9  -5   68.96    8.71   2
   4   9   5   84.89    9.88   2
  -5  10   5   15.24    3.58   2
  -4 -10   5  209.07   17.16   2
  -4  10   5  209.48   16.64   2
  -3 -10   5    6.01    2.35   2
  -3  10   5   14.19    3.22   2
  -2 -10   5  357.33   26.19   2
  -2  10   5  374.49   27.02   2
  -1 -10   5  539.63   36.30   2
   1 -10  -5  520.03   37.30   1
   1  10  -5  542.28   35.26   1
  -1  10   5  508.83   37.53   2
   0 -10  -5  786.36   51.80   1
   0 -10   5  757.24   50.18   2
   0  10   5  722.05   52.43   2
   0  10  -5  742.94   48.93   1
   1  10   5   26.76    4.93   2
  -2 -10  -5  187.48   15.75   2
   2  10   5  164.75   16.35   2
  -3 -10  -5   12.30    3.99   2
   3  10   5   16.99    4.77   2
  -4 -10  -5    2.37    2.49   2
   4  10   5    3.57    2.81   2
  -5 -11   5    2.59    2.31   2
  -5  11   5    1.57    1.72   2
  -4 -11   5    4.14    2.36   2
  -4  11   5    6.08    2.52   2
  -3 -11   5  270.33   20.11   2
  -3  11   5  245.22   19.88   2
  -2 -11   5  202.25   16.29   2
  -2  11   5  224.93   17.28   2
  -1 -11   5   99.89    8.91   2
  -1  11   5  122.27   10.59   2
   0 -11   5  323.69   22.04   2
   0  11   5  315.90   24.64   2
   0  11  -5  312.44   21.39   1
   1  11   5  253.17   21.22   2
  -2 -11  -5   54.34    7.08   2
   2  11   5   48.39    7.54   2
  -3 -11  -5   34.84    5.73   2
   3  11   5   29.45    6.42   2
  -4 -11  -5  360.10   29.40   2
   4  11   5  393.73   30.41   2
  -4 -12   5  410.14   30.01   2
  -4  12   5  378.20   28.93   2
  -3 -12   5   43.91    5.85   2
  -3  12   5   49.80    6.08   2
  -2 -12   5    1.76    1.70   2
  -2  12   5    1.41    1.75   2
  -1 -12   5   99.32    8.65   2
  -1  12   5  105.76   10.22   2
   0 -12   5   12.23    2.05   2
   0  12   5    8.84    3.26   2
   0  12  -5    9.65    1.96   1
   1  12   5    0.66    2.11   2
  -1  12  -5    5.53    1.25   1
  -2 -12  -5  871.19   58.34   2
   2  12   5  770.63   59.18   2
  -3 -12  -5   78.42    9.34   2
   3  12   5   87.08   10.27   2
  -4 -13   5    8.20    3.45   2
  -4  13   5   10.83    3.26   2
  -3 -13   5    9.47    3.18   2
  -3  13   5    8.37    3.02   2
  -2 -13   5  261.44   20.39   2
  -2  13   5  275.45   21.31   2
  -1 -13   5   27.43    3.63   2
  -1  13   5   18.18    4.48   2
   0 -13   5  168.71   12.18   2
   0  13   5  153.47   14.95   2
  -1  13  -5    3.74    1.18   1
   1  13   5    4.49    3.04   2
  -2 -13  -5   15.03    4.32   2
   2  13   5   11.88    4.38   2
  -3 -13  -5  118.58   12.35   2
   3  13   5  127.16   13.13   2
  -3 -14   5   20.64    4.68   2
  -3  14   5   21.58    4.68   2
  -2 -14   5  115.65   10.71   2
  -2  14   5  117.23   11.44   2
  -1 -14   5    3.70    1.79   2
  -1  14   5    2.43    2.44   2
   0 -14   5  415.91   28.39   2
   0  14   5  403.43   32.04   2
   1  14   5   65.46    9.07   2
  -2 -14  -5  127.63   12.23   2
   2  14   5  108.13   12.58   2
  -3 -15   5    0.25    2.10   2
  -2 -15   5  411.79   30.57   2
  -2  15   5  417.20   31.60   2
  -1 -15   5    6.93    2.42   2
  -1  15   5    5.79    3.23   2
   0 -15   5  193.90   14.32   2
   0  15   5  189.20   17.95   2
   1  15   5    9.28    3.99   2
  -2 -15  -5  147.00   13.98   2
   2  15   5  142.37   14.85   2
  -1 -16   5    0.52    1.57   2
  -1  16   5   -0.28    1.87   2
   0  16   5   95.53   11.49   2
  -6   0   6    4.52    2.64   2
  -5   0   6    0.76    1.87   2
  -4   0   6  288.51   21.94   2
  -3   0   6    0.31    1.30   2
  -2   0   6  665.97   44.91   2
   2   0  -6  635.72   44.19   1
   1   0  -6    1.94    1.58   1
  -1   0   6    2.92    1.52   2
   0   0   6   20.23    3.03   2
   0   0  -6   18.30    4.04   1
   1   0   6    5.22    1.89   2
   2   0   6 1210.49   82.26   2
   3   0   6    1.10    2.00   2
   4   0   6   13.16    3.74   2
   5   0   6    0.98    1.63   2
  -6  -1   6  110.93   11.20   2
  -6   1   6  118.44   11.38   2
  -5  -1   6   -0.23    1.62   2
  -5   1   6    1.04    1.66   2
  -4  -1   6  385.07   28.64   2
  -4   1   6  398.17   28.77   2
  -3  -1   6   42.44    4.83   2
  -3   1   6   28.66    4.19   2
  -2  -1   6   70.91    6.70   2
   2  -1  -6   67.94    7.02   1
  -2   1   6   70.76    6.77   2
   2   1  -6   62.86    6.60   1
  -1  -1   6   88.28    7.39   2
   1  -1  -6   68.82    7.78   1
  -1   1   6   71.69    7.19   2
   1   1  -6   96.49    7.99   1
   0  -1  -6 1104.18   76.88   1
   0  -1   6 1102.52   76.76   2
   0   1  -6 1223.09   76.60   1
   0   1   6 1179.86   77.14   2
   1   1   6   10.85    2.66   2
   2  -1   6   68.71    7.30   2
   2   1   6   64.33    7.41   2
   3  -1   6    1.76    2.00   2
   3   1   6    1.76    2.03   2
   4  -1   6  164.29   14.27   2
   4   1   6  180.58   15.61   2
   5  -1   6    0.47    1.51   2
   5   1   6    3.14    2.22   2
  -6  -2   6   84.46    9.53   2
  -6   2   6  102.00   10.02   2
  -5  -2   6   35.85    5.31   2
  -5   2   6   35.80    5.29   2
  -4  -2   6  131.15   11.55   2
  -4   2   6  132.19   11.63   2
  -3   2   6    6.71    2.34   2
  -2  -2   6  934.84   63.71   2
   2  -2  -6  954.28   63.27   1
  -2   2   6  950.96   63.90   2
   2   2  -6  931.49   62.46   1
  -1  -2   6    4.71    1.74   2
   1  -2  -6   12.27    3.34   1
  -1   2   6    9.76    2.32   2
   1   2  -6    5.04    2.07   1
   0  -2  -6   15.71    4.05   1
   0  -2   6   18.02    2.70   2
   0   2   6   16.62    2.89   2
   0   2  -6   17.50    3.55   1
   1  -2   6   39.62    4.56   2
   1   2   6   49.39    5.26   2
   2  -2   6  204.67   16.93   2
  -2  -2  -6  216.95   16.68   2
   2   2   6  225.02   17.86   2
   3  -2   6   10.30    3.34   2
   3   2   6   22.51    5.43   2
   4  -2   6  353.29   25.28   2
   4   2   6  337.34   27.32   2
   5  -2   6   81.97    7.69   2
   5   2   6   81.06    9.14   2
  -6  -3   6  297.87   24.16   2
  -6   3   6  317.56   24.22   2
  -5  -3   6  174.88   14.13   2
  -5   3   6  141.34   13.37   2
  -4  -3   6  149.81   13.05   2
  -4   3   6  157.88   13.20   2
  -3  -3   6    4.01    1.88   2
  -3   3   6    3.46    1.83   2
  -2  -3   6   91.57    8.50   2
   2  -3  -6  103.68    9.57   1
  -2   3   6  103.78    8.98   2
   2   3  -6   94.89    8.56   1
  -1  -3   6    6.31    1.98   2
   1  -3  -6   16.83    3.96   1
   1   3  -6    8.90    2.37   1
   0  -3   6  404.97   28.35   2
   0  -3  -6  376.42   29.83   1
   0   3  -6  433.23   28.59   1
   0   3   6  413.76   29.12   2
   1  -3   6   36.69    3.92   2
   1   3   6   25.21    3.95   2
   2  -3   6  231.22   17.84   2
  -2  -3  -6  213.78   17.84   2
   2   3   6  245.88   19.12   2
   3  -3   6  140.98   12.69   2
   3   3   6  160.90   15.07   2
   4  -3   6  182.83   13.95   2
   4   3   6  177.94   16.67   2
   5  -3   6   48.69    4.83   2
   5   3   6   30.35    5.73   2
  -6  -4   6   39.44    6.04   2
  -6   4   6   37.29    5.74   2
  -5  -4   6   39.24    5.53   2
  -5   4   6   32.83    5.02   2
  -4  -4   6  317.93   24.30   2
  -4   4   6  331.11   24.42   2
  -3  -4   6    6.74    2.29   2
  -3   4   6   14.29    3.23   2
  -2  -4   6  151.52   12.23   2
   2  -4  -6  149.44   13.18   1
   2   4  -6  155.53   12.08   1
  -2   4   6  154.23   12.59   2
   1  -4  -6   70.63    8.41   1
  -1  -4   6   86.47    7.35   2
  -1   4   6   74.37    7.53   2
   1   4  -6   96.81    7.61   1
   0  -4   6  385.55   25.69   2
   0  -4  -6  308.18   26.97   1
   0   4   6  344.42   26.38   2
   0   4  -6  420.73   25.88   1
   1  -4   6  109.08    9.43   2
   1   4   6  133.54   10.86   2
   2  -4   6  701.71   49.45   2
  -2  -4  -6  735.09   50.39   2
   2   4   6  723.17   51.25   2
   3  -4   6   37.38    4.52   2
   3   4   6   28.44    6.44   2
   4  -4   6  339.23   23.08   2
   4   4   6  309.22   26.52   2
  -6  -5   6  297.74   25.03   2
  -6   5   6  345.39   25.25   2
  -5  -5   6  179.03   16.39   2
  -5   5   6  222.17   16.84   2
  -4  -5   6   70.13    7.27   2
  -4   5   6   59.89    6.93   2
  -3  -5   6  362.96   26.02   2
  -3   5   6  348.32   26.12   2
  -2  -5   6   44.12    5.08   2
   2   5  -6   41.56    4.95   1
  -2   5   6   56.61    5.76   2
  -1  -5   6  145.20   12.17   2
   1  -5  -6  169.77   14.29   1
  -1   5   6  188.36   13.42   2
   1   5  -6  141.62   11.93   1
   0  -5  -6  493.51   39.08   1
   0  -5   6  559.99   37.59   2
   0   5  -6  596.59   37.27   1
   0   5   6  549.82   38.77   2
   1  -5   6  116.52    8.73   2
   1   5   6   93.38    9.62   2
   2  -5   6  187.12   13.21   2
  -2  -5  -6  145.57   13.80   2
   2   5   6  146.95   14.44   2
   3  -5   6    9.21    2.18   2
   3   5   6   12.49    4.28   2
   4  -5   6  224.10   16.13   2
   4   5   6  231.36   20.37   2
  -5  -6   6   70.71    7.86   2
  -5   6   6   63.56    7.42   2
  -4  -6   6   28.16    4.44   2
  -3  -6   6  165.74   14.20   2
  -3   6   6  191.83   14.78   2
  -2  -6   6  736.68   49.00   2
  -2   6   6  671.04   49.28   2
   2   6  -6  737.04   47.80   1
  -1  -6   6  461.90   31.83   2
   1   6  -6  476.56   31.19   1
  -1   6   6  435.03   32.65   2
   0  -6   6   68.80    6.40   2
   0   6   6   91.94    8.09   2
   0   6  -6   73.10    6.60   1
   1  -6   6   23.43    3.05   2
   1   6   6   32.27    4.66   2
  -2  -6  -6  111.89   11.16   2
   2  -6   6  125.07    9.79   2
   2   6   6  110.39   11.72   2
   3  -6   6   10.37    1.76   2
   3   6   6    9.05    3.90   2
   4   6   6  143.41   14.68   2
  -5  -7   6    8.56    3.14   2
  -5   7   6    7.59    2.81   2
  -4  -7   6  423.43   30.33   2
  -4   7   6  400.06   30.09   2
  -3  -7   6   64.07    6.83   2
  -3   7   6   67.26    7.05   2
  -2  -7   6   64.82    6.68   2
  -2   7   6   84.50    7.67   2
   2   7  -6   63.51    6.48   1
  -1  -7   6  209.74   15.95   2
  -1   7   6  227.61   17.23   2
   1   7  -6  210.34   15.59   1
   0  -7   6  573.32   37.60   2
   0   7   6  516.77   39.01   2
   0   7  -6  563.49   36.86   1
   1  -7   6   94.80    7.13   2
   1   7   6   70.85    8.54   2
  -2  -7  -6    2.66    2.33   2
   2  -7   6    2.47    1.38   2
   2   7   6    4.11    2.80   2
   3   7   6  281.24   24.21   2
   4   7   6    3.56    2.82   2
  -5  -8   6  186.44   16.13   2
  -5   8   6  186.11   15.67   2
  -4  -8   6   98.87    9.97   2
  -4   8   6  112.38   10.08   2
  -3  -8   6   16.85    3.57   2
  -3   8   6   17.28    3.78   2
  -2  -8   6  241.18   18.41   2
   2   8  -6  257.38   18.03   1
  -2   8   6  236.69   19.10   2
  -1  -8   6   36.79    4.14   2
   1   8  -6   40.38    4.25   1
  -1   8   6   32.97    4.93   2
   0  -8   6    2.64    1.34   2
   0   8   6    6.85    2.63   2
   0   8  -6    2.56    1.49   1
   1  -8   6  497.75   35.32   2
   1   8   6  529.43   38.51   2
  -1   8  -6  547.39   34.96   1
  -2  -8  -6  415.56   29.72   2
   2   8   6  353.13   30.15   2
   3   8   6   57.49    8.49   2
   4   8   6    4.91    3.06   2
  -5  -9   6   10.98    3.68   2
  -5   9   6   14.26    3.63   2
  -4  -9   6    4.10    2.31   2
  -4   9   6    3.65    2.18   2
  -3  -9   6  225.66   17.44   2
  -3   9   6  214.36   17.53   2
  -2  -9   6    4.13    1.91   2
  -2   9   6    7.52    2.66   2
  -1  -9   6   11.09    2.48   2
  -1   9   6   14.79    3.64   2
   1   9  -6    9.57    2.28   1
   0  -9   6  246.39   17.69   2
   0   9   6  243.29   19.80   2
   0   9  -6  253.63   17.39   1
   1  -9   6   29.37    3.13   2
   1   9   6   28.59    5.14   2
  -1   9  -6   34.18    3.40   1
  -2  -9  -6   81.12    8.99   2
   2   9   6   69.49    9.37   2
  -3  -9  -6  323.14   25.48   2
   3   9   6  316.82   26.90   2
  -4 -10   6   99.86   10.07   2
  -4  10   6  100.83    9.81   2
  -3 -10   6   24.85    4.22   2
  -3  10   6   38.23    5.16   2
  -2 -10   6   71.98    7.22   2
  -2  10   6   78.03    8.19   2
  -1 -10   6  260.86   19.02   2
  -1  10   6  242.53   20.36   2
   1  10  -6  271.75   18.56   1
   0 -10   6   20.44    2.68   2
   0  10   6   11.20    3.61   2
   0  10  -6   18.11    2.66   1
   1 -10   6   66.57    5.54   2
  -1  10  -6   72.34    5.72   1
   1  10   6   73.36    8.86   2
  -2 -10  -6   48.89    6.75   2
   2  10   6   39.96    7.06   2
  -3 -10  -6   10.68    3.90   2
   3  10   6    7.73    3.77   2
  -4 -11   6   42.89    6.04   2
  -4  11   6   37.40    5.60   2
  -3 -11   6  258.06   20.12   2
  -3  11   6  253.06   20.32   2
  -2 -11   6   26.73    4.03   2
  -2  11   6   27.01    4.59   2
  -1 -11   6  154.31   12.34   2
  -1  11   6  164.86   14.22   2
   1  11  -6  154.31   12.01   1
   0 -11   6    6.78    1.80   2
   0  11  -6    6.38    1.85   1
   0  11   6    7.42    3.15   2
  -1  11  -6  160.70   11.38   1
   1  11   6  157.42   15.38   2
  -2 -11  -6   84.61    9.21   2
   2  11   6   59.38    9.15   2
  -3 -11  -6  196.46   17.31   2
   3  11   6  186.49   18.23   2
  -3 -12   6   32.44    5.06   2
  -3  12   6   34.12    5.26   2
  -2 -12   6    7.36    2.57   2
  -2  12   6    8.28    3.19   2
  -1 -12   6  215.66   16.39   2
  -1  12   6  219.35   18.45   2
   0 -12   6   30.66    3.38   2
   0  12   6   20.93    5.35   2
   0  12  -6   30.29    3.49   1
  -1  12  -6  376.71   24.30   1
   1  12   6  342.16   29.20   2
  -2 -12  -6   13.28    4.30   2
   2  12   6   16.70    5.22   2
  -3 -13   6  332.55   25.10   2
  -3  13   6  313.90   25.07   2
  -2 -13   6    0.76    1.48   2
  -2  13   6   -0.02    1.74   2
  -1 -13   6  174.45   13.42   2
  -1  13   6  161.00   15.35   2
   0 -13   6   73.01    6.15   2
   0  13  -6   71.35    6.16   1
   0  13   6   62.60    8.73   2
   1  13   6  161.55   16.40   2
  -1  13  -6  162.74   11.59   1
  -1 -14   6  306.68   22.70   2
  -1  14   6  315.50   25.51   2
   0  14   6   11.50    4.31   2
  -5   0   7  282.18   22.38   2
  -4   0   7    1.89    1.90   2
  -3   0   7   40.36    5.26   2
  -2   0   7    0.78    1.44   2
  -1   0   7   54.12    5.79   2
   0   0   7    2.19    1.60   2
   1   0   7  600.81   42.06   2
   2   0   7   -0.68    1.52   2
   3   0   7   80.82    9.93   2
  -5  -1   7   76.34    8.17   2
  -5   1   7   57.24    7.44   2
  -4  -1   7  116.54   10.61   2
  -4   1   7  102.61   10.23   2
  -3  -1   7   71.18    7.28   2
  -3   1   7   64.60    7.18   2
  -2  -1   7    1.69    1.67   2
  -2   1   7    1.63    1.59   2
  -1  -1   7  370.34   26.19   2
  -1   1   7  353.46   26.15   2
   0  -1   7   52.86    5.41   2
   0   1   7   40.53    5.15   2
   1  -1   7  170.44   13.69   2
   1   1   7  165.46   13.90   2
   2  -1   7    6.35    2.76   2
   2   1   7    4.67    2.63   2
   3  -1   7  207.76   18.61   2
   3   1   7  217.78   19.49   2
  -5  -2   7  147.05   13.28   2
  -5   2   7  140.83   13.09   2
  -4  -2   7   93.01    9.57   2
  -4   2   7  106.34    9.93   2
  -3  -2   7  545.71   37.86   2
  -3   2   7  518.95   37.83   2
  -2  -2   7  114.99    9.56   2
  -2   2   7   92.65    9.30   2
  -1  -2   7  108.97    9.78   2
  -1   2   7  120.72   10.20   2
   0  -2   7   28.06    3.90   2
   0   2   7   37.00    4.59   2
   1  -2   7  258.42   19.37   2
   1   2   7  254.10   19.86   2
   2  -2   7    2.78    2.18   2
   2   2   7    2.55    2.25   2
   3  -2   7  249.73   20.24   2
   3   2   7  231.02   21.29   2
  -5  -3   7  141.28   12.66   2
  -5   3   7  125.72   12.29   2
  -4  -3   7    0.17    1.53   2
  -4   3   7    1.06    1.81   2
  -3  -3   7  129.50   11.66   2
  -3   3   7  140.21   12.02   2
  -2  -3   7   82.43    8.14   2
  -2   3   7   94.01    8.64   2
  -1  -3   7  604.23   40.67   2
  -1   3   7  568.57   41.01   2
   0  -3   7   92.34    8.00   2
   0   3   7   73.39    8.18   2
   0   3  -7  104.51    8.86   1
   1  -3   7   17.84    3.21   2
   1   3   7   20.50    3.74   2
  -1   3  -7   16.84    4.29   1
   2  -3   7   21.47    4.51   2
   2   3   7   24.66    5.36   2
   3  -3   7  143.85   12.96   2
   3   3   7  138.75   14.71   2
  -5  -4   7   20.30    4.65   2
  -5   4   7   27.13    4.67   2
  -4  -4   7    7.72    2.75   2
  -4   4   7    4.39    2.46   2
  -3  -4   7  257.29   19.68   2
  -3   4   7  250.66   19.87   2
  -2  -4   7    2.09    1.54   2
  -2   4   7    0.75    1.54   2
  -1  -4   7    1.87    1.57   2
  -1   4   7    0.92    1.55   2
   0  -4   7   48.34    5.39   2
   0   4   7   62.76    6.58   2
   0   4  -7   59.57    6.20   1
   1  -4   7  652.80   45.61   2
  -1   4  -7  726.84   46.06   1
   1   4   7  614.58   46.68   2
   2  -4   7   26.65    4.33   2
   2   4   7   19.90    5.03   2
   3  -4   7    3.74    2.19   2
   3   4   7    2.62    2.82   2
  -4  -5   7  157.98   13.78   2
  -4   5   7  159.46   13.92   2
  -3  -5   7   31.83    4.65   2
  -3   5   7   39.17    5.14   2
  -2  -5   7   12.99    3.02   2
  -2   5   7    8.58    2.74   2
  -1  -5   7  424.07   30.47   2
  -1   5   7  440.51   31.52   2
   0  -5   7    0.12    1.07   2
   0   5  -7    3.50    1.97   1
   0   5   7    0.91    1.43   2
   1  -5   7    8.48    2.41   2
  -1   5  -7    6.66    2.71   1
   2  -5   7  160.23   13.71   2
   2   5   7  174.98   15.92   2
   3  -5   7  207.96   16.23   2
   3   5   7  228.95   20.52   2
  -4  -6   7   23.42    4.16   2
  -4   6   7   18.33    4.26   2
  -3  -6   7  131.00   11.60   2
  -3   6   7  132.27   11.85   2
  -2  -6   7  132.27   10.82   2
  -2   6   7  114.33   10.98   2
  -1  -6   7   23.14    3.50   2
  -1   6   7   25.85    4.20   2
   0  -6   7   10.28    2.41   2
   0   6   7   12.80    3.41   2
   0   6  -7    6.66    2.32   1
   1  -6   7   89.36    8.12   2
   1   6   7   94.82    9.81   2
  -1   6  -7   96.02    8.49   1
   2  -6   7    2.18    1.89   2
   2   6   7    1.40    2.21   2
   3   6   7  204.59   19.57   2
  -4  -7   7   16.03    3.88   2
  -4   7   7   15.23    3.91   2
  -3  -7   7  140.15   12.49   2
  -3   7   7  151.14   13.02   2
  -2  -7   7   46.50    5.54   2
  -2   7   7   52.58    6.31   2
  -1  -7   7  122.60   10.20   2
  -1   7   7  119.59   11.27   2
   0  -7   7   69.87    6.36   2
   0   7  -7   69.92    6.47   1
   0   7   7   58.31    7.37   2
   1  -7   7  176.41   13.23   2
   1   7   7  143.49   14.88   2
  -1   7  -7  188.10   13.30   1
   2  -7   7   92.40    8.13   2
   2   7   7   87.61   10.68   2
   3   7   7   81.79   10.71   2
  -4  -8   7   20.05    4.54   2
  -4   8   7   28.48    4.63   2
  -3  -8   7   33.18    4.67   2
  -3   8   7   24.25    4.40   2
  -2  -8   7  138.10   11.56   2
  -2   8   7  131.08   12.29   2
  -1  -8   7   18.37    3.14   2
   0  -8   7  223.55   16.60   2
   0   8  -7  220.45   16.35   1
   0   8   7  230.20   18.70   2
   1  -8   7  202.34   15.26   2
   1   8   7  201.91   18.09   2
  -1   8  -7  213.74   15.22   1
   2   8   7  110.60   12.57   2
  -3  -9   7    1.69    1.81   2
  -3   9   7    0.84    2.06   2
  -2  -9   7   67.52    6.90   2
  -2   9   7   59.76    7.39   2
  -1  -9   7  118.35    9.61   2
  -1   9   7   99.85   10.55   2
   0  -9   7  194.55   14.55   2
   0   9  -7  197.59   14.41   1
   0   9   7  186.39   16.74   2
   1   9   7   10.30    3.81   2
  -1   9  -7   14.51    2.78   1
   2   9   7   65.91    9.34   2
  -3 -10   7  179.45   14.85   2
  -3  10   7  165.42   15.12   2
  -2 -10   7  331.14   24.41   2
  -2  10   7  326.08   25.56   2
  -1 -10   7   32.72    4.41   2
  -1  10   7   50.13    6.47   2
   0 -10   7   66.71    6.24   2
   0  10   7   71.21    8.62   2
   1  10   7   64.67    8.94   2
  -1  10  -7   72.28    6.25   1
  -2 -11   7   72.95    7.35   2
  -2  11   7   61.61    7.86   2
  -1 -11   7   96.43    8.47   2
  -1  11   7   89.02   10.00   2
   0 -11   7  121.89    9.79   2
   0  11   7  124.99   12.86   2
  -3   0   8    0.00    1.45   2
  -2   0   8    7.70    2.72   2
  -1   0   8    0.88    1.46   2
   0   0   8  702.92   49.05   2
   1   0   8    0.64    1.66   2
   2   0   8   11.56    4.20   2
  -3  -1   8  106.58    9.84   2
  -3   1   8   91.78    9.57   2
  -2  -1   8  363.05   26.05   2
  -2   1   8  332.74   25.81   2
  -1  -1   8   28.05    4.35   2
  -1   1   8   36.81    4.81   2
   0  -1   8    9.71    2.95   2
   0   1   8    6.30    2.55   2
   1  -1   8    1.02    1.72   2
   1   1   8    2.23    2.05   2
   2  -1   8  181.12   16.60   2
   2   1   8  185.54   17.01   2
  -3  -2   8    0.41    1.56   2
  -3   2   8    0.98    1.81   2
  -2  -2   8   86.27    8.68   2
  -2   2   8   93.12    8.97   2
  -1  -2   8    7.72    2.51   2
  -1   2   8    4.73    2.29   2
   0  -2   8  116.86   10.76   2
   0   2   8  128.25   11.39   2
   1  -2   8    7.04    2.68   2
   1   2   8   15.11    3.92   2
   2  -2   8  135.66   13.16   2
   2   2   8  131.48   13.68   2
  -3  -3   8   17.36    4.04   2
  -3   3   8   25.33    4.27   2
  -2  -3   8   73.89    7.49   2
  -2   3   8   68.14    7.62   2
  -1  -3   8   24.94    3.90   2
  -1   3   8   22.39    4.07   2
   0  -3   8   37.29    4.82   2
   0   3   8   31.59    4.94   2
   1  -3   8   30.80    4.80   2
   1   3   8   37.06    5.54   2
  -3  -4   8   27.20    4.34   2
  -3   4   8   25.19    4.49   2
  -2  -4   8    4.14    2.10   2
  -2   4   8    4.04    2.31   2
  -1  -4   8   39.27    5.16   2
  -1   4   8   48.84    6.06   2
   0  -4   8  338.11   24.91   2
   0   4   8  340.51   25.91   2
   1  -4   8   39.28    5.19   2
   1   4   8   34.96    5.64   2
  -3   5   8    8.14    3.10   2
  -2  -5   8  245.41   19.31   2
  -2   5   8  252.86   20.02   2
  -1  -5   8   93.42    8.38   2
  -1   5   8   75.35    8.67   2
   0  -5   8   15.36    3.33   2
   0   5   8    9.34    3.16   2
   1  -5   8   22.88    3.94   2
   1   5   8   24.58    5.35   2
  -2  -6   8   67.45    7.32   2
  -2   6   8   71.38    8.08   2
  -1  -6   8   11.86    3.13   2
  -1   6   8   12.48    3.63   2
   0  -6   8   61.57    6.29   2
   0   6   8   55.69    7.22   2
  -1  -7   8   87.03    7.95   2
  -1   7   8   69.47    8.55   2
   0  -7   8   16.33    3.46   2
   0   7   8   21.18    4.88   2
   0   0   0    0.00    0.00
;
_shelx_hkl_checksum              70238
loop_
_symmetry_equiv_pos_as_xyz
'x, y, z'
'-x+1/2, y+1/2, -z+1/2'
'-x, -y, -z'
'x-1/2, -y-1/2, z-1/2'
loop_
_atom_site_label
_atom_site_type_symbol
_atom_site_fract_x
_atom_site_fract_y
_atom_site_fract_z
_atom_site_U_iso_or_equiv
_atom_site_adp_type
_atom_site_occupancy
_atom_site_site_symmetry_order
_atom_site_calc_flag
_atom_site_refinement_flags_posn
_atom_site_refinement_flags_adp
_atom_site_refinement_flags_occupancy
_atom_site_disorder_assembly
_atom_site_disorder_group
C1 C 0.9187(9) 0.0260(4) 0.5210(9) 0.0167(11) Uani 1 1 d . . . . .
C2 C 0.6097(8) 0.1372(4) 0.5009(9) 0.0163(11) Uani 1 1 d D . . . .
C3 C 0.5971(8) 0.0973(4) 0.6754(9) 0.0168(11) Uani 1 1 d D . . . .
S1 S 0.8163(2) 0.10934(10) 0.3554(2) 0.0212(3) Uani 1 1 d D . . . .
S2 S 0.7924(2) 0.01760(10) 0.7452(2) 0.0207(3) Uani 1 1 d . . . . .
C4A C 0.4236(10) 0.1136(4) 0.8296(9) 0.0145(11) Uani 0.9656(16) 1 d . . P A 1
H4A1 H 0.4523 0.0749 0.947 0.022 Uiso 0.9656(16) 1 calc R U P A 1
H4A2 H 0.4316 0.1739 0.8756 0.022 Uiso 0.9656(16) 1 calc R U P A 1
H4A3 H 0.2797 0.1018 0.7611 0.022 Uiso 0.9656(16) 1 calc R U P A 1
I1A I 0.40507(7) 0.23381(3) 0.37634(7) 0.02447(15) Uani 0.9656(16) 1 d . . P A
1
I1B I 0.3554(18) 0.1294(9) 0.8511(19) 0.02447(15) Uani 0.0344(16) 1 d D . P A 2
C4B C 0.451(6) 0.205(3) 0.418(7) 0.0145(11) Uani 0.0344(16) 1 d D . P A 2
H4B1 H 0.4904 0.2261 0.287 0.022 Uiso 0.0344(16) 1 calc R U P A 2
H4B2 H 0.3067 0.1798 0.3986 0.022 Uiso 0.0344(16) 1 calc R U P A 2
H4B3 H 0.4531 0.2535 0.514 0.022 Uiso 0.0344(16) 1 calc R U P A 2
loop_
_atom_site_aniso_label
_atom_site_aniso_U_11
_atom_site_aniso_U_22
_atom_site_aniso_U_33
_atom_site_aniso_U_23
_atom_site_aniso_U_13
_atom_site_aniso_U_12
C1 0.016(2) 0.016(2) 0.017(3) 0.002(2) -0.001(2) 0.001(2)
C2 0.012(2) 0.015(2) 0.022(3) -0.003(2) -0.001(2) 0.003(2)
C3 0.012(2) 0.017(3) 0.021(3) -0.004(2) -0.001(2) 0.002(2)
S1 0.0205(7) 0.0224(7) 0.0211(7) 0.0058(6) 0.0044(6) 0.0088(6)
S2 0.0218(7) 0.0209(7) 0.0198(7) 0.0042(5) 0.0044(6) 0.0071(6)
C4A 0.014(3) 0.015(3) 0.015(3) -0.005(2) 0.007(2) -0.001(2)
I1A 0.0224(2) 0.0218(2) 0.0285(3) 0.00215(16) -0.00023(16) 0.00897(16)
I1B 0.0224(2) 0.0218(2) 0.0285(3) 0.00215(16) -0.00023(16) 0.00897(16)
C4B 0.014(3) 0.015(3) 0.015(3) -0.005(2) 0.007(2) -0.001(2)
loop_
_atom_type_symbol
_atom_type_description
_atom_type_scat_dispersion_real
_atom_type_scat_dispersion_imag
_atom_type_scat_source
C C 0.0033 0.0016 'International Tables Vol C Tables 4.2.6.8 and 6.1.1.4'
H H 0 0 'International Tables Vol C Tables 4.2.6.8 and 6.1.1.4'
S S 0.1246 0.1234 'International Tables Vol C Tables 4.2.6.8 and 6.1.1.4'
I I -0.4742 1.8119 'International Tables Vol C Tables 4.2.6.8 and 6.1.1.4'
loop_
_geom_angle_atom_site_label_1
_geom_angle_atom_site_label_2
_geom_angle_atom_site_label_3
_geom_angle
_geom_angle_site_symmetry_1
C1 C1 S2 123.2(6) 3_756
C1 C1 S1 122.6(6) 3_756
S2 C1 S1 114.2(3) .
C3 C2 C4B 123.0(19) .
C3 C2 S1 119.1(4) .
C4B C2 S1 118.0(18) .
C3 C2 I1A 126.1(4) .
S1 C2 I1A 114.8(3) .
C2 C3 C4A 126.8(5) .
C2 C3 S2 116.7(4) .
C4A C3 S2 116.5(4) .
C2 C3 I1B 119.9(6) .
S2 C3 I1B 123.4(5) .
C2 S1 C1 94.5(3) .
C1 S2 C3 95.2(3) .
C3 C4A H4A1 109.5 .
C3 C4A H4A2 109.5 .
H4A1 C4A H4A2 109.5 .
C3 C4A H4A3 109.5 .
H4A1 C4A H4A3 109.5 .
H4A2 C4A H4A3 109.5 .
C2 C4B H4B1 109.5 .
C2 C4B H4B2 109.5 .
H4B1 C4B H4B2 109.5 .
C2 C4B H4B3 109.5 .
H4B1 C4B H4B3 109.5 .
H4B2 C4B H4B3 109.5 .
loop_
_geom_bond_atom_site_label_1
_geom_bond_atom_site_label_2
_geom_bond_distance
_geom_bond_site_symmetry_2
C1 C1 1.349(11) 3_756
C1 S2 1.760(6) .
C1 S1 1.764(6) .
C2 C3 1.318(8) .
C2 C4B 1.51(2) .
C2 S1 1.748(6) .
C2 I1A 2.077(5) .
C3 C4A 1.589(7) .
C3 S2 1.761(6) .
C3 I1B 2.066(2) .
C4A H4A1 0.98 .
C4A H4A2 0.98 .
C4A H4A3 0.98 .
C4B H4B1 0.98 .
C4B H4B2 0.98 .
C4B H4B3 0.98 .
loop_
_geom_torsion_atom_site_label_1
_geom_torsion_atom_site_label_2
_geom_torsion_atom_site_label_3
_geom_torsion_atom_site_label_4
_geom_torsion
_geom_torsion_site_symmetry_1
S1 C2 C3 C4A 179.6(4) .
I1A C2 C3 C4A 0.2(9) .
C4B C2 C3 S2 178(2) .
S1 C2 C3 S2 -0.5(7) .
I1A C2 C3 S2 -180.0(3) .
C4B C2 C3 I1B -1(2) .
S1 C2 C3 I1B 179.7(6) .
C3 C2 S1 C1 3.5(5) .
C4B C2 S1 C1 -175(2) .
I1A C2 S1 C1 -177.0(3) .
C1 C1 S1 C2 175.4(7) 3_756
S2 C1 S1 C2 -5.1(4) .
C1 C1 S2 C3 -175.6(7) 3_756
S1 C1 S2 C3 4.9(4) .
C2 C3 S2 C1 -2.7(5) .
C4A C3 S2 C1 177.1(4) .
I1B C3 S2 C1 177.0(6) .
