#------------------------------------------------------------------------------
#$Date: 2016-05-31 10:54:22 +0300 (Tue, 31 May 2016) $
#$Revision: 183168 $
#$URL: svn://www.crystallography.net/cod/cif/7/11/89/7118962.cif $
#------------------------------------------------------------------------------
#
# This file is available in the Crystallography Open Database (COD),
# http://www.crystallography.net/
#
# All data on this site have been placed in the public domain by the
# contributors.
#
data_7118962
loop_
_publ_author_name
'Dhananjay Dey'
'Subhrajyoti Bhandary'
'Abhishek Sirohiwal'
'Venkatesha R. Hathwar'
'Deepak Chopra'
_publ_section_title
;
 'Conformational lock' via unusual intramolecular C-F^...^O[double bond,
 length as m-dash]C and C-H^...^Cl-C parallel dipoles observed in in situ
 cryocrystallized liquids
;
_journal_name_full               Chem.Commun.
_journal_page_first              7225
_journal_volume                  52
_journal_year                    2016
_chemical_formula_sum            'C7 H3 Cl F2 O'
_chemical_formula_weight         176.54
_chemical_melting_point          284.5
_space_group_crystal_system      monoclinic
_space_group_IT_number           14
_space_group_name_Hall           '-P 2yn'
_space_group_name_H-M_alt        'P 1 21/n 1'
_symmetry_space_group_name_Hall  '-P 2yn'
_symmetry_space_group_name_H-M   'P 1 21/n 1'
_atom_sites_solution_hydrogens   geom
_audit_creation_method           SHELXL-2014/7
_audit_update_record
;
2016-04-14 deposited with the CCDC.
2016-04-18 downloaded from the CCDC.
;
_cell_angle_alpha                90
_cell_angle_beta                 95.836(2)
_cell_angle_gamma                90
_cell_formula_units_Z            4
_cell_length_a                   3.8289(2)
_cell_length_b                   14.5220(6)
_cell_length_c                   12.2527(5)
_cell_measurement_reflns_used    5852
_cell_measurement_temperature    110(2)
_cell_measurement_theta_max      30.53
_cell_measurement_theta_min      2.18
_cell_volume                     677.76(5)
_computing_cell_refinement       'Bruker SAINT'
_computing_data_collection       'Bruker APEX2'
_computing_data_reduction        'Bruker SAINT'
_computing_molecular_graphics
'PLATON (Spek, 2009) and Mercury (Macrae <i>et al.</i>, 2008)'
_computing_publication_material  'WINGX (Farrugia, 2014) and PLATON'
_computing_structure_refinement  'SHELXL-2014/7 (Sheldrick, 2014)'
_computing_structure_solution    'SIR2014 (Burla <i>et al.</i>, 2014)'
_diffrn_ambient_temperature      110(2)
_diffrn_measured_fraction_theta_full 0.761
_diffrn_measured_fraction_theta_max 0.688
_diffrn_measurement_device_type  'Bruker APEX-II CCD'
_diffrn_measurement_method       '\w scans'
_diffrn_radiation_type           MoK\a
_diffrn_radiation_wavelength     0.71073
_diffrn_reflns_av_R_equivalents  0.0136
_diffrn_reflns_av_unetI/netI     0.0101
_diffrn_reflns_Laue_measured_fraction_full 0.761
_diffrn_reflns_Laue_measured_fraction_max 0.688
_diffrn_reflns_limit_h_max       3
_diffrn_reflns_limit_h_min       -2
_diffrn_reflns_limit_k_max       20
_diffrn_reflns_limit_k_min       -17
_diffrn_reflns_limit_l_max       14
_diffrn_reflns_limit_l_min       -17
_diffrn_reflns_number            8014
_diffrn_reflns_point_group_measured_fraction_full 0.761
_diffrn_reflns_point_group_measured_fraction_max 0.688
_diffrn_reflns_theta_full        25.242
_diffrn_reflns_theta_max         30.530
_diffrn_reflns_theta_min         2.181
_exptl_absorpt_coefficient_mu    0.529
_exptl_absorpt_correction_T_max  0.7461
_exptl_absorpt_correction_T_min  0.6997
_exptl_absorpt_correction_type   multi-scan
_exptl_absorpt_process_details   SADABS
_exptl_crystal_colour            colourless
_exptl_crystal_density_diffrn    1.730
_exptl_crystal_description       block
_exptl_crystal_F_000             352
_exptl_crystal_size_max          0.300
_exptl_crystal_size_mid          0.300
_exptl_crystal_size_min          0.300
_refine_diff_density_max         0.368
_refine_diff_density_min         -0.236
_refine_diff_density_rms         0.045
_refine_ls_extinction_coef       .
_refine_ls_extinction_method     none
_refine_ls_goodness_of_fit_ref   1.089
_refine_ls_hydrogen_treatment    constr
_refine_ls_matrix_type           full
_refine_ls_number_parameters     100
_refine_ls_number_reflns         1435
_refine_ls_number_restraints     0
_refine_ls_restrained_S_all      1.089
_refine_ls_R_factor_all          0.0304
_refine_ls_R_factor_gt           0.0277
_refine_ls_shift/su_max          0.001
_refine_ls_shift/su_mean         0.000
_refine_ls_structure_factor_coef Fsqd
_refine_ls_weighting_details
'w=1/[\s^2^(Fo^2^)+(0.0372P)^2^+0.3106P] where P=(Fo^2^+2Fc^2^)/3'
_refine_ls_weighting_scheme      calc
_refine_ls_wR_factor_gt          0.0734
_refine_ls_wR_factor_ref         0.0763
_reflns_Friedel_coverage         0.000
_reflns_Friedel_fraction_full    .
_reflns_Friedel_fraction_max     .
_reflns_number_gt                1328
_reflns_number_total             1435
_reflns_threshold_expression     'I > 2\s(I)'
_cod_data_source_file            c6cc02535h2.cif
_cod_data_source_block           24dfbc
_cod_database_code               7118962
_shelx_shelxl_version_number     2014/7
_shelx_space_group_comment
;
The symmetry employed for this shelxl refinement is uniquely defined
by the following loop, which should always be used as a source of
symmetry information in preference to the above space-group names.
They are only intended as comments.
;
_shelx_estimated_absorpt_t_min   0.857
_shelx_estimated_absorpt_t_max   0.857
_shelx_res_file
;

    shelx.res created by SHELXL-2014/7


TITL  SIR2014 run in space group P 21/n
CELL   0.71073    3.8289  14.5220  12.2527  90.000  95.836  90.000
ZERR         4    0.0002   0.0006   0.0005   0.000   0.002   0.000
LATT  1
SYMM 1/2-X,1/2+Y,1/2-Z
SFAC C H O F CL
UNIT 28 12 4 8 4
L.S.   12
ACTA
BOND $H
CONF
HTAB
SIZE 0.3 0.3 0.3
TEMP -163
FMAP   2
PLAN     5
WGHT    0.037200    0.310600
FVAR       0.27968
CL1   5    0.700034    0.075662    0.418425    11.00000    0.03815    0.02374 =
         0.03163    0.00578    0.00470    0.00422
F1    4    0.592896    0.293193    0.147801    11.00000    0.04529    0.03638 =
         0.01379    0.00017    0.00868    0.00477
F2    4    0.156197    0.504587    0.385657    11.00000    0.03504    0.02094 =
         0.04376   -0.00504    0.01106    0.00384
O1    3    0.871034    0.137800    0.234026    11.00000    0.03235    0.02942 =
         0.02777   -0.00712    0.00802    0.00296
C1    1    0.570927    0.249425    0.333605    11.00000    0.01366    0.02094 =
         0.01560   -0.00197    0.00152   -0.00203
C2    1    0.514037    0.314238    0.249351    11.00000    0.01753    0.02547 =
         0.01451   -0.00118    0.00328   -0.00283
C3    1    0.374786    0.400166    0.264702    11.00000    0.02391    0.02295 =
         0.02265    0.00360    0.00326   -0.00130
AFIX  43
H3    2    0.336312    0.443041    0.206154    11.00000   -1.20000
AFIX   0
C4    1    0.293569    0.421143    0.369282    11.00000    0.01595    0.01950 =
         0.02877   -0.00396    0.00399   -0.00147
C5    1    0.344696    0.361002    0.456448    11.00000    0.01805    0.02769 =
         0.01940   -0.00563    0.00490   -0.00252
AFIX  43
H5    2    0.287998    0.378123    0.527372    11.00000   -1.20000
AFIX   0
C6    1    0.481080    0.274960    0.437494    11.00000    0.01779    0.02562 =
         0.01532   -0.00040    0.00265   -0.00130
AFIX  43
H6    2    0.514670    0.232155    0.496255    11.00000   -1.20000
AFIX   0
C7    1    0.728362    0.159597    0.311695    11.00000    0.01496    0.02234 =
         0.02181   -0.00243   -0.00095   -0.00233

HKLF   4

REM   SIR2014 run in space group P 21/n
REM R1 =  0.0277 for    1328 Fo > 4sig(Fo)  and  0.0304 for all    1435 data
REM    100 parameters refined using      0 restraints

END

WGHT      0.0369      0.3149

REM Instructions for potential hydrogen bonds
EQIV $1 x-1/2, -y+1/2, z+1/2
HTAB C5 O1_$1

REM Highest difference peak  0.368,  deepest hole -0.236,  1-sigma level  0.045
Q1    1   0.5541  0.2824  0.2938  11.00000  0.05    0.37
Q2    1   0.5210  0.2627  0.3806  11.00000  0.05    0.32
Q3    1   0.4201  0.3199  0.4397  11.00000  0.05    0.32
Q4    1   0.6177  0.2064  0.3233  11.00000  0.05    0.32
Q5    1   0.4605  0.3576  0.2590  11.00000  0.05    0.31
;
_shelx_res_checksum              5028
_shelx_hkl_file
;
   0  -1   0    0.00    0.00
   0  -1   0   -0.01    0.00
  -1  -1   0   24.29    0.39
   1  -1   0   24.33    0.39
   1  -1   0   24.53    0.38
  -1  -1   0   24.35    0.39
  -1   1   0   24.72    0.39
  -1   1   0   24.79    0.39
   1   1   0   23.88    0.39
   1   1   0   24.09    0.39
   1   1   0   23.92    0.39
  -1   1   0   24.75    0.38
   1   1   0   24.11    0.40
   0  -2   0   18.27    0.31
   0  -2   0   18.22    0.30
   0   2   0   18.09    0.30
   0   2   0   18.14    0.31
  -1  -2   0  820.14   15.41
  -1  -2   0  822.06   15.93
   1  -2   0  808.83   15.09
   1  -2   0  829.67   15.60
   1   2   0  783.80   14.89
  -1   2   0  834.84   15.11
  -1   2   0  823.30   15.29
   1   2   0  806.49   15.36
   1   2   0  795.08   15.49
  -1   2   0  847.00   14.78
   1   2   0  825.25   15.54
  -1   2   0  823.15   15.15
  -2  -2   0  220.01    3.37
  -2  -2   0  218.29    3.41
  -2  -2   0  219.89    3.37
  -2  -2   0  216.01    3.42
   2   2   0  222.21    3.40
   2   2   0  218.30    3.44
   2   2   0  216.89    3.42
   2   2   0  217.21    3.43
   0  -3   0   -0.06    0.01
   0  -3   0   -0.06    0.01
   0   3   0   -0.03    0.01
   0   3   0   -0.06    0.01
   1  -3   0  447.04    7.11
  -1  -3   0  451.09    7.14
   1  -3   0  443.05    7.15
  -1  -3   0  457.69    7.19
  -1   3   0  459.68    7.12
  -1   3   0  453.27    7.20
   1   3   0  461.82    7.14
  -1   3   0  439.60    7.16
   1   3   0  453.21    7.25
  -1   3   0  452.69    7.17
   1   3   0  460.20    7.22
   1   3   0  462.49    7.20
   2  -3   0   55.97    0.88
  -2  -3   0   55.43    0.89
   2  -3   0   55.32    0.88
   2  -3   0   55.27    0.87
  -2  -3   0   55.52    0.90
   2  -3   0   55.52    0.87
   2   3   0   56.10    0.89
  -2   3   0   54.46    0.88
   2   3   0   55.75    0.90
   2   3   0   56.00    0.90
   2   3   0   56.13    0.90
  -2   3   0   55.39    0.87
   0  -4   0   21.32    0.39
   0  -4   0   21.22    0.38
   0   4   0   21.68    0.37
   0   4   0   21.39    0.39
   0   4   0   21.70    0.38
   0   4   0   21.43    0.37
   1  -4   0  202.52    3.13
   1  -4   0  199.73    3.12
   1   4   0  202.55    3.27
  -1   4   0  202.11    3.35
  -1   4   0  207.31    3.19
  -1   4   0  203.21    3.29
   1   4   0  198.93    3.14
   1   4   0  203.91    3.14
  -1   4   0  204.50    3.16
  -1   4   0  199.65    3.27
   1   4   0  202.05    3.27
   1   4   0  201.87    3.28
   1   4   0  203.48    3.20
  -1   4   0  201.98    3.33
   2  -4   0   83.95    1.35
   2  -4   0   83.96    1.35
   2  -4   0   84.41    1.34
   2  -4   0   84.08    1.34
   2   4   0   84.77    1.36
   2   4   0   86.46    1.33
   2   4   0   85.40    1.37
   2   4   0   85.61    1.36
   2   4   0   85.25    1.33
  -2   4   0   84.63    1.35
  -2   4   0   84.45    1.34
  -2   4   0   85.39    1.35
  -2   4   0   86.13    1.35
   2   4   0   85.43    1.35
   0   5   0   -0.03    0.01
   0   5   0   -0.01    0.02
   0   5   0   -0.01    0.02
   0   5   0   -0.04    0.02
   1   5   0   12.80    0.28
  -1   5   0   13.90    0.25
  -1   5   0   13.40    0.25
   1   5   0   13.03    0.27
   1   5   0   12.92    0.28
   1   5   0   12.99    0.29
   1   5   0   12.87    0.25
   1   5   0   12.80    0.25
   2   5   0   76.52    1.26
  -2   5   0   78.58    1.23
  -2   5   0   77.83    1.27
  -2   5   0   78.26    1.26
  -2   5   0   78.82    1.26
   2   5   0   76.86    1.28
   2   5   0   76.95    1.28
   2   5   0   80.00    1.24
  -2   5   0   78.33    1.25
  -2   5   0   77.49    1.23
   2   5   0   77.23    1.28
   2   5   0   78.85    1.24
   0   6   0   55.42    0.90
   0   6   0   55.59    0.95
   0   6   0   54.72    0.90
   0   6   0   55.28    0.93
  -1   6   0   64.75    1.12
  -1   6   0   65.61    1.08
   1   6   0   69.30    1.12
   1   6   0   69.54    1.13
  -1   6   0   65.07    1.12
  -1   6   0   64.84    1.13
   1   6   0   68.73    1.09
   1   6   0   69.73    1.14
  -1   6   0   65.02    1.11
   1   6   0   69.72    1.13
  -1   6   0   64.68    1.08
   1   6   0   71.39    1.09
  -2   6   0    7.81    0.17
  -2   6   0    7.71    0.20
   2   6   0    7.90    0.18
  -2   6   0    7.55    0.20
  -2   6   0    7.76    0.21
   2   6   0    7.84    0.18
  -2   6   0    8.09    0.18
  -2   6   0    7.81    0.19
   0   7   0   -0.14    0.03
   0   7   0   -0.13    0.03
   0   7   0   -0.12    0.03
   0   7   0   -0.13    0.03
   0   7   0   -0.07    0.03
   0   7   0   -0.13    0.03
  -1   7   0   17.30    0.35
  -1   7   0   17.09    0.37
   1   7   0   17.19    0.33
   1   7   0   17.03    0.38
  -1   7   0   16.65    0.32
  -1   7   0   17.15    0.37
  -1   7   0   17.01    0.36
   1   7   0   16.80    0.37
  -1   7   0   16.46    0.33
   1   7   0   17.19    0.36
   1   7   0   16.88    0.33
   1   7   0   16.83    0.37
  -2   7   0    4.65    0.16
   2   7   0    4.51    0.17
   2   7   0    4.50    0.16
   2   7   0    4.59    0.14
  -2   7   0    4.52    0.16
  -2   7   0    4.60    0.15
   2   7   0    4.36    0.16
  -2   7   0    4.73    0.16
  -2   7   0    4.80    0.13
   2   7   0    4.59    0.14
   2   7   0    4.49    0.15
  -2   7   0    4.73    0.14
   0   8   0    0.12    0.03
   0   8   0   -0.04    0.02
   0   8   0   -0.02    0.03
   0   8   0    0.16    0.03
   0   8   0   -0.02    0.03
   0   8   0   -0.05    0.02
  -1   8   0    8.73    0.24
  -1   8   0    8.55    0.20
  -1   8   0    8.59    0.23
   1   8   0    8.38    0.20
  -1   8   0    8.50    0.24
   1   8   0    8.64    0.25
   1   8   0    8.07    0.20
   1   8   0    8.52    0.23
   1   8   0    8.50    0.24
   1   8   0    8.50    0.24
  -1   8   0    8.57    0.25
  -1   8   0    8.45    0.20
   2   8   0   10.04    0.24
  -2   8   0   10.40    0.27
   2   8   0    9.82    0.27
   2   8   0   10.01    0.28
  -2   8   0   10.55    0.27
  -2   8   0   10.19    0.28
   2   8   0   10.26    0.24
  -2   8   0   10.23    0.25
   2   8   0    9.88    0.26
   2   8   0    9.81    0.28
  -2   8   0   10.29    0.23
  -2   8   0   10.37    0.23
   0   9   0    0.06    0.04
   0   9   0    0.13    0.04
   0   9   0    0.08    0.04
   0   9   0    0.06    0.04
   0   9   0    0.14    0.05
   0   9   0    0.06    0.03
   1   9   0    9.17    0.26
   1   9   0    9.44    0.23
  -1   9   0    9.46    0.27
   1   9   0    9.34    0.28
   1   9   0    9.47    0.23
  -1   9   0    9.92    0.27
   1   9   0    9.43    0.27
  -1   9   0    9.33    0.23
  -1   9   0    9.55    0.23
  -1   9   0    9.74    0.26
   1   9   0    9.46    0.27
  -1   9   0    9.67    0.28
  -2   9   0   40.14    0.74
   2   9   0   39.40    0.77
   2   9   0   40.27    0.71
   2   9   0   38.49    0.78
  -2   9   0   40.29    0.76
  -2   9   0   40.54    0.76
  -2   9   0   40.10    0.70
   2   9   0   39.36    0.75
   2   9   0   40.04    0.71
  -2   9   0   39.67    0.70
   2   9   0   39.67    0.77
  -2   9   0   40.86    0.77
   0  10   0   14.19    0.37
   0  10   0   14.31    0.37
   0  10   0   14.33    0.37
   0  10   0   14.38    0.32
   0  10   0   14.39    0.35
   0  10   0   14.26    0.31
   1  10   0   71.84    1.28
  -1  10   0   71.42    1.20
   1  10   0   72.37    1.25
  -1  10   0   71.88    1.21
  -1  10   0   73.60    1.28
  -1  10   0   72.07    1.27
  -1  10   0   71.35    1.25
  -1  10   0   72.58    1.29
   1  10   0   72.87    1.30
   1  10   0   71.97    1.21
   1  10   0   71.04    1.21
   1  10   0   72.84    1.28
  -2  10   0    0.33    0.06
  -2  10   0    0.19    0.05
   2  10   0    0.16    0.06
  -2  10   0    0.14    0.05
   2  10   0    0.29    0.06
   2  10   0    0.26    0.05
   2  10   0    0.24    0.06
   2  10   0    0.26    0.05
   2  10   0    0.28    0.06
  -2  10   0    0.20    0.06
  -2  10   0    0.18    0.05
  -2  10   0    0.31    0.06
   0  11   0   -0.01    0.03
   0  11   0   -0.01    0.04
   0  11   0   -0.01    0.04
   0  11   0    0.00    0.04
   0  11   0    0.03    0.05
   0  11   0   -0.01    0.04
   1  11   0   16.85    0.43
   1  11   0   17.26    0.44
  -1  11   0   16.59    0.37
  -1  11   0   16.80    0.44
   1  11   0   16.80    0.41
  -1  11   0   16.86    0.37
  -1  11   0   16.59    0.42
   1  11   0   17.05    0.45
  -1  11   0   16.46    0.40
  -1  11   0   16.73    0.43
   1  11   0   17.03    0.37
   1  11   0   16.94    0.37
   2  11   0    9.15    0.30
   2  11   0    9.18    0.28
   2  11   0    8.77    0.30
   2  11   0    9.12    0.25
   2  11   0    8.80    0.31
  -2  11   0    9.17    0.24
  -2  11   0    8.92    0.24
   2  11   0    9.71    0.25
   0  12   0   73.20    1.36
   0  12   0   73.32    1.31
   0  12   0   73.50    1.35
   0  12   0   75.26    1.27
   0  12   0   76.21    1.27
   0  12   0   73.95    1.35
   1  12   0   46.88    0.86
  -1  12   0   47.56    0.95
   1  12   0   46.57    0.85
   1  12   0   47.15    0.94
  -1  12   0   47.73    0.85
   1  12   0   46.79    0.94
  -1  12   0   47.45    0.85
  -1  12   0   47.80    0.93
  -1  12   0   48.02    0.90
   1  12   0   47.50    0.91
   1  12   0   46.90    0.95
  -1  12   0   48.13    0.94
   2  12   0   33.42    0.73
  -2  12   0   33.53    0.63
  -2  12   0   32.75    0.71
   2  12   0   32.81    0.72
  -2  12   0   33.59    0.69
  -2  12   0   33.23    0.72
   2  12   0   33.83    0.65
   2  12   0   33.59    0.70
   2  12   0   33.36    0.65
  -2  12   0   33.48    0.73
  -2  12   0   33.97    0.64
   2  12   0   32.91    0.74
   0  13   0    0.13    0.06
   0  13   0    0.04    0.04
   0  13   0    0.11    0.06
   0  13   0    0.09    0.05
   0  13   0    0.07    0.05
   0  13   0    0.06    0.05
   1  13   0    8.68    0.26
  -1  13   0    9.11    0.26
   1  13   0    8.25    0.25
   1  13   0    8.64    0.29
  -1  13   0    8.83    0.32
  -1  13   0    8.45    0.29
  -1  13   0    8.97    0.26
   1  13   0    8.73    0.32
  -1  13   0    8.46    0.31
  -1  13   0    8.59    0.31
   2  13   0    0.02    0.04
  -2  13   0    0.00    0.05
  -2  13   0    0.01    0.05
  -2  13   0   -0.05    0.05
  -2  13   0   -0.04    0.04
   2  13   0   -0.01    0.04
  -2  13   0   -0.01    0.05
   2  13   0    0.04    0.05
  -2  13   0   -0.02    0.04
   2  13   0    0.02    0.06
   0  14   0   93.67    1.58
   0  14   0   91.98    1.64
   0  14   0   91.30    1.68
   0  14   0   94.10    1.57
   1  14   0   12.52    0.38
  -1  14   0   12.78    0.40
  -1  14   0   12.51    0.37
  -1  14   0   12.63    0.33
   1  14   0   12.41    0.33
   1  14   0   12.34    0.33
   1  14   0   12.40    0.40
  -1  14   0   12.77    0.33
   2 -14   0   29.69    0.66
   2 -14   0   29.23    0.68
  -2  14   0   30.06    0.70
   2  14   0   29.73    0.61
   2  14   0   29.31    0.70
   2  14   0   29.45    0.67
  -2  14   0   29.62    0.60
  -2  14   0   29.46    0.60
   2  14   0   29.19    0.61
  -2  14   0   29.69    0.66
   0  15   0    0.15    0.06
   0  15   0    0.15    0.06
   0  15   0    0.14    0.07
   0  15   0    0.10    0.06
  -1  15   0    0.84    0.11
  -1  15   0    0.80    0.10
   1  15   0    0.72    0.11
   1  15   0    0.75    0.10
  -1  15   0    0.87    0.10
  -1  15   0    0.79    0.12
   1  15   0    0.71    0.12
   1  15   0    0.71    0.09
   2 -15   0    0.54    0.10
   2 -15   0    0.66    0.10
   2  15   0    0.61    0.10
   2  15   0    0.66    0.12
  -2  15   0    0.72    0.12
  -2  15   0    0.54    0.09
   2  15   0    0.56    0.09
   2  15   0    0.66    0.09
  -2  15   0    0.68    0.11
  -2  15   0    0.64    0.09
   0  16   0    4.17    0.19
   0  16   0    4.24    0.23
   0  16   0    4.15    0.24
   0  16   0    4.22    0.20
  -1  16   0   19.39    0.52
  -1  16   0   20.04    0.47
   1  16   0   19.80    0.47
   1  16   0   18.61    0.52
   1  16   0   19.45    0.56
  -1  16   0   19.60    0.47
  -1  16   0   19.60    0.56
   1  16   0   19.12    0.47
  -2 -16   0    0.07    0.08
   2 -16   0    0.05    0.06
  -2 -16   0    0.20    0.08
   2 -16   0    0.18    0.08
  -2  16   0    0.16    0.07
  -2  16   0    0.12    0.08
   2  16   0    0.03    0.07
  -2  16   0    0.12    0.07
   2  16   0   -0.02    0.06
   2  16   0    0.07    0.08
  -2  16   0    0.11    0.07
   2  16   0    0.19    0.09
   0  17   0    0.00    0.06
   0  17   0    0.06    0.06
   0  17   0   -0.01    0.06
   0  17   0   -0.06    0.06
  -1  17   0    2.65    0.21
  -1  17   0    2.30    0.16
  -1  17   0    2.54    0.19
  -1  17   0    2.43    0.16
   1  17   0    2.68    0.17
   1  17   0    2.48    0.17
   2  17   0    1.86    0.15
  -2  17   0    1.80    0.15
  -2  17   0    1.76    0.15
   2  17   0    1.73    0.15
   0  18   0   13.15    0.39
   0  18   0   13.78    0.40
   1  18   0    2.69    0.18
  -1  18   0    2.82    0.18
  -1  18   0    2.60    0.18
   1  18   0    2.72    0.19
   2  18   0    1.90    0.18
   2  18   0    1.85    0.16
  -2  18   0    1.91    0.16
  -2  18   0    1.88    0.16
   0  19   0    0.04    0.07
   0  19   0    0.09    0.07
   1  19   0    0.14    0.08
   1  19   0    0.18    0.09
  -1  19   0    0.20    0.08
  -1  19   0    0.20    0.08
   0  20   0    1.31    0.15
   0  20   0    1.37    0.15
  -1  20   0    2.76    0.19
  -1  20   0    2.19    0.18
   1  20   0    2.22    0.19
   1  20   0    2.37    0.21
   1   0  -1    0.18    0.02
  -1   0   1    0.15    0.02
   1   0  -1    0.17    0.02
  -1   0   1    0.15    0.02
   0   0  -1   -0.08    0.01
   0   0  -1   -0.06    0.01
   0   0   1   -0.10    0.01
  -1   0  -1  333.59    5.09
   1   0   1  323.71    5.08
  -1   0  -1  335.57    5.11
   1   0   1  324.01    5.10
   1  -1  -1  283.64    4.27
  -1  -1   1  274.14    4.28
  -1  -1   1  269.38    4.32
  -1  -1   1  270.11    4.30
  -1  -1   1  271.77    4.31
  -1  -1   1  270.21    4.27
   1  -1  -1  280.21    4.25
  -1  -1   1  273.25    4.30
  -1   1   1  265.90    4.26
   1   1  -1  274.30    4.30
   1   1  -1  275.28    4.27
  -1   1   1  271.70    4.25
   0  -1  -1   -0.02    0.01
   0  -1  -1   -0.01    0.01
   0  -1   1    0.01    0.01
   0  -1   1   -0.01    0.01
   0  -1   1    0.01    0.01
   0  -1   1    0.02    0.01
   0   1  -1    0.04    0.01
   0   1  -1    0.01    0.01
   0   1   1   -0.01    0.01
   0   1  -1    0.01    0.01
   0   1  -1    0.02    0.01
   0   1   1   -0.03    0.01
   1  -1   1  263.11    4.21
  -1  -1  -1  263.92    4.18
   1  -1   1  270.00    4.18
  -1  -1  -1  274.24    4.21
   1  -1   1  262.74    4.22
   1  -1   1  269.48    4.20
   1  -1   1  279.17    4.22
   1  -1   1  270.58    4.19
   1   1   1  264.51    4.22
   1   1   1  267.17    4.20
  -1   1  -1  267.26    4.20
  -1   1  -1  270.65    4.18
  -2  -2   1    9.46    0.18
  -2  -2   1    9.54    0.18
  -2  -2   1    9.55    0.18
  -2  -2   1    9.67    0.18
  -1  -2   1   38.37    0.61
   1  -2  -1   38.40    0.61
  -1  -2   1   38.06    0.62
  -1  -2   1   38.07    0.62
  -1  -2   1   38.00    0.62
  -1  -2   1   37.80    0.62
   1  -2  -1   38.40    0.61
  -1  -2   1   38.03    0.61
   1   2  -1   38.36    0.62
   1   2  -1   38.11    0.62
   1   2  -1   38.28    0.61
  -1   2   1   37.61    0.61
   1   2  -1   38.63    0.62
  -1   2   1   37.89    0.61
   0  -2   1    0.14    0.02
   0  -2  -1    0.12    0.02
   0  -2   1    0.12    0.02
   0  -2  -1    0.11    0.02
   0  -2   1    0.14    0.02
   0  -2   1    0.10    0.02
   0  -2   1    0.16    0.02
   0  -2   1    0.16    0.02
   0   2  -1    0.12    0.02
   0   2   1    0.10    0.02
   0   2  -1    0.12    0.02
   0   2  -1    0.13    0.02
   0   2  -1    0.12    0.02
   0   2  -1    0.11    0.02
   0   2   1    0.11    0.02
   0   2  -1    0.09    0.02
   1  -2   1  235.78    3.77
   1  -2   1  234.49    3.80
   1  -2   1  242.44    3.75
   1  -2   1  233.29    3.77
  -1  -2  -1  238.44    3.72
  -1  -2  -1  231.59    3.73
   1  -2   1  236.76    3.80
   1  -2   1  240.85    3.75
   1   2   1  237.97    3.80
  -1   2  -1  235.97    3.74
   1   2   1  239.28    3.77
  -1   2  -1  241.40    3.78
  -2  -2  -1  272.93    4.18
  -2  -2  -1  277.86    4.19
   2   2   1  267.47    4.25
   2   2   1  270.44    4.27
  -2  -3   1    1.00    0.05
  -2  -3   1    1.08    0.05
   2  -3  -1    0.99    0.05
  -2  -3   1    0.99    0.05
  -2  -3   1    1.04    0.05
   2  -3  -1    0.98    0.04
  -2   3   1    1.25    0.05
  -2   3   1    1.29    0.05
   2   3  -1    1.09    0.05
  -2   3   1    1.27    0.05
  -2   3   1    1.26    0.05
   2   3  -1    0.95    0.05
  -1  -3   1    3.62    0.10
   1  -3  -1    3.46    0.09
  -1  -3   1    3.43    0.10
  -1  -3   1    3.68    0.10
  -1  -3   1    3.41    0.10
  -1  -3   1    3.53    0.10
  -1  -3   1    3.44    0.09
   1  -3  -1    3.49    0.09
   1   3  -1    3.46    0.10
   1   3  -1    3.50    0.10
  -1   3   1    3.69    0.09
   1   3  -1    3.39    0.09
  -1   3   1    3.72    0.10
   1   3  -1    3.36    0.10
   0  -3   1    8.22    0.17
   0  -3  -1    7.88    0.17
   0  -3   1    8.23    0.17
   0  -3   1    7.92    0.17
   0  -3  -1    7.90    0.17
   0  -3   1    8.08    0.18
   0   3  -1    8.25    0.17
   0   3  -1    8.28    0.18
   0   3   1    8.04    0.17
   0   3  -1    8.47    0.18
   0   3   1    7.83    0.17
   0   3  -1    8.49    0.18
   1  -3   1  159.35    2.47
   1  -3   1  159.03    2.54
   1  -3   1  159.96    2.48
   1  -3   1  156.42    2.53
   1  -3   1  161.90    2.53
  -1  -3  -1  158.26    2.51
  -1  -3  -1  159.88    2.51
   1  -3   1  160.83    2.51
   1   3   1  161.84    2.48
  -1   3  -1  161.28    2.54
  -1   3  -1  163.75    2.59
   1   3   1  159.43    2.49
  -1   3  -1  161.75    2.55
  -1   3  -1  160.39    2.56
   2  -3   1    6.83    0.14
   2  -3   1    6.85    0.15
   2  -3   1    6.88    0.15
  -2  -3  -1    6.94    0.16
   2  -3   1    6.86    0.14
  -2  -3  -1    6.97    0.15
   2   3   1    6.99    0.16
   2   3   1    6.97    0.15
   2  -4  -1   35.61    0.59
  -2  -4   1   35.52    0.60
  -2  -4   1   34.84    0.61
   2  -4  -1   35.12    0.59
  -2   4   1   35.09    0.60
   2   4  -1   35.36    0.58
   2   4  -1   35.57    0.61
   2   4  -1   35.26    0.62
  -2   4   1   35.14    0.59
   2   4  -1   34.74    0.61
   2   4  -1   35.39    0.58
   2   4  -1   34.62    0.60
  -2   4   1   35.01    0.60
  -2   4   1   34.84    0.59
   1  -4  -1    3.59    0.10
   1  -4  -1    3.65    0.11
   1   4  -1    3.75    0.09
   1   4  -1    3.73    0.10
  -1   4   1    3.64    0.09
  -1   4   1    3.68    0.11
  -1   4   1    3.66    0.09
   1   4  -1    3.67    0.11
   1   4  -1    3.74    0.12
  -1   4   1    3.58    0.10
   1   4  -1    3.89    0.12
   1   4  -1    3.67    0.11
   0  -4   1   53.14    0.88
   0  -4   1   53.78    0.88
   0  -4   1   54.40    0.90
   0  -4   1   53.05    0.87
   0   4  -1   52.93    0.88
   0   4  -1   53.78    0.85
   0   4   1   51.81    0.87
   0   4  -1   53.53    0.85
   0   4   1   53.40    0.85
   0   4  -1   52.21    0.88
   0   4   1   53.69    0.85
   0   4  -1   52.39    0.86
   0   4   1   51.75    0.86
   0   4  -1   51.93    0.87
   1  -4   1   73.55    1.18
   1  -4   1   75.57    1.20
   1  -4   1   72.86    1.19
   1  -4   1   75.28    1.18
   1   4   1   73.27    1.17
   1   4   1   73.11    1.19
  -1   4  -1   74.26    1.20
  -1   4  -1   74.01    1.20
   1   4   1   73.96    1.17
   1   4   1   73.52    1.20
  -1   4  -1   74.06    1.18
  -1   4  -1   74.32    1.20
  -1   4  -1   75.72    1.17
  -1   4  -1   74.91    1.17
   2  -4   1    4.77    0.13
   2  -4   1    4.65    0.12
   2  -4   1    5.53    0.12
   2  -4   1    5.48    0.13
   2   4   1    4.55    0.13
  -2   4  -1    4.86    0.12
   2   4   1    4.65    0.14
  -2   4  -1    4.85    0.13
  -2  -5   1  148.90    2.39
  -2  -5   1  150.03    2.38
   2   5  -1  151.00    2.38
  -2   5   1  153.43    2.38
   2   5  -1  151.89    2.35
  -2   5   1  152.57    2.39
   2   5  -1  150.82    2.39
   2   5  -1  150.92    2.35
  -2   5   1  151.89    2.37
   2   5  -1  152.31    2.39
  -2   5   1  153.14    2.38
   2   5  -1  150.40    2.40
  -1   5   1  261.65    4.03
   1   5  -1  267.75    4.10
   1   5  -1  259.77    4.03
   1   5  -1  261.72    4.08
   1   5  -1  257.56    4.03
   1   5  -1  266.19    4.15
  -1   5   1  264.23    4.06
   1   5  -1  260.85    4.07
   0   5   1   51.17    0.87
   0   5  -1   50.58    0.83
   0   5  -1   50.93    0.87
   0   5  -1   51.71    0.87
   0   5   1   52.03    0.83
   0   5  -1   51.72    0.87
   0   5  -1   51.21    0.83
   0   5  -1   51.08    0.85
   0   5   1   52.00    0.86
   0   5   1   51.52    0.83
  -1   5  -1    0.00    0.01
   1   5   1    0.03    0.02
  -1   5  -1    0.00    0.01
  -1   5  -1   -0.01    0.01
   1   5   1    0.02    0.02
  -1   5  -1    0.02    0.01
   1   5   1   -0.02    0.02
   1   5   1    0.00    0.02
   2  -5   1   34.14    0.59
   2  -5   1   33.98    0.57
  -2   5  -1   32.66    0.55
   2   5   1   32.25    0.58
   2   5   1   31.98    0.60
  -2   5  -1   32.55    0.55
  -2   5  -1   35.58    0.59
  -2  -6   1    2.06    0.10
  -2  -6   1    1.98    0.10
   2   6  -1    2.10    0.11
   2   6  -1    1.99    0.10
  -2   6   1    2.07    0.10
   2   6  -1    2.01    0.10
   2   6  -1    2.01    0.08
   2   6  -1    1.95    0.09
  -2   6   1    2.01    0.09
  -2   6   1    2.12    0.10
   2   6  -1    1.96    0.08
  -2   6   1    1.97    0.10
   1   6  -1   62.99    1.03
  -1   6   1   63.66    1.02
  -1   6   1   62.71    1.06
  -1   6   1   64.44    1.02
   1   6  -1   63.83    1.02
  -1   6   1   63.65    1.05
   1   6  -1   62.66    1.07
   1   6  -1   62.34    1.05
   1   6  -1   62.17    1.07
   1   6  -1   62.94    1.08
   0   6   1   92.19    1.48
   0   6   1   88.35    1.46
   0   6  -1   92.08    1.51
   0   6  -1   93.57    1.46
   0   6   1   90.84    1.46
   0   6  -1   92.50    1.50
   0   6  -1   92.24    1.50
   0   6  -1   91.81    1.46
   0   6  -1   91.78    1.48
   0   6   1   93.15    1.50
  -1   6  -1   75.48    1.20
  -1   6  -1   75.05    1.25
  -1   6  -1   75.70    1.24
   1   6   1   74.22    1.23
  -1   6  -1   74.40    1.20
   1   6   1   74.55    1.20
  -1   6  -1   74.55    1.24
   1   6   1   75.84    1.20
   1   6   1   74.81    1.25
  -1   6  -1   74.23    1.22
   2  -6   1   27.57    0.50
   2  -6   1   27.31    0.51
  -2   6  -1   27.90    0.52
   2   6   1   27.77    0.53
  -2   6  -1   27.44    0.48
   2   6   1   27.73    0.53
   2   6   1   27.66    0.51
  -2   6  -1   27.41    0.52
   2   6   1   27.66    0.54
  -2   6  -1   27.75    0.48
  -2   6  -1   27.57    0.50
  -2   6  -1   27.62    0.52
  -2  -7   1  129.23    2.06
  -2  -7   1  130.65    2.09
  -2   7   1  128.55    2.07
  -2   7   1  128.71    2.08
   2   7  -1  127.68    2.03
  -2   7   1  127.44    2.05
  -2   7   1  128.70    2.07
   2   7  -1  127.92    2.08
   2   7  -1  128.82    2.10
   2   7  -1  129.74    2.09
   2   7  -1  126.09    2.03
   2   7  -1  129.06    2.06
  -1   7   1    0.01    0.02
   1   7  -1   -0.02    0.03
   1   7  -1   -0.04    0.02
  -1   7   1    0.14    0.03
  -1   7   1    0.11    0.03
   1   7  -1    0.01    0.03
   1   7  -1    0.00    0.03
   1   7  -1    0.02    0.03
   1   7  -1   -0.02    0.02
  -1   7   1    0.00    0.02
   0   7  -1  231.53    3.63
   0   7   1  231.17    3.63
   0   7  -1  231.22    3.74
   0   7  -1  238.41    3.73
   0   7   1  235.13    3.72
   0   7   1  234.86    3.75
   0   7  -1  234.72    3.63
   0   7   1  231.80    3.63
   0   7  -1  237.51    3.76
   0   7  -1  242.19    3.83
  -1   7  -1    0.04    0.03
  -1   7  -1    0.05    0.03
  -1   7  -1    0.05    0.02
  -1   7  -1    0.06    0.03
   1   7   1    0.13    0.03
   1   7   1    0.06    0.03
   1   7   1    0.12    0.03
   1   7   1    0.07    0.03
  -1   7  -1    0.03    0.02
  -1   7  -1    0.02    0.03
   2  -7   1    0.15    0.03
   2  -7   1    0.14    0.04
   2   7   1    0.14    0.04
  -2   7  -1    0.09    0.04
  -2   7  -1    0.13    0.04
  -2   7  -1    0.17    0.04
   2   7   1    0.16    0.05
   2   7   1    0.13    0.04
   2   7   1    0.12    0.04
  -2   7  -1    0.14    0.04
   2   7   1    0.14    0.03
  -2   7  -1    0.09    0.04
  -2   7  -1    0.17    0.04
   2   7   1    0.07    0.04
  -2   8   1    5.05    0.18
  -2   8   1    4.92    0.18
   2   8  -1    4.92    0.19
  -2   8   1    4.93    0.15
   2   8  -1    5.01    0.19
   2   8  -1    5.86    0.16
  -2   8   1    5.04    0.15
   2   8  -1    5.98    0.16
   2   8  -1    4.92    0.17
   2   8  -1    4.86    0.18
  -2   8   1    4.99    0.18
  -2   8   1    4.78    0.16
  -1   8   1   17.40    0.34
   1   8  -1   16.86    0.37
   1   8  -1   16.87    0.40
  -1   8   1   17.16    0.34
  -1   8   1   17.30    0.39
  -1   8   1   17.07    0.37
   1   8  -1   16.96    0.39
   1   8  -1   17.05    0.39
   1   8  -1   16.62    0.34
   1   8  -1   16.75    0.34
   0   8  -1  103.18    1.73
   0   8   1  103.94    1.70
   0   8  -1  103.21    1.72
   0   8   1  104.73    1.66
   0   8  -1  103.92    1.72
   0   8  -1  107.49    1.67
   0   8  -1  104.01    1.67
   0   8   1  104.37    1.72
   0   8  -1  102.75    1.70
   0   8   1  102.63    1.66
  -1   8  -1   14.48    0.34
  -1   8  -1   13.97    0.34
  -1   8  -1   14.34    0.29
   1   8   1   14.78    0.30
  -1   8  -1   14.05    0.32
  -1   8  -1   14.26    0.29
   1   8   1   14.21    0.34
  -1   8  -1   14.39    0.35
   1   8   1   13.80    0.32
   1   8   1   13.71    0.30
   2  -8   1    7.91    0.23
   2  -8   1    7.86    0.21
   2   8   1    8.02    0.23
  -2   8  -1    7.97    0.22
   2   8   1    7.77    0.20
  -2   8  -1    7.99    0.24
  -2   8  -1    7.99    0.23
   2   8   1    7.92    0.24
  -2   8  -1    7.68    0.19
   2   8   1    7.69    0.24
   2   8   1    8.09    0.20
  -2   8  -1    7.68    0.19
  -2   8  -1    7.82    0.23
   2   8   1    8.09    0.24
   2   9  -1   24.75    0.48
  -2   9   1   25.15    0.53
  -2   9   1   25.89    0.48
  -2   9   1   25.86    0.55
  -2   9   1   25.51    0.53
   2   9  -1   25.50    0.56
   2   9  -1   24.93    0.54
   2   9  -1   25.30    0.52
   2   9  -1   25.59    0.49
  -2   9   1   25.37    0.51
  -2   9   1   25.64    0.48
   2   9  -1   25.04    0.54
   1   9  -1   96.89    1.63
  -1   9   1   96.64    1.62
   1   9  -1   95.57    1.64
  -1   9   1   95.06    1.55
   1   9  -1   95.81    1.60
   1   9  -1   95.31    1.55
   1   9  -1   94.93    1.56
  -1   9   1   95.08    1.55
   1   9  -1   96.76    1.63
  -1   9   1   95.73    1.59
   0   9  -1   57.06    0.96
   0   9   1   56.77    1.00
   0   9  -1   57.23    0.96
   0   9   1   57.09    1.03
   0   9  -1   56.98    1.03
   0   9  -1   56.77    1.02
   0   9  -1   56.11    1.00
   0   9   1   57.02    0.96
   0   9   1   57.30    0.96
   0   9  -1   57.23    1.02
   1   9   1    1.98    0.10
   1   9   1    1.93    0.12
  -1   9  -1    2.01    0.10
   1   9   1    1.87    0.10
  -1   9  -1    1.88    0.12
  -1   9  -1    1.92    0.11
   1   9   1    1.98    0.11
  -1   9  -1    2.00    0.12
  -1   9  -1    1.86    0.09
  -1   9  -1    1.97    0.12
   2  -9   1    0.78    0.09
   2  -9   1    0.79    0.09
  -2   9  -1    0.91    0.09
   2   9   1    0.64    0.07
   2   9   1    0.78    0.08
   2   9   1    0.74    0.09
  -2   9  -1    0.83    0.09
  -2   9  -1    0.73    0.09
   2   9   1    0.83    0.10
  -2   9  -1    0.86    0.09
  -2   9  -1    0.94    0.08
   2   9   1    0.76    0.07
   2   9   1    0.79    0.09
  -2 -10   1    0.18    0.05
  -2 -10   1    0.19    0.05
  -2  10   1    0.12    0.04
   2  10  -1    0.13    0.04
   2  10  -1    0.15    0.05
   2  10  -1    0.14    0.04
  -2  10   1    0.18    0.04
   2  10  -1    0.24    0.06
  -2  10   1    0.17    0.04
  -2  10   1    0.12    0.05
  -2  10   1    0.17    0.05
  -2  10   1    0.12    0.05
   2  10  -1    0.09    0.05
   2  10  -1    0.16    0.05
  -1  10   1    0.17    0.06
  -1  10   1    0.06    0.05
  -1  10   1    0.19    0.05
  -1  10   1    0.09    0.05
   1  10  -1    0.20    0.06
   1  10  -1    0.17    0.05
  -1  10   1    0.10    0.05
   1  10  -1    0.30    0.06
  -1  10   1    0.22    0.05
   1  10  -1    0.23    0.06
   1  10  -1    0.38    0.06
   1  10  -1    0.23    0.06
   0  10  -1    1.63    0.10
   0  10   1    1.66    0.10
   0  10  -1    1.42    0.12
   0  10  -1    1.62    0.10
   0  10   1    1.63    0.11
   0  10  -1    1.51    0.10
   0  10   1    1.58    0.09
   0  10   1    1.56    0.12
   0  10  -1    1.52    0.11
   0  10  -1    1.64    0.12
   1  10   1   88.95    1.54
  -1  10  -1   89.33    1.46
   1  10   1   89.55    1.52
   1  10   1   89.07    1.47
  -1  10  -1   88.11    1.53
  -1  10  -1   87.47    1.50
   1  10   1   89.63    1.46
   1  10   1   89.40    1.54
  -1  10  -1   89.74    1.55
  -1  10  -1   87.75    1.53
  -1  10  -1   88.81    1.46
   1  10   1   89.96    1.56
   2 -10   1   11.26    0.30
   2 -10   1   11.22    0.31
   2  10   1   11.11    0.32
  -2  10  -1   11.24    0.27
   2  10   1   11.59    0.28
   2  10   1   11.30    0.32
  -2  10  -1   11.50    0.32
   2  10   1   11.33    0.28
   2  10   1   11.10    0.33
  -2  10  -1   11.32    0.27
  -2  10  -1   11.06    0.32
  -2  10  -1   11.61    0.33
   2  10   1   11.19    0.31
  -2  10  -1   11.32    0.30
  -2 -11   1    5.62    0.21
  -2 -11   1    5.64    0.23
  -2  11   1    5.48    0.18
   2  11  -1    5.55    0.24
   2  11  -1    5.49    0.19
   2  11  -1    5.74    0.23
  -2  11   1    5.70    0.18
   2  11  -1    5.87    0.22
   2  11  -1    5.43    0.23
   2  11  -1    5.66    0.19
  -1  11   1   19.99    0.42
   1  11  -1   20.41    0.49
   1  11  -1   20.39    0.43
  -1  11   1   20.58    0.49
  -1  11   1   20.23    0.42
   1  11  -1   20.41    0.43
  -1  11   1   21.11    0.49
   1  11  -1   20.41    0.51
  -1  11   1   20.01    0.46
   1  11  -1   20.64    0.50
  -1  11   1   20.85    0.50
   1  11  -1   20.73    0.47
   0  11  -1    6.58    0.21
   0  11  -1    6.75    0.26
   0  11   1    6.85    0.21
   0  11   1    7.01    0.25
   0  11  -1    6.87    0.25
   0  11  -1    6.94    0.24
   0  11   1    7.01    0.21
   0  11  -1    6.65    0.25
   0  11   1    7.06    0.25
   0  11   1    7.02    0.26
   0  11  -1    6.90    0.21
   0  11   1    7.15    0.24
   1  11   1   33.59    0.70
  -1  11  -1   33.19    0.69
   1  11   1   32.28    0.69
   1  11   1   32.42    0.62
   1  11   1   32.31    0.66
   1  11   1   32.68    0.70
  -1  11  -1   32.85    0.62
  -1  11  -1   32.64    0.69
  -1  11  -1   33.17    0.62
  -1  11  -1   33.23    0.70
  -1  11  -1   32.61    0.66
   1  11   1   32.05    0.62
   2 -11   1    2.29    0.13
   2 -11   1    2.40    0.15
   2  11   1    2.23    0.12
  -2  11  -1    2.18    0.12
   2  11   1    2.39    0.16
   2  11   1    2.40    0.16
   2  11   1    2.21    0.15
   2  11   1    2.29    0.14
  -2  11  -1    2.19    0.12
   2  11   1    2.07    0.12
  -2 -12   1    4.15    0.19
  -2 -12   1    3.90    0.21
   2  12  -1    3.86    0.19
   2  12  -1    3.98    0.17
   2  12  -1    4.13    0.21
   2  12  -1    3.93    0.21
   2  12  -1    4.07    0.17
  -2  12   1    3.87    0.18
  -2  12   1    3.83    0.21
  -2  12   1    3.97    0.16
  -2  12   1    4.11    0.20
  -2  12   1    3.97    0.20
  -2  12   1    3.94    0.16
   2  12  -1    4.02    0.21
   1  12  -1    4.03    0.16
   1  12  -1    4.09    0.20
  -1  12   1    4.05    0.16
  -1  12   1    3.90    0.16
   1  12  -1    3.81    0.20
  -1  12   1    4.05    0.20
   1  12  -1    3.98    0.18
  -1  12   1    4.01    0.20
  -1  12   1    3.97    0.19
   1  12  -1    3.91    0.16
  -1  12   1    3.94    0.18
   1  12  -1    4.18    0.21
   0  12  -1   29.50    0.67
   0  12   1   28.66    0.65
   0  12   1   28.13    0.57
   0  12  -1   29.02    0.57
   0  12  -1   29.10    0.62
   0  12   1   29.69    0.62
   0  12  -1   29.13    0.65
   0  12  -1   29.37    0.65
   0  12   1   28.89    0.65
   0  12   1   29.55    0.66
   0  12   1   28.54    0.57
   0  12  -1   29.43    0.57
   1  12   1    1.57    0.11
  -1  12  -1    1.74    0.14
   1  12   1    1.43    0.14
   1  12   1    1.88    0.14
  -1  12  -1    1.75    0.11
   1  12   1    1.73    0.14
  -1  12  -1    1.86    0.15
   1  12   1    1.67    0.15
   1  12   1    1.67    0.11
  -1  12  -1    1.81    0.11
  -1  12  -1    1.97    0.15
  -1  12  -1    1.94    0.13
   2 -12   1    7.45    0.25
   2 -12   1    7.54    0.27
   2  12   1    7.45    0.23
  -2  12  -1    6.69    0.27
  -2  12  -1    7.21    0.22
  -2  12  -1    7.31    0.23
   2  12   1    7.27    0.26
   2  12   1    7.35    0.23
  -2  12  -1    6.75    0.25
   2  12   1    7.30    0.28
  -2  12  -1    6.60    0.26
   2  12   1    7.17    0.28
  -2  12  -1    6.65    0.26
   2  12   1    7.41    0.29
  -2 -13   1   20.95    0.51
  -2 -13   1   21.09    0.54
  -2  13   1   20.47    0.45
  -2  13   1   20.75    0.66
  -2  13   1   20.91    0.45
   2  13  -1   20.57    0.46
  -2  13   1   20.03    0.52
   2  13  -1   20.68    0.54
  -2  13   1   20.73    0.50
   2  13  -1   21.05    0.51
   2  13  -1   20.49    0.46
  -2  13   1   20.67    0.64
   1  13  -1   20.17    0.50
  -1  13   1   20.42    0.44
   1  13  -1   20.20    0.45
  -1  13   1   19.92    0.55
  -1  13   1   20.29    0.52
  -1  13   1   19.97    0.49
   1  13  -1   19.93    0.52
  -1  13   1   20.45    0.45
   1  13  -1   20.03    0.45
  -1  13   1   20.81    0.53
   0  13   1    0.79    0.12
   0  13  -1    0.73    0.09
   0  13  -1    1.27    0.11
   0  13  -1    1.13    0.10
   0  13  -1    0.67    0.11
   0  13  -1    0.68    0.11
   0  13   1    0.79    0.12
   0  13   1    1.00    0.11
   0  13  -1    0.81    0.11
   0  13   1    1.24    0.11
   0  13   1    0.77    0.10
   0  13   1    1.06    0.10
   1  13   1   -0.05    0.05
   1  13   1   -0.08    0.05
  -1  13  -1    0.06    0.05
  -1  13  -1    0.07    0.05
  -1  13  -1    0.07    0.05
  -1  13  -1    0.08    0.06
   1  13   1   -0.09    0.04
   1  13   1   -0.07    0.05
  -1  13  -1    0.03    0.05
  -1  13  -1    0.01    0.05
   2 -13   1    4.67    0.22
   2 -13   1    4.58    0.20
   2  13   1    4.39    0.23
   2  13   1    4.69    0.19
   2  13   1    4.63    0.19
  -2  13  -1    4.51    0.21
   2  13   1    4.58    0.21
  -2  13  -1    4.68    0.18
  -2  13  -1    4.61    0.23
  -2  13  -1    5.03    0.18
  -2 -14   1   -0.04    0.05
  -2 -14   1   -0.03    0.06
  -2  14   1   -0.07    0.05
  -2  14   1    0.00    0.05
   2  14  -1    0.01    0.05
  -2  14   1    0.00    0.05
   2  14  -1   -0.03    0.06
   2  14  -1   -0.02    0.06
   2  14  -1   -0.03    0.04
  -2  14   1   -0.01    0.05
   1  14  -1    1.36    0.13
   1  14  -1    1.59    0.12
  -1  14   1    1.62    0.12
   1  14  -1    1.43    0.12
  -1  14   1    1.65    0.14
  -1  14   1    1.44    0.14
  -1  14   1    1.48    0.12
   1  14  -1    1.42    0.15
   0  14   1    3.70    0.18
   0  14  -1    4.08    0.21
   0  14   1    3.73    0.22
   0  14  -1    3.87    0.18
   0  14  -1    3.81    0.22
   0  14   1    3.64    0.20
   0  14   1    3.88    0.18
   0  14  -1    3.72    0.17
  -1  14  -1    6.89    0.23
   1  14   1    6.42    0.26
  -1  14  -1    6.89    0.28
   1  14   1    6.85    0.23
   1  14   1    6.77    0.23
   1  14   1    6.73    0.29
  -1  14  -1    7.12    0.23
  -1  14  -1    6.57    0.26
   2 -14   1    3.49    0.20
   2 -14   1    3.64    0.19
   2  14   1    3.53    0.17
   2  14   1    3.15    0.17
  -2  14  -1    3.34    0.16
   2  14   1    3.60    0.20
  -2  14  -1    3.26    0.19
   2  14   1    3.19    0.21
  -2  14  -1    3.33    0.16
  -2  14  -1    3.53    0.21
  -2 -15   1    7.93    0.33
  -2 -15   1    7.62    0.30
  -2  15   1    7.52    0.31
   2  15  -1    7.79    0.26
  -2  15   1    7.72    0.29
   2  15  -1    7.36    0.30
   2  15  -1    8.01    0.27
   2  15  -1    7.81    0.33
  -1  15   1    2.74    0.18
   1  15  -1    2.57    0.20
  -1  15   1    2.87    0.16
   1  15  -1    2.58    0.15
  -1  15   1    2.74    0.16
   1  15  -1    2.85    0.16
   1  15  -1    2.84    0.19
  -1  15   1    2.84    0.20
   0  15   1    1.61    0.13
   0  15   1    1.44    0.12
   0  15  -1    1.39    0.12
   0  15  -1    1.42    0.15
   0  15  -1    1.40    0.14
   0  15  -1    1.46    0.13
   0  15   1    1.71    0.16
   0  15   1    1.78    0.15
   1 -15   1    6.05    0.27
   1 -15   1    5.61    0.25
   1  15   1    5.80    0.22
  -1  15  -1    5.64    0.25
   1  15   1    5.82    0.23
   1  15   1    5.84    0.26
   1  15   1    5.88    0.28
  -1  15  -1    5.92    0.22
  -1  15  -1    5.56    0.22
  -1  15  -1    5.75    0.27
   2 -15   1    4.10    0.23
   2 -15   1    4.04    0.21
   2  15   1    4.29    0.20
   2  15   1    4.19    0.19
   2  15   1    3.86    0.22
  -2  15  -1    4.16    0.24
  -2  15  -1    4.07    0.19
   2  15   1    4.26    0.24
  -2  15  -1    4.45    0.19
  -2  15  -1    4.38    0.22
  -2 -16   1    8.90    0.34
  -2 -16   1    8.89    0.36
   2  16  -1    8.49    0.36
   2  16  -1    8.90    0.29
  -2  16   1    8.23    0.35
   2  16  -1    8.34    0.33
   2  16  -1    9.28    0.30
  -2  16   1    8.87    0.33
  -1 -16   1    0.05    0.07
  -1 -16   1    0.07    0.07
   1  16  -1    0.07    0.07
  -1  16   1    0.04    0.06
  -1  16   1    0.07    0.06
  -1  16   1    0.12    0.07
  -1  16   1    0.05    0.07
   1  16  -1    0.03    0.06
   1  16  -1   -0.03    0.06
   1  16  -1   -0.03    0.06
   0  16   1    5.70    0.22
   0  16  -1    5.49    0.22
   0  16  -1    6.03    0.29
   0  16   1    5.90    0.26
   0  16  -1    5.63    0.26
   0  16  -1    5.61    0.22
   0  16   1    5.59    0.28
   0  16   1    5.95    0.23
   1 -16   1    0.06    0.07
   1 -16   1    0.05    0.06
   1  16   1   -0.05    0.05
   1  16   1   -0.01    0.06
   1  16   1   -0.02    0.06
  -1  16  -1   -0.07    0.06
  -1  16  -1    0.01    0.07
   1  16   1   -0.03    0.06
  -1  16  -1    0.11    0.06
  -1  16  -1   -0.02    0.05
   2 -16   1   15.85    0.48
   2 -16   1   15.18    0.45
  -2  16  -1   15.52    0.49
  -2  16  -1   15.69    0.46
  -2  16  -1   15.05    0.39
  -2  16  -1   15.41    0.40
   2  16   1   15.08    0.49
   2  16   1   15.97    0.47
   2  17  -1    0.15    0.07
   2  17  -1    0.19    0.08
  -1  17   1   10.93    0.39
  -1  17   1   10.89    0.33
   1  17  -1   11.18    0.35
  -1  17   1   11.39    0.43
  -1  17   1   11.49    0.34
   1  17  -1   11.00    0.34
   0 -17   1    3.62    0.24
   0 -17   1    3.61    0.22
   0  17   1    3.95    0.23
   0  17  -1    3.51    0.19
   0  17   1    3.69    0.24
   0  17  -1    3.62    0.19
   0  17  -1    3.74    0.23
   0  17   1    3.60    0.19
   0  17  -1    3.77    0.24
   0  17   1    3.61    0.19
   1 -17   1    1.43    0.15
   1 -17   1    1.59    0.17
  -1  17  -1    1.76    0.18
   1  17   1    1.62    0.15
   1  17   1    1.58    0.14
  -1  17  -1    1.83    0.15
  -1  17  -1    1.99    0.17
  -1  17  -1    1.73    0.15
  -2  17  -1    0.03    0.06
  -2  17  -1   -0.01    0.06
   2  18  -1    0.24    0.09
   2  18  -1    0.37    0.09
  -1  18   1    0.13    0.07
  -1  18   1    0.15    0.07
   1  18  -1    0.08    0.08
   1  18  -1    0.04    0.07
   0  18  -1    3.27    0.19
   0  18  -1    2.88    0.19
   0  18   1    3.26    0.19
   0  18   1    2.80    0.19
   1  18   1    8.10    0.30
  -1  18  -1    7.73    0.29
  -1  18  -1    7.51    0.28
   1  18   1    8.01    0.29
  -2  18  -1    4.17    0.21
  -2  18  -1    4.27    0.22
   2  19  -1    3.16    0.21
   2  19  -1    3.29    0.22
   1  19  -1    2.01    0.17
   1  19  -1    1.55    0.15
   0  19   1    2.56    0.18
   0  19  -1    2.67    0.19
   0  19   1    2.68    0.19
   0  19  -1    2.46    0.18
  -1  19  -1    3.74    0.21
  -1  19  -1    3.53    0.20
  -2  19  -1    0.27    0.09
  -2  19  -1    0.36    0.09
   1  20  -1    0.16    0.09
   1  20  -1    0.20    0.10
   0  20  -1    0.98    0.13
   0  20  -1    0.85    0.13
  -1  20  -1    6.46    0.28
  -1  20  -1    6.44    0.29
   2   0  -2   94.54    1.46
   2   0  -2   95.00    1.47
  -2   0   2   95.31    1.46
  -2   0   2   94.57    1.47
  -2   0   2   94.30    1.46
  -2   0   2   94.59    1.47
   1   0  -2    0.01    0.01
   1   0  -2    0.03    0.02
  -1   0   2   -0.03    0.01
   0   0   2   93.33    1.52
   0   0  -2   94.16    1.45
   0   0  -2   93.61    1.45
   0   0   2   91.84    1.52
  -1   0  -2   -0.08    0.02
   1   0   2   -0.11    0.02
   1   0   2   -0.11    0.01
  -1   0  -2   -0.11    0.02
   2   0   2    0.00    0.01
  -2   0  -2    0.03    0.01
  -2   0  -2    0.02    0.01
   2   0   2    0.01    0.01
   2  -1  -2   12.91    0.23
   2  -1  -2   12.73    0.23
  -2  -1   2   14.56    0.24
  -2  -1   2   12.87    0.23
  -2  -1   2   12.74    0.24
  -2  -1   2   14.33    0.23
  -2   1   2   12.38    0.23
  -2   1   2   12.39    0.23
   1  -1  -2  255.74    3.99
  -1  -1   2  251.91    4.00
  -1  -1   2  255.02    4.01
  -1  -1   2  251.54    4.00
   1  -1  -2  257.78    4.02
  -1  -1   2  260.30    4.04
   1   1  -2  251.28    3.99
  -1   1   2  249.35    4.00
  -1   1   2  247.99    4.02
   1   1  -2  255.05    4.04
   0  -1   2  205.96    3.32
   0  -1  -2  206.76    3.28
   0  -1  -2  205.09    3.26
   0  -1   2  203.65    3.36
   0   1  -2  205.27    3.35
   0   1  -2  205.51    3.31
   0   1   2  206.77    3.37
   0   1   2  206.23    3.33
  -1  -1  -2 1000.00   14.75
  -1  -1  -2  966.60   14.69
   1  -1   2  919.79   16.97
   1  -1   2  961.32   17.35
   1   1   2  937.11   14.73
   1   1   2  946.10   14.69
  -1   1  -2  935.38   14.69
  -1   1  -2  942.75   14.65
  -2  -1  -2   20.62    0.35
   2  -1   2   20.35    0.35
   2  -1   2   20.59    0.34
   2  -1   2   21.00    0.34
   2  -1   2   20.71    0.35
  -2  -1  -2   20.66    0.35
   2  -1   2   20.44    0.35
   2  -1   2   20.25    0.35
  -2   1  -2   20.65    0.34
   2   1   2   20.28    0.35
  -2   1  -2   20.62    0.35
   2   1   2   20.47    0.35
  -2  -2   2  102.86    1.64
  -2  -2   2  102.24    1.64
  -2  -2   2  103.01    1.64
   2  -2  -2  106.40    1.62
  -2  -2   2  107.10    1.64
  -2  -2   2  103.35    1.63
  -2  -2   2  106.83    1.63
   2  -2  -2  106.52    1.63
  -2   2   2  105.11    1.63
  -2   2   2  104.96    1.62
   1  -2  -2    8.18    0.17
  -1  -2   2    7.91    0.17
  -1  -2   2    8.29    0.17
  -1  -2   2    8.38    0.17
  -1  -2   2    7.96    0.17
  -1  -2   2    7.89    0.17
  -1  -2   2    8.06    0.16
   1  -2  -2    8.13    0.16
  -1   2   2    8.07    0.17
  -1   2   2    8.15    0.16
   1   2  -2    8.08    0.17
   1   2  -2    8.00    0.17
   0  -2   2   94.78    1.52
   0  -2   2   96.68    1.51
   0  -2   2   98.54    1.52
   0  -2   2   96.22    1.51
   0  -2  -2   98.12    1.51
   0  -2  -2   97.51    1.52
   0   2   2   96.64    1.51
   0   2  -2   91.93    1.51
   0   2  -2   98.33    1.52
   0   2  -2   95.71    1.52
   0   2  -2   97.36    1.51
   0   2   2   95.33    1.52
   1  -2   2   16.28    0.29
  -1  -2  -2   16.58    0.30
   1  -2   2   16.40    0.30
  -1  -2  -2   16.22    0.29
   1  -2   2   16.19    0.30
   1  -2   2   16.61    0.29
   1  -2   2   16.40    0.30
   1  -2   2   16.60    0.30
   1   2   2   16.54    0.29
  -1   2  -2   16.21    0.30
   1   2   2   16.07    0.30
  -1   2  -2   16.19    0.29
   2  -2   2   34.23    0.57
   2  -2   2   34.16    0.56
   2  -2   2   34.07    0.56
   2  -2   2   34.82    0.56
  -2  -2  -2   34.66    0.57
  -2  -2  -2   34.41    0.57
   2  -2   2   33.98    0.55
   2  -2   2   34.62    0.56
   2   2   2   33.27    0.56
   2   2   2   33.29    0.57
  -2  -3   2    3.26    0.10
  -2  -3   2    3.15    0.10
   2  -3  -2    3.67    0.09
  -2  -3   2    3.29    0.10
  -2  -3   2    3.32    0.10
   2  -3  -2    3.61    0.10
   2   3  -2    3.53    0.09
   2   3  -2    3.86    0.09
  -2   3   2    3.43    0.09
  -2   3   2    3.36    0.10
  -1  -3   2   42.05    0.73
  -1  -3   2   43.92    0.73
  -1  -3   2   43.13    0.72
   1  -3  -2   44.07    0.72
  -1  -3   2   42.50    0.73
   1  -3  -2   43.75    0.71
   1   3  -2   43.69    0.72
   1   3  -2   43.94    0.70
   1   3  -2   43.56    0.73
   1   3  -2   44.60    0.70
  -1   3   2   43.75    0.72
  -1   3   2   43.67    0.71
   0  -3  -2  264.92    4.26
   0  -3   2  268.08    4.23
   0  -3   2  268.21    4.20
   0  -3  -2  262.42    4.24
   0  -3   2  259.46    4.23
   0  -3   2  258.86    4.30
   0  -3   2  262.08    4.34
   0  -3   2  269.00    4.27
   0   3  -2  269.40    4.29
   0   3  -2  267.01    4.33
   0   3   2  260.79    4.32
   0   3  -2  258.80    4.23
   0   3   2  264.90    4.28
   0   3  -2  266.97    4.28
   1  -3   2   16.19    0.30
   1  -3   2   16.33    0.31
  -1  -3  -2   16.49    0.30
  -1  -3  -2   16.13    0.31
   1  -3   2   16.11    0.30
   1  -3   2   15.92    0.31
   1  -3   2   16.40    0.31
   1  -3   2   16.07    0.31
  -1   3  -2   16.48    0.31
  -1   3  -2   16.59    0.30
  -1   3  -2   16.44    0.30
  -1   3  -2   16.51    0.30
  -1   3  -2   16.15    0.31
   1   3   2   15.95    0.30
  -1   3  -2   16.20    0.30
   1   3   2   15.85    0.31
  -2  -3  -2  322.12    4.85
   2  -3   2  316.09    4.86
  -2  -3  -2  324.37    4.87
   2  -3   2  307.43    4.90
   2  -3   2  309.50    4.92
   2  -3   2  305.79    4.87
   2  -3   2  310.50    4.96
   2  -3   2  307.78    4.97
   2   3   2  309.53    4.92
   2   3   2  311.45    4.89
  -2  -4   2    5.74    0.15
   2  -4  -2    6.52    0.18
   2  -4  -2    6.58    0.17
  -2  -4   2    5.73    0.16
   2   4  -2    5.58    0.15
  -2   4   2    5.68    0.14
   2   4  -2    5.87    0.14
  -2   4   2    5.82    0.15
   2   4  -2    5.78    0.14
   2   4  -2    6.14    0.16
  -1  -4   2    6.18    0.16
  -1  -4   2    5.93    0.16
  -1  -4   2    6.25    0.15
  -1  -4   2    6.07    0.16
   1   4  -2    6.10    0.16
   1   4  -2    6.14    0.14
   1   4  -2    6.15    0.16
   1   4  -2    6.20    0.17
   1   4  -2    6.11    0.14
   1   4  -2    6.09    0.15
   0  -4   2   38.20    0.65
   0  -4   2   38.60    0.66
   0  -4   2   38.89    0.67
   0  -4   2   38.45    0.66
   0   4  -2   38.42    0.63
   0   4  -2   38.07    0.66
   0   4  -2   39.12    0.63
   0   4   2   37.60    0.66
   0   4  -2   38.37    0.65
   0   4  -2   38.47    0.67
   0   4   2   38.24    0.65
   0   4  -2   38.33    0.66
   1  -4   2   34.82    0.59
   1  -4   2   34.55    0.60
   1  -4   2   34.91    0.60
   1  -4   2   34.24    0.60
   1   4   2   34.88    0.60
  -1   4  -2   34.71    0.57
  -1   4  -2   31.81    0.58
   1   4   2   35.14    0.59
  -1   4  -2   34.69    0.57
  -1   4  -2   32.07    0.59
   2  -4   2   22.16    0.39
   2  -4   2   21.76    0.40
   2   4   2   22.09    0.42
  -2   4  -2   22.07    0.38
  -2   4  -2   21.86    0.38
   2   4   2   21.87    0.40
  -2  -5   2    1.13    0.07
  -2  -5   2    1.16    0.08
  -2   5   2    0.82    0.07
   2   5  -2    1.17    0.08
  -2   5   2    0.81    0.06
   2   5  -2    0.83    0.06
   2   5  -2    0.81    0.06
  -1  -5   2    0.20    0.04
  -1  -5   2    0.20    0.03
  -1  -5   2    0.23    0.04
  -1  -5   2    0.18    0.03
   1   5  -2    0.21    0.04
   1   5  -2    0.19    0.04
   1   5  -2    0.26    0.03
   1   5  -2    0.25    0.04
  -1   5   2    0.22    0.04
   1   5  -2    0.29    0.03
  -1   5   2    0.22    0.04
   1   5  -2    0.22    0.04
   0  -5   2   92.46    1.52
   0  -5   2   93.64    1.51
   0  -5   2   94.16    1.53
   0  -5   2   94.57    1.52
   0   5  -2   93.88    1.51
   0   5  -2   93.54    1.48
   0   5  -2   94.39    1.52
   0   5  -2   95.60    1.52
   0   5  -2   92.84    1.48
   0   5   2   94.63    1.51
   0   5  -2   95.00    1.53
   0   5   2   93.34    1.52
   1  -5   2    3.07    0.11
   1  -5   2    2.94    0.11
   1  -5   2    3.06    0.11
   1  -5   2    3.08    0.11
  -1   5  -2    3.12    0.09
  -1   5  -2    3.22    0.10
   1   5   2    3.17    0.12
   1   5   2    3.24    0.11
  -2   5  -2    0.41    0.04
   2   5   2    0.39    0.05
   2   5   2    0.49    0.06
  -2   5  -2    0.40    0.04
  -2  -6   2    3.87    0.14
  -2  -6   2    3.81    0.13
   2   6  -2    3.61    0.12
   2   6  -2    3.63    0.13
   2   6  -2    3.74    0.15
   2   6  -2    3.76    0.12
   2   6  -2    3.76    0.14
   2   6  -2    3.73    0.14
  -1  -6   2   67.41    1.14
  -1  -6   2   67.14    1.12
  -1  -6   2   66.28    1.13
  -1  -6   2   66.96    1.13
  -1   6   2   67.52    1.13
  -1   6   2   67.70    1.11
   1   6  -2   66.68    1.12
   1   6  -2   67.07    1.14
   1   6  -2   67.07    1.15
   1   6  -2   67.76    1.14
   1   6  -2   67.87    1.09
   1   6  -2   66.88    1.09
   0  -6   2   59.35    1.02
   0  -6   2   60.75    1.01
   0  -6   2   60.16    1.03
   0  -6   2   60.23    1.03
   0   6  -2   60.16    0.98
   0   6   2   59.41    0.98
   0   6  -2   61.33    1.03
   0   6  -2   60.44    1.01
   0   6   2   59.32    0.98
   0   6   2   60.18    1.01
   0   6   2   59.56    1.03
   0   6  -2   61.27    1.03
   0   6  -2   61.38    1.04
   0   6  -2   60.02    0.98
   1  -6   2    1.17    0.08
   1  -6   2    1.16    0.08
   1  -6   2    1.21    0.07
   1  -6   2    1.17    0.08
  -1   6  -2    1.26    0.07
  -1   6  -2    1.19    0.08
  -1   6  -2    1.24    0.06
   1   6   2    1.24    0.08
  -1   6  -2    1.27    0.08
  -1   6  -2    1.20    0.06
   1   6   2    1.20    0.08
  -1   6  -2    1.28    0.08
   2  -6   2    3.19    0.11
   2  -6   2    3.03    0.12
  -2   6  -2    3.20    0.12
  -2   6  -2    3.33    0.10
  -2   6  -2    3.32    0.10
   2   6   2    3.46    0.12
  -2   6  -2    3.22    0.11
   2   6   2    3.53    0.14
  -2  -7   2   11.35    0.27
  -2  -7   2   11.44    0.29
  -2   7   2   11.22    0.28
   2   7  -2   11.04    0.25
   2   7  -2   11.60    0.29
   2   7  -2   11.43    0.30
  -2   7   2   11.04    0.26
   2   7  -2   11.51    0.29
   2   7  -2   11.08    0.25
   2   7  -2   10.96    0.27
  -1  -7   2   30.30    0.59
  -1  -7   2   30.38    0.57
   1   7  -2   29.90    0.54
  -1   7   2   31.19    0.54
   1   7  -2   30.49    0.60
   1   7  -2   29.76    0.59
   1   7  -2   29.97    0.57
   1   7  -2   30.11    0.54
  -1   7   2   31.44    0.57
  -1   7   2   31.09    0.54
   1   7  -2   29.67    0.59
  -1   7   2   31.81    0.59
   0  -7   2   74.00    1.27
   0  -7   2   75.08    1.25
   0   7   2   74.39    1.22
   0   7  -2   74.76    1.25
   0   7  -2   76.12    1.28
   0   7  -2   75.40    1.29
   0   7  -2   75.87    1.28
   0   7  -2   76.00    1.23
   0   7   2   76.19    1.27
   0   7  -2   75.68    1.22
   0   7   2   75.01    1.22
   0   7   2   75.70    1.26
   1  -7   2   56.08    0.97
   1  -7   2   56.55    0.98
  -1   7  -2   57.03    0.94
  -1   7  -2   57.05    0.97
  -1   7  -2   56.39    0.99
   1   7   2   56.87    0.99
   1   7   2   56.34    0.94
   1   7   2   57.30    0.98
  -1   7  -2   56.79    0.94
  -1   7  -2   57.09    0.99
  -1   7  -2   57.44    1.00
   1   7   2   55.86    0.94
   2  -7   2    2.24    0.10
   2  -7   2    2.14    0.11
  -2   7  -2    1.86    0.08
  -2   7  -2    2.21    0.10
   2   7   2    2.03    0.11
  -2   7  -2    2.19    0.11
  -2   7  -2    1.96    0.08
   2   7   2    1.82    0.10
  -2  -8   2   -0.01    0.01
  -2  -8   2    0.00    0.01
   2   8  -2   -0.07    0.03
  -2   8   2    0.02    0.04
   2   8  -2    0.03    0.04
   2   8  -2    0.02    0.04
   2   8  -2    0.04    0.04
  -2   8   2   -0.01    0.03
   2   8  -2   -0.02    0.03
   2   8  -2   -0.02    0.03
  -1  -8   2   36.48    0.70
  -1  -8   2   36.51    0.68
   1   8  -2   35.94    0.64
   1   8  -2   36.64    0.71
  -1   8   2   36.84    0.69
   1   8  -2   36.81    0.68
   1   8  -2   36.83    0.70
  -1   8   2   36.57    0.67
   1   8  -2   35.77    0.70
  -1   8   2   36.27    0.64
   1   8  -2   35.61    0.64
  -1   8   2   36.37    0.64
   0  -8   2    2.27    0.11
   0  -8   2    2.39    0.12
   0   8   2    2.22    0.12
   0   8  -2    2.21    0.09
   0   8  -2    2.20    0.12
   0   8   2    2.10    0.09
   0   8  -2    2.05    0.12
   0   8  -2    2.09    0.11
   0   8   2    2.09    0.11
   0   8  -2    2.17    0.12
   0   8   2    2.09    0.09
   0   8  -2    2.13    0.09
   1  -8   2    4.72    0.17
   1  -8   2    4.71    0.16
  -1   8  -2    4.70    0.16
  -1   8  -2    4.75    0.17
   1   8   2    4.87    0.15
  -1   8  -2    5.01    0.18
  -1   8  -2    4.78    0.14
   1   8   2    4.85    0.15
  -1   8  -2    4.81    0.18
   1   8   2    4.48    0.17
  -1   8  -2    4.71    0.14
   1   8   2    4.66    0.16
   2  -8   2   27.28    0.54
   2  -8   2   27.31    0.52
  -2   8  -2   26.63    0.49
  -2   8  -2   27.05    0.55
  -2   8  -2   26.81    0.54
  -2   8  -2   26.98    0.53
  -2   8  -2   27.29    0.55
  -2   8  -2   26.67    0.49
   2   8   2   27.28    0.56
   2   8   2   27.40    0.54
  -2  -9   2   26.40    0.54
  -2  -9   2   26.38    0.56
   2   9  -2   25.89    0.56
  -2   9   2   26.50    0.53
   2   9  -2   26.57    0.50
   2   9  -2   26.23    0.54
   2   9  -2   25.88    0.50
   2   9  -2   26.42    0.57
  -2   9   2   26.94    0.56
   2   9  -2   26.50    0.56
  -1  -9   2    1.00    0.09
  -1  -9   2    0.92    0.09
   1   9  -2    0.99    0.10
   1   9  -2    0.98    0.10
  -1   9   2    1.08    0.08
  -1   9   2    0.91    0.09
  -1   9   2    1.02    0.08
   1   9  -2    0.90    0.07
   1   9  -2    0.98    0.09
   1   9  -2    0.90    0.09
   1   9  -2    1.01    0.08
  -1   9   2    0.87    0.08
   0  -9   2   16.19    0.39
   0  -9   2   16.04    0.37
   0   9  -2   15.76    0.39
   0   9  -2   16.13    0.37
   0   9   2   16.36    0.39
   0   9   2   16.16    0.37
   0   9  -2   16.14    0.40
   0   9  -2   15.83    0.34
   0   9  -2   15.84    0.39
   0   9   2   16.26    0.34
   0   9  -2   16.67    0.34
   0   9   2   16.46    0.34
   1  -9   2   -0.06    0.03
   1  -9   2   -0.02    0.03
   1   9   2    0.04    0.03
  -1   9  -2    0.04    0.03
  -1   9  -2    0.02    0.03
   1   9   2    0.05    0.04
  -1   9  -2   -0.01    0.04
  -1   9  -2   -0.01    0.04
  -1   9  -2   -0.02    0.03
  -1   9  -2   -0.03    0.03
   1   9   2    0.08    0.04
   1   9   2    0.03    0.03
   2  -9   2   67.35    1.15
   2  -9   2   67.42    1.18
   2   9   2   67.71    1.20
   2   9   2   66.49    1.17
  -2   9  -2   67.43    1.16
  -2   9  -2   66.50    1.11
  -2   9  -2   66.92    1.18
  -2   9  -2   66.00    1.12
  -2   9  -2   67.15    1.19
  -2   9  -2   67.01    1.18
  -2 -10   2    0.24    0.05
  -2 -10   2    0.24    0.06
   2  10  -2    0.21    0.05
  -2  10   2    0.19    0.05
   2  10  -2    0.22    0.06
  -2  10   2    0.14    0.04
  -2  10   2    0.11    0.05
   2  10  -2    0.15    0.05
   2  10  -2    0.20    0.06
   2  10  -2    0.10    0.05
   2  10  -2    0.28    0.06
  -2  10   2    0.11    0.04
  -1 -10   2   25.88    0.56
  -1 -10   2   25.84    0.54
   1  10  -2   25.73    0.50
   1  10  -2   26.26    0.58
  -1  10   2   25.80    0.56
  -1  10   2   25.68    0.50
   1  10  -2   25.62    0.50
  -1  10   2   25.33    0.50
   1  10  -2   25.57    0.57
  -1  10   2   25.99    0.54
   1  10  -2   26.04    0.54
   1  10  -2   26.20    0.57
   0 -10   2   -0.01    0.03
   0 -10   2   -0.03    0.03
   0  10  -2    0.00    0.03
   0  10  -2    0.00    0.03
   0  10  -2   -0.04    0.03
   0  10  -2   -0.03    0.04
   0  10  -2   -0.03    0.03
   0  10  -2   -0.02    0.03
   0  10   2    0.01    0.03
   0  10   2   -0.02    0.04
   0  10   2    0.00    0.04
   0  10   2   -0.02    0.03
   1 -10   2    0.13    0.05
   1 -10   2    0.18    0.06
  -1  10  -2    0.14    0.05
  -1  10  -2    0.14    0.05
   1  10   2    0.13    0.06
   1  10   2    0.11    0.05
   1  10   2    0.13    0.05
  -1  10  -2    0.17    0.05
  -1  10  -2    0.04    0.05
  -1  10  -2    0.13    0.06
   1  10   2    0.14    0.05
  -1  10  -2    0.16    0.05
   2 -10   2    8.30    0.26
   2 -10   2    8.32    0.25
   2  10   2    8.61    0.29
   2  10   2    8.11    0.26
  -2  10  -2    8.66    0.25
  -2  10  -2    8.13    0.22
   2  10   2    8.65    0.28
   2  10   2    8.59    0.28
  -2  10  -2    8.69    0.28
  -2  10  -2    8.65    0.27
  -2  10  -2    8.22    0.22
  -2  10  -2    8.50    0.27
  -2 -11   2   10.53    0.30
  -2 -11   2   10.25    0.32
   2  11  -2   10.00    0.32
   2  11  -2    9.73    0.26
   2  11  -2   10.18    0.33
   2  11  -2    9.78    0.26
   2  11  -2    9.70    0.29
   2  11  -2   10.31    0.32
  -1 -11   2    7.63    0.27
  -1 -11   2    7.51    0.25
   1  11  -2    7.65    0.27
  -1  11   2    7.60    0.25
  -1  11   2    7.63    0.22
  -1  11   2    7.48    0.26
   1  11  -2    7.89    0.22
   1  11  -2    8.06    0.23
   1  11  -2    7.67    0.28
   1  11  -2    7.67    0.25
  -1  11   2    7.67    0.22
   1  11  -2    8.05    0.27
   0 -11   2  155.11    2.57
   0 -11   2  156.18    2.54
   0  11   2  157.64    2.49
   0  11  -2  155.70    2.58
   0  11  -2  157.11    2.55
   0  11   2  154.86    2.55
   0  11  -2  158.81    2.58
   0  11  -2  157.38    2.60
   0  11   2  155.05    2.58
   0  11   2  157.35    2.50
   0  11  -2  153.66    2.49
   0  11  -2  152.18    2.49
   1 -11   2   75.89    1.32
   1 -11   2   76.12    1.35
  -1  11  -2   75.92    1.37
  -1  11  -2   75.93    1.36
  -1  11  -2   75.79    1.36
   1  11   2   77.02    1.28
  -1  11  -2   75.56    1.32
  -1  11  -2   74.71    1.27
  -1  11  -2   73.85    1.27
   1  11   2   76.22    1.28
   1  11   2   74.74    1.36
   1  11   2   74.76    1.33
   2 -11   2   21.17    0.47
   2 -11   2   20.78    0.49
   2  11   2   20.88    0.51
   2  11   2   21.57    0.49
   2  11   2   21.05    0.51
  -2  11  -2   20.63    0.43
   2  11   2   21.08    0.53
  -2  11  -2   20.89    0.44
  -2 -12   2   50.98    1.00
  -2 -12   2   51.12    0.97
  -2  12   2   51.26    0.99
   2  12  -2   49.65    1.00
  -2  12   2   51.56    0.99
  -2  12   2   51.01    1.00
   2  12  -2   49.07    0.90
   2  12  -2   49.88    0.91
   2  12  -2   50.00    1.00
   2  12  -2   50.40    0.97
   2  12  -2   51.10    1.02
  -2  12   2   51.44    0.96
  -1 -12   2    3.01    0.16
  -1 -12   2    3.26    0.18
   1  12  -2    3.23    0.17
  -1  12   2    3.05    0.14
   1  12  -2    3.18    0.15
  -1  12   2    3.00    0.14
   1  12  -2    3.30    0.15
   1  12  -2    3.23    0.19
  -1  12   2    3.03    0.18
  -1  12   2    3.08    0.16
   1  12  -2    2.90    0.18
   1  12  -2    3.25    0.19
   0 -12   2    3.01    0.16
   0 -12   2    2.96    0.17
   0  12  -2    2.99    0.18
   0  12  -2    3.07    0.16
   0  12  -2    2.94    0.14
   0  12   2    2.92    0.14
   0  12   2    2.99    0.18
   0  12  -2    2.92    0.18
   0  12  -2    3.17    0.18
   0  12  -2    3.17    0.15
   0  12   2    3.12    0.17
   0  12   2    3.13    0.15
   1 -12   2    1.03    0.10
   1 -12   2    1.01    0.11
   1  12   2    0.89    0.10
  -1  12  -2    1.13    0.11
  -1  12  -2    0.77    0.10
  -1  12  -2    1.13    0.12
  -1  12  -2    1.10    0.12
   1  12   2    0.82    0.08
   1  12   2    0.84    0.11
   1  12   2    0.58    0.07
  -1  12  -2    1.12    0.10
  -1  12  -2    1.03    0.09
   2 -12   2   15.08    0.38
   2 -12   2   14.81    0.40
  -2  12  -2   13.54    0.38
   2  12   2   14.86    0.42
  -2  12  -2   15.14    0.34
  -2  12  -2   13.49    0.40
  -2  12  -2   13.44    0.40
   2  12   2   15.20    0.47
   2  12   2   14.54    0.39
  -2  12  -2   13.37    0.41
  -2  12  -2   15.16    0.35
   2  12   2   15.17    0.46
  -2 -13   2    1.43    0.13
  -2 -13   2    1.64    0.15
   2  13  -2    1.57    0.12
   2  13  -2    1.45    0.13
   2  13  -2    1.56    0.12
   2  13  -2    1.43    0.15
  -2  13   2    1.46    0.13
  -2  13   2    1.52    0.14
  -1 -13   2   84.87    1.49
  -1 -13   2   84.75    1.53
   1  13  -2   82.46    1.53
  -1  13   2   82.00    1.42
  -1  13   2   83.05    1.49
   1  13  -2   85.40    1.43
   1  13  -2   83.40    1.49
   1  13  -2   85.67    1.44
  -1  13   2   84.00    1.52
  -1  13   2   82.52    1.42
   0 -13   2    3.24    0.17
   0 -13   2    3.23    0.19
   0  13   2    3.33    0.19
   0  13   2    3.06    0.15
   0  13   2    3.02    0.17
   0  13   2    3.09    0.15
   0  13  -2    3.04    0.17
   0  13  -2    3.11    0.19
   0  13  -2    3.15    0.15
   0  13  -2    3.11    0.15
   1 -13   2   45.33    0.89
   1 -13   2   45.51    0.93
  -1  13  -2   46.35    0.94
   1  13   2   44.75    0.84
   1  13   2   45.08    0.85
   1  13   2   46.03    0.91
   1  13   2   45.76    0.94
  -1  13  -2   45.95    0.90
  -1  13  -2   45.55    0.84
  -1  13  -2   46.30    0.85
   2 -13   2    0.74    0.10
   2 -13   2    0.80    0.10
   2  13   2    0.75    0.11
  -2  13  -2    0.82    0.09
  -2  13  -2    0.70    0.11
  -2  13  -2    0.88    0.10
   2  13   2    0.83    0.11
  -2  13  -2    0.72    0.10
  -2 -14   2    2.94    0.19
  -2 -14   2    2.85    0.18
   2  14  -2    2.78    0.15
  -2  14   2    2.77    0.19
  -2  14   2    2.74    0.17
   2  14  -2    2.74    0.18
   2  14  -2    2.80    0.20
   2  14  -2    2.69    0.15
  -1 -14   2    4.57    0.22
  -1 -14   2    4.45    0.23
  -1  14   2    4.49    0.19
  -1  14   2    4.83    0.22
  -1  14   2    4.48    0.18
  -1  14   2    4.19    0.23
   1  14  -2    4.36    0.23
   1  14  -2    4.17    0.18
   1  14  -2    4.36    0.19
   1  14  -2    4.59    0.22
   0 -14   2   22.55    0.57
   0 -14   2   22.08    0.54
   0  14   2   22.32    0.55
   0  14  -2   22.54    0.58
   0  14  -2   22.16    0.49
   0  14   2   22.20    0.50
   0  14  -2   22.37    0.49
   0  14   2   22.54    0.49
   0  14  -2   22.65    0.55
   0  14   2   22.89    0.58
   1 -14   2    1.61    0.15
   1 -14   2    1.28    0.13
  -1  14  -2    1.35    0.11
  -1  14  -2    1.53    0.15
  -1  14  -2    1.40    0.13
   1  14   2    1.53    0.14
  -1  14  -2    1.39    0.12
   1  14   2    1.42    0.12
   1  14   2    1.51    0.15
   1  14   2    1.52    0.12
   2 -14   2    0.72    0.10
   2 -14   2    0.78    0.11
  -2  14  -2    0.83    0.09
   2  14   2    0.70    0.11
  -2  14  -2    0.79    0.09
   2  14   2    0.64    0.11
  -2  14  -2    0.76    0.12
  -2  14  -2    0.99    0.12
  -2 -15   2    5.59    0.25
  -2 -15   2    5.21    0.26
   2  15  -2    5.40    0.27
   2  15  -2    5.71    0.23
   2  15  -2    5.37    0.25
  -2  15   2    5.17    0.24
   2  15  -2    5.40    0.22
  -2  15   2    5.33    0.27
  -1 -15   2    8.23    0.33
  -1 -15   2    7.98    0.30
   1  15  -2    7.96    0.27
   1  15  -2    7.98    0.26
  -1  15   2    8.15    0.32
   1  15  -2    7.97    0.33
   1  15  -2    8.37    0.31
  -1  15   2    8.18    0.30
   0 -15   2    7.41    0.29
   0 -15   2    7.14    0.31
   0  15   2    7.25    0.28
   0  15   2    7.42    0.31
   0  15  -2    7.94    0.25
   0  15   2    7.72    0.26
   0  15  -2    7.12    0.31
   0  15  -2    7.56    0.29
   0  15   2    7.61    0.25
   0  15  -2    7.88    0.26
   1 -15   2   29.58    0.68
   1 -15   2   30.20    0.71
   1  15   2   29.95    0.62
   1  15   2   30.39    0.63
  -1  15  -2   29.98    0.69
   1  15   2   30.11    0.69
  -1  15  -2   30.25    0.63
  -1  15  -2   29.76    0.62
   1  15   2   29.49    0.72
  -1  15  -2   29.86    0.72
   2 -15   2   18.99    0.50
   2 -15   2   19.52    0.54
   2  15   2   19.33    0.55
  -2  15  -2   19.78    0.46
  -2  15  -2   19.93    0.47
  -2  15  -2   20.31    0.52
  -2  15  -2   19.87    0.55
   2  15   2   19.46    0.52
  -2 -16   2   26.72    0.65
  -2 -16   2   27.05    0.69
  -2  16   2   26.18    0.64
   2  16  -2   26.19    0.59
   2  16  -2   26.86    0.59
   2  16  -2   25.42    0.65
  -2  16   2   26.26    0.68
   2  16  -2   25.73    0.69
  -1 -16   2   17.23    0.48
  -1 -16   2   16.46    0.51
   1  16  -2   16.48    0.51
  -1  16   2   16.56    0.51
   1  16  -2   16.94    0.49
   1  16  -2   16.48    0.42
  -1  16   2   16.48    0.48
   1  16  -2   16.76    0.43
   0 -16   2    0.12    0.06
   0 -16   2    0.06    0.07
   0  16   2    0.05    0.06
   0  16  -2   -0.03    0.05
   0  16  -2    0.15    0.08
   0  16   2    0.00    0.06
   0  16   2    0.06    0.06
   0  16  -2    0.13    0.07
   0  16   2    0.10    0.06
   0  16  -2   -0.03    0.05
   1 -16   2    0.97    0.13
   1 -16   2    0.95    0.12
   1  16   2    1.14    0.14
  -1  16  -2    1.10    0.14
   1  16   2    1.09    0.15
  -1  16  -2    0.97    0.12
  -1  16  -2    1.11    0.12
  -1  16  -2    1.01    0.11
   2 -16   2    0.11    0.06
   2 -16   2    0.12    0.07
  -2  16  -2    0.04    0.07
   2  16   2    0.06    0.08
  -2  16  -2    0.15    0.07
  -2  16  -2    0.02    0.05
   2  16   2    0.05    0.07
  -2  16  -2    0.03    0.06
   2  17  -2    2.82    0.19
   2  17  -2    2.85    0.18
  -1  17   2    0.31    0.10
  -1  17   2    0.33    0.11
   1  17  -2    0.40    0.08
   1  17  -2    0.31    0.08
   0 -17   2   11.05    0.48
   0 -17   2   11.13    0.52
   0  17  -2   10.90    0.43
   0  17   2   10.99    0.47
   0  17  -2   10.55    0.34
   0  17  -2   10.96    0.46
   0  17  -2   10.99    0.34
   0  17   2   11.38    0.44
  -1  17  -2    1.67    0.14
  -1  17  -2    1.77    0.15
  -1  17  -2    1.48    0.19
  -1  17  -2    1.61    0.22
  -2  17  -2    3.76    0.20
  -2  17  -2    4.10    0.21
   2  18  -2    5.20    0.24
   2  18  -2    5.76    0.26
   1  18  -2    2.24    0.17
   1  18  -2    2.41    0.18
   0  18  -2    0.03    0.06
   0  18  -2   -0.03    0.06
  -1  18  -2    4.78    0.23
  -1  18  -2    5.26    0.24
  -2  18  -2    6.67    0.27
  -2  18  -2    6.53    0.26
   2  19  -2   -0.22    0.06
   2  19  -2   -0.12    0.07
   1  19  -2    0.53    0.11
   1  19  -2    0.68    0.11
   0  19  -2    0.17    0.08
   0  19  -2    0.18    0.08
  -1  19  -2    5.02    0.25
  -1  19  -2    5.25    0.25
  -2  19  -2    0.17    0.08
  -2  19  -2    0.10    0.07
   1  20  -2    0.06    0.08
   1  20  -2    0.11    0.09
   0  20  -2    8.65    0.34
   0  20  -2    8.15    0.32
  -1  20  -2    1.26    0.14
  -1  20  -2    1.16    0.14
  -1   0   3   21.77    0.40
   1   0  -3   23.50    0.39
   1   0  -3   23.74    0.40
  -1   0   3   21.32    0.39
   0   0   3   -0.08    0.02
   0   0   3   -0.09    0.02
   0   0  -3    0.03    0.03
   0   0  -3    0.02    0.03
   1   0   3   27.85    0.48
  -1   0  -3   28.58    0.48
  -1   0  -3   28.63    0.49
   1   0   3   27.50    0.49
   2   0   3    0.00    0.02
   2   0   3   -0.02    0.02
  -2   0  -3    0.02    0.02
  -2   0  -3    0.01    0.02
   2  -1  -3   19.32    0.35
   2  -1  -3   18.91    0.36
  -2   1   3   19.24    0.36
  -2   1   3   19.29    0.35
   2   1  -3   21.89    0.36
   2   1  -3   21.66    0.37
   1  -1  -3   42.49    0.69
   1  -1  -3   42.29    0.68
  -1   1   3   37.37    0.69
   1   1  -3   42.81    0.68
   1   1  -3   44.04    0.68
  -1   1   3   38.28    0.68
   1   1  -3   42.44    0.69
   1   1  -3   42.45    0.70
   0  -1   3    8.18    0.19
   0  -1  -3    8.66    0.19
   0  -1   3    8.52    0.18
   0  -1  -3    8.64    0.18
   0   1   3    8.56    0.18
   0   1  -3    8.52    0.18
   0   1   3    8.36    0.19
   0   1  -3    8.45    0.19
   0   1  -3    9.36    0.18
   0   1  -3    8.95    0.18
  -1  -1  -3   54.62    0.88
  -1  -1  -3   54.43    0.87
   1  -1   3   52.84    0.87
   1  -1   3   53.50    0.88
   1   1   3   52.03    0.87
  -1   1  -3   55.69    0.87
   1   1   3   51.66    0.88
  -1   1  -3   54.43    0.87
  -1   1  -3   54.87    0.87
  -1   1  -3   54.56    0.88
   2  -1   3    2.44    0.08
   2  -1   3    2.51    0.09
  -2  -1  -3    2.56    0.09
   2  -1   3    2.56    0.08
  -2  -1  -3    2.48    0.08
   2  -1   3    2.63    0.09
   2   1   3    2.44    0.08
   2   1   3    2.41    0.09
  -2   1  -3    2.54    0.08
  -2   1  -3    2.54    0.08
  -2  -2   3   35.24    0.62
  -2  -2   3   34.93    0.60
   2  -2  -3   35.07    0.59
  -2  -2   3   35.91    0.60
   2  -2  -3   34.75    0.58
  -2  -2   3   33.94    0.59
  -2  -2   3   34.91    0.59
  -2  -2   3   33.89    0.60
  -2   2   3   34.09    0.59
   2   2  -3   34.98    0.57
  -2   2   3   34.18    0.58
   2   2  -3   34.73    0.57
   2   2  -3   34.17    0.59
   2   2  -3   33.92    0.60
   1  -2  -3   21.34    0.39
  -1  -2   3   22.02    0.41
  -1  -2   3   22.41    0.42
   1  -2  -3   21.23    0.40
   1   2  -3   22.67    0.42
   1   2  -3   22.64    0.41
   1   2  -3   21.25    0.37
   1   2  -3   21.66    0.38
   0  -2  -3   15.63    0.29
   0  -2   3   15.38    0.29
   0  -2   3   15.34    0.30
   0  -2  -3   15.67    0.30
   0   2  -3   14.96    0.27
   0   2   3   15.02    0.30
   0   2   3   14.98    0.29
   0   2  -3   15.20    0.30
   0   2  -3   14.80    0.27
   0   2  -3   15.53    0.29
   1  -2   3    3.94    0.11
   1  -2   3    3.96    0.11
   1  -2   3    3.98    0.12
   1  -2   3    3.92    0.11
   1   2   3    3.90    0.12
  -1   2  -3    3.87    0.11
  -1   2  -3    3.78    0.11
  -1   2  -3    3.90    0.10
  -1   2  -3    3.94    0.10
   1   2   3    3.87    0.11
   2  -2   3    0.95    0.06
   2  -2   3    1.34    0.07
   2  -2   3    0.98    0.07
   2  -2   3    1.29    0.06
   2  -2   3    1.07    0.07
   2  -2   3    0.92    0.05
  -2   2  -3    1.21    0.05
  -2   2  -3    1.22    0.06
  -2   2  -3    1.24    0.05
  -2   2  -3    1.19    0.06
  -2  -3   3   13.78    0.28
  -2  -3   3   13.55    0.29
  -2  -3   3   13.31    0.29
  -2  -3   3   13.81    0.29
   2   3  -3   13.68    0.26
   2   3  -3   13.81    0.26
  -2   3   3   15.26    0.28
  -2   3   3   15.39    0.29
  -1  -3   3    8.02    0.20
  -1  -3   3    8.30    0.19
  -1  -3   3    8.21    0.19
  -1  -3   3    8.02    0.19
   1   3  -3    8.14    0.17
   1   3  -3    8.40    0.17
   0  -3   3  227.24    3.77
   0  -3   3  229.13    3.81
   0   3  -3  228.78    3.60
   0   3  -3  226.56    3.60
   0   3   3  229.09    3.68
   0   3   3  221.16    3.68
   1  -3   3    0.12    0.03
   1  -3   3    0.05    0.03
   1  -3   3   -0.05    0.02
   1   3   3    0.02    0.03
   1   3   3    0.01    0.02
   2  -3   3   52.29    0.87
   2  -3   3   53.88    0.86
   2  -3   3   52.90    0.88
   2  -3   3   53.09    0.87
  -2   3  -3   53.27    0.84
   2   3   3   50.48    0.88
  -2   3  -3   53.03    0.84
   2   3   3   50.78    0.86
  -2  -4   3   23.37    0.45
  -2  -4   3   22.85    0.43
  -2  -4   3   23.75    0.45
  -2  -4   3   24.05    0.45
  -2   4   3   23.11    0.44
   2   4  -3   23.11    0.41
   2   4  -3   23.65    0.41
  -2   4   3   23.37    0.43
  -1  -4   3   35.08    0.63
  -1  -4   3   34.74    0.62
  -1  -4   3   34.65    0.61
  -1  -4   3   34.86    0.62
   1   4  -3   35.43    0.59
  -1   4   3   34.43    0.61
   1   4  -3   34.89    0.61
  -1   4   3   33.79    0.60
   1   4  -3   34.88    0.62
   1   4  -3   35.65    0.59
   0  -4   3  315.26    5.24
   0  -4   3  320.14    4.99
   0  -4   3  319.77    5.30
   0  -4   3  313.46    4.95
   0   4   3  308.25    4.95
   0   4   3  311.80    4.98
   0   4  -3  319.02    4.95
   0   4  -3  315.20    5.11
   0   4  -3  314.45    5.06
   0   4  -3  321.53    4.96
   1  -4   3    0.20    0.03
   1  -4   3    0.20    0.04
   1  -4   3    0.23    0.04
   1  -4   3    0.21    0.04
  -1   4  -3    0.23    0.03
  -1   4  -3    0.25    0.03
   1   4   3    0.20    0.03
   1   4   3    0.20    0.04
   2  -4   3   66.78    1.10
   2  -4   3   67.99    1.09
   2  -4   3   65.80    1.11
   2  -4   3   65.95    1.10
   2   4   3   66.44    1.11
  -2   4  -3   67.17    1.07
   2   4   3   66.65    1.10
  -2   4  -3   68.08    1.07
  -2  -5   3   36.31    0.67
  -2  -5   3   36.36    0.66
  -2  -5   3   36.68    0.66
  -2  -5   3   36.01    0.64
   2   5  -3   36.96    0.67
  -2   5   3   36.16    0.65
   2   5  -3   36.45    0.62
   2   5  -3   36.28    0.62
   2   5  -3   36.14    0.65
  -2   5   3   36.65    0.64
  -1  -5   3   38.50    0.67
  -1  -5   3   38.32    0.69
  -1  -5   3   38.68    0.69
  -1  -5   3   38.44    0.68
   1   5  -3   37.28    0.64
  -1   5   3   37.56    0.66
   1   5  -3   37.54    0.67
   1   5  -3   38.33    0.69
  -1   5   3   38.19    0.68
   1   5  -3   37.93    0.64
   0  -5   3   52.67    0.88
   0  -5   3   50.93    0.90
   0  -5   3   51.36    0.90
   0  -5   3   52.24    0.90
   0   5  -3   51.98    0.88
   0   5  -3   53.13    0.86
   0   5   3   53.49    0.89
   0   5  -3   51.85    0.86
   0   5   3   52.11    0.90
   0   5  -3   52.96    0.90
   1  -5   3    0.56    0.06
   1  -5   3    0.47    0.05
   1  -5   3    0.46    0.06
   1  -5   3    0.49    0.05
  -1   5  -3    0.45    0.04
  -1   5  -3    0.52    0.05
  -1   5  -3    0.46    0.05
  -1   5  -3    0.51    0.05
   2  -5   3   48.04    0.82
   2  -5   3   46.56    0.83
   2  -5   3   46.73    0.82
   2  -5   3   47.71    0.81
  -2   5  -3   47.37    0.78
   2   5   3   48.00    0.84
   2   5   3   48.44    0.82
  -2   5  -3   48.41    0.79
  -2  -6   3   44.26    0.79
  -2  -6   3   43.92    0.77
   2   6  -3   44.62    0.78
  -2   6   3   44.22    0.78
   2   6  -3   43.58    0.75
   2   6  -3   43.48    0.75
   2   6  -3   44.00    0.80
  -2   6   3   44.85    0.77
  -1  -6   3  393.49    6.46
  -1  -6   3  396.25    6.49
  -1  -6   3  404.62    6.68
  -1  -6   3  403.31    6.58
   1   6  -3  400.30    6.29
   1   6  -3  393.44    6.59
   1   6  -3  396.72    6.64
   1   6  -3  402.43    6.62
  -1   6   3  427.11    6.32
   1   6  -3  387.60    6.48
   1   6  -3  394.30    6.32
  -1   6   3  423.32    7.51
   0  -6   3   35.86    0.66
   0  -6   3   35.99    0.64
   0  -6   3   35.08    0.66
   0  -6   3   34.75    0.65
   0   6  -3   35.73    0.66
   0   6  -3   35.39    0.64
   0   6  -3   35.24    0.62
   0   6  -3   35.51    0.66
   0   6  -3   35.92    0.67
   0   6  -3   35.52    0.61
   0   6   3   36.33    0.64
   0   6   3   36.30    0.66
   1  -6   3  118.72    1.91
   1  -6   3  120.03    1.93
   1  -6   3  118.38    1.94
   1  -6   3  121.76    1.93
  -1   6  -3  121.11    1.89
  -1   6  -3  119.63    1.93
   1   6   3  119.00    1.92
   1   6   3  118.57    1.94
  -1   6  -3  116.70    1.91
  -1   6  -3  120.85    1.89
   2  -6   3    0.05    0.03
   2  -6   3    0.02    0.03
  -2   6  -3    0.04    0.03
   2   6   3    0.04    0.04
   2   6   3    0.04    0.03
  -2   6  -3    0.06    0.03
   2   7  -3   43.50    0.75
   2   7  -3   43.10    0.81
   2   7  -3   43.69    0.79
  -2   7   3   44.80    0.78
   2   7  -3   43.33    0.75
  -2   7   3   44.00    0.79
  -1  -7   3   14.56    0.35
  -1  -7   3   14.42    0.32
  -1  -7   3   14.15    0.34
  -1  -7   3   14.49    0.34
   1   7  -3   14.59    0.34
   1   7  -3   14.58    0.34
   1   7  -3   14.57    0.30
   1   7  -3   14.94    0.30
   1   7  -3   14.18    0.35
   1   7  -3   13.98    0.32
  -1   7   3   13.95    0.33
  -1   7   3   14.07    0.32
   0  -7   3    9.51    0.24
   0  -7   3    9.30    0.25
   0  -7   3    9.38    0.26
   0  -7   3    9.53    0.25
   0   7  -3    9.38    0.24
   0   7  -3    9.19    0.25
   0   7  -3    9.27    0.22
   0   7  -3    9.35    0.22
   0   7  -3    9.65    0.26
   0   7  -3    9.45    0.26
   0   7   3    9.26    0.25
   0   7   3    9.82    0.24
   1  -7   3    1.25    0.09
   1  -7   3    1.26    0.09
   1  -7   3    1.19    0.08
   1  -7   3    1.31    0.09
   1   7   3    1.20    0.08
  -1   7  -3    1.22    0.08
  -1   7  -3    1.17    0.07
  -1   7  -3    1.27    0.09
  -1   7  -3    1.15    0.07
   1   7   3    1.26    0.09
   2  -7   3    1.56    0.09
   2  -7   3    1.33    0.09
  -2   7  -3    1.41    0.08
  -2   7  -3    1.39    0.10
  -2   7  -3    1.45    0.08
   2   7   3    1.54    0.10
   2   7   3    1.63    0.10
  -2   7  -3    1.39    0.09
   2   8  -3   54.55    0.92
  -2   8   3   53.88    0.97
   2   8  -3   54.35    0.98
   2   8  -3   53.41    0.95
   2   8  -3   53.32    0.92
  -2   8   3   55.33    0.95
  -1  -8   3   82.18    1.38
  -1  -8   3   81.79    1.40
   1   8  -3   81.97    1.41
   1   8  -3   82.09    1.34
   1   8  -3   81.38    1.40
   1   8  -3   80.96    1.34
  -1   8   3   82.83    1.40
  -1   8   3   82.23    1.38
   1   8  -3   81.77    1.38
   1   8  -3   82.65    1.42
   0  -8   3   39.24    0.75
   0  -8   3   39.58    0.73
   0   8   3   40.34    0.73
   0   8  -3   40.11    0.70
   0   8  -3   39.30    0.70
   0   8   3   39.83    0.75
   0   8  -3   40.39    0.77
   0   8  -3   39.99    0.75
   0   8  -3   38.88    0.73
   0   8  -3   39.39    0.75
   1  -8   3  137.00    2.28
   1  -8   3  138.61    2.26
  -1   8  -3  141.86    2.29
  -1   8  -3  139.02    2.23
  -1   8  -3  142.97    2.30
   1   8   3  140.16    2.30
  -1   8  -3  139.91    2.22
   1   8   3  141.59    2.27
  -1   8  -3  142.54    2.29
  -1   8  -3  142.10    2.27
   2  -8   3    9.35    0.25
   2  -8   3    9.15    0.26
  -2   8  -3    9.30    0.25
  -2   8  -3    9.45    0.27
   2   8   3    9.33    0.27
   2   8   3    9.30    0.26
  -2   8  -3    9.17    0.22
  -2   8  -3    9.30    0.22
  -2  -9   3    5.73    0.20
  -2  -9   3    5.65    0.21
   2   9  -3    5.73    0.20
   2   9  -3    5.62    0.18
   2   9  -3    5.56    0.21
  -2   9   3    5.58    0.20
   2   9  -3    5.42    0.17
   2   9  -3    5.68    0.22
   2   9  -3    5.65    0.21
  -2   9   3    5.56    0.19
  -1  -9   3   12.74    0.34
  -1  -9   3   12.84    0.32
   1   9  -3   12.70    0.34
   1   9  -3   12.57    0.32
   1   9  -3   12.64    0.34
   1   9  -3   12.65    0.35
   1   9  -3   12.70    0.29
   1   9  -3   12.22    0.29
  -1   9   3   12.73    0.33
  -1   9   3   12.46    0.31
   0  -9   3    1.86    0.12
   0  -9   3    1.98    0.11
   0   9  -3    2.01    0.10
   0   9  -3    1.98    0.13
   0   9   3    1.81    0.11
   0   9  -3    2.02    0.10
   0   9  -3    1.75    0.11
   0   9   3    1.83    0.12
   0   9  -3    1.87    0.12
   0   9  -3    2.04    0.12
   1  -9   3   67.14    1.19
   1  -9   3   66.77    1.17
  -1   9  -3   67.82    1.17
   1   9   3   67.76    1.18
  -1   9  -3   68.00    1.20
  -1   9  -3   68.71    1.20
  -1   9  -3   67.02    1.13
   1   9   3   67.39    1.20
  -1   9  -3   66.20    1.13
  -1   9  -3   68.00    1.21
   2  -9   3   48.67    0.87
   2  -9   3   47.40    0.89
  -2   9  -3   47.92    0.90
  -2   9  -3   48.68    0.88
  -2   9  -3   48.09    0.84
   2   9   3   49.28    0.92
  -2   9  -3   48.56    0.83
   2   9   3   47.62    0.89
  -2 -10   3    1.31    0.11
  -2 -10   3    1.14    0.10
   2  10  -3    1.29    0.12
   2  10  -3    1.08    0.10
   2  10  -3    0.99    0.09
   2  10  -3    1.05    0.11
   2  10  -3    1.02    0.09
   2  10  -3    1.30    0.12
  -1 -10   3    6.29    0.23
  -1 -10   3    6.18    0.21
   1  10  -3    6.00    0.19
   1  10  -3    6.27    0.22
   1  10  -3    6.22    0.23
   1  10  -3    6.19    0.23
  -1  10   3    6.14    0.21
  -1  10   3    6.38    0.23
   1  10  -3    6.36    0.24
   1  10  -3    6.44    0.19
   0 -10   3  124.74    2.09
   0 -10   3  123.69    2.06
   0  10  -3  126.28    2.11
   0  10   3  125.55    2.06
   0  10  -3  124.47    2.09
   0  10  -3  125.02    2.06
   0  10  -3  123.00    2.01
   0  10  -3  126.24    2.09
   0  10  -3  123.93    2.01
   0  10   3  124.71    2.09
   1 -10   3   32.84    0.66
   1 -10   3   33.16    0.68
  -1  10  -3   32.18    0.61
   1  10   3   32.71    0.66
  -1  10  -3   33.68    0.70
   1  10   3   32.87    0.69
  -1  10  -3   33.84    0.66
  -1  10  -3   33.75    0.69
  -1  10  -3   33.26    0.69
  -1  10  -3   33.69    0.62
   2 -10   3    0.89    0.09
   2 -10   3    0.89    0.10
   2  10   3    0.64    0.08
  -2  10  -3    0.76    0.08
   2  10   3    0.83    0.10
  -2  10  -3    0.76    0.07
  -2  10  -3    0.96    0.09
  -2  10  -3    0.86    0.10
  -2 -11   3    5.77    0.22
  -2 -11   3    5.82    0.24
   2  11  -3    5.81    0.24
  -2  11   3    5.99    0.24
   2  11  -3    6.14    0.23
  -2  11   3    5.78    0.22
   2  11  -3    5.78    0.25
   2  11  -3    6.02    0.24
   2  11  -3    5.85    0.20
   2  11  -3    6.01    0.20
  -1 -11   3   -0.01    0.04
  -1 -11   3   -0.04    0.03
  -1  11   3   -0.05    0.03
   1  11  -3    0.00    0.04
   1  11  -3    0.03    0.04
   1  11  -3    0.00    0.04
   1  11  -3   -0.03    0.04
  -1  11   3    0.00    0.04
   1  11  -3   -0.03    0.03
   1  11  -3   -0.04    0.04
   0 -11   3   21.05    0.50
   0 -11   3   21.70    0.49
   0  11  -3   21.11    0.52
   0  11  -3   21.18    0.44
   0  11  -3   21.70    0.51
   0  11  -3   21.52    0.51
   0  11  -3   21.49    0.49
   0  11   3   21.14    0.51
   0  11   3   20.92    0.48
   0  11  -3   20.64    0.44
   1 -11   3   15.96    0.42
   1 -11   3   15.96    0.40
  -1  11  -3   15.81    0.36
   1  11   3   15.74    0.40
  -1  11  -3   15.59    0.36
  -1  11  -3   16.78    0.44
  -1  11  -3   16.40    0.43
  -1  11  -3   16.64    0.43
   1  11   3   15.93    0.43
  -1  11  -3   16.33    0.40
   2 -11   3   16.16    0.42
   2 -11   3   15.82    0.39
  -2  11  -3   15.50    0.35
   2  11   3   16.36    0.41
  -2  11  -3   15.48    0.36
   2  11   3   16.20    0.43
  -2 -12   3    5.02    0.23
  -2 -12   3    5.15    0.22
  -2  12   3    5.10    0.23
   2  12  -3    4.90    0.19
   2  12  -3    4.77    0.23
   2  12  -3    4.76    0.21
  -2  12   3    5.17    0.22
   2  12  -3    5.04    0.19
  -1 -12   3   33.47    0.70
  -1 -12   3   33.09    0.73
   1  12  -3   33.72    0.70
   1  12  -3   33.97    0.66
   1  12  -3   34.65    0.66
   1  12  -3   34.69    0.74
  -1  12   3   33.76    0.70
  -1  12   3   33.86    0.73
   1  12  -3   33.60    0.75
   1  12  -3   33.41    0.73
   0 -12   3   16.53    0.42
   0 -12   3   16.95    0.45
   0  12  -3   17.00    0.38
   0  12   3   16.79    0.45
   0  12  -3   16.58    0.42
   0  12  -3   16.90    0.46
   0  12  -3   16.80    0.45
   0  12  -3   16.27    0.38
   0  12  -3   16.76    0.45
   0  12   3   16.36    0.42
   1 -12   3    0.04    0.04
   1 -12   3    0.02    0.04
  -1  12  -3    0.00    0.04
  -1  12  -3   -0.02    0.04
  -1  12  -3    0.03    0.04
   1  12   3    0.02    0.04
  -1  12  -3    0.03    0.05
  -1  12  -3   -0.02    0.04
  -1  12  -3    0.05    0.05
   1  12   3    0.04    0.05
   2 -12   3   14.57    0.39
   2 -12   3   14.81    0.41
   2  12   3   15.03    0.41
  -2  12  -3   15.39    0.36
  -2  12  -3   15.11    0.35
  -2  12  -3   14.72    0.42
  -2  12  -3   15.11    0.39
   2  12   3   14.91    0.43
  -2 -13   3    9.13    0.31
  -2 -13   3    8.98    0.32
   2  13  -3    9.00    0.27
   2  13  -3    9.25    0.31
  -2  13   3    9.00    0.30
   2  13  -3    9.47    0.27
   2  13  -3    9.19    0.33
  -2  13   3    9.36    0.33
  -1 -13   3   25.52    0.62
  -1 -13   3   26.01    0.59
   1  13  -3   26.54    0.55
  -1  13   3   25.26    0.61
   1  13  -3   25.29    0.54
  -1  13   3   25.81    0.59
   1  13  -3   25.08    0.62
   1  13  -3   25.73    0.59
   0 -13   3    2.44    0.16
   0 -13   3    2.50    0.17
   0  13  -3    2.75    0.18
   0  13   3    2.77    0.17
   0  13  -3    2.56    0.16
   0  13  -3    2.59    0.14
   0  13   3    2.60    0.18
   0  13  -3    2.78    0.15
   1 -13   3    6.51    0.26
   1 -13   3    6.35    0.24
  -1  13  -3    6.21    0.21
   1  13   3    6.17    0.25
  -1  13  -3    6.18    0.21
   1  13   3    6.22    0.27
  -1  13  -3    6.37    0.25
  -1  13  -3    6.38    0.27
   2 -13   3    4.47    0.20
   2 -13   3    4.66    0.22
   2  13   3    4.81    0.24
  -2  13  -3    4.92    0.18
  -2  13  -3    4.57    0.21
  -2  13  -3    4.43    0.23
   2  13   3    4.70    0.22
  -2  13  -3    4.74    0.18
   3  14  -3    4.35    0.29
   3  14  -3    4.23    0.29
  -2 -14   3    7.81    0.31
  -2 -14   3    7.50    0.29
   2  14  -3    7.43    0.25
   2  14  -3    7.86    0.26
   2  14  -3    7.55    0.31
   2  14  -3    7.89    0.29
  -2  14   3    7.68    0.28
  -2  14   3    7.79    0.31
  -1 -14   3    5.43    0.24
  -1 -14   3    5.47    0.26
  -1  14   3    5.94    0.25
   1  14  -3    5.78    0.25
   1  14  -3    5.83    0.22
  -1  14   3    5.47    0.26
   1  14  -3    5.55    0.21
   1  14  -3    5.77    0.27
   0 -14   3    3.63    0.20
   0 -14   3    3.76    0.21
   0  14  -3    3.86    0.20
   0  14  -3    4.00    0.18
   0  14   3    3.62    0.20
   0  14  -3    3.48    0.18
   0  14   3    3.41    0.21
   0  14  -3    3.56    0.22
   1 -14   3   11.90    0.36
   1 -14   3   12.09    0.39
   1  14   3   12.49    0.38
  -1  14  -3   12.27    0.40
  -1  14  -3   12.33    0.37
  -1  14  -3   11.82    0.33
  -1  14  -3   11.48    0.32
   1  14   3   11.87    0.40
   2 -14   3    3.69    0.19
   2 -14   3    3.43    0.21
  -2  14  -3    3.45    0.17
   2  14   3    3.45    0.20
   2  14   3    3.42    0.22
  -2  14  -3    3.48    0.17
  -2  14  -3    3.64    0.19
  -2  14  -3    3.30    0.21
   3  15  -3   -0.07    0.09
   3  15  -3    0.00    0.09
  -2 -15   3   14.37    0.43
  -2 -15   3   14.05    0.45
   2  15  -3   14.52    0.44
   2  15  -3   14.21    0.38
  -2  15   3   14.41    0.45
   2  15  -3   14.11    0.46
   2  15  -3   14.22    0.38
  -2  15   3   14.58    0.43
  -1 -15   3   19.72    0.52
  -1 -15   3   20.08    0.55
   1  15  -3   19.78    0.52
   1  15  -3   19.58    0.55
   1  15  -3   19.68    0.47
  -1  15   3   19.42    0.52
   1  15  -3   19.33    0.47
  -1  15   3   19.40    0.55
   0 -15   3    0.21    0.07
   0 -15   3    0.24    0.08
   0  15   3    0.30    0.08
   0  15   3    0.31    0.08
   0  15  -3    0.38    0.10
   0  15  -3    0.33    0.08
   0  15  -3    0.23    0.07
   0  15  -3    0.27    0.07
   1 -15   3    8.48    0.31
   1 -15   3    9.01    0.34
   1  15   3    9.06    0.33
  -1  15  -3    8.47    0.28
  -1  15  -3    8.84    0.28
  -1  15  -3    8.61    0.34
   1  15   3    8.72    0.35
  -1  15  -3    8.74    0.32
   2 -15   3    3.22    0.19
   2 -15   3    3.45    0.22
   2  15   3    3.47    0.23
   2  15   3    3.28    0.21
  -2  15  -3    3.55    0.18
  -2  15  -3    3.71    0.18
  -2  15  -3    3.44    0.20
  -2  15  -3    3.49    0.22
  -2 -16   3    9.66    0.48
  -2 -16   3    9.38    0.44
   2  16  -3    8.11    0.38
   2  16  -3    8.56    0.30
   2  16  -3    8.62    0.29
  -2  16   3    8.80    0.33
   2  16  -3    8.20    0.35
  -2  16   3    9.20    0.36
  -1 -16   3    0.06    0.06
  -1 -16   3    0.12    0.07
  -1  16   3   -0.07    0.06
  -1  16   3    0.03    0.06
   1  16  -3   -0.01    0.06
   1  16  -3   -0.05    0.05
   1  16  -3    0.01    0.06
   1  16  -3   -0.03    0.06
   0 -16   3    3.88    0.22
   0 -16   3    3.64    0.23
   0  16  -3    3.78    0.24
   0  16  -3    3.99    0.19
   0  16   3    4.07    0.24
   0  16  -3    4.32    0.20
   0  16   3    4.28    0.23
   0  16  -3    4.17    0.23
   1 -16   3    1.99    0.18
   1 -16   3    1.82    0.16
  -1  16  -3    1.88    0.19
   1  16   3    2.03    0.18
  -1  16  -3    2.10    0.15
  -1  16  -3    1.72    0.14
  -1  16  -3    1.78    0.17
   1  16   3    2.02    0.19
   2 -16   3    1.39    0.14
   2 -16   3    1.45    0.16
  -2  16  -3    1.22    0.12
  -2  16  -3    1.10    0.13
  -2  16  -3    1.17    0.12
  -2  16  -3    1.21    0.15
   2  17  -3    1.52    0.14
   2  17  -3    1.44    0.15
   1  17  -3    3.25    0.18
   1  17  -3    3.32    0.19
   0  17  -3    0.69    0.10
   0  17  -3    0.75    0.11
  -1  17  -3    0.83    0.11
  -1  17  -3    0.86    0.11
  -2  17  -3    0.79    0.11
  -2  17  -3    0.79    0.11
   2  18  -3    0.71    0.11
   2  18  -3    0.83    0.12
   1  18  -3    7.15    0.28
   1  18  -3    7.43    0.29
   0  18  -3    7.99    0.30
   0  18  -3    8.02    0.29
  -1  18  -3    0.16    0.07
  -1  18  -3    0.08    0.07
  -2  18  -3    2.39    0.18
  -2  18  -3    2.24    0.17
   2  19  -3   21.19    0.55
   2  19  -3   22.35    0.57
   1  19  -3    0.85    0.12
   1  19  -3    0.74    0.12
   0  19  -3    1.18    0.14
   0  19  -3    1.28    0.14
  -1  19  -3    2.22    0.18
  -1  19  -3    2.08    0.17
   1  20  -3    2.52    0.20
   1  20  -3    2.79    0.21
   0  20  -3    0.29    0.09
   0  20  -3    0.17    0.08
  -1  20  -3    6.09    0.27
  -1  20  -3    6.26    0.28
   2   0  -4   24.17    0.40
  -2   0   4   22.70    0.42
   2   0  -4   23.55    0.40
  -2   0   4   22.29    0.43
   1   0   4   -0.01    0.02
   1   0   4    0.01    0.02
   2   0   4   56.22    0.94
   2   0   4   56.63    0.93
  -2   0  -4   57.20    0.91
  -2   0  -4   57.99    0.91
  -2  -1   4   72.71    1.19
  -2  -1   4   73.37    1.18
  -2   1   4   72.97    1.17
   2   1  -4   72.68    1.16
   2   1  -4   73.38    1.16
  -2   1   4   72.96    1.19
  -1  -1   4  391.67    6.13
  -1  -1   4  385.03    6.07
  -1   1   4  374.05    6.22
   1   1  -4  382.52    6.02
   1   1  -4  380.73    6.01
  -1   1   4  371.99    6.15
   0  -1   4  106.92    1.71
   0  -1   4  107.88    1.70
   1  -1   4    0.08    0.02
   1  -1   4    0.08    0.02
   1   1   4    0.09    0.02
  -1   1  -4    0.10    0.02
   1   1   4    0.10    0.03
  -1   1  -4    0.09    0.02
   2  -1   4   72.50    1.18
   2  -1   4   72.68    1.17
   2   1   4   72.95    1.19
  -2   1  -4   72.60    1.15
   2   1   4   73.73    1.18
  -2   1  -4   71.83    1.15
  -2  -2   4    0.14    0.03
  -2  -2   4    0.18    0.04
  -2  -2   4    0.14    0.03
  -2  -2   4    0.15    0.03
  -2   2   4    0.06    0.02
   2   2  -4    0.17    0.03
  -2   2   4    0.10    0.03
   2   2  -4    0.15    0.03
  -1  -2   4    0.03    0.03
  -1  -2   4    0.03    0.02
   1   2  -4    0.04    0.02
  -1   2   4    0.03    0.02
  -1   2   4    0.04    0.03
   1   2  -4    0.07    0.03
   0  -2   4   76.72    1.22
   0  -2   4   76.39    1.23
   0   2   4   74.96    1.22
   0   2  -4   74.50    1.19
   0   2   4   74.93    1.23
   0   2  -4   73.95    1.19
   1  -2   4   25.05    0.45
   1  -2   4   24.74    0.46
  -1   2  -4   25.49    0.43
  -1   2  -4   25.01    0.43
   1   2   4   24.91    0.45
   1   2   4   24.89    0.47
   2  -2   4   79.85    1.28
   2  -2   4   79.46    1.29
   2   2   4   79.08    1.29
  -2   2  -4   78.34    1.25
  -2   2  -4   78.63    1.25
   2   2   4   79.58    1.28
  -2  -3   4   84.93    1.37
  -2  -3   4   85.04    1.38
  -2  -3   4   84.16    1.39
  -2  -3   4   84.38    1.38
  -2   3   4   83.42    1.38
   2   3  -4   85.53    1.35
  -2   3   4   84.62    1.36
   2   3  -4   85.74    1.35
  -1  -3   4   12.52    0.27
  -1  -3   4   12.51    0.28
   1   3  -4   12.82    0.25
   1   3  -4   12.41    0.25
  -1   3   4   12.49    0.28
  -1   3   4   12.38    0.26
   0  -3   4   77.71    1.29
   0  -3   4   78.64    1.31
   0   3  -4   80.90    1.27
   0   3  -4   80.74    1.27
   0   3   4   81.17    1.30
   0   3   4   80.31    1.31
   1  -3   4   21.33    0.40
   1  -3   4   21.50    0.41
  -1   3  -4   21.03    0.38
  -1   3  -4   21.04    0.38
   1   3   4   20.99    0.41
   1   3   4   21.11    0.40
   2  -3   4   19.53    0.38
   2  -3   4   19.31    0.38
   2  -3   4   19.03    0.39
   2  -3   4   19.72    0.37
  -2   3  -4   19.19    0.35
   2   3   4   18.92    0.39
   2   3   4   18.96    0.37
  -2   3  -4   19.40    0.35
  -2  -4   4    4.19    0.15
  -2  -4   4    4.21    0.14
  -2  -4   4    4.28    0.15
  -2  -4   4    4.32    0.15
   2   4  -4    4.14    0.12
   2   4  -4    4.46    0.12
  -2   4   4    4.08    0.13
  -2   4   4    4.20    0.14
  -1  -4   4   -0.04    0.02
  -1  -4   4   -0.04    0.02
  -1  -4   4   -0.04    0.02
  -1  -4   4   -0.03    0.03
   1   4  -4    0.00    0.02
  -1   4   4   -0.07    0.02
  -1   4   4   -0.03    0.02
   1   4  -4    0.02    0.02
   0  -4   4  283.36    4.62
   0  -4   4  272.68    4.43
   0  -4   4  285.10    4.63
   0  -4   4  279.31    4.47
   0   4   4  280.13    4.42
   0   4   4  281.50    4.37
   0   4  -4  283.82    4.42
   0   4  -4  292.17    4.42
   1  -4   4  265.99    4.37
   1  -4   4  272.63    4.39
   1  -4   4  267.79    4.31
   1  -4   4  269.91    4.31
  -1   4  -4  269.38    4.14
  -1   4  -4  270.88    4.14
   1   4   4  268.24    4.17
   1   4   4  268.48    4.19
   2  -4   4    0.04    0.03
   2  -4   4    0.11    0.03
   2  -4   4    0.01    0.03
   2  -4   4    0.01    0.03
  -2  -5   4    6.53    0.20
  -2  -5   4    6.77    0.20
  -2  -5   4    6.65    0.20
  -2  -5   4    6.59    0.19
   2   5  -4    6.55    0.17
  -2   5   4    6.62    0.19
  -2   5   4    6.63    0.18
   2   5  -4    6.60    0.17
  -1  -5   4   83.12    1.39
  -1  -5   4   82.75    1.40
  -1  -5   4   83.11    1.39
  -1  -5   4   83.73    1.38
  -1   5   4   82.33    1.39
  -1   5   4   84.03    1.37
   1   5  -4   84.95    1.35
   1   5  -4   83.24    1.35
   1   5  -4   86.79    1.40
   1   5  -4   85.06    1.38
   0  -5   4   26.76    0.52
   0  -5   4   25.96    0.52
   0  -5   4   26.85    0.50
   0  -5   4   26.26    0.52
   0   5   4   26.87    0.50
   0   5  -4   27.01    0.51
   0   5  -4   27.02    0.48
   0   5  -4   27.18    0.48
   0   5   4   26.66    0.52
   0   5  -4   27.01    0.52
   1  -5   4   24.80    0.49
   1  -5   4   25.33    0.48
   1  -5   4   24.90    0.49
   1  -5   4   25.26    0.50
   1   5   4   24.86    0.50
   1   5   4   24.90    0.48
  -1   5  -4   25.78    0.46
  -1   5  -4   25.27    0.45
   2  -5   4   26.67    0.52
   2  -5   4   26.24    0.49
   2  -5   4   26.34    0.51
   2  -5   4   26.27    0.51
   2   5   4   26.44    0.52
  -2   5  -4   26.54    0.47
  -2   5  -4   25.98    0.47
   2   5   4   26.12    0.50
  -2  -6   4    6.19    0.20
  -2  -6   4    6.27    0.20
  -2  -6   4    6.18    0.19
  -2  -6   4    6.38    0.21
   2   6  -4    6.72    0.17
  -2   6   4    6.21    0.19
  -2   6   4    6.09    0.18
   2   6  -4    6.91    0.17
  -1  -6   4   29.52    0.58
  -1  -6   4   30.16    0.58
  -1  -6   4   29.34    0.59
  -1  -6   4   29.93    0.56
  -1   6   4   30.46    0.58
   1   6  -4   30.64    0.59
   1   6  -4   29.34    0.54
   1   6  -4   29.49    0.56
  -1   6   4   30.21    0.56
   1   6  -4   29.60    0.53
   0  -6   4   31.74    0.61
   0  -6   4   32.64    0.62
   0  -6   4   32.59    0.62
   0  -6   4   31.85    0.59
   0   6  -4   31.78    0.57
   0   6  -4   32.30    0.62
   0   6  -4   31.71    0.57
   0   6  -4   32.07    0.60
   1  -6   4    1.76    0.10
   1  -6   4    1.64    0.09
   1  -6   4    1.65    0.10
   1  -6   4    1.66    0.10
  -1   6  -4    1.64    0.09
  -1   6  -4    1.55    0.08
  -1   6  -4    1.64    0.10
  -1   6  -4    1.64    0.08
   2  -6   4   18.81    0.38
   2  -6   4   18.22    0.40
   2  -6   4   18.47    0.40
   2  -6   4   18.08    0.40
   2   6   4   18.83    0.40
   2   6   4   18.76    0.41
  -2   6  -4   18.37    0.36
  -2   6  -4   18.43    0.36
   2   7  -4   29.58    0.58
  -2   7   4   29.30    0.57
   2   7  -4   28.96    0.54
  -2   7   4   29.27    0.58
   2   7  -4   29.76    0.60
   2   7  -4   29.39    0.54
  -1  -7   4    7.81    0.24
  -1  -7   4    7.96    0.22
   1   7  -4    8.15    0.23
  -1   7   4    8.12    0.24
   1   7  -4    8.08    0.20
   1   7  -4    7.98    0.24
  -1   7   4    8.10    0.23
   1   7  -4    8.18    0.21
   0  -7   4    0.60    0.07
   0  -7   4    0.62    0.07
   0  -7   4    0.70    0.07
   0  -7   4    0.55    0.07
   0   7  -4    0.61    0.06
   0   7   4    0.42    0.05
   0   7  -4    0.50    0.05
   0   7   4    0.48    0.06
   0   7  -4    0.63    0.07
   0   7  -4    0.63    0.07
   1  -7   4   89.33    1.50
   1  -7   4   88.99    1.48
   1  -7   4   91.00    1.52
   1  -7   4   90.34    1.51
  -1   7  -4   89.24    1.48
   1   7   4   89.42    1.49
  -1   7  -4   87.82    1.45
  -1   7  -4   89.62    1.51
  -1   7  -4   88.41    1.44
   1   7   4   89.14    1.51
   2  -7   4    0.20    0.05
   2  -7   4    0.18    0.05
  -2   7  -4    0.17    0.04
  -2   7  -4    0.15    0.04
  -2  -8   4    1.86    0.12
  -2  -8   4    2.03    0.12
  -2   8   4    1.88    0.12
  -2   8   4    1.88    0.11
   2   8  -4    1.72    0.10
   2   8  -4    1.75    0.12
   2   8  -4    1.87    0.11
   2   8  -4    1.87    0.10
  -1  -8   4   11.07    0.31
  -1  -8   4   11.43    0.29
   1   8  -4   11.32    0.26
   1   8  -4   11.48    0.29
  -1   8   4   11.18    0.30
   1   8  -4   11.03    0.26
  -1   8   4   10.99    0.28
   1   8  -4   11.86    0.32
   0  -8   4   11.65    0.31
   0  -8   4   11.21    0.29
   0   8  -4   13.01    0.28
   0   8   4   11.61    0.30
   0   8  -4   12.61    0.28
   0   8  -4   11.26    0.31
   0   8   4   11.81    0.32
   0   8  -4   11.63    0.30
   1  -8   4   10.87    0.28
   1  -8   4   10.74    0.30
  -1   8  -4   11.24    0.26
  -1   8  -4   10.92    0.26
   1   8   4   10.95    0.31
  -1   8  -4   10.96    0.28
   1   8   4   10.86    0.29
  -1   8  -4   10.85    0.30
   2  -8   4   72.26    1.28
   2  -8   4   72.73    1.26
   2   8   4   75.15    1.28
  -2   8  -4   74.96    1.23
  -2   8  -4   75.11    1.22
   2   8   4   74.47    1.31
  -2  -9   4    7.54    0.24
  -2  -9   4    7.22    0.25
   2   9  -4    7.39    0.24
   2   9  -4    7.25    0.21
   2   9  -4    7.68    0.26
   2   9  -4    7.38    0.21
  -1  -9   4    1.10    0.10
  -1  -9   4    1.12    0.10
   1   9  -4    0.95    0.08
  -1   9   4    0.83    0.09
  -1   9   4    1.00    0.09
   1   9  -4    0.95    0.10
   1   9  -4    0.96    0.08
   1   9  -4    1.04    0.09
   0  -9   4   44.20    0.81
   0  -9   4   43.62    0.83
   0   9   4   43.60    0.83
   0   9  -4   42.70    0.83
   0   9  -4   43.11    0.84
   0   9  -4   43.08    0.83
   0   9   4   43.11    0.81
   0   9  -4   43.48    0.77
   0   9  -4   41.64    0.80
   0   9  -4   43.44    0.77
   1  -9   4    0.28    0.06
   1  -9   4    0.41    0.07
   1   9   4    0.33    0.07
  -1   9  -4    0.27    0.05
  -1   9  -4    0.24    0.05
   1   9   4    0.31    0.06
  -1   9  -4    0.24    0.06
  -1   9  -4    0.28    0.05
   2  -9   4    7.76    0.24
   2  -9   4    7.84    0.25
  -2   9  -4    8.15    0.26
   2   9   4    7.76    0.25
  -2   9  -4    7.91    0.21
   2   9   4    7.27    0.26
  -2   9  -4    8.21    0.22
  -2   9  -4    7.89    0.24
  -2 -10   4    6.76    0.23
  -2 -10   4    6.88    0.25
  -2  10   4    6.44    0.24
   2  10  -4    6.94    0.21
  -2  10   4    6.62    0.23
   2  10  -4    6.97    0.21
   2  10  -4    6.77    0.25
   2  10  -4    7.07    0.24
  -1 -10   4    6.64    0.22
  -1 -10   4    6.64    0.24
   1  10  -4    6.52    0.20
   1  10  -4    6.50    0.22
   1  10  -4    6.63    0.24
   1  10  -4    6.64    0.25
  -1  10   4    6.53    0.24
   1  10  -4    6.49    0.24
  -1  10   4    6.64    0.23
   1  10  -4    6.55    0.20
   0 -10   4   20.52    0.46
   0 -10   4   20.36    0.48
   0  10   4   19.85    0.46
   0  10  -4   20.73    0.50
   0  10  -4   20.02    0.42
   0  10  -4   20.34    0.49
   0  10  -4   20.44    0.49
   0  10   4   20.35    0.49
   0  10  -4   19.83    0.42
   0  10  -4   20.35    0.46
   1 -10   4  130.25    2.17
   1 -10   4  129.80    2.14
  -1  10  -4  129.97    2.09
   1  10   4  129.22    2.15
  -1  10  -4  129.60    2.14
  -1  10  -4  127.96    2.17
  -1  10  -4  130.08    2.09
   1  10   4  128.23    2.18
   2 -10   4   35.12    0.68
   2 -10   4   36.10    0.71
  -2  10  -4   35.39    0.64
  -2  10  -4   35.54    0.64
  -2  10  -4   29.78    0.69
  -2  10  -4   30.06    0.66
   2  10   4   35.35    0.72
   2  10   4   35.55    0.70
  -2 -11   4   10.85    0.32
  -2 -11   4   11.17    0.34
   2  11  -4   10.78    0.32
   2  11  -4   11.05    0.29
   2  11  -4   10.94    0.29
  -2  11   4   10.78    0.31
   2  11  -4   10.83    0.35
  -2  11   4   10.49    0.33
  -1 -11   4   11.53    0.35
  -1 -11   4   11.61    0.33
   1  11  -4   11.77    0.30
   1  11  -4   11.54    0.36
   1  11  -4   11.43    0.33
   1  11  -4   11.63    0.30
   1  11  -4   11.47    0.35
   1  11  -4   11.55    0.35
  -1  11   4   12.09    0.35
  -1  11   4   11.71    0.33
   0 -11   4    1.19    0.11
   0 -11   4    1.08    0.10
   0  11   4    1.02    0.11
   0  11  -4    1.21    0.10
   0  11  -4    1.04    0.12
   0  11  -4    1.21    0.10
   0  11  -4    1.19    0.11
   0  11   4    1.14    0.12
   0  11  -4    0.94    0.11
   0  11  -4    1.25    0.12
   1 -11   4    0.93    0.11
   1 -11   4    0.97    0.10
  -1  11  -4    0.96    0.10
  -1  11  -4    1.00    0.09
   1  11   4    1.04    0.12
  -1  11  -4    1.00    0.11
   1  11   4    1.06    0.11
  -1  11  -4    0.93    0.09
   2 -11   4    5.88    0.22
   2 -11   4    5.88    0.23
   2  11   4    5.66    0.23
  -2  11  -4    5.47    0.19
  -2  11  -4    5.97    0.19
   2  11   4    5.27    0.24
   3  12  -4    0.08    0.09
   3  12  -4    0.00    0.05
  -2 -12   4    3.04    0.17
  -2 -12   4    3.13    0.19
  -2  12   4    2.94    0.17
   2  12  -4    2.91    0.17
   2  12  -4    2.88    0.19
  -2  12   4    2.85    0.18
   2  12  -4    3.17    0.15
   2  12  -4    3.01    0.15
  -1 -12   4   13.66    0.37
  -1 -12   4   13.86    0.40
  -1  12   4   13.37    0.37
  -1  12   4   12.94    0.39
   1  12  -4   13.67    0.34
   1  12  -4   13.39    0.34
   1  12  -4   13.39    0.40
   1  12  -4   13.28    0.38
   0 -12   4   29.32    0.66
   0 -12   4   29.15    0.63
   0  12   4   29.32    0.64
   0  12   4   29.61    0.67
   0  12  -4   29.41    0.68
   0  12  -4   29.93    0.64
   0  12  -4   29.55    0.67
   0  12  -4   28.68    0.59
   0  12  -4   29.80    0.59
   0  12  -4   29.30    0.67
   1 -12   4    0.43    0.08
   1 -12   4    0.55    0.08
  -1  12  -4    0.54    0.07
   1  12   4    0.62    0.10
   1  12   4    0.47    0.08
  -1  12  -4    0.43    0.07
  -1  12  -4    0.39    0.07
  -1  12  -4    0.48    0.08
   2 -12   4   21.18    0.49
   2 -12   4   20.65    0.52
   2  12   4   20.98    0.54
  -2  12  -4   20.77    0.45
  -2  12  -4   20.45    0.53
   2  12   4   20.77    0.51
  -2  12  -4   21.03    0.45
  -2  12  -4   21.16    0.50
   3  13  -4    7.24    0.27
   3  13  -4    7.14    0.26
  -2 -13   4    3.55    0.19
  -2 -13   4    3.46    0.20
   2  13  -4    3.73    0.17
  -2  13   4    3.68    0.19
   2  13  -4    3.41    0.19
  -2  13   4    3.81    0.21
   2  13  -4    3.24    0.20
   2  13  -4    3.63    0.17
  -1 -13   4   27.44    0.65
  -1 -13   4   27.74    0.62
   1  13  -4   27.46    0.58
  -1  13   4   28.11    0.65
  -1  13   4   27.53    0.62
   1  13  -4   27.50    0.57
   1  13  -4   27.02    0.66
   1  13  -4   27.21    0.63
   0 -13   4   30.53    0.70
   0 -13   4   30.92    0.67
   0  13  -4   31.45    0.63
   0  13  -4   30.62    0.68
   0  13   4   31.51    0.68
   0  13  -4   31.05    0.72
   0  13   4   31.45    0.71
   0  13  -4   31.58    0.63
   1 -13   4   10.82    0.36
   1 -13   4   11.00    0.34
  -1  13  -4   10.58    0.33
  -1  13  -4   11.38    0.30
  -1  13  -4   10.38    0.35
   1  13   4   11.02    0.37
  -1  13  -4   10.73    0.30
   1  13   4   11.01    0.35
   2 -13   4    4.99    0.24
   2 -13   4    5.18    0.22
   2  13   4    5.00    0.23
  -2  13  -4    5.28    0.23
  -2  13  -4    5.51    0.20
  -2  13  -4    5.17    0.20
   2  13   4    4.87    0.25
  -2  13  -4    5.08    0.24
   3  14  -4    0.68    0.10
   3  14  -4    0.86    0.11
  -2 -14   4    0.17    0.07
  -2 -14   4    0.04    0.06
   2  14  -4    0.11    0.06
  -2  14   4    0.07    0.06
  -2  14   4    0.08    0.07
   2  14  -4    0.14    0.06
   2  14  -4    0.10    0.06
   2  14  -4    0.06    0.06
  -1 -14   4    0.69    0.10
  -1 -14   4    0.55    0.10
   1  14  -4    0.69    0.10
  -1  14   4    0.75    0.12
  -1  14   4    0.71    0.10
   1  14  -4    0.58    0.11
   1  14  -4    0.68    0.09
   1  14  -4    0.65    0.09
   0 -14   4   29.78    0.70
   0 -14   4   29.39    0.67
   0  14  -4   29.30    0.62
   0  14   4   30.25    0.71
   0  14  -4   29.69    0.68
   0  14  -4   29.98    0.71
   0  14  -4   28.98    0.61
   0  14   4   30.14    0.68
   1 -14   4    1.35    0.13
   1 -14   4    1.27    0.14
  -1  14  -4    1.42    0.12
   1  14   4    1.31    0.14
  -1  14  -4    1.30    0.13
  -1  14  -4    1.26    0.12
   1  14   4    1.23    0.14
  -1  14  -4    0.98    0.13
   2 -14   4   12.67    0.38
   2 -14   4   12.22    0.40
  -2  14  -4   12.38    0.38
  -2  14  -4   12.42    0.34
   2  14   4   12.60    0.42
   2  14   4   12.78    0.40
  -2  14  -4   12.88    0.42
  -2  14  -4   12.41    0.34
   3  15  -4    6.97    0.31
   3  15  -4    7.08    0.28
  -2 -15   4    0.43    0.09
  -2 -15   4    0.39    0.09
   2  15  -4    0.52    0.09
   2  15  -4    0.46    0.10
  -2  15   4    0.31    0.09
   2  15  -4    0.35    0.08
   2  15  -4    0.63    0.09
  -2  15   4    0.25    0.08
  -1 -15   4   27.12    0.65
  -1 -15   4   27.28    0.68
   1  15  -4   27.78    0.66
  -1  15   4   27.87    0.69
  -1  15   4   27.32    0.65
   1  15  -4   26.57    0.69
   1  15  -4   27.94    0.60
   1  15  -4   26.86    0.59
   0 -15   4   23.50    0.58
   0 -15   4   23.36    0.62
   0  15   4   23.92    0.63
   0  15   4   24.09    0.59
   0  15  -4   24.04    0.54
   0  15  -4   23.47    0.63
   0  15  -4   23.38    0.59
   0  15  -4   23.93    0.53
   1 -15   4    9.03    0.35
   1 -15   4    8.75    0.32
  -1  15  -4    9.14    0.29
   1  15   4    8.90    0.33
   1  15   4    9.09    0.36
  -1  15  -4    8.20    0.33
  -1  15  -4    8.80    0.32
  -1  15  -4    9.02    0.28
   2 -15   4    0.05    0.06
   2 -15   4   -0.02    0.05
   2  15   4    0.03    0.07
  -2  15  -4    0.04    0.06
  -2  15  -4    0.01    0.05
  -2  15  -4    0.02    0.06
   2  15   4   -0.03    0.07
  -2  15  -4    0.08    0.06
   3  16  -4    1.98    0.24
   3  16  -4    1.73    0.23
   2  16  -4    1.41    0.14
  -2  16   4    1.52    0.16
   2  16  -4    1.67    0.15
  -2  16   4    1.62    0.18
  -1 -16   4    0.18    0.08
  -1 -16   4    0.23    0.08
   1  16  -4    0.17    0.08
  -1  16   4    0.17    0.08
  -1  16   4    0.24    0.08
   1  16  -4    0.22    0.07
   1  16  -4    0.16    0.07
   1  16  -4    0.25    0.08
   0 -16   4    2.69    0.20
   0 -16   4    2.48    0.18
   0  16  -4    2.70    0.17
   0  16  -4    2.49    0.20
   0  16  -4    2.61    0.17
   0  16  -4    2.56    0.19
   0  16   4    2.59    0.19
   0  16   4    2.54    0.20
   1 -16   4    2.09    0.17
   1 -16   4    1.99    0.18
  -1  16  -4    1.66    0.14
   1  16   4    2.14    0.20
  -1  16  -4    2.00    0.16
  -1  16  -4    2.03    0.17
   1  16   4    2.07    0.18
  -1  16  -4    1.83    0.18
   2 -16   4    1.72    0.18
   2 -16   4    1.69    0.17
  -2  16  -4    1.60    0.16
  -2  16  -4    1.22    0.12
  -2  16  -4    1.68    0.18
  -2  16  -4    1.31    0.13
   2  17  -4   19.88    0.50
   2  17  -4   19.03    0.50
   1  17  -4    0.75    0.11
   1  17  -4    0.78    0.11
   0  17  -4   11.20    0.35
   0  17  -4   10.79    0.34
  -1  17  -4    2.35    0.17
  -1  17  -4    2.44    0.17
  -2  17  -4   12.70    0.37
  -2  17  -4   12.05    0.36
   2  18  -4    1.98    0.17
   2  18  -4    1.94    0.18
   1  18  -4    1.19    0.13
   1  18  -4    1.43    0.14
   0  18  -4    0.03    0.07
   0  18  -4    0.04    0.06
  -1  18  -4    6.48    0.27
  -1  18  -4    6.38    0.26
  -2  18  -4    0.43    0.09
  -2  18  -4    0.32    0.09
   1  19  -4   18.02    0.49
   1  19  -4   18.38    0.50
   0  19  -4    1.56    0.15
   0  19  -4    1.90    0.17
  -1  19  -4    6.09    0.27
  -1  19  -4    6.39    0.27
   0  20  -4    0.93    0.14
   0  20  -4    1.14    0.14
   2   0  -5    0.00    0.02
   2   0  -5    0.01    0.02
  -2   0   5    0.01    0.02
  -2   0   5    0.01    0.03
  -1   0   5    1.67    0.08
  -1   0   5    1.53    0.08
   0   0   5   -0.08    0.02
   0   0   5   -0.08    0.02
   1   0   5   37.46    0.68
   1   0   5   38.36    0.67
   2   0   5    0.02    0.03
  -2   0  -5    0.02    0.03
   2   0   5    0.00    0.03
  -2  -1   5   11.08    0.26
  -2  -1   5   11.18    0.25
  -2   1   5   11.28    0.25
   2   1  -5   11.11    0.23
   2   1  -5   10.78    0.23
  -2   1   5   11.31    0.26
  -1  -1   5    9.96    0.23
  -1  -1   5    9.99    0.24
  -1   1   5    9.83    0.23
  -1   1   5    9.85    0.24
   1   1  -5    9.82    0.21
   1   1  -5    9.86    0.21
   0  -1   5    8.04    0.20
   0  -1   5    7.72    0.20
   0   1   5    7.88    0.21
   0   1   5    7.74    0.19
   1  -1   5    0.93    0.06
   1  -1   5    0.96    0.07
  -1   1  -5    0.82    0.06
  -1   1  -5    0.77    0.06
   2  -1   5   33.76    0.61
   2  -1   5   33.28    0.59
   2   1   5   33.24    0.60
  -2   1  -5   33.62    0.57
  -2   1  -5   32.66    0.57
   2   1   5   33.47    0.61
  -2  -2   5   25.79    0.49
  -2  -2   5   25.52    0.48
  -2   2   5   25.90    0.49
   2   2  -5   25.45    0.46
   2   2  -5   25.62    0.46
  -2   2   5   26.01    0.48
  -1  -2   5  127.25    2.01
  -1  -2   5  127.11    2.03
   1   2  -5  125.68    1.98
   1   2  -5  126.61    1.99
  -1   2   5  125.88    2.03
  -1   2   5  126.72    2.01
   0  -2   5   21.66    0.43
   0  -2   5   21.91    0.42
   0   2   5   21.42    0.43
   0   2  -5   21.17    0.39
   0   2   5   21.47    0.41
   0   2  -5   21.57    0.39
   1  -2   5   80.61    1.33
   1  -2   5   80.26    1.31
  -1   2  -5   79.72    1.29
  -1   2  -5   80.99    1.29
   1   2   5   80.98    1.33
   1   2   5   80.61    1.32
   2  -2   5   10.83    0.26
   2  -2   5   10.88    0.25
  -2   2  -5   10.64    0.23
  -2   2  -5   10.67    0.23
  -2  -3   5    0.66    0.07
  -2  -3   5    0.68    0.07
  -2  -3   5    0.75    0.07
  -2  -3   5    0.73    0.08
   2   3  -5    0.84    0.06
  -2   3   5    0.73    0.06
   2   3  -5    0.82    0.06
  -2   3   5    0.64    0.07
  -1  -3   5   25.98    0.49
  -1  -3   5   25.92    0.50
  -1   3   5   25.53    0.50
  -1   3   5   25.34    0.48
   1   3  -5   25.28    0.46
   1   3  -5   25.39    0.46
   0  -3   5   16.94    0.36
   0  -3   5   16.67    0.34
   0   3   5   16.53    0.34
   0   3   5   16.84    0.36
   0   3  -5   16.73    0.32
   0   3  -5   16.46    0.32
   1  -3   5  151.77    2.51
   1  -3   5  152.62    2.49
  -1   3  -5  172.23    2.47
   1   3   5  153.08    2.51
   1   3   5  152.48    2.49
  -1   3  -5  163.86    2.46
   2  -3   5    0.11    0.04
   2  -3   5    0.09    0.03
  -2   3  -5    0.14    0.03
  -2   3  -5    0.13    0.04
   2   3   5    0.09    0.04
   2   3   5    0.09    0.03
  -2  -4   5   63.15    1.05
  -2  -4   5   64.00    1.08
  -2  -4   5   62.19    1.07
  -2  -4   5   61.56    1.08
   2   4  -5   62.11    1.02
   2   4  -5   62.05    1.02
  -2   4   5   61.24    1.04
  -2   4   5   60.59    1.06
  -1  -4   5   17.26    0.38
  -1  -4   5   17.06    0.36
  -1   4   5   17.52    0.37
   1   4  -5   16.79    0.33
  -1   4   5   17.40    0.36
   1   4  -5   16.92    0.33
   0  -4   5   34.94    0.64
   0  -4   5   35.14    0.66
   0   4   5   35.86    0.65
   0   4  -5   36.90    0.62
   0   4  -5   36.33    0.62
   0   4   5   35.61    0.66
   1  -4   5    0.17    0.04
   1  -4   5    0.16    0.04
   1   4   5    0.26    0.05
   1   4   5    0.29    0.05
   2  -4   5    2.75    0.12
   2  -4   5    2.70    0.11
   2  -4   5    2.73    0.12
   2  -4   5    2.58    0.12
  -2   4  -5    2.90    0.10
   2   4   5    2.39    0.12
  -2   4  -5    2.91    0.10
   2   4   5    2.54    0.12
  -2  -5   5   37.09    0.70
  -2  -5   5   38.34    0.72
  -2  -5   5   35.45    0.70
  -2  -5   5   34.99    0.68
  -2   5   5   39.02    0.68
  -2   5   5   38.96    0.70
   2   5  -5   38.10    0.66
   2   5  -5   39.15    0.66
  -1  -5   5   29.01    0.55
  -1  -5   5   28.39    0.57
  -1  -5   5   28.45    0.56
  -1  -5   5   28.04    0.56
   1   5  -5   28.93    0.52
   1   5  -5   29.12    0.52
  -1   5   5   28.66    0.55
  -1   5   5   29.35    0.56
   0  -5   5  163.65    2.62
   0  -5   5  163.51    2.60
   0  -5   5  161.70    2.62
   0  -5   5  162.41    2.63
   0   5   5  166.43    2.60
   0   5  -5  165.45    2.57
   0   5  -5  163.65    2.57
   0   5   5  164.35    2.62
   1  -5   5    9.67    0.26
   1  -5   5    9.42    0.24
   1  -5   5    9.59    0.26
   1  -5   5    9.53    0.25
   1   5   5    9.78    0.25
  -1   5  -5    9.48    0.22
  -1   5  -5    9.35    0.22
   1   5   5    9.65    0.26
   2  -5   5    4.44    0.15
   2  -5   5    4.42    0.16
   2  -5   5    4.41    0.16
   2  -5   5    4.54    0.17
  -2   5  -5    4.40    0.14
   2   5   5    4.42    0.16
   2   5   5    4.27    0.17
  -2   5  -5    4.40    0.14
  -2   6   5   38.92    0.71
   2   6  -5   39.51    0.69
   2   6  -5   39.09    0.69
  -2   6   5   38.53    0.73
  -1  -6   5   58.97    1.05
  -1  -6   5   63.01    1.14
  -1  -6   5   59.09    1.02
   1   6  -5   58.51    0.99
  -1   6   5   58.21    1.02
   1   6  -5   58.53    0.99
  -1   6   5   58.39    1.04
   0  -6   5    6.97    0.20
   0  -6   5    6.68    0.22
   0  -6   5    6.66    0.21
   0  -6   5    6.80    0.21
   0   6  -5    6.92    0.18
   0   6   5    6.48    0.21
   0   6  -5    6.71    0.18
   0   6   5    6.79    0.20
   1  -6   5    0.59    0.07
   1  -6   5    0.55    0.07
   1  -6   5    0.58    0.07
   1  -6   5    0.64    0.07
   1   6   5    0.48    0.06
  -1   6  -5    0.65    0.06
  -1   6  -5    0.55    0.06
   1   6   5    0.52    0.07
   2  -6   5    0.86    0.08
   2  -6   5    0.87    0.08
   2  -6   5    0.76    0.08
   2  -6   5    0.92    0.09
  -2   6  -5    0.86    0.07
  -2   6  -5    0.81    0.07
  -2  -7   5    4.65    0.17
  -2  -7   5    4.61    0.18
   2   7  -5    4.33    0.15
  -2   7   5    4.16    0.17
  -2   7   5    4.16    0.16
   2   7  -5    4.24    0.15
  -1  -7   5    6.00    0.19
  -1  -7   5    6.29    0.21
   1   7  -5    5.91    0.18
   1   7  -5    6.05    0.20
   1   7  -5    6.19    0.18
  -1   7   5    6.04    0.21
   1   7  -5    6.08    0.21
  -1   7   5    6.10    0.20
   0  -7   5   69.57    1.19
   0  -7   5   69.81    1.22
   0   7   5   70.06    1.22
   0   7  -5   68.99    1.16
   0   7  -5   68.96    1.20
   0   7   5   69.40    1.20
   0   7  -5   70.10    1.23
   0   7  -5   71.08    1.16
   1  -7   5    1.50    0.11
   1  -7   5    1.72    0.11
   1   7   5    2.20    0.12
   1   7   5    2.25    0.13
  -1   7  -5    1.69    0.09
  -1   7  -5    1.67    0.09
   2  -7   5   71.42    1.27
   2  -7   5   72.00    1.25
  -2   7  -5   70.34    1.21
  -2   7  -5   69.74    1.21
   2   7   5   78.90    1.30
   2   7   5   78.60    1.28
  -2  -8   5   39.55    0.77
  -2  -8   5   39.36    0.75
   2   8  -5   38.42    0.71
   2   8  -5   38.94    0.70
  -1  -8   5   55.51    1.02
  -1  -8   5   55.41    0.99
   1   8  -5   55.99    1.00
   1   8  -5   55.99    0.96
   1   8  -5   55.97    1.03
  -1   8   5   54.81    1.01
   1   8  -5   54.84    0.95
  -1   8   5   54.82    0.99
   0  -8   5   24.02    0.53
   0  -8   5   24.02    0.50
   0   8  -5   24.89    0.48
   0   8   5   23.99    0.53
   0   8  -5   24.42    0.51
   0   8  -5   25.05    0.54
   0   8  -5   24.13    0.47
   0   8   5   23.83    0.50
   1  -8   5    5.94    0.20
   1  -8   5    6.14    0.22
  -1   8  -5    6.25    0.21
   1   8   5    6.05    0.21
  -1   8  -5    5.98    0.18
   1   8   5    6.22    0.23
  -1   8  -5    6.34    0.18
  -1   8  -5    6.21    0.22
   2  -8   5    2.33    0.14
   2  -8   5    2.35    0.13
  -2   8  -5    2.67    0.12
   2   8   5    2.41    0.14
  -2   8  -5    2.56    0.12
   2   8   5    2.17    0.15
  -2  -9   5   11.42    0.31
  -2  -9   5   11.15    0.33
  -2   9   5   10.59    0.32
  -2   9   5   10.72    0.30
   2   9  -5   10.96    0.28
   2   9  -5   11.16    0.28
   2   9  -5   11.78    0.32
   2   9  -5   11.47    0.34
  -1  -9   5    0.23    0.05
  -1  -9   5    0.24    0.06
   1   9  -5    0.19    0.05
  -1   9   5    0.20    0.06
   1   9  -5    0.18    0.05
   1   9  -5    0.29    0.07
  -1   9   5    0.23    0.06
   1   9  -5    0.28    0.06
   0  -9   5   15.54    0.40
   0  -9   5   15.37    0.37
   0   9  -5   15.04    0.34
   0   9  -5   15.36    0.40
   0   9  -5   15.24    0.37
   0   9  -5   15.36    0.34
   0   9   5   15.14    0.40
   0   9   5   14.98    0.38
   1  -9   5   36.87    0.74
   1  -9   5   37.23    0.72
  -1   9  -5   35.79    0.68
   1   9   5   37.22    0.73
  -1   9  -5   37.86    0.76
  -1   9  -5   37.52    0.73
  -1   9  -5   36.14    0.68
   1   9   5   37.54    0.76
   2  -9   5    4.69    0.19
   2  -9   5    4.70    0.20
   2   9   5    4.97    0.20
  -2   9  -5    5.10    0.17
  -2   9  -5    4.72    0.17
   2   9   5    5.24    0.22
   3  10  -5    0.20    0.09
   3  10  -5    0.26    0.08
  -2 -10   5   42.00    0.84
  -2 -10   5   42.08    0.81
   2  10  -5   42.00    0.85
   2  10  -5   41.77    0.77
   2  10  -5   41.54    0.77
  -2  10   5   41.89    0.84
   2  10  -5   41.62    0.82
  -2  10   5   41.79    0.81
  -1 -10   5   -0.01    0.04
  -1 -10   5    0.00    0.04
   1  10  -5   -0.04    0.04
  -1  10   5    0.04    0.05
   1  10  -5   -0.02    0.04
   1  10  -5   -0.06    0.04
   1  10  -5   -0.02    0.03
  -1  10   5    0.07    0.05
   0 -10   5   13.97    0.36
   0 -10   5   14.18    0.39
   0  10   5   13.92    0.39
   0  10  -5   13.96    0.36
   0  10  -5   14.36    0.33
   0  10  -5   14.24    0.39
   0  10   5   14.16    0.37
   0  10  -5   13.74    0.33
   1 -10   5    1.02    0.11
   1 -10   5    1.00    0.10
   1  10   5    0.96    0.11
  -1  10  -5    1.05    0.09
  -1  10  -5    0.98    0.10
   1  10   5    0.96    0.10
  -1  10  -5    0.77    0.08
  -1  10  -5    0.91    0.11
   2 -10   5    0.54    0.08
   2 -10   5    0.44    0.07
  -2  10  -5    0.45    0.07
  -2  10  -5    0.56    0.07
   2  10   5    0.65    0.09
   2  10   5    0.55    0.09
   3  11  -5    0.86    0.10
   3  11  -5    0.94    0.10
  -2 -11   5    3.21    0.17
  -2 -11   5    3.28    0.18
   2  11  -5    3.18    0.15
   2  11  -5    3.05    0.15
  -2  11   5    3.21    0.18
  -2  11   5    3.05    0.17
   2  11  -5    3.22    0.17
   2  11  -5    3.17    0.19
  -1 -11   5    0.89    0.10
  -1 -11   5    1.00    0.12
   1  11  -5    0.84    0.10
   1  11  -5    1.13    0.11
  -1  11   5    1.20    0.12
   1  11  -5    0.95    0.11
  -1  11   5    1.09    0.11
   1  11  -5    0.96    0.09
   0 -11   5    0.42    0.07
   0 -11   5    0.37    0.07
   0  11  -5    0.35    0.08
   0  11   5    0.30    0.07
   0  11   5    0.39    0.07
   0  11  -5    0.34    0.07
   0  11  -5    0.39    0.06
   0  11  -5    0.39    0.07
   1 -11   5    2.67    0.16
   1 -11   5    2.93    0.15
  -1  11  -5    2.57    0.17
  -1  11  -5    2.88    0.16
   1  11   5    2.57    0.17
  -1  11  -5    2.58    0.14
   1  11   5    2.73    0.16
  -1  11  -5    2.45    0.13
   2 -11   5    2.23    0.14
   2 -11   5    2.33    0.15
   2  11   5    2.09    0.15
  -2  11  -5    2.08    0.12
   2  11   5    2.30    0.16
  -2  11  -5    2.30    0.13
   3  12  -5    6.22    0.23
   3  12  -5    6.07    0.23
  -2 -12   5    1.85    0.14
  -2 -12   5    1.88    0.15
   2  12  -5    1.96    0.13
   2  12  -5    1.74    0.12
  -2  12   5    1.92    0.14
   2  12  -5    1.75    0.15
  -2  12   5    1.86    0.15
   2  12  -5    1.92    0.15
  -1 -12   5   12.16    0.38
  -1 -12   5   12.69    0.37
  -1  12   5   12.28    0.36
   1  12  -5   12.07    0.36
  -1  12   5   12.40    0.38
   1  12  -5   12.85    0.39
   1  12  -5   12.85    0.33
   1  12  -5   12.76    0.33
   0 -12   5   10.01    0.31
   0 -12   5    9.90    0.33
   0  12  -5    9.62    0.28
   0  12   5    9.97    0.34
   0  12  -5   10.13    0.32
   0  12  -5    9.41    0.28
   0  12  -5    9.77    0.34
   0  12   5    9.94    0.32
   1 -12   5   18.00    0.48
   1 -12   5   17.66    0.44
  -1  12  -5   17.66    0.45
   1  12   5   17.34    0.48
  -1  12  -5   17.81    0.41
  -1  12  -5   17.70    0.48
   1  12   5   17.26    0.45
  -1  12  -5   17.89    0.41
   2 -12   5    0.10    0.05
   2 -12   5    0.08    0.05
  -2  12  -5    0.03    0.05
  -2  12  -5    0.08    0.05
   2  12   5    0.06    0.06
   2  12   5    0.09    0.06
   3  13  -5    0.01    0.05
   3  13  -5    0.03    0.05
  -2 -13   5    0.08    0.06
  -2 -13   5    0.02    0.05
   2  13  -5   -0.01    0.05
  -2  13   5    0.06    0.06
   2  13  -5    0.10    0.06
   2  13  -5    0.06    0.05
  -2  13   5    0.07    0.06
   2  13  -5    0.06    0.05
  -1 -13   5    4.62    0.24
  -1 -13   5    4.59    0.22
   1  13  -5    4.61    0.24
   1  13  -5    4.60    0.19
  -1  13   5    4.29    0.23
  -1  13   5    4.76    0.22
   1  13  -5    4.55    0.22
   1  13  -5    4.31    0.19
   0 -13   5    0.61    0.10
   0 -13   5    0.52    0.10
   0  13  -5    0.46    0.09
   0  13  -5    0.37    0.07
   0  13   5    0.39    0.09
   0  13  -5    0.40    0.08
   0  13   5    0.30    0.08
   0  13  -5    0.43    0.09
   1 -13   5    0.01    0.05
   1 -13   5   -0.02    0.04
   1  13   5    0.00    0.05
  -1  13  -5   -0.01    0.05
   1  13   5    0.04    0.06
  -1  13  -5   -0.02    0.04
  -1  13  -5   -0.01    0.04
  -1  13  -5    0.01    0.05
   2 -13   5    4.49    0.23
   2 -13   5    4.42    0.21
  -2  13  -5    4.50    0.19
  -2  13  -5    4.86    0.19
   2  13   5    4.31    0.24
   2  13   5    4.73    0.23
  -2  13  -5    3.92    0.22
  -2  13  -5    4.28    0.21
   3  14  -5    1.56    0.14
   3  14  -5    1.34    0.12
  -2 -14   5    3.35    0.21
  -2 -14   5    3.14    0.19
   2  14  -5    3.11    0.21
  -2  14   5    3.34    0.20
   2  14  -5    3.19    0.17
  -2  14   5    3.17    0.21
   2  14  -5    3.35    0.17
   2  14  -5    3.03    0.19
  -1 -14   5   18.39    0.52
  -1 -14   5   18.82    0.50
  -1  14   5   17.82    0.49
   1  14  -5   18.84    0.50
   1  14  -5   18.53    0.44
   1  14  -5   18.56    0.45
  -1  14   5   18.24    0.52
   1  14  -5   18.30    0.53
   0 -14   5    0.65    0.11
   0 -14   5    0.63    0.10
   0  14   5    0.56    0.10
   0  14  -5    0.58    0.10
   0  14  -5    0.65    0.09
   0  14  -5    0.76    0.09
   0  14  -5    0.59    0.11
   0  14   5    0.58    0.10
   1 -14   5    5.71    0.25
   1 -14   5    5.76    0.27
  -1  14  -5    5.82    0.22
   1  14   5    5.84    0.26
  -1  14  -5    5.15    0.26
  -1  14  -5    5.53    0.22
   1  14   5    5.59    0.27
  -1  14  -5    5.80    0.25
   2 -14   5    0.37    0.09
   2 -14   5    0.29    0.08
  -2  14  -5    0.32    0.09
  -2  14  -5    0.33    0.07
  -2  14  -5    0.38    0.09
   2  14   5    0.42    0.09
   2  14   5    0.39    0.10
  -2  14  -5    0.29    0.07
   3  15  -5    0.22    0.07
   3  15  -5    0.22    0.08
  -2 -15   5    0.48    0.09
  -2 -15   5    0.55    0.11
  -2  15   5    0.59    0.11
   2  15  -5    0.59    0.11
   2  15  -5    0.40    0.09
   2  15  -5    0.51    0.10
  -2  15   5    0.44    0.11
   2  15  -5    0.49    0.09
  -1 -15   5    5.24    0.27
  -1 -15   5    5.33    0.25
   1  15  -5    4.89    0.25
  -1  15   5    5.22    0.28
   1  15  -5    5.28    0.28
  -1  15   5    5.31    0.26
   1  15  -5    5.49    0.22
   1  15  -5    5.27    0.22
   0 -15   5    5.27    0.27
   0 -15   5    5.29    0.25
   0  15   5    5.49    0.28
   0  15  -5    4.91    0.27
   0  15  -5    5.21    0.22
   0  15  -5    5.49    0.23
   0  15   5    5.31    0.25
   0  15  -5    5.30    0.25
   1 -15   5    4.83    0.24
   1 -15   5    4.83    0.26
   1  15   5    4.85    0.25
   1  15   5    4.96    0.27
  -1  15  -5    5.02    0.25
  -1  15  -5    4.97    0.27
  -1  15  -5    4.43    0.21
  -1  15  -5    4.82    0.22
   2 -15   5    4.12    0.24
   2 -15   5    4.15    0.22
  -2  15  -5    3.88    0.19
  -2  15  -5    4.38    0.23
  -2  15  -5    4.19    0.25
  -2  15  -5    4.45    0.20
   2  15   5    4.30    0.26
   2  15   5    4.19    0.24
   3  16  -5    0.10    0.08
   3  16  -5    0.09    0.07
   2  16  -5    6.78    0.27
   2  16  -5    7.18    0.27
   1  16  -5    1.02    0.12
  -1  16   5    0.72    0.12
   1  16  -5    0.85    0.11
  -1  16   5    0.83    0.13
   0 -16   5   23.83    0.62
   0 -16   5   24.02    0.65
   0  16  -5   23.43    0.65
   0  16  -5   22.92    0.61
   0  16   5   23.91    0.67
   0  16   5   23.85    0.63
   0  16  -5   23.71    0.56
   0  16  -5   23.86    0.55
   1 -16   5    2.90    0.23
   1 -16   5    3.26    0.26
  -1  16  -5    3.17    0.18
  -1  16  -5    2.88    0.18
  -1  16  -5    3.07    0.24
  -1  16  -5    3.14    0.22
  -2  16  -5    0.84    0.11
  -2  16  -5    0.86    0.11
   2  17  -5    0.26    0.09
   2  17  -5    0.30    0.09
   1  17  -5   19.31    0.50
   1  17  -5   19.40    0.50
   0  17  -5    3.60    0.20
   0  17  -5    3.70    0.21
  -1  17  -5    5.58    0.24
  -1  17  -5    5.11    0.24
  -2  17  -5    0.67    0.10
  -2  17  -5    0.68    0.11
   2  18  -5   18.24    0.48
   2  18  -5   17.55    0.48
   1  18  -5    2.54    0.20
   1  18  -5    2.68    0.19
   0  18  -5    0.12    0.08
   0  18  -5    0.25    0.08
  -1  18  -5    1.35    0.14
  -1  18  -5    1.41    0.15
  -2  18  -5    0.02    0.06
  -2  18  -5   -0.02    0.06
   1  19  -5   -0.08    0.07
   1  19  -5    0.18    0.09
   0  19  -5    9.16    0.34
   0  19  -5    9.31    0.34
  -1  19  -5    3.04    0.20
  -1  19  -5    3.17    0.21
  -2   0   6   20.78    0.43
   2   0  -6   19.90    0.38
  -2   0   6   20.58    0.41
   2   0  -6   20.16    0.38
  -1   0   6   -0.04    0.02
  -1   0   6   -0.03    0.02
   0   0   6  175.87    2.80
   0   0   6  179.47    2.82
   1   0   6   -0.01    0.02
   1   0   6   -0.01    0.03
  -2   0  -6    7.89    0.19
  -2   0  -6    7.73    0.19
   2   0   6    7.55    0.22
   2   0   6    7.53    0.20
  -2  -1   6   57.57    0.99
  -2  -1   6   56.38    0.97
   2   1  -6   56.69    0.94
   2   1  -6   56.21    0.94
  -2   1   6   57.19    0.97
  -2   1   6   55.85    0.98
  -1  -1   6   21.15    0.42
  -1  -1   6   21.21    0.43
   1   1  -6   20.79    0.39
  -1   1   6   20.66    0.41
   1   1  -6   20.29    0.39
  -1   1   6   20.70    0.43
   0  -1   6   66.12    1.11
   0  -1   6   66.50    1.13
   0   1   6   66.08    1.13
   0   1   6   65.80    1.11
   1  -1   6   13.60    0.30
   1  -1   6   13.59    0.32
   1   1   6   13.32    0.30
   1   1   6   13.66    0.32
  -1   1  -6   13.74    0.28
  -1   1  -6   13.19    0.28
   2  -1   6   12.82    0.31
   2  -1   6   12.97    0.29
   2   1   6   13.74    0.30
  -2   1  -6   13.07    0.27
   2   1   6   13.59    0.32
  -2   1  -6   12.73    0.27
  -2  -2   6   80.60    1.36
  -2  -2   6   82.20    1.38
   2   2  -6   81.70    1.33
  -2   2   6   82.81    1.36
   2   2  -6   82.92    1.33
  -2   2   6   83.17    1.38
  -1  -2   6  151.14    2.39
  -1  -2   6  151.02    2.41
   1   2  -6  148.82    2.36
  -1   2   6  151.09    2.41
   1   2  -6  148.02    2.36
  -1   2   6  151.89    2.39
   0  -2   6  141.22    2.20
   0  -2   6  139.40    2.22
   0   2  -6  139.41    2.16
   0   2   6  134.55    2.19
   0   2  -6  136.14    2.16
   0   2   6  134.21    2.21
   1  -2   6   58.19    1.02
   1  -2   6   58.63    1.00
   1   2   6   57.44    1.02
  -1   2  -6   59.30    0.97
  -1   2  -6   58.78    0.97
   1   2   6   59.26    1.00
   2  -2   6    0.73    0.07
   2  -2   6    0.61    0.07
   2   2   6    0.72    0.08
  -2   2  -6    0.70    0.06
  -2   2  -6    0.64    0.06
   2   2   6    0.73    0.07
  -2  -3   6   36.09    0.66
  -2  -3   6   35.93    0.68
  -2   3   6   36.45    0.68
   2   3  -6   35.95    0.63
  -2   3   6   36.57    0.66
   2   3  -6   36.15    0.63
  -1  -3   6    0.16    0.04
  -1  -3   6    0.17    0.04
   1   3  -6    0.13    0.03
  -1   3   6    0.16    0.04
  -1   3   6    0.15    0.04
   1   3  -6    0.11    0.03
   0  -3   6   22.53    0.47
   0  -3   6   22.49    0.45
   0   3  -6   22.31    0.42
   0   3   6   22.91    0.45
   0   3  -6   22.70    0.42
   0   3   6   22.47    0.47
   1  -3   6   93.11    1.52
   1  -3   6   93.45    1.54
   1   3   6   92.67    1.55
  -1   3  -6   92.28    1.49
  -1   3  -6   92.72    1.49
   1   3   6   92.93    1.53
   2  -3   6   11.02    0.26
   2  -3   6   10.85    0.28
   2   3   6   10.55    0.27
  -2   3  -6   10.54    0.24
  -2   3  -6   10.72    0.24
   2   3   6   10.80    0.28
  -2  -4   6    6.37    0.21
  -2  -4   6    6.84    0.23
  -2   4   6    5.91    0.19
  -2   4   6    5.88    0.20
   2   4  -6    5.95    0.17
   2   4  -6    6.12    0.17
  -1  -4   6   10.15    0.26
  -1  -4   6    9.94    0.27
  -1   4   6    9.97    0.25
   1   4  -6   10.04    0.23
  -1   4   6    9.99    0.27
   1   4  -6    9.82    0.23
   0  -4   6   77.01    1.29
   0  -4   6   78.05    1.31
   0   4   6   75.48    1.30
   0   4  -6   75.39    1.25
   0   4  -6   76.50    1.25
   0   4   6   76.86    1.28
   1  -4   6   96.96    1.60
   1  -4   6   97.10    1.58
   1   4   6   95.34    1.60
  -1   4  -6   96.28    1.55
   1   4   6   94.83    1.58
  -1   4  -6   95.73    1.55
   2  -4   6    1.11    0.09
   2  -4   6    1.20    0.09
   2  -4   6    1.02    0.09
   2  -4   6    0.97    0.09
   2   4   6    1.03    0.09
   2   4   6    1.08    0.10
  -2   4  -6    1.09    0.08
  -2   4  -6    1.13    0.08
  -2  -5   6    0.10    0.04
  -2  -5   6    0.08    0.03
   2   5  -6    0.18    0.04
  -2   5   6    0.08    0.04
   2   5  -6    0.18    0.04
  -2   5   6    0.14    0.05
  -1  -5   6   11.57    0.28
  -1  -5   6   11.26    0.30
  -1   5   6   11.14    0.30
  -1   5   6   11.18    0.28
   1   5  -6   11.16    0.26
   1   5  -6   10.96    0.26
   0  -5   6    0.83    0.07
   0  -5   6    0.81    0.08
   0   5  -6    0.77    0.06
   0   5   6    0.82    0.08
   0   5   6    0.74    0.08
   0   5  -6    0.84    0.07
   1  -5   6   11.54    0.29
   1  -5   6   11.58    0.30
   1   5   6   11.00    0.29
   1   5   6   11.85    0.31
  -1   5  -6   11.29    0.26
  -1   5  -6   11.52    0.26
   2  -5   6   32.46    0.64
   2  -5   6   32.80    0.62
  -2   5  -6   32.81    0.59
   2   5   6   32.93    0.63
   2   5   6   32.83    0.65
  -2   5  -6   32.10    0.59
  -2  -6   6   21.15    0.47
  -2  -6   6   21.36    0.45
   2   6  -6   20.48    0.42
   2   6  -6   21.15    0.42
  -1  -6   6   16.13    0.38
  -1  -6   6   15.74    0.36
   1   6  -6   15.75    0.34
   1   6  -6   15.47    0.33
  -1   6   6   15.64    0.38
  -1   6   6   16.08    0.36
   0  -6   6   17.81    0.42
   0  -6   6   17.90    0.40
   0   6   6   18.46    0.42
   0   6  -6   18.09    0.37
   0   6   6   18.15    0.40
   0   6  -6   18.14    0.37
   1  -6   6    1.29    0.10
   1  -6   6    1.20    0.09
  -1   6  -6    1.27    0.09
   1   6   6    1.31    0.10
  -1   6  -6    1.32    0.09
   1   6   6    1.25    0.11
   2  -6   6   66.23    1.15
   2  -6   6   66.92    1.18
  -2   6  -6   66.92    1.12
   2   6   6   67.84    1.20
  -2   6  -6   66.54    1.12
   2   6   6   67.42    1.17
  -2  -7   6   12.63    0.34
  -2  -7   6   12.53    0.32
   2   7  -6   12.02    0.29
   2   7  -6   12.41    0.29
  -1  -7   6    6.03    0.22
  -1  -7   6    6.16    0.20
  -1   7   6    6.07    0.22
   1   7  -6    5.79    0.18
   1   7  -6    5.83    0.18
  -1   7   6    6.03    0.20
   0  -7   6    0.96    0.09
   0  -7   6    0.85    0.09
   0   7  -6    0.85    0.08
   0   7   6    1.18    0.10
   0   7   6    1.15    0.10
   0   7  -6    1.09    0.08
   1  -7   6   15.56    0.39
   1  -7   6   16.03    0.37
   1   7   6   15.85    0.38
  -1   7  -6   15.82    0.34
  -1   7  -6   16.25    0.34
   1   7   6   15.95    0.40
   2  -7   6    0.32    0.06
   2  -7   6    0.37    0.07
   2   7   6    0.23    0.06
  -2   7  -6    0.30    0.06
  -2   7  -6    0.35    0.06
   2   7   6    0.23    0.07
  -2  -8   6   10.51    0.31
  -2  -8   6   10.36    0.30
   2   8  -6   10.03    0.27
  -2   8   6   10.19    0.29
   2   8  -6   10.26    0.27
  -2   8   6   10.47    0.31
  -1  -8   6   92.27    1.58
  -1  -8   6   91.35    1.55
  -1   8   6   92.60    1.55
  -1   8   6   91.95    1.58
   1   8  -6   89.46    1.50
   1   8  -6   88.80    1.50
   0  -8   6   11.17    0.30
   0  -8   6   10.89    0.31
   0   8  -6   10.55    0.26
   0   8   6   10.59    0.30
   0   8   6   10.42    0.31
   0   8  -6   10.66    0.27
   1  -8   6    8.24    0.25
   1  -8   6    8.52    0.27
   1   8   6    7.90    0.27
  -1   8  -6    8.37    0.23
   1   8   6    8.14    0.26
  -1   8  -6    8.26    0.22
   2  -8   6   16.03    0.40
   2  -8   6   15.57    0.38
  -2   8  -6   16.04    0.35
   2   8   6   15.71    0.41
   2   8   6   15.69    0.39
  -2   8  -6   16.07    0.35
   3   9  -6    1.82    0.15
   3   9  -6    1.62    0.12
  -2  -9   6    4.67    0.19
  -2  -9   6    4.38    0.21
  -2   9   6    4.37    0.20
   2   9  -6    4.29    0.16
  -2   9   6    4.32    0.19
   2   9  -6    4.33    0.17
  -1  -9   6    9.79    0.31
  -1  -9   6    9.79    0.29
   1   9  -6    9.74    0.26
  -1   9   6    9.63    0.29
   1   9  -6    9.83    0.26
  -1   9   6    9.75    0.31
   0  -9   6    0.12    0.05
   0  -9   6    0.13    0.05
   0   9  -6    0.04    0.05
   0   9  -6    0.14    0.04
   0   9  -6    0.14    0.04
   0   9   6    0.10    0.05
   0   9   6    0.17    0.05
   0   9  -6    0.05    0.05
   1  -9   6    2.47    0.15
   1  -9   6    2.56    0.14
  -1   9  -6    2.83    0.14
   1   9   6    2.23    0.14
  -1   9  -6    2.80    0.13
   1   9   6    2.25    0.15
   2  -9   6   30.41    0.62
   2  -9   6   30.15    0.65
   2   9   6   30.11    0.64
  -2   9  -6   30.08    0.58
  -2   9  -6   29.62    0.58
   2   9   6   29.80    0.66
   3  10  -6    7.17    0.23
   3  10  -6    7.48    0.25
  -2 -10   6    1.04    0.12
  -2 -10   6    0.89    0.10
   2  10  -6    0.99    0.09
   2  10  -6    1.11    0.10
  -2  10   6    1.02    0.12
  -2  10   6    1.03    0.11
  -1 -10   6    1.67    0.14
  -1 -10   6    1.80    0.13
   1  10  -6    1.81    0.12
   1  10  -6    1.70    0.13
  -1  10   6    2.04    0.14
   1  10  -6    1.69    0.14
  -1  10   6    2.09    0.15
   1  10  -6    1.84    0.12
   0 -10   6    8.83    0.30
   0 -10   6    9.12    0.28
   0  10  -6    8.55    0.30
   0  10  -6    8.89    0.28
   0  10   6    8.99    0.29
   0  10   6    8.56    0.30
   0  10  -6    8.91    0.25
   0  10  -6    8.78    0.25
   1 -10   6   25.31    0.58
   1 -10   6   24.69    0.55
  -1  10  -6   25.32    0.51
  -1  10  -6   25.37    0.52
   1  10   6   25.30    0.59
   1  10   6   25.53    0.57
   2 -10   6    0.48    0.07
   2 -10   6    0.41    0.07
  -2  10  -6    0.47    0.07
   2  10   6    0.34    0.07
   2  10   6    0.32    0.08
  -2  10  -6    0.51    0.07
   3  11  -6    3.86    0.17
   3  11  -6    3.87    0.17
  -2 -11   6   14.08    0.39
  -2 -11   6   14.23    0.41
   2  11  -6   14.35    0.35
  -2  11   6   14.00    0.41
  -2  11   6   13.95    0.38
   2  11  -6   13.48    0.35
  -1 -11   6    0.21    0.07
  -1 -11   6    0.21    0.06
   1  11  -6    0.19    0.07
   1  11  -6    0.18    0.06
   1  11  -6    0.15    0.07
  -1  11   6    0.18    0.07
   1  11  -6    0.27    0.06
  -1  11   6    0.19    0.07
   0 -11   6    6.75    0.27
   0 -11   6    6.83    0.25
   0  11   6    7.11    0.28
   0  11   6    6.99    0.26
   0  11  -6    7.36    0.23
   0  11  -6    7.10    0.26
   0  11  -6    6.51    0.22
   0  11  -6    6.96    0.28
   1 -11   6    6.21    0.24
   1 -11   6    6.30    0.26
   1  11   6    6.40    0.27
  -1  11  -6    6.67    0.21
  -1  11  -6    6.46    0.22
   1  11   6    6.36    0.25
   2 -11   6    5.21    0.23
   2 -11   6    5.21    0.22
   2  11   6    5.39    0.23
  -2  11  -6    5.10    0.19
   2  11   6    5.17    0.24
  -2  11  -6    5.15    0.19
   3  12  -6   -0.05    0.05
   3  12  -6    0.06    0.05
  -2 -12   6   16.31    0.46
  -2 -12   6   16.05    0.43
   2  12  -6   16.37    0.44
  -2  12   6   15.20    0.44
   2  12  -6   15.78    0.39
   2  12  -6   15.20    0.46
  -2  12   6   15.47    0.42
   2  12  -6   16.10    0.39
  -1 -12   6    8.27    0.30
  -1 -12   6    7.84    0.28
   1  12  -6    7.55    0.31
   1  12  -6    7.64    0.28
  -1  12   6    7.87    0.30
  -1  12   6    8.09    0.29
   1  12  -6    7.90    0.25
   1  12  -6    7.76    0.25
   0 -12   6   12.53    0.37
   0 -12   6   12.16    0.38
   0  12   6   12.62    0.37
   0  12  -6   12.78    0.34
   0  12   6   12.32    0.39
   0  12  -6   12.33    0.33
   0  12  -6   12.27    0.40
   0  12  -6   12.86    0.37
   1 -12   6    1.65    0.14
   1 -12   6    1.63    0.15
   1  12   6    1.73    0.15
  -1  12  -6    1.69    0.13
  -1  12  -6    1.64    0.15
   1  12   6    1.80    0.16
  -1  12  -6    1.76    0.14
  -1  12  -6    1.73    0.12
   2 -12   6    2.92    0.17
   2 -12   6    2.83    0.18
  -2  12  -6    2.79    0.15
   2  12   6    2.72    0.19
   2  12   6    2.76    0.18
  -2  12  -6    2.79    0.15
   3  13  -6    6.52    0.24
   3  13  -6    7.12    0.25
  -2 -13   6    0.57    0.10
  -2 -13   6    0.53    0.09
   2  13  -6    0.59    0.10
   2  13  -6    0.66    0.09
  -2  13   6    0.62    0.11
   2  13  -6    0.66    0.09
  -2  13   6    0.56    0.10
   2  13  -6    0.45    0.10
  -1 -13   6    0.59    0.09
  -1 -13   6    0.72    0.11
   1  13  -6    0.62    0.09
   1  13  -6    0.65    0.10
   1  13  -6    0.66    0.08
  -1  13   6    0.57    0.10
   1  13  -6    0.60    0.11
  -1  13   6    0.67    0.10
   0 -13   6    0.16    0.07
   0 -13   6    0.06    0.07
   0  13   6    0.13    0.07
   0  13  -6    0.16    0.06
   0  13  -6    0.10    0.07
   0  13  -6    0.09    0.06
   0  13   6    0.07    0.07
   0  13  -6    0.05    0.06
   1 -13   6    5.61    0.24
   1 -13   6    5.75    0.26
   1  13   6    6.18    0.26
  -1  13  -6    5.78    0.22
  -1  13  -6    5.84    0.25
  -1  13  -6    5.80    0.27
  -1  13  -6    6.00    0.22
   1  13   6    5.79    0.27
   2 -13   6    2.81    0.19
   2 -13   6    2.49    0.17
   2  13   6    2.71    0.18
  -2  13  -6    2.74    0.15
  -2  13  -6    2.53    0.15
   2  13   6    2.84    0.20
   3  14  -6    2.47    0.16
   3  14  -6    2.47    0.16
  -2 -14   6    6.60    0.30
  -2 -14   6    6.74    0.28
  -2  14   6    6.94    0.30
  -2  14   6    7.03    0.29
   2  14  -6    6.42    0.28
   2  14  -6    6.83    0.25
   2  14  -6    6.70    0.25
   2  14  -6    6.68    0.31
  -1 -14   6   -0.07    0.05
  -1 -14   6   -0.03    0.05
   1  14  -6    0.02    0.06
  -1  14   6   -0.06    0.06
   1  14  -6   -0.03    0.05
   1  14  -6   -0.04    0.05
   1  14  -6   -0.08    0.05
  -1  14   6   -0.08    0.05
   0 -14   6   20.43    0.56
   0 -14   6   19.80    0.52
   0  14   6   20.05    0.53
   0  14   6   19.97    0.56
   0  14  -6   19.64    0.48
   0  14  -6   20.19    0.47
   0  14  -6   19.76    0.56
   0  14  -6   20.31    0.53
   1 -14   6    0.25    0.08
   1 -14   6    0.15    0.07
  -1  14  -6    0.15    0.07
  -1  14  -6    0.22    0.08
  -1  14  -6    0.18    0.08
  -1  14  -6    0.24    0.07
   1  14   6    0.11    0.08
   1  14   6    0.17    0.08
   2 -14   6    4.95    0.24
   2 -14   6    5.07    0.26
  -2  14  -6    5.06    0.21
   2  14   6    5.25    0.26
  -2  14  -6    5.12    0.21
   2  14   6    4.81    0.27
   3  15  -6    5.26    0.23
   3  15  -6    5.15    0.23
  -2  15   6    0.71    0.12
   2  15  -6    0.81    0.11
   2  15  -6    0.51    0.10
  -2  15   6    0.70    0.12
  -1 -15   6    0.08    0.08
  -1 -15   6    0.14    0.07
   1  15  -6    0.08    0.07
   1  15  -6    0.21    0.07
   1  15  -6    0.16    0.07
   1  15  -6    0.06    0.06
  -1  15   6    0.14    0.07
  -1  15   6    0.17    0.07
   0 -15   6    3.82    0.24
   0 -15   6    3.69    0.21
   0  15   6    3.73    0.22
   0  15  -6    3.85    0.22
   0  15  -6    3.79    0.20
   0  15  -6    3.52    0.19
   0  15   6    3.79    0.24
   0  15  -6    3.76    0.24
   1 -15   6   19.69    0.56
   1 -15   6   19.13    0.52
   1  15   6   19.48    0.54
  -1  15  -6   20.17    0.54
  -1  15  -6   19.31    0.47
  -1  15  -6   19.25    0.57
  -1  15  -6   19.62    0.48
   1  15   6   18.99    0.57
   2 -15   6    1.65    0.18
   2 -15   6    1.46    0.16
  -2  15  -6    1.72    0.15
  -2  15  -6    1.37    0.13
   3  16  -6    0.23    0.08
   3  16  -6    0.32    0.09
   2  16  -6    5.05    0.24
   2  16  -6    4.94    0.23
   1  16  -6    9.71    0.32
   1  16  -6    9.96    0.33
   0  16  -6    1.96    0.16
   0  16  -6    2.11    0.16
  -1  16  -6   16.17    0.43
  -1  16  -6   16.21    0.44
  -2  16  -6    0.21    0.07
  -2  16  -6    0.20    0.07
   2  17  -6    1.72    0.16
   2  17  -6    1.65    0.16
   1  17  -6    2.57    0.19
   1  17  -6    2.60    0.18
   0  17  -6    2.13    0.17
   0  17  -6    2.09    0.17
  -1  17  -6   -0.02    0.06
  -1  17  -6   -0.03    0.06
  -2  17  -6    1.94    0.16
  -2  17  -6    2.26    0.17
   2  18  -6    0.85    0.12
   2  18  -6    0.74    0.12
   1  18  -6    0.76    0.13
   1  18  -6    0.90    0.13
   0  18  -6    1.17    0.13
   0  18  -6    1.41    0.15
  -1  18  -6    5.22    0.25
  -1  18  -6    5.14    0.25
   1  19  -6    0.47    0.11
   1  19  -6    0.57    0.12
   0  19  -6    0.03    0.07
   0  19  -6   -0.03    0.06
  -1   0   7  163.69    2.63
  -1   0   7  163.69    2.61
   0   0   7   -0.01    0.03
   0   0   7   -0.05    0.02
   1   0   7   62.31    1.09
   1   0   7   61.96    1.07
   2   0   7    0.25    0.06
  -2   0  -7   -0.01    0.04
  -2   0  -7   -0.04    0.04
   2   0   7    0.18    0.05
  -2   1   7   16.16    0.40
   2   1  -7   20.31    0.37
  -2   1   7   16.49    0.38
   2   1  -7   19.81    0.37
  -1   1   7    2.60    0.12
   1   1  -7    2.85    0.11
  -1   1   7    2.55    0.13
   1   1  -7    2.65    0.11
   0  -1   7   32.99    0.62
   0  -1   7   33.69    0.65
   0   1   7   33.01    0.63
   0   1   7   34.01    0.65
   1  -1   7   39.72    0.75
   1  -1   7   40.08    0.73
   1   1   7   39.85    0.75
   1   1   7   40.46    0.73
  -1   1  -7   39.79    0.70
  -1   1  -7   39.63    0.69
   2  -1   7   52.20    0.94
   2  -1   7   52.02    0.92
  -2   1  -7   52.05    0.89
   2   1   7   52.21    0.94
   2   1   7   52.32    0.92
  -2   1  -7   52.33    0.88
  -2   2   7    4.09    0.15
   2   2  -7    5.59    0.15
  -2   2   7    3.79    0.16
  -1  -2   7    4.54    0.17
  -1  -2   7    4.56    0.16
  -1   2   7    4.74    0.17
   1   2  -7    4.53    0.14
   1   2  -7    4.57    0.14
  -1   2   7    4.62    0.16
   0  -2   7    4.72    0.18
   0  -2   7    5.07    0.17
   0   2  -7    4.87    0.15
   0   2   7    4.90    0.17
   0   2  -7    4.88    0.15
   0   2   7    4.97    0.18
   1  -2   7    5.99    0.20
   1  -2   7    5.82    0.19
   1   2   7    5.69    0.20
   1   2   7    5.63    0.19
  -1   2  -7    5.99    0.17
  -1   2  -7    5.73    0.17
   2  -2   7   21.83    0.47
   2  -2   7   22.25    0.45
  -2   2  -7   21.09    0.42
  -2   2  -7   21.79    0.42
   2   2   7   21.94    0.47
   2   2   7   21.76    0.45
  -2  -3   7    0.12    0.04
  -2  -3   7    0.12    0.04
   2   3  -7    0.28    0.05
   2   3  -7    0.30    0.05
  -2   3   7    0.08    0.03
  -2   3   7    0.07    0.03
  -1  -3   7   87.58    1.48
  -1  -3   7   87.85    1.46
  -1   3   7   87.08    1.46
   1   3  -7   86.88    1.43
   1   3  -7   87.87    1.43
  -1   3   7   88.46    1.49
   0  -3   7   94.33    1.59
   0  -3   7   94.33    1.57
   0   3  -7   94.79    1.53
   0   3   7   93.88    1.57
   0   3  -7   95.40    1.53
   0   3   7   93.76    1.59
   1  -3   7    5.07    0.19
   1  -3   7    4.88    0.17
   1   3   7    5.24    0.19
  -1   3  -7    5.28    0.16
  -1   3  -7    5.08    0.16
   1   3   7    5.04    0.18
   2  -3   7    3.28    0.14
   2  -3   7    3.55    0.16
  -2   3  -7    3.22    0.13
   2   3   7    3.22    0.15
  -2   3  -7    3.21    0.13
   2   3   7    3.22    0.16
  -2  -4   7    8.20    0.24
  -2  -4   7    8.57    0.26
   2   4  -7    8.31    0.22
   2   4  -7    8.41    0.22
  -1  -4   7   26.14    0.54
  -1  -4   7   25.85    0.52
   1   4  -7   25.75    0.49
  -1   4   7   26.10    0.52
  -1   4   7   25.78    0.54
   1   4  -7   25.50    0.49
   0  -4   7    9.52    0.27
   0  -4   7    9.54    0.26
   0   4   7    9.72    0.27
   0   4   7    9.57    0.26
   0   4  -7    9.39    0.23
   0   4  -7    9.33    0.23
   1  -4   7   22.39    0.49
   1  -4   7   23.07    0.47
  -1   4  -7   22.50    0.44
  -1   4  -7   23.05    0.45
   1   4   7   22.55    0.50
   1   4   7   22.41    0.47
   2  -4   7   22.60    0.49
   2  -4   7   22.45    0.47
   2   4   7   23.19    0.50
   2   4   7   22.44    0.48
  -2   4  -7   22.72    0.44
  -2   4  -7   22.50    0.44
  -2  -5   7   27.06    0.57
  -2  -5   7   26.78    0.55
   2   5  -7   26.80    0.52
   2   5  -7   26.93    0.51
  -1  -5   7   43.84    0.86
  -1  -5   7   43.86    0.83
   1   5  -7   43.31    0.79
  -1   5   7   49.24    0.87
   1   5  -7   43.07    0.79
  -1   5   7   49.76    0.84
   0  -5   7   76.18    1.33
   0  -5   7   77.64    1.31
   0   5   7   75.96    1.31
   0   5   7   76.66    1.33
   0   5  -7   75.31    1.27
   0   5  -7   77.03    1.27
   1  -5   7   26.39    0.56
   1  -5   7   26.92    0.54
   1   5   7   26.51    0.54
  -1   5  -7   25.92    0.50
  -1   5  -7   27.07    0.51
   1   5   7   26.71    0.57
   2  -5   7    3.38    0.16
   2  -5   7    3.46    0.15
   2   5   7    3.26    0.17
   2   5   7    2.98    0.15
  -2   5  -7    3.41    0.14
  -2   5  -7    3.11    0.13
  -2  -6   7   24.72    0.55
  -2  -6   7   24.94    0.53
   2   6  -7   24.90    0.50
   2   6  -7   25.37    0.50
  -1  -6   7    7.19    0.24
  -1  -6   7    7.15    0.23
   1   6  -7    7.21    0.20
   1   6  -7    6.81    0.20
   0  -6   7    0.00    0.03
   0  -6   7    0.01    0.03
   0   6  -7    0.02    0.03
   0   6   7    0.03    0.04
   0   6  -7    0.03    0.03
   0   6   7    0.07    0.04
   1  -6   7   10.58    0.31
   1  -6   7   10.86    0.29
  -1   6  -7   10.75    0.26
  -1   6  -7   10.74    0.26
   1   6   7   10.31    0.29
   1   6   7   10.34    0.31
   2  -6   7    3.62    0.17
   2  -6   7    3.64    0.16
   2   6   7    3.43    0.18
  -2   6  -7    3.61    0.14
   2   6   7    3.34    0.16
  -2   6  -7    3.42    0.14
   3   7  -7   19.00    0.49
   3   7  -7   19.09    0.48
  -2  -7   7  197.85    3.20
  -2  -7   7  199.86    3.17
  -2   7   7  197.30    3.16
   2   7  -7  194.95    3.11
  -2   7   7  197.36    3.19
   2   7  -7  194.98    3.12
  -1  -7   7   12.49    0.35
  -1  -7   7   12.69    0.33
   1   7  -7   12.12    0.30
  -1   7   7   12.49    0.33
  -1   7   7   12.54    0.34
   1   7  -7   11.89    0.29
   0  -7   7    9.66    0.30
   0  -7   7   10.20    0.28
   0   7  -7    9.67    0.25
   0   7  -7    9.66    0.25
   1  -7   7    3.23    0.16
   1  -7   7    2.89    0.15
   1   7   7    3.79    0.17
   1   7   7    3.90    0.18
  -1   7  -7    3.10    0.13
  -1   7  -7    2.89    0.13
   2  -7   7    0.00    0.04
   2  -7   7    0.07    0.04
   2   7   7   -0.07    0.04
  -2   7  -7   -0.01    0.04
  -2   7  -7    0.06    0.04
   2   7   7   -0.08    0.04
   3   8  -7    2.04    0.12
   3   8  -7    2.08    0.13
  -2  -8   7    0.32    0.07
  -2  -8   7    0.39    0.07
   2   8  -7    0.38    0.07
   2   8  -7    0.40    0.07
  -2   8   7    0.35    0.08
  -2   8   7    0.47    0.08
  -1  -8   7    2.02    0.13
  -1  -8   7    1.97    0.14
  -1   8   7    2.06    0.14
  -1   8   7    2.06    0.13
   1   8  -7    1.87    0.12
   1   8  -7    2.13    0.12
   0  -8   7    0.13    0.05
   0  -8   7    0.09    0.04
   0   8  -7    0.09    0.04
   0   8  -7    0.12    0.05
   1  -8   7   12.34    0.33
   1  -8   7   12.27    0.35
   1   8   7   12.79    0.36
  -1   8  -7   12.31    0.30
  -1   8  -7   12.08    0.30
   1   8   7   12.71    0.34
   2  -8   7    0.13    0.06
   2  -8   7    0.17    0.06
   2   8   7    0.09    0.06
   2   8   7    0.11    0.06
  -2   8  -7    0.13    0.05
  -2   8  -7    0.12    0.05
   3   9  -7    5.94    0.20
   3   9  -7    5.91    0.20
  -2  -9   7    2.40    0.16
  -2  -9   7    2.19    0.14
  -2   9   7    2.20    0.15
   2   9  -7    2.30    0.13
  -2   9   7    2.01    0.14
   2   9  -7    2.31    0.13
  -1  -9   7  179.11    2.95
  -1  -9   7  178.32    2.91
  -1   9   7  179.55    2.91
   1   9  -7  177.98    2.86
  -1   9   7  179.31    2.95
   1   9  -7  179.59    2.86
   0  -9   7   44.86    0.88
   0  -9   7   45.60    0.91
   0   9  -7   46.30    0.83
   0   9  -7   46.87    0.84
   0   9   7   45.58    0.91
   0   9   7   45.52    0.88
   1  -9   7    8.41    0.27
   1  -9   7    7.89    0.28
  -1   9  -7    8.05    0.24
   1   9   7    7.75    0.28
   1   9   7    7.93    0.27
  -1   9  -7    8.09    0.24
   2  -9   7    0.53    0.08
   2  -9   7    0.55    0.08
   2   9   7    0.65    0.09
  -2   9  -7    0.63    0.08
  -2   9  -7    0.59    0.07
   2   9   7    0.70    0.10
   3  10  -7    0.97    0.10
   3  10  -7    1.01    0.10
  -2 -10   7    0.20    0.06
  -2 -10   7    0.24    0.07
  -2  10   7    0.13    0.06
   2  10  -7    0.21    0.06
   2  10  -7    0.18    0.06
  -2  10   7    0.21    0.07
  -1 -10   7   32.04    0.71
  -1 -10   7   31.91    0.68
   1  10  -7   31.95    0.63
   1  10  -7   31.21    0.63
  -1  10   7   31.45    0.70
  -1  10   7   31.82    0.68
   0 -10   7    8.93    0.31
   0 -10   7    8.56    0.29
   0  10  -7    9.11    0.26
   0  10   7    8.53    0.31
   0  10   7    8.83    0.29
   0  10  -7    9.01    0.26
   1 -10   7    0.19    0.06
   1 -10   7    0.11    0.06
  -1  10  -7    0.19    0.06
  -1  10  -7    0.16    0.06
   1  10   7    0.09    0.06
   1  10   7    0.17    0.07
   2 -10   7    8.74    0.31
   2 -10   7    8.95    0.29
  -2  10  -7    9.19    0.26
  -2  10  -7    8.85    0.26
   2  10   7    8.96    0.32
   2  10   7    8.85    0.30
   3  11  -7   18.39    0.43
   3  11  -7   18.11    0.43
  -2 -11   7    9.22    0.33
  -2 -11   7    9.33    0.31
   2  11  -7    8.88    0.27
   2  11  -7    8.86    0.27
  -2  11   7    9.04    0.31
  -2  11   7    8.96    0.32
  -1 -11   7    9.63    0.34
  -1 -11   7    9.77    0.31
  -1  11   7    9.40    0.33
   1  11  -7    9.84    0.28
  -1  11   7    9.49    0.31
   1  11  -7    9.42    0.28
   0 -11   7   39.81    0.82
   0 -11   7   40.48    0.86
   0  11  -7   40.70    0.77
   0  11  -7   40.31    0.78
   0  11   7   40.67    0.83
   0  11   7   41.06    0.87
   1 -11   7   27.09    0.63
   1 -11   7   26.53    0.60
   1  11   7   27.02    0.62
  -1  11  -7   26.45    0.56
  -1  11  -7   26.51    0.56
   1  11   7   27.09    0.65
   2 -11   7    0.16    0.06
   2 -11   7    0.21    0.07
  -2  11  -7    0.16    0.06
  -2  11  -7    0.19    0.06
   2  11   7    0.26    0.07
   2  11   7    0.20    0.07
   3  12  -7    0.16    0.06
   3  12  -7    0.31    0.07
  -2 -12   7    9.48    0.35
  -2 -12   7    9.83    0.33
  -2  12   7    8.97    0.31
  -2  12   7    8.99    0.33
   2  12  -7    9.34    0.28
   2  12  -7    9.23    0.29
  -1 -12   7    1.86    0.15
  -1 -12   7    1.77    0.16
   1  12  -7    1.94    0.14
  -1  12   7    1.73    0.15
   1  12  -7    1.71    0.13
  -1  12   7    1.78    0.16
   0 -12   7   21.25    0.57
   0 -12   7   20.88    0.53
   0  12   7   24.55    0.56
   0  12  -7   20.99    0.49
   0  12   7   23.68    0.59
   0  12  -7   21.57    0.49
   1 -12   7   15.04    0.42
   1 -12   7   14.88    0.44
   1  12   7   14.59    0.43
   1  12   7   14.64    0.45
  -1  12  -7   14.26    0.37
  -1  12  -7   14.11    0.37
   2 -12   7    0.56    0.10
   2 -12   7    0.51    0.09
  -2  12  -7    0.52    0.09
   2  12   7    0.55    0.11
   2  12   7    0.51    0.10
  -2  12  -7    0.48    0.08
   3  13  -7    6.81    0.25
   3  13  -7    6.62    0.25
  -2 -13   7   14.78    0.43
  -2 -13   7   15.33    0.47
   2  13  -7   14.41    0.38
  -2  13   7   14.77    0.46
  -2  13   7   14.54    0.43
   2  13  -7   14.60    0.39
  -1 -13   7    1.07    0.12
  -1 -13   7    1.29    0.15
   1  13  -7    1.04    0.11
  -1  13   7    1.08    0.14
  -1  13   7    1.33    0.14
   1  13  -7    1.19    0.11
   0 -13   7   25.78    0.65
   0 -13   7   27.32    0.63
   0  13   7   25.76    0.66
   0  13  -7   26.30    0.58
   0  13   7   26.09    0.63
   0  13  -7   26.88    0.58
   1 -13   7    4.90    0.23
   1 -13   7    4.66    0.25
  -1  13  -7    4.93    0.21
   1  13   7    5.03    0.26
   1  13   7    4.74    0.24
  -1  13  -7    4.70    0.21
   2 -13   7   23.18    0.61
   2 -13   7   23.55    0.58
   2  13   7   24.16    0.60
  -2  13  -7   23.72    0.53
   2  13   7   24.15    0.64
  -2  13  -7   23.45    0.53
   3  14  -7    4.96    0.22
   3  14  -7    5.02    0.23
  -2 -14   7    6.65    0.28
  -2 -14   7    6.27    0.30
   2  14  -7    6.23    0.25
  -2  14   7    6.21    0.28
  -2  14   7    6.37    0.30
   2  14  -7    5.97    0.25
  -1 -14   7    1.68    0.17
  -1 -14   7    1.16    0.13
  -1  14   7    1.40    0.15
   1  14  -7    1.50    0.15
  -1  14   7    1.42    0.16
   1  14  -7    1.09    0.11
   1  14  -7    1.52    0.17
   1  14  -7    1.17    0.12
   0 -14   7    0.98    0.12
   0 -14   7    1.03    0.13
   0  14  -7    1.31    0.16
   0  14   7    1.15    0.14
   0  14  -7    1.01    0.13
   0  14  -7    0.87    0.10
   0  14   7    0.89    0.13
   0  14  -7    0.90    0.10
   1 -14   7   26.61    0.64
   1 -14   7   26.77    0.68
  -1  14  -7   25.87    0.58
  -1  14  -7   27.11    0.59
   1  14   7   25.87    0.68
   1  14   7   26.68    0.65
   2 -14   7    0.43    0.09
   2 -14   7    0.31    0.09
  -2  14  -7    0.47    0.09
  -2  14  -7    0.56    0.09
   3  15  -7    5.59    0.25
   3  15  -7    5.88    0.25
   2  15  -7    0.62    0.10
   2  15  -7    0.52    0.10
  -1  15   7    8.12    0.34
   1  15  -7    8.35    0.29
  -1  15   7    7.94    0.36
   1  15  -7    8.31    0.29
   0 -15   7    4.75    0.32
   0 -15   7    4.57    0.34
   0  15  -7    4.52    0.29
   0  15   7    4.19    0.27
   0  15  -7    4.38    0.26
   0  15   7    4.46    0.31
   0  15  -7    4.26    0.21
   0  15  -7    4.19    0.21
  -1  15  -7   12.06    0.36
  -1  15  -7   12.13    0.36
  -2  15  -7    3.88    0.20
  -2  15  -7    3.82    0.20
   2  16  -7    0.33    0.09
   2  16  -7    0.41    0.09
   1  16  -7    5.57    0.24
   1  16  -7    5.62    0.25
   0  16  -7   12.89    0.38
   0  16  -7   12.59    0.38
  -1  16  -7   -0.02    0.06
  -1  16  -7   -0.11    0.05
  -2  16  -7    2.87    0.19
  -2  16  -7    2.82    0.18
   2  17  -7    1.43    0.15
   2  17  -7    1.87    0.17
   1  17  -7    4.87    0.25
   1  17  -7    5.00    0.25
   0  17  -7   -0.16    0.06
   0  17  -7    0.05    0.07
  -1  17  -7    4.35    0.23
  -1  17  -7    4.33    0.22
  -2  17  -7    0.04    0.07
  -2  17  -7    0.14    0.08
   1  18  -7    5.52    0.27
   1  18  -7    5.76    0.27
   0  18  -7    3.65    0.22
   0  18  -7    3.76    0.23
  -1  18  -7    1.55    0.16
  -1  18  -7    2.07    0.18
   0  19  -7    7.12    0.30
   0  19  -7    6.86    0.30
  -2   0   8  117.86    1.92
  -2   0   8  117.64    1.95
   2   0  -8  116.53    1.87
   2   0  -8  115.03    1.87
  -1   0   8   -0.02    0.03
  -1   0   8   -0.01    0.03
   0   0   8    3.98    0.16
   0   0   8    4.05    0.17
   1   0   8    0.02    0.04
   1   0   8   -0.04    0.03
  -2   0  -8   11.62    0.28
   2   0   8   11.65    0.32
   2   0   8   11.87    0.30
  -2   0  -8   11.32    0.27
  -2   1   8    0.39    0.06
   2   1  -8    0.38    0.06
   2   1  -8    0.44    0.06
  -2   1   8    0.40    0.07
  -1  -1   8    5.15    0.19
  -1  -1   8    5.16    0.18
   1   1  -8    5.09    0.16
   1   1  -8    5.10    0.16
  -1   1   8    5.21    0.20
  -1   1   8    5.05    0.18
   0  -1   8    7.12    0.24
   0  -1   8    7.02    0.22
   0   1   8    7.98    0.23
   0   1   8    7.87    0.24
   1  -1   8   39.07    0.76
   1  -1   8   39.69    0.74
  -1   1  -8   39.98    0.71
   1   1   8   40.21    0.75
  -1   1  -8   39.05    0.71
   1   1   8   40.22    0.77
   2  -1   8    7.99    0.25
   2  -1   8    8.06    0.24
   2   1   8    8.18    0.26
   2   1   8    8.08    0.24
  -2   1  -8    7.86    0.22
  -2   1  -8    7.86    0.22
  -2  -2   8    0.48    0.07
  -2  -2   8    0.43    0.07
   2   2  -8    0.51    0.06
   2   2  -8    0.50    0.06
  -2   2   8    0.65    0.08
  -2   2   8    0.60    0.07
  -1  -2   8   18.95    0.42
  -1  -2   8   18.48    0.44
   1   2  -8   19.19    0.39
   1   2  -8   19.22    0.39
  -1   2   8   18.88    0.42
  -1   2   8   18.71    0.44
   0  -2   8    7.07    0.22
   0  -2   8    7.05    0.23
   0   2   8    7.19    0.22
   0   2  -8    6.76    0.19
   0   2   8    7.25    0.23
   0   2  -8    6.67    0.19
   1  -2   8    2.83    0.14
   1  -2   8    2.58    0.14
   1   2   8    2.77    0.14
  -1   2  -8    2.51    0.12
  -1   2  -8    2.61    0.12
   1   2   8    2.65    0.13
   2  -2   8    1.79    0.12
   2  -2   8    1.73    0.12
  -2   2  -8    1.75    0.10
   2   2   8    2.01    0.13
  -2   2  -8    1.66    0.10
   2   2   8    1.96    0.13
  -2  -3   8    3.82    0.17
  -2  -3   8    3.72    0.16
  -2   3   8    3.67    0.17
  -2   3   8    3.77    0.16
   2   3  -8    3.73    0.14
   2   3  -8    4.00    0.15
  -1  -3   8  110.34    1.83
  -1  -3   8  110.29    1.86
   1   3  -8  110.99    1.79
  -1   3   8  109.65    1.85
   1   3  -8  110.65    1.79
  -1   3   8  110.80    1.83
   0  -3   8   16.46    0.38
   0  -3   8   16.61    0.40
   0   3  -8   16.90    0.35
   0   3   8   17.07    0.41
   0   3  -8   16.48    0.35
   0   3   8   16.37    0.38
   1  -3   8    1.00    0.10
   1  -3   8    1.23    0.10
  -1   3  -8    1.09    0.09
   1   3   8    1.63    0.12
  -1   3  -8    1.17    0.08
   2  -3   8   43.17    0.82
   2  -3   8   42.03    0.79
  -2   3  -8   42.28    0.76
   2   3   8   41.74    0.80
   2   3   8   42.19    0.82
  -2   3  -8   42.45    0.75
  -2  -4   8   29.40    0.62
  -2  -4   8   29.62    0.60
   2   4  -8   29.45    0.57
  -2   4   8   30.36    0.63
  -2   4   8   29.61    0.60
   2   4  -8   29.79    0.56
  -1  -4   8    6.90    0.22
  -1  -4   8    7.01    0.24
  -1   4   8    7.17    0.23
  -1   4   8    7.26    0.24
   1   4  -8    6.50    0.20
   1   4  -8    6.76    0.20
   0  -4   8    0.87    0.09
   0  -4   8    0.94    0.09
   0   4  -8    0.92    0.08
   0   4   8    1.18    0.11
   0   4  -8    0.86    0.08
   0   4   8    1.12    0.10
   1  -4   8   10.61    0.31
   1  -4   8   11.12    0.30
  -1   4  -8   10.93    0.27
  -1   4  -8   10.95    0.27
   1   4   8   10.68    0.30
   1   4   8   11.28    0.32
   2  -4   8    4.90    0.20
   2  -4   8    4.57    0.18
  -2   4  -8    4.66    0.16
   2   4   8    4.50    0.18
   2   4   8    4.61    0.20
  -2   4  -8    5.00    0.17
   3   5  -8   19.23    0.52
   3   5  -8   18.17    0.52
  -2  -5   8    4.25    0.20
  -2  -5   8    4.15    0.18
  -2   5   8    3.74    0.18
   2   5  -8    5.02    0.18
   2   5  -8    4.72    0.17
  -2   5   8    3.94    0.19
  -1  -5   8    2.83    0.15
  -1  -5   8    2.84    0.14
   1   5  -8    2.86    0.13
  -1   5   8    3.15    0.15
   1   5  -8    2.91    0.13
  -1   5   8    3.18    0.16
   0  -5   8   31.90    0.67
   0  -5   8   32.70    0.65
   0   5  -8   31.97    0.61
   0   5   8   32.79    0.68
   0   5  -8   32.18    0.61
   0   5   8   33.20    0.65
   1  -5   8   32.48    0.65
   1  -5   8   32.12    0.67
  -1   5  -8   32.28    0.61
  -1   5  -8   32.96    0.61
   1   5   8   32.59    0.68
   1   5   8   32.84    0.66
   2  -5   8   16.30    0.41
   2  -5   8   16.33    0.39
   2   5   8   15.71    0.41
   2   5   8   15.84    0.39
  -2   5  -8   16.30    0.36
  -2   5  -8   15.94    0.36
   3   6  -8    7.73    0.25
   3   6  -8    7.42    0.23
  -2  -6   8   13.23    0.37
  -2  -6   8   13.19    0.35
   2   6  -8   12.78    0.32
  -2   6   8   13.28    0.35
   2   6  -8   12.93    0.31
  -2   6   8   12.92    0.36
  -1  -6   8    0.35    0.06
  -1  -6   8    0.31    0.07
   1   6  -8    0.40    0.06
   1   6  -8    0.33    0.06
   0  -6   8   30.17    0.63
   0  -6   8   29.85    0.65
   0   6   8   31.39    0.66
   0   6   8   32.38    0.64
   0   6  -8   29.99    0.59
   0   6  -8   30.15    0.58
   1  -6   8   22.42    0.50
   1  -6   8   22.05    0.52
  -1   6  -8   22.34    0.46
  -1   6  -8   22.50    0.46
   1   6   8   22.04    0.52
   1   6   8   22.42    0.50
   2  -6   8    0.33    0.07
   2  -6   8    0.17    0.06
  -2   6  -8    0.35    0.06
  -2   6  -8    0.29    0.06
   2   6   8    0.46    0.08
   2   6   8    0.49    0.08
   3   7  -8    4.71    0.18
   3   7  -8    5.00    0.18
  -2  -7   8    0.54    0.08
  -2  -7   8    0.53    0.08
   2   7  -8    0.75    0.08
   2   7  -8    0.49    0.07
  -2   7   8    0.60    0.09
  -2   7   8    0.59    0.08
  -1  -7   8    3.91    0.19
  -1  -7   8    3.90    0.18
  -1   7   8    3.79    0.19
   1   7  -8    4.03    0.16
   1   7  -8    3.84    0.16
  -1   7   8    3.69    0.18
   0  -7   8    0.73    0.09
   0  -7   8    0.52    0.08
   0   7  -8    0.65    0.08
   0   7   8    0.50    0.08
   0   7   8    0.63    0.09
   0   7  -8    0.68    0.08
   1  -7   8   30.51    0.63
   1  -7   8   31.09    0.66
  -1   7  -8   30.06    0.59
  -1   7  -8   30.31    0.59
   1   7   8   30.79    0.66
   1   7   8   30.58    0.64
   2  -7   8    8.73    0.27
   2  -7   8    9.05    0.30
  -2   7  -8    8.82    0.25
  -2   7  -8    8.99    0.25
   2   7   8    8.89    0.29
   2   7   8    9.03    0.31
   3   8  -8    1.68    0.12
   3   8  -8    1.45    0.11
  -2  -8   8   33.10    0.72
  -2  -8   8   32.30    0.68
   2   8  -8   32.81    0.65
  -2   8   8   33.12    0.68
   2   8  -8   33.02    0.64
  -2   8   8   32.94    0.71
  -1  -8   8   11.77    0.34
  -1  -8   8   11.81    0.36
  -1   8   8   12.05    0.36
  -1   8   8   11.65    0.34
   1   8  -8   11.85    0.31
   1   8  -8   11.69    0.31
   0  -8   8    2.54    0.16
   0  -8   8    2.31    0.15
   0   8  -8    2.68    0.14
   0   8  -8    2.46    0.14
   1  -8   8    3.96    0.18
   1  -8   8    4.08    0.20
  -1   8  -8    4.17    0.17
  -1   8  -8    4.15    0.17
   2  -8   8    1.79    0.14
   2  -8   8    1.78    0.13
   2   8   8    1.93    0.14
  -2   8  -8    1.74    0.12
  -2   8  -8    1.66    0.11
   2   8   8    2.11    0.15
   3   9  -8    0.06    0.05
   3   9  -8    0.04    0.05
  -2  -9   8    2.03    0.14
  -2  -9   8    2.01    0.15
   2   9  -8    1.90    0.13
  -2   9   8    2.01    0.15
  -2   9   8    2.08    0.14
   2   9  -8    2.20    0.13
  -1  -9   8    2.02    0.16
  -1  -9   8    1.94    0.15
   1   9  -8    1.81    0.13
  -1   9   8    1.93    0.15
   1   9  -8    2.08    0.13
  -1   9   8    2.00    0.16
   0  -9   8   94.71    1.68
   0  -9   8   94.27    1.65
   0   9   8   94.24    1.65
   0   9   8   94.85    1.69
   0   9  -8   95.41    1.59
   0   9  -8   96.07    1.60
   1  -9   8   11.02    0.35
   1  -9   8   11.35    0.33
  -1   9  -8   10.88    0.30
  -1   9  -8   10.91    0.29
   1   9   8   11.62    0.37
   1   9   8   11.24    0.34
   2  -9   8    4.28    0.21
   2  -9   8    4.11    0.20
   2   9   8    4.44    0.23
  -2   9  -8    4.15    0.17
   2   9   8    4.32    0.21
  -2   9  -8    4.31    0.18
   3  10  -8    6.44    0.23
   3  10  -8    6.27    0.23
  -2 -10   8    0.10    0.06
  -2 -10   8    0.08    0.06
   2  10  -8    0.07    0.05
   2  10  -8    0.04    0.05
  -2  10   8    0.09    0.06
  -2  10   8    0.10    0.06
  -1 -10   8   12.20    0.36
  -1 -10   8   12.32    0.38
   1  10  -8   12.33    0.33
  -1  10   8   12.37    0.39
  -1  10   8   11.81    0.36
   1  10  -8   11.94    0.32
   0 -10   8   27.18    0.61
   0 -10   8   27.58    0.64
   0  10   8   26.94    0.65
   0  10   8   27.36    0.62
   0  10  -8   28.14    0.57
   0  10  -8   27.29    0.57
   1 -10   8    0.22    0.07
   1 -10   8    0.18    0.06
   1  10   8    0.11    0.06
  -1  10  -8    0.17    0.06
  -1  10  -8    0.16    0.06
   1  10   8    0.11    0.06
   2 -10   8    0.01    0.05
   2 -10   8   -0.03    0.05
   2  10   8    0.02    0.05
  -2  10  -8    0.07    0.05
  -2  10  -8    0.04    0.05
   2  10   8    0.03    0.06
   3  11  -8    0.20    0.07
   3  11  -8    0.20    0.07
  -2 -11   8    2.12    0.15
  -2 -11   8    1.99    0.16
   2  11  -8    2.11    0.14
  -2  11   8    1.77    0.15
  -2  11   8    1.76    0.16
   2  11  -8    1.79    0.13
  -1 -11   8    4.03    0.22
  -1 -11   8    3.93    0.20
   1  11  -8    4.04    0.18
  -1  11   8    4.45    0.21
  -1  11   8    4.33    0.23
   1  11  -8    4.00    0.18
   0 -11   8    0.17    0.07
   0 -11   8    0.09    0.06
   0  11  -8    0.18    0.06
   0  11   8    0.17    0.07
   0  11   8    0.17    0.07
   0  11  -8    0.08    0.06
   1 -11   8   39.11    0.82
   1 -11   8   39.68    0.86
  -1  11  -8   40.58    0.78
   1  11   8   40.61    0.85
   1  11   8   40.85    0.88
  -1  11  -8   39.91    0.78
   2 -11   8   21.96    0.53
   2 -11   8   21.12    0.55
  -2  11  -8   21.35    0.48
   2  11   8   21.11    0.57
   2  11   8   21.38    0.55
  -2  11  -8   21.10    0.48
   3  12  -8   11.60    0.34
   3  12  -8   11.40    0.33
  -2 -12   8    0.28    0.08
  -2 -12   8    0.24    0.08
   2  12  -8    0.22    0.07
   2  12  -8    0.20    0.07
  -2  12   8    0.18    0.07
  -2  12   8    0.20    0.08
  -1 -12   8   12.67    0.41
  -1 -12   8   12.36    0.38
  -1  12   8   12.32    0.39
  -1  12   8   12.63    0.42
   1  12  -8   12.29    0.34
   1  12  -8   12.40    0.35
   0 -12   8    3.83    0.21
   0 -12   8    3.52    0.21
   0  12  -8    3.63    0.18
   0  12   8    3.52    0.21
   0  12  -8    3.71    0.18
   0  12   8    3.58    0.22
   1 -12   8    0.97    0.12
   1 -12   8    1.19    0.14
  -1  12  -8    0.93    0.10
  -1  12  -8    0.90    0.10
   2 -12   8    3.01    0.20
   2 -12   8    2.82    0.18
  -2  12  -8    2.70    0.16
  -2  12  -8    2.80    0.17
   2  12   8    2.78    0.20
   2  12   8    2.84    0.21
   3  13  -8    1.69    0.15
   3  13  -8    1.87    0.15
  -2 -13   8    0.52    0.10
  -2 -13   8    0.49    0.11
  -2  13   8    0.41    0.10
  -2  13   8    0.33    0.09
   2  13  -8    0.36    0.09
   2  13  -8    0.37    0.09
  -1 -13   8   22.91    0.61
  -1 -13   8   22.66    0.58
  -1  13   8   23.59    0.63
   1  13  -8   22.56    0.53
   1  13  -8   23.56    0.54
  -1  13   8   22.15    0.58
   0 -13   8    0.57    0.11
   0 -13   8    0.53    0.10
   0  13   8    0.53    0.11
   0  13   8    0.51    0.10
   0  13  -8    0.48    0.09
   0  13  -8    0.55    0.09
   1 -13   8    1.17    0.14
   1 -13   8    1.13    0.13
  -1  13  -8    1.01    0.11
   1  13   8    1.32    0.16
   1  13   8    1.17    0.14
  -1  13  -8    0.96    0.11
   2 -13   8    6.09    0.29
   2 -13   8    5.96    0.27
  -2  13  -8    6.37    0.24
   2  13   8    5.92    0.31
   2  13   8    5.96    0.29
  -2  13  -8    6.19    0.24
   3  14  -8    0.80    0.11
   3  14  -8    0.87    0.11
  -2  14   8   24.12    0.64
   2  14  -8   25.29    0.58
  -2  14   8   24.95    0.68
   2  14  -8   26.09    0.58
  -1 -14   8    2.80    0.22
  -1 -14   8    2.84    0.20
   1  14  -8    2.93    0.18
  -1  14   8    2.84    0.21
  -1  14   8    2.84    0.20
   1  14  -8    2.95    0.18
   0 -14   8    1.12    0.14
   0 -14   8    1.21    0.14
   0  14   8    1.43    0.15
   0  14  -8    1.73    0.15
   0  14  -8    1.70    0.14
   0  14   8    1.51    0.17
   1 -14   8    2.42    0.20
   1 -14   8    2.42    0.18
  -1  14  -8    2.66    0.18
  -1  14  -8    2.34    0.17
  -2  14  -8   19.99    0.49
  -2  14  -8   20.09    0.49
   3  15  -8    5.98    0.26
   3  15  -8    5.79    0.26
   2  15  -8    0.88    0.12
   2  15  -8    0.98    0.12
   1  15  -8    0.10    0.07
   1  15  -8    0.19    0.08
   0  15  -8    5.95    0.25
   0  15  -8    5.43    0.24
  -1  15  -8    1.36    0.14
  -1  15  -8    1.52    0.15
  -2  15  -8    1.37    0.14
  -2  15  -8    0.97    0.12
   2  16  -8    0.76    0.11
   2  16  -8    0.93    0.13
   1  16  -8    6.72    0.28
   1  16  -8    6.20    0.27
   0  16  -8    4.12    0.22
   0  16  -8    3.88    0.22
  -1  16  -8    0.13    0.08
  -1  16  -8   -0.02    0.06
  -2  16  -8    0.34    0.09
  -2  16  -8    0.35    0.09
   2  17  -8    0.16    0.08
   2  17  -8    0.20    0.08
   1  17  -8    4.66    0.24
   1  17  -8    4.31    0.24
   0  17  -8    0.04    0.07
   0  17  -8   -0.03    0.07
  -1  17  -8    0.03    0.08
  -1  17  -8   -0.03    0.06
   1  18  -8    3.54    0.23
   1  18  -8    3.83    0.24
   0  18  -8    0.10    0.08
   0  18  -8    0.05    0.07
  -2   0   9   -0.01    0.04
  -2   0   9   -0.04    0.05
   2   0  -9    0.02    0.05
   2   0  -9    0.02    0.04
  -1   0   9   38.20    0.74
  -1   0   9   38.07    0.76
   0   0   9    0.00    0.04
   0   0   9    0.00    0.04
   1   0   9   88.34    1.52
   1   0   9   89.53    1.55
   2   0   9   -0.01    0.04
  -2   0  -9    0.00    0.04
  -2   0  -9   -0.04    0.04
   2   0   9    0.00    0.05
  -2  -1   9   26.52    0.57
  -2  -1   9   25.40    0.54
  -2   1   9   26.19    0.55
   2   1  -9   25.15    0.51
   2   1  -9   26.25    0.51
  -2   1   9   26.26    0.57
  -1  -1   9    2.53    0.14
  -1  -1   9    2.55    0.15
   1   1  -9    2.51    0.12
  -1   1   9    2.54    0.14
  -1   1   9    2.36    0.15
   1   1  -9    2.59    0.12
   0  -1   9   34.73    0.71
   0  -1   9   35.26    0.69
   0   1  -9   35.09    0.65
   0   1   9   35.37    0.69
   0   1  -9   35.46    0.65
   0   1   9   35.50    0.72
   1  -1   9   15.98    0.41
   1  -1   9   15.91    0.39
  -1   1  -9   15.94    0.36
  -1   1  -9   16.11    0.36
   1   1   9   17.31    0.40
   1   1   9   17.16    0.42
   2  -1   9    1.11    0.12
   2  -1   9    0.95    0.10
  -2   1  -9    1.14    0.10
   2   1   9    0.99    0.10
  -2   1  -9    1.11    0.10
   2   1   9    1.01    0.11
  -2  -2   9   23.99    0.54
  -2  -2   9   23.82    0.52
  -2   2   9   23.11    0.53
  -2   2   9   23.37    0.51
   2   2  -9   23.71    0.48
   2   2  -9   24.23    0.48
  -1  -2   9   38.94    0.78
  -1  -2   9   38.69    0.75
   1   2  -9   39.06    0.71
  -1   2   9   39.16    0.75
   1   2  -9   39.19    0.71
  -1   2   9   39.16    0.78
   0  -2   9  126.84    2.12
   0  -2   9  127.32    2.09
   0   2  -9  125.46    2.04
   0   2   9  126.41    2.09
   0   2   9  125.74    2.12
   0   2  -9  127.48    2.04
   1  -2   9   19.13    0.47
   1  -2   9   19.29    0.44
  -1   2  -9   18.87    0.41
  -1   2  -9   19.14    0.41
   2  -2   9   12.33    0.35
   2  -2   9   12.40    0.33
   2   2   9   11.85    0.35
  -2   2  -9   12.05    0.30
  -2   2  -9   12.17    0.29
   2   2   9   11.99    0.33
   3   3  -9    5.15    0.25
   3   3  -9    4.60    0.25
  -2  -3   9    1.19    0.11
  -2  -3   9    1.11    0.12
  -2   3   9    0.97    0.11
   2   3  -9    0.96    0.09
   2   3  -9    1.01    0.09
  -2   3   9    1.13    0.12
  -1  -3   9   27.32    0.57
  -1  -3   9   27.37    0.60
  -1   3   9   26.67    0.57
   1   3  -9   27.14    0.53
  -1   3   9   27.55    0.60
   1   3  -9   27.17    0.53
   0  -3   9    0.12    0.06
   0  -3   9    0.09    0.05
   0   3   9    0.17    0.05
   0   3   9    0.24    0.07
   0   3  -9    0.15    0.05
   0   3  -9    0.15    0.05
   1  -3   9    0.35    0.07
   1  -3   9    0.54    0.08
   1   3   9    0.39    0.08
   1   3   9    0.35    0.07
  -1   3  -9    0.52    0.07
   2  -3   9    0.68    0.08
   2  -3   9    0.68    0.09
  -2   3  -9    0.64    0.07
  -2   3  -9    0.67    0.08
   2   3   9    0.79    0.09
   2   3   9    0.59    0.09
   3   4  -9    1.75    0.12
   3   4  -9    1.74    0.13
  -2  -4   9   61.16    1.11
  -2  -4   9   61.51    1.14
   2   4  -9   61.21    1.06
  -2   4   9   61.85    1.11
  -2   4   9   61.44    1.14
   2   4  -9   60.57    1.06
  -1  -4   9   70.87    1.27
  -1  -4   9   69.75    1.24
   1   4  -9   69.66    1.19
  -1   4   9   71.71    1.24
  -1   4   9   70.20    1.27
   1   4  -9   68.43    1.19
   0  -4   9    5.36    0.20
   0  -4   9    5.16    0.21
   0   4  -9    4.93    0.17
   0   4   9    5.25    0.20
   0   4   9    5.26    0.22
   0   4  -9    4.97    0.18
   1  -4   9    0.10    0.05
   1  -4   9    0.11    0.05
  -1   4  -9    0.25    0.05
   1   4   9    0.02    0.04
  -1   4  -9    0.21    0.05
   1   4   9    0.06    0.05
   2  -4   9    9.30    0.28
   2  -4   9    9.09    0.30
   2   4   9    8.85    0.28
  -2   4  -9    9.27    0.25
   2   4   9    9.20    0.30
  -2   4  -9    9.06    0.25
   3   5  -9    0.05    0.05
   3   5  -9    0.07    0.05
  -2  -5   9    6.04    0.22
  -2  -5   9    6.01    0.24
  -2   5   9    5.80    0.22
  -2   5   9    5.83    0.24
   2   5  -9    5.83    0.20
   2   5  -9    5.81    0.20
  -1  -5   9    1.56    0.13
  -1  -5   9    1.51    0.12
   1   5  -9    1.51    0.11
  -1   5   9    1.37    0.13
  -1   5   9    1.32    0.12
   1   5  -9    1.48    0.11
   0  -5   9    0.10    0.05
   0  -5   9    0.10    0.05
   0   5   9    0.14    0.06
   0   5  -9    0.07    0.04
   0   5  -9    0.14    0.05
   1  -5   9    1.77    0.13
   1  -5   9    1.62    0.12
   1   5   9    1.45    0.12
   1   5   9    1.62    0.13
  -1   5  -9    1.64    0.11
  -1   5  -9    1.59    0.11
   2  -5   9    0.37    0.07
   2  -5   9    0.55    0.08
   2   5   9    0.52    0.09
  -2   5  -9    0.36    0.06
   2   5   9    0.48    0.08
  -2   5  -9    0.49    0.07
   3   6  -9   15.06    0.36
   3   6  -9   15.07    0.36
  -2  -6   9    4.90    0.22
  -2  -6   9    4.94    0.21
  -2   6   9    5.21    0.21
  -2   6   9    5.06    0.22
   2   6  -9    4.85    0.19
   2   6  -9    5.00    0.19
  -1  -6   9   22.39    0.54
  -1  -6   9   22.55    0.52
   1   6  -9   22.87    0.48
  -1   6   9   22.88    0.54
   1   6  -9   22.36    0.47
  -1   6   9   22.31    0.52
   0  -6   9   20.32    0.50
   0  -6   9   19.84    0.47
   0   6   9   20.11    0.48
   0   6  -9   20.38    0.44
   0   6   9   20.07    0.50
   0   6  -9   20.32    0.44
   1  -6   9   27.70    0.62
   1  -6   9   27.75    0.60
   1   6   9   27.67    0.63
   1   6   9   27.47    0.60
  -1   6  -9   28.53    0.56
  -1   6  -9   28.50    0.56
   2  -6   9    0.83    0.10
   2  -6   9    0.86    0.10
   2   6   9    0.95    0.11
  -2   6  -9    0.85    0.09
   2   6   9    0.92    0.11
  -2   6  -9    0.92    0.09
   3   7  -9    8.41    0.25
   3   7  -9    8.51    0.26
  -2  -7   9   15.47    0.43
  -2  -7   9   14.60    0.40
  -2   7   9   14.91    0.42
   2   7  -9   15.50    0.37
   2   7  -9   15.39    0.37
  -2   7   9   14.98    0.40
  -1  -7   9   18.76    0.49
  -1  -7   9   19.00    0.46
  -1   7   9   18.76    0.49
   1   7  -9   18.49    0.42
  -1   7   9   18.73    0.46
   1   7  -9   18.56    0.42
   0  -7   9    1.93    0.15
   0  -7   9    2.01    0.14
   0   7   9    1.88    0.14
   0   7   9    2.10    0.16
   0   7  -9    1.97    0.12
   0   7  -9    1.84    0.12
   1  -7   9    0.17    0.06
   1  -7   9    0.08    0.05
   1   7   9    0.33    0.08
  -1   7  -9    0.13    0.05
   1   7   9    0.24    0.07
  -1   7  -9    0.18    0.05
   2  -7   9    2.88    0.18
   2  -7   9    3.16    0.17
   2   7   9    3.20    0.18
   2   7   9    3.28    0.19
  -2   7  -9    2.89    0.15
  -2   7  -9    2.89    0.15
   3   8  -9   14.09    0.35
   3   8  -9   13.57    0.35
  -2  -8   9    0.84    0.11
  -2  -8   9    0.85    0.10
   2   8  -9    0.69    0.08
  -2   8   9    0.88    0.11
  -2   8   9    0.82    0.10
   2   8  -9    0.71    0.08
  -1  -8   9   45.55    0.92
  -1  -8   9   44.96    0.89
  -1   8   9   43.95    0.91
  -1   8   9   43.46    0.88
   1   8  -9   44.84    0.84
   1   8  -9   45.47    0.84
   0  -8   9   21.29    0.51
   0  -8   9   21.16    0.53
   0   8   9   20.82    0.50
   0   8  -9   21.07    0.46
   0   8   9   20.07    0.52
   0   8  -9   21.27    0.47
   1  -8   9    1.65    0.14
   1  -8   9    1.55    0.13
  -1   8  -9    1.70    0.12
  -1   8  -9    1.53    0.12
   1   8   9    1.95    0.17
   1   8   9    2.14    0.16
   2  -8   9    3.37    0.19
   2  -8   9    3.19    0.17
  -2   8  -9    3.31    0.16
  -2   8  -9    3.17    0.15
   3   9  -9   16.72    0.41
   3   9  -9   16.85    0.41
  -2  -9   9    0.26    0.08
  -2  -9   9    0.26    0.07
   2   9  -9    0.27    0.07
   2   9  -9    0.21    0.06
  -2   9   9    0.28    0.07
  -2   9   9    0.11    0.06
  -1  -9   9    1.40    0.14
  -1  -9   9    1.37    0.13
  -1   9   9    1.36    0.13
   1   9  -9    0.99    0.10
   1   9  -9    1.00    0.10
  -1   9   9    1.25    0.14
   0  -9   9    3.42    0.20
   0  -9   9    3.56    0.19
   0   9  -9    3.32    0.17
   0   9   9    3.35    0.21
   0   9   9    3.18    0.19
   0   9  -9    3.56    0.17
   1  -9   9    4.32    0.22
   1  -9   9    4.51    0.21
  -1   9  -9    4.43    0.19
   1   9   9    4.57    0.24
   1   9   9    4.37    0.22
  -1   9  -9    4.48    0.19
   2  -9   9    2.31    0.17
   2  -9   9    2.56    0.17
  -2   9  -9    2.62    0.15
   2   9   9    2.43    0.18
  -2   9  -9    2.39    0.14
   2   9   9    2.72    0.17
   3  10  -9    0.17    0.07
   3  10  -9    0.20    0.07
  -2 -10   9   13.72    0.43
  -2 -10   9   13.71    0.40
  -2  10   9   13.35    0.39
  -2  10   9   13.49    0.42
   2  10  -9   13.29    0.36
   2  10  -9   13.34    0.36
  -1 -10   9    0.05    0.05
  -1 -10   9    0.11    0.06
   1  10  -9    0.02    0.05
  -1  10   9    0.09    0.06
  -1  10   9    0.06    0.06
   1  10  -9   -0.05    0.04
   0 -10   9   63.01    1.22
   0 -10   9   62.81    1.19
   0  10   9   62.36    1.19
   0  10  -9   63.26    1.13
   0  10  -9   61.50    1.12
   0  10   9   63.47    1.23
   1 -10   9    4.44    0.22
   1 -10   9    4.69    0.24
  -1  10  -9    4.62    0.20
  -1  10  -9    4.83    0.20
   1  10   9    4.49    0.24
   1  10   9    4.40    0.22
   2 -10   9    7.64    0.30
   2 -10   9    7.34    0.28
  -2  10  -9    7.43    0.25
   2  10   9    6.91    0.28
  -2  10  -9    6.99    0.25
   2  10   9    7.21    0.31
   3  11  -9    1.63    0.14
   3  11  -9    1.64    0.14
  -2 -11   9    0.35    0.09
  -2 -11   9    0.48    0.09
   2  11  -9    0.47    0.08
   2  11  -9    0.46    0.09
  -2  11   9    0.45    0.10
  -2  11   9    0.39    0.09
  -1 -11   9   21.88    0.58
  -1 -11   9   21.67    0.55
  -1  11   9   22.43    0.59
  -1  11   9   21.60    0.55
   1  11  -9   22.47    0.51
   1  11  -9   21.22    0.50
   0 -11   9   14.38    0.42
   0 -11   9   14.22    0.44
   0  11  -9   14.21    0.38
   0  11  -9   14.32    0.38
   0  11   9   13.87    0.42
   0  11   9   13.37    0.44
   1 -11   9    0.65    0.11
   1 -11   9    0.53    0.11
  -1  11  -9    0.62    0.10
  -1  11  -9    0.53    0.09
   1  11   9    0.65    0.11
   1  11   9    0.52    0.10
   2 -11   9    0.09    0.06
   2 -11   9    0.10    0.07
  -2  11  -9    0.03    0.06
   2  11   9   -0.02    0.07
   2  11   9    0.01    0.07
  -2  11  -9    0.18    0.06
   3  12  -9    0.26    0.07
   3  12  -9    0.30    0.08
  -2 -12   9    8.85    0.33
  -2 -12   9    8.54    0.35
   2  12  -9    8.34    0.29
  -2  12   9    8.34    0.34
  -2  12   9    8.33    0.32
   2  12  -9    9.11    0.30
  -1 -12   9   16.25    0.46
  -1 -12   9   16.43    0.49
  -1  12   9   15.80    0.46
   1  12  -9   16.29    0.42
  -1  12   9   15.86    0.49
   1  12  -9   16.18    0.42
   0 -12   9    1.46    0.14
   0 -12   9    1.48    0.16
   0  12  -9    1.30    0.12
   0  12  -9    1.24    0.12
   0  12   9    1.31    0.16
   0  12   9    1.39    0.15
   1 -12   9   54.00    1.11
   1 -12   9   53.79    1.07
  -1  12  -9   53.45    1.00
  -1  12  -9   53.24    1.01
   1  12   9   52.55    1.07
   1  12   9   52.72    1.12
   2 -12   9   17.97    0.52
   2 -12   9   17.76    0.49
  -2  12  -9   18.02    0.44
   2  12   9   16.71    0.51
  -2  12  -9   17.88    0.45
   2  12   9   17.01    0.54
   3  13  -9    1.51    0.14
   3  13  -9    1.53    0.14
   2  13  -9    9.66    0.32
  -2  13   9    9.62    0.36
  -2  13   9   10.12    0.39
   2  13  -9    9.62    0.32
  -1 -13   9    0.47    0.10
  -1 -13   9    0.60    0.11
  -1  13   9    0.57    0.12
   1  13  -9    0.45    0.09
  -1  13   9    0.53    0.10
   1  13  -9    0.51    0.09
   0 -13   9    1.64    0.15
   0 -13   9    1.67    0.17
   0  13  -9    1.84    0.15
   0  13  -9    1.78    0.15
   0  13   9    1.29    0.15
   0  13   9    1.68    0.18
   1 -13   9    6.05    0.28
   1 -13   9    6.01    0.30
   1  13   9    4.96    0.35
  -1  13  -9    5.83    0.24
  -1  13  -9    5.91    0.24
   1  13   9    5.51    0.39
  -2  13  -9    0.21    0.08
  -2  13  -9    0.18    0.07
   3  14  -9    2.43    0.17
   3  14  -9    2.24    0.18
   2  14  -9   12.62    0.38
   2  14  -9   12.03    0.37
   1  14  -9   11.14    0.35
   1  14  -9   11.47    0.36
   0  14  -9    2.31    0.16
   0  14  -9    2.12    0.17
  -1  14  -9    9.02    0.31
  -1  14  -9    9.21    0.32
  -2  14  -9    4.46    0.22
  -2  14  -9    4.55    0.22
   2  15  -9    2.42    0.18
   2  15  -9    2.38    0.18
   1  15  -9    1.22    0.14
   1  15  -9    1.28    0.14
   0  15  -9    0.74    0.11
   0  15  -9    0.72    0.11
  -1  15  -9    0.41    0.09
  -1  15  -9    0.76    0.12
  -2  15  -9    5.79    0.25
  -2  15  -9    6.23    0.26
   2  16  -9    4.63    0.24
   2  16  -9    4.40    0.24
   1  16  -9    2.48    0.18
   1  16  -9    2.08    0.18
   0  16  -9   12.66    0.40
   0  16  -9   11.95    0.38
  -1  16  -9    0.51    0.10
  -1  16  -9    0.34    0.10
   1  17  -9   -0.09    0.07
   1  17  -9   -0.02    0.07
   0  17  -9    0.89    0.12
   0  17  -9    1.20    0.14
  -1  17  -9    0.01    0.07
  -1  17  -9    0.02    0.07
   3   0 -10    0.07    0.07
  -2   0  10    9.79    0.29
   2   0 -10    9.10    0.26
   2   0 -10    9.20    0.26
  -2   0  10    9.48    0.31
  -1   0  10   -0.07    0.04
  -1   0  10   -0.05    0.05
   0   0  10   38.18    0.79
   0   0  10   38.80    0.76
   1   0  10    0.01    0.04
   1   0  10    0.04    0.04
  -2   0 -10   67.89    1.18
   2   0  10   70.25    1.24
   2   0  10   68.67    1.27
  -2   0 -10   69.22    1.19
   3   1 -10   26.18    0.57
   3   1 -10   27.00    0.60
  -2  -1  10    0.23    0.07
  -2  -1  10    0.26    0.07
   2   1 -10    0.22    0.06
   2   1 -10    0.14    0.06
  -2   1  10    0.03    0.05
  -1  -1  10   52.57    0.98
  -1  -1  10   51.94    1.00
   1   1 -10   52.07    0.93
  -1   1  10   52.91    1.01
  -1   1  10   53.23    0.98
   1   1 -10   52.37    0.93
   0  -1  10   39.20    0.77
   0  -1  10   39.54    0.80
   0   1  10   39.85    0.81
   0   1 -10   39.12    0.73
   0   1  10   39.44    0.78
   0   1 -10   39.19    0.73
   1  -1  10    3.76    0.19
   1  -1  10    3.77    0.18
   1   1  10    3.95    0.20
  -1   1 -10    3.88    0.16
   1   1  10    3.90    0.18
  -1   1 -10    3.71    0.16
   2  -1  10    0.10    0.06
   2  -1  10    0.17    0.07
   2   1  10    0.14    0.06
   2   1  10    0.10    0.06
  -2   1 -10    0.25    0.06
  -2   1 -10    0.08    0.06
   3   2 -10    4.99    0.21
   3   2 -10    5.32    0.20
  -2  -2  10    4.26    0.20
  -2  -2  10    4.13    0.19
   2   2 -10    4.31    0.17
   2   2 -10    4.18    0.17
  -2   2  10    4.19    0.20
  -2   2  10    4.20    0.19
  -1  -2  10    0.17    0.06
  -1  -2  10    0.19    0.06
   1   2 -10    0.14    0.05
  -1   2  10    0.23    0.06
   1   2 -10    0.15    0.05
  -1   2  10    0.20    0.07
   0  -2  10   64.90    1.21
   0  -2  10   64.94    1.18
   0   2 -10   66.58    1.13
   0   2 -10   65.66    1.13
   0   2  10   65.80    1.21
   0   2  10   65.42    1.18
   1  -2  10    2.84    0.17
   1  -2  10    2.88    0.16
   1   2  10    2.87    0.16
  -1   2 -10    2.72    0.14
  -1   2 -10    2.92    0.14
   1   2  10    2.85    0.17
   2  -2  10    3.92    0.21
   2  -2  10    4.41    0.20
  -2   2 -10    4.47    0.18
  -2   2 -10    4.32    0.18
   2   2  10    5.34    0.23
   2   2  10    5.49    0.22
   3   3 -10    0.39    0.07
   3   3 -10    0.44    0.07
  -2  -3  10   92.51    1.59
  -2  -3  10   92.59    1.62
   2   3 -10   90.36    1.53
   2   3 -10   90.79    1.53
  -2   3  10   91.77    1.59
  -2   3  10   92.29    1.62
  -1  -3  10   51.44    0.96
  -1  -3  10   50.49    0.99
  -1   3  10   51.50    0.99
   1   3 -10   51.84    0.92
  -1   3  10   51.48    0.97
   1   3 -10   51.09    0.92
   0  -3  10    1.46    0.13
   0  -3  10    1.41    0.12
   0   3 -10    1.67    0.12
   0   3  10    1.34    0.14
   0   3 -10    1.54    0.11
   0   3  10    1.47    0.13
   1  -3  10    5.44    0.22
   1  -3  10    5.55    0.23
   1   3  10    5.53    0.24
  -1   3 -10    5.86    0.20
   1   3  10    5.79    0.23
  -1   3 -10    5.40    0.20
   2  -3  10    0.02    0.05
   2  -3  10    0.07    0.06
   2   3  10    0.03    0.06
   2   3  10    0.05    0.05
  -2   3 -10   -0.01    0.05
  -2   3 -10   -0.04    0.05
   3   4 -10    2.18    0.13
   3   4 -10    2.03    0.13
  -2  -4  10    9.52    0.30
  -2  -4  10    9.30    0.31
  -2   4  10    9.37    0.31
  -2   4  10    9.13    0.29
   2   4 -10    9.36    0.27
   2   4 -10    9.23    0.27
  -1  -4  10   15.22    0.39
  -1  -4  10   15.06    0.42
   1   4 -10   14.66    0.35
  -1   4  10   14.96    0.39
   1   4 -10   14.41    0.35
  -1   4  10   14.96    0.42
   0  -4  10    0.36    0.07
   0  -4  10    0.48    0.09
   0   4  10    0.35    0.08
   0   4 -10    0.24    0.06
   0   4 -10    0.24    0.06
   0   4  10    0.37    0.07
   1  -4  10    7.49    0.28
   1  -4  10    7.58    0.26
  -1   4 -10    7.85    0.24
   1   4  10    7.58    0.28
   1   4  10    7.71    0.27
  -1   4 -10    7.75    0.23
   2  -4  10   -0.04    0.05
   2  -4  10   -0.02    0.05
   2   4  10    0.07    0.05
   2   4  10    0.07    0.05
  -2   4 -10   -0.03    0.05
  -2   4 -10   -0.05    0.05
   3   5 -10   10.87    0.29
   3   5 -10   10.62    0.30
  -2  -5  10    4.50    0.20
  -2  -5  10    4.45    0.22
   2   5 -10    4.57    0.19
  -2   5  10    4.71    0.21
  -2   5  10    4.38    0.22
   2   5 -10    4.70    0.18
  -1  -5  10    0.08    0.06
  -1  -5  10    0.11    0.06
  -1   5  10    0.18    0.07
   1   5 -10    0.00    0.05
   1   5 -10   -0.02    0.05
  -1   5  10    0.06    0.05
   0  -5  10    9.58    0.30
   0  -5  10    9.71    0.32
   0   5  10    9.47    0.32
   0   5 -10    9.42    0.27
   0   5  10    9.86    0.31
   0   5 -10    9.61    0.27
   1  -5  10   31.82    0.70
   1  -5  10   31.67    0.67
   1   5  10   31.39    0.67
  -1   5 -10   31.87    0.63
  -1   5 -10   32.36    0.63
   1   5  10   31.55    0.70
   2  -5  10    0.90    0.11
   2  -5  10    0.97    0.12
   2   5  10    0.83    0.11
  -2   5 -10    0.89    0.09
   2   5  10    0.91    0.11
  -2   5 -10    1.01    0.10
   3   6 -10   14.14    0.36
   3   6 -10   14.63    0.36
  -2  -6  10   33.57    0.75
  -2  -6  10   33.08    0.71
  -2   6  10   36.56    0.76
   2   6 -10   32.64    0.67
  -2   6  10   36.91    0.73
   2   6 -10   33.19    0.67
  -1  -6  10   16.24    0.45
  -1  -6  10   16.29    0.43
  -1   6  10   16.21    0.43
   1   6 -10   16.57    0.39
  -1   6  10   16.81    0.46
   1   6 -10   16.43    0.39
   0  -6  10    0.04    0.05
   0  -6  10    0.03    0.05
   0   6  10   -0.03    0.05
   0   6 -10    0.10    0.05
   0   6  10    0.02    0.05
   0   6 -10    0.06    0.05
   1  -6  10    8.30    0.30
   1  -6  10    8.56    0.29
   1   6  10    8.50    0.31
   1   6  10    8.34    0.29
  -1   6 -10    8.78    0.26
  -1   6 -10    8.79    0.26
   2  -6  10   18.51    0.49
   2  -6  10   18.75    0.47
   2   6  10   18.83    0.47
   2   6  10   18.79    0.50
  -2   6 -10   18.72    0.43
  -2   6 -10   17.85    0.42
   3   7 -10    0.34    0.07
   3   7 -10    0.26    0.07
  -2  -7  10    0.06    0.05
  -2  -7  10    0.21    0.07
   2   7 -10    0.12    0.06
   2   7 -10    0.30    0.07
  -1  -7  10   23.54    0.58
  -1  -7  10   22.63    0.54
   1   7 -10   23.02    0.50
  -1   7  10   23.16    0.55
   1   7 -10   22.64    0.50
  -1   7  10   23.25    0.58
   0  -7  10    0.19    0.06
   0  -7  10    0.24    0.08
   0   7  10    0.13    0.07
   0   7 -10    0.28    0.07
   0   7  10    0.02    0.06
   0   7 -10    0.25    0.07
   1  -7  10    0.49    0.09
   1  -7  10    0.36    0.08
  -1   7 -10    0.50    0.08
  -1   7 -10    0.46    0.07
   1   7  10    0.35    0.09
   1   7  10    0.46    0.08
   2  -7  10    3.54    0.20
   2  -7  10    3.86    0.20
   2   7  10    3.67    0.22
  -2   7 -10    3.73    0.17
  -2   7 -10    3.71    0.18
   2   7  10    3.95    0.21
   3   8 -10   11.94    0.34
   3   8 -10   12.43    0.34
  -2  -8  10    0.66    0.11
  -2  -8  10    0.86    0.11
  -2   8  10    0.77    0.11
   2   8 -10    0.72    0.09
   2   8 -10    0.76    0.09
  -2   8  10    0.68    0.10
  -1  -8  10    0.08    0.05
  -1  -8  10    0.02    0.05
   1   8 -10    0.08    0.06
  -1   8  10   -0.01    0.05
   1   8 -10    0.04    0.05
  -1   8  10    0.00    0.05
   0  -8  10    0.88    0.11
   0  -8  10    0.82    0.10
   0   8 -10    1.07    0.10
   0   8 -10    0.92    0.10
   0   8  10    1.15    0.14
   0   8  10    0.88    0.11
   1  -8  10    1.60    0.14
   1  -8  10    1.59    0.15
   1   8  10    1.47    0.16
  -1   8 -10    1.59    0.12
   1   8  10    1.34    0.14
  -1   8 -10    1.72    0.13
   2  -8  10   13.58    0.39
   2  -8  10   13.47    0.42
  -2   8 -10   13.64    0.36
  -2   8 -10   13.78    0.36
   2   8  10   13.65    0.41
   2   8  10   13.99    0.44
   3   9 -10    0.11    0.06
   3   9 -10    0.18    0.07
  -2  -9  10    0.49    0.09
  -2  -9  10    0.55    0.10
  -2   9  10    0.53    0.10
  -2   9  10    0.68    0.10
   2   9 -10    0.51    0.08
   2   9 -10    0.47    0.08
  -1  -9  10    1.93    0.16
  -1  -9  10    1.73    0.14
   1   9 -10    1.74    0.13
  -1   9  10    1.74    0.16
   1   9 -10    1.71    0.13
  -1   9  10    2.03    0.15
   0  -9  10    0.14    0.07
   0  -9  10    0.18    0.07
   0   9  10    0.05    0.06
   0   9 -10    0.02    0.06
   0   9 -10    0.03    0.06
   0   9  10    0.06    0.07
   1  -9  10   18.24    0.48
   1  -9  10   18.05    0.51
   1   9  10   17.66    0.51
  -1   9 -10   17.76    0.43
  -1   9 -10   17.98    0.44
   1   9  10   18.13    0.49
   2  -9  10    6.46    0.28
   2  -9  10    6.98    0.27
  -2   9 -10    6.96    0.24
   2   9  10    6.41    0.27
   2   9  10    6.16    0.29
  -2   9 -10    6.72    0.24
   3  10 -10    3.12    0.18
   3  10 -10    3.18    0.18
  -2 -10  10    0.46    0.10
  -2 -10  10    0.52    0.10
  -2  10  10    0.44    0.09
   2  10 -10    0.46    0.09
   2  10 -10    0.52    0.09
  -2  10  10    0.53    0.11
  -1 -10  10    0.13    0.07
  -1 -10  10    0.10    0.06
   1  10 -10    0.04    0.06
  -1  10  10    0.02    0.06
   1  10 -10    0.06    0.05
  -1  10  10    0.01    0.06
   0 -10  10    2.19    0.16
   0 -10  10    1.99    0.17
   0  10  10    1.94    0.18
   0  10 -10    1.99    0.14
   0  10 -10    2.03    0.15
   0  10  10    1.88    0.16
   1 -10  10   23.22    0.60
   1 -10  10   22.84    0.57
   1  10  10   22.52    0.58
   1  10  10   23.14    0.61
  -1  10 -10   22.90    0.52
  -1  10 -10   23.23    0.53
   2 -10  10   -0.02    0.06
   2 -10  10    0.03    0.06
   2  10  10   -0.09    0.06
  -2  10 -10   -0.02    0.05
  -2  10 -10    0.01    0.05
   2  10  10   -0.07    0.06
   3  11 -10    2.18    0.16
   3  11 -10    2.07    0.15
  -2 -11  10    9.91    0.36
  -2 -11  10   10.02    0.38
  -2  11  10   10.22    0.38
   2  11 -10    9.84    0.32
   2  11 -10    9.98    0.32
  -2  11  10    9.81    0.35
  -1 -11  10    0.21    0.08
  -1 -11  10    0.19    0.07
  -1  11  10    0.26    0.09
   1  11 -10    0.29    0.08
  -1  11  10    0.27    0.08
   1  11 -10    0.23    0.07
   0 -11  10   13.64    0.45
   0 -11  10   13.95    0.42
   0  11  10   13.98    0.45
   0  11 -10   14.11    0.38
   0  11 -10   14.00    0.38
   0  11  10   13.32    0.42
   1 -11  10    0.09    0.08
   1 -11  10    0.16    0.07
   1  11  10    0.07    0.07
  -1  11 -10    0.09    0.07
   1  11  10    0.02    0.08
  -1  11 -10    0.04    0.07
   2 -11  10    0.04    0.07
   2 -11  10   -0.01    0.06
   2  11  10    0.09    0.11
  -2  11 -10    0.01    0.06
   2  11  10    0.10    0.11
  -2  11 -10    0.03    0.06
   3  12 -10    0.05    0.06
   3  12 -10    0.04    0.06
   2  12 -10    0.94    0.12
   2  12 -10    0.99    0.12
  -1 -12  10    2.17    0.19
  -1 -12  10    2.20    0.18
   1  12 -10    2.02    0.16
   1  12 -10    2.16    0.17
  -1  12  10    2.29    0.19
  -1  12  10    2.22    0.20
   0 -12  10   13.76    0.45
   0 -12  10   13.45    0.42
   0  12  10   13.40    0.43
   0  12  10   12.96    0.45
   0  12 -10   13.22    0.38
   0  12 -10   13.12    0.37
   1 -12  10    0.03    0.07
   1 -12  10    0.06    0.06
  -1  12 -10    0.00    0.06
  -1  12 -10   -0.01    0.06
  -2  12 -10   11.05    0.34
  -2  12 -10   10.90    0.34
   3  13 -10    5.96    0.26
   3  13 -10    6.09    0.25
   2  13 -10    0.55    0.10
   2  13 -10    0.47    0.10
   1  13 -10    6.30    0.26
   1  13 -10    6.70    0.27
   0  13 -10    0.12    0.07
   0  13 -10    0.06    0.07
  -1  13 -10    3.89    0.21
  -1  13 -10    3.84    0.21
  -2  13 -10    0.53    0.10
  -2  13 -10    0.64    0.11
   2  14 -10    0.24    0.08
   2  14 -10    0.20    0.08
   1  14 -10    0.32    0.09
   1  14 -10    0.24    0.09
   0  14 -10    1.11    0.13
   0  14 -10    0.98    0.12
  -1  14 -10    0.83    0.12
  -1  14 -10    0.66    0.11
  -2  14 -10    0.10    0.07
  -2  14 -10   -0.06    0.06
   2  15 -10    4.89    0.25
   2  15 -10    4.82    0.24
   1  15 -10    5.39    0.25
   1  15 -10    5.39    0.26
   0  15 -10    3.40    0.21
   0  15 -10    3.41    0.21
  -1  15 -10    0.01    0.07
  -1  15 -10    0.17    0.08
   1  16 -10    0.41    0.10
   1  16 -10    0.43    0.10
   0  16 -10   -0.03    0.06
   0  16 -10   -0.04    0.07
  -1  16 -10    0.88    0.13
  -1  16 -10    0.81    0.12
   0  17 -10    6.23    0.29
   0  17 -10    6.19    0.28
   3   0 -11    1.89    0.12
   3   0 -11    1.96    0.14
  -2   0  11    0.08    0.05
  -2   0  11    0.09    0.06
  -1   0  11   45.11    0.91
   1   0 -11   42.81    0.81
   1   0 -11   43.29    0.82
  -1   0  11   45.46    0.87
   0   0  11    0.02    0.06
   0   0  11   -0.01    0.05
   1   0  11   25.76    0.62
  -1   0 -11   26.00    0.54
   1   0  11   25.80    0.59
  -1   0 -11   25.63    0.54
   2   0  11   -0.04    0.06
  -2   0 -11   -0.11    0.05
   2   0  11   -0.02    0.07
  -2   0 -11   -0.05    0.05
   3  -1 -11    0.39    0.08
   3  -1 -11    0.55    0.09
   3   1 -11    0.28    0.06
   3   1 -11    0.31    0.07
   2  -1 -11    5.16    0.20
   2  -1 -11    5.35    0.19
  -2  -1  11    5.52    0.24
  -2  -1  11    5.41    0.22
  -2   1  11    5.30    0.24
  -2   1  11    5.43    0.22
   2   1 -11    5.43    0.19
   2   1 -11    5.40    0.20
  -1  -1  11    1.86    0.14
  -1  -1  11    1.74    0.15
   1   1 -11    1.83    0.12
  -1   1  11    1.70    0.14
  -1   1  11    1.68    0.15
   1   1 -11    1.67    0.13
   0  -1  11   64.65    1.18
   0  -1  11   63.68    1.21
   0   1 -11   63.40    1.12
   0   1  11   64.13    1.21
   0   1  11   63.50    1.18
   0   1 -11   63.89    1.12
   1  -1  11  130.99    2.20
   1  -1  11  130.77    2.23
  -1   1 -11  131.39    2.13
   1   1  11  129.75    2.19
   1   1  11  127.80    2.23
  -1   1 -11  130.51    2.13
  -2  -1 -11   27.37    0.56
   2  -1  11   27.14    0.64
  -2  -1 -11   27.43    0.57
   2  -1  11   27.44    0.61
   2   1  11   27.15    0.61
  -2   1 -11   27.39    0.57
  -2   1 -11   26.80    0.56
   2   1  11   27.36    0.64
   3  -2 -11   11.21    0.37
   3  -2 -11   10.91    0.37
   3   2 -11   10.82    0.30
   3   2 -11   10.68    0.30
  -2  -2  11    0.27    0.07
  -2  -2  11    0.15    0.06
   2   2 -11    0.13    0.05
  -2   2  11    0.12    0.06
  -2   2  11    0.13    0.06
   2   2 -11    0.14    0.06
  -1  -2  11    1.22    0.12
  -1  -2  11    1.28    0.14
  -1   2  11    1.10    0.12
   1   2 -11    1.03    0.10
   1   2 -11    0.93    0.09
  -1   2  11    1.17    0.13
   0  -2  11   -0.06    0.05
   0  -2  11   -0.01    0.05
   0   2  11    0.03    0.06
   0   2 -11   -0.04    0.05
   0   2  11    0.05    0.06
   0   2 -11   -0.07    0.05
   1  -2  11    5.49    0.25
   1  -2  11    5.46    0.23
  -1   2 -11    5.59    0.21
   1   2  11    5.94    0.25
  -1   2 -11    5.72    0.22
   1   2  11    6.04    0.27
   2  -2  11   23.25    0.55
   2  -2  11   23.24    0.57
   2   2  11   22.61    0.54
  -2   2 -11   23.34    0.50
   2   2  11   22.64    0.57
  -2   2 -11   23.46    0.50
   3   3 -11    0.06    0.05
   3   3 -11    0.05    0.05
  -2  -3  11   19.00    0.50
  -2  -3  11   19.05    0.47
  -2   3  11   19.12    0.47
   2   3 -11   18.48    0.43
   2   3 -11   18.85    0.43
  -2   3  11   19.20    0.50
  -1  -3  11   76.42    1.37
  -1  -3  11   77.46    1.41
   1   3 -11   76.04    1.32
   1   3 -11   75.92    1.32
  -1   3  11   76.70    1.41
  -1   3  11   76.63    1.37
   0  -3  11    4.59    0.21
   0  -3  11    4.60    0.23
   0   3 -11    4.63    0.19
   0   3  11    4.83    0.22
   0   3  11    4.77    0.23
   0   3 -11    4.41    0.18
   1  -3  11    5.53    0.24
   1  -3  11    5.63    0.25
   1   3  11    5.20    0.25
  -1   3 -11    5.43    0.21
  -1   3 -11    5.39    0.21
   1   3  11    5.46    0.24
   2  -3  11    1.27    0.14
   2  -3  11    1.30    0.14
   2   3  11    1.25    0.13
   2   3  11    1.34    0.15
  -2   3 -11    1.40    0.12
  -2   3 -11    1.27    0.12
   3   4 -11    0.03    0.05
   3   4 -11    0.01    0.05
  -2  -4  11    7.54    0.29
  -2  -4  11    7.55    0.27
   2   4 -11    7.39    0.24
  -2   4  11    7.21    0.29
   2   4 -11    7.17    0.24
  -2   4  11    7.27    0.27
  -1  -4  11   18.08    0.46
  -1  -4  11   18.64    0.49
   1   4 -11   18.18    0.42
  -1   4  11   17.74    0.49
   1   4 -11   18.34    0.42
  -1   4  11   18.09    0.46
   0  -4  11   46.41    0.94
   0  -4  11   46.08    0.90
   0   4 -11   44.58    0.85
   0   4  11   46.14    0.91
   0   4 -11   45.46    0.85
   0   4  11   46.56    0.95
   1  -4  11    2.97    0.19
   1  -4  11    2.80    0.17
   1   4  11    3.09    0.18
  -1   4 -11    2.56    0.15
  -1   4 -11    2.73    0.15
   1   4  11    2.78    0.18
   2  -4  11    3.51    0.20
   2  -4  11    3.77    0.20
   2   4  11    3.62    0.21
  -2   4 -11    3.39    0.17
  -2   4 -11    3.41    0.17
   2   4  11    3.34    0.19
   3   5 -11    0.10    0.06
   3   5 -11    0.08    0.06
  -2  -5  11    1.02    0.12
  -2  -5  11    1.02    0.11
   2   5 -11    0.94    0.10
   2   5 -11    1.07    0.10
  -1  -5  11    3.62    0.19
  -1  -5  11    3.67    0.21
  -1   5  11    3.72    0.19
  -1   5  11    3.78    0.21
   1   5 -11    3.77    0.18
   1   5 -11    3.59    0.17
   0  -5  11   37.86    0.79
   0  -5  11   38.43    0.82
   0   5  11   37.90    0.79
   0   5 -11   38.23    0.74
   0   5 -11   38.00    0.74
   0   5  11   38.39    0.83
   1  -5  11    8.69    0.32
   1  -5  11    8.29    0.29
   1   5  11    8.30    0.30
  -1   5 -11    9.12    0.27
   1   5  11    8.68    0.32
  -1   5 -11    8.52    0.26
   2  -5  11    8.06    0.29
   2  -5  11    8.20    0.31
  -2   5 -11    8.41    0.26
  -2   5 -11    8.02    0.26
   2   5  11    7.83    0.31
   2   5  11    8.08    0.29
   3   6 -11   10.13    0.30
   3   6 -11   10.33    0.31
  -2  -6  11   18.03    0.51
  -2  -6  11   18.54    0.48
  -2   6  11   20.73    0.53
   2   6 -11   18.03    0.44
  -2   6  11   20.46    0.50
   2   6 -11   18.09    0.44
  -1  -6  11    9.37    0.32
  -1  -6  11    9.50    0.34
  -1   6  11    9.67    0.34
  -1   6  11    9.64    0.32
   1   6 -11    9.37    0.28
   1   6 -11    9.42    0.28
   0  -6  11   10.57    0.36
   0  -6  11   10.59    0.34
   0   6  11   10.48    0.36
   0   6  11   10.73    0.34
   0   6 -11   10.62    0.30
   0   6 -11   11.16    0.31
   1  -6  11    1.02    0.11
   1  -6  11    1.17    0.13
   1   6  11    0.97    0.11
  -1   6 -11    1.18    0.11
  -1   6 -11    1.39    0.12
   1   6  11    0.89    0.12
   2  -6  11    0.35    0.09
   2  -6  11    0.51    0.09
  -2   6 -11    0.46    0.08
   2   6  11    0.34    0.09
   2   6  11    0.39    0.10
  -2   6 -11    0.31    0.07
   3   7 -11    3.77    0.19
   3   7 -11    3.73    0.18
  -2  -7  11    4.82    0.23
  -2  -7  11    4.57    0.24
   2   7 -11    4.90    0.21
   2   7 -11    4.97    0.20
  -2   7  11    5.12    0.24
  -2   7  11    5.09    0.25
   0  -7  11    0.29    0.08
   0  -7  11    0.36    0.07
   0   7  11    0.38    0.09
   0   7 -11    0.40    0.07
   0   7  11    0.36    0.09
   0   7 -11    0.24    0.07
   1  -7  11    2.11    0.17
   1  -7  11    2.07    0.16
   1   7  11    2.08    0.16
  -1   7 -11    2.37    0.15
  -1   7 -11    2.01    0.14
   1   7  11    1.97    0.17
   2  -7  11    3.87    0.20
   2  -7  11    3.80    0.22
  -2   7 -11    3.85    0.19
   2   7  11    3.78    0.22
  -2   7 -11    4.03    0.19
   2   7  11    3.82    0.24
   3   8 -11   14.30    0.38
   3   8 -11   14.05    0.38
  -2  -8  11   10.59    0.37
  -2  -8  11   10.80    0.36
   2   8 -11   10.78    0.32
  -2   8  11   10.45    0.37
   2   8 -11   10.53    0.32
  -2   8  11   10.57    0.35
  -1  -8  11    8.25    0.31
  -1  -8  11    8.77    0.34
   1   8 -11    8.53    0.29
   1   8 -11    8.08    0.28
  -1   8  11   10.77    0.37
  -1   8  11   10.89    0.34
   0  -8  11   -0.07    0.05
   0  -8  11   -0.08    0.05
   0   8 -11    0.04    0.06
   0   8 -11   -0.01    0.05
   1  -8  11    1.94    0.16
   1  -8  11    2.03    0.17
   1   8  11    1.82    0.18
  -1   8 -11    2.02    0.14
  -1   8 -11    2.03    0.15
   1   8  11    1.71    0.17
   2  -8  11    7.45    0.29
   2  -8  11    7.82    0.32
  -2   8 -11    7.88    0.27
   2   8  11    7.69    0.31
  -2   8 -11    8.12    0.27
   2   8  11    7.23    0.32
   3   9 -11    0.01    0.06
   3   9 -11    0.05    0.06
  -2  -9  11    9.62    0.34
  -2  -9  11    9.45    0.36
   2   9 -11    8.99    0.30
   2   9 -11    9.73    0.31
  -2   9  11    9.45    0.34
  -2   9  11    9.57    0.37
  -1  -9  11    0.11    0.07
  -1  -9  11    0.06    0.06
  -1   9  11   -0.03    0.05
   1   9 -11    0.03    0.06
  -1   9  11   -0.03    0.06
   1   9 -11    0.02    0.06
   0  -9  11    6.03    0.26
   0  -9  11    5.75    0.28
   0   9  11    6.46    0.27
   0   9  11    6.50    0.30
   0   9 -11    5.85    0.23
   0   9 -11    5.81    0.24
   1  -9  11   14.28    0.45
   1  -9  11   14.10    0.43
  -1   9 -11   14.26    0.39
   1   9  11   14.39    0.44
   1   9  11   14.15    0.46
  -1   9 -11   14.52    0.39
   2  -9  11    1.56    0.16
   2  -9  11    1.49    0.15
  -2   9 -11    1.59    0.13
  -2   9 -11    1.51    0.14
   2   9  11    1.59    0.16
   2   9  11    1.41    0.17
   3  10 -11    1.19    0.13
   3  10 -11    1.22    0.13
  -2 -10  11   19.53    0.53
  -2 -10  11   19.17    0.56
  -2  10  11   18.62    0.52
  -2  10  11   18.26    0.55
   2  10 -11   19.32    0.48
   2  10 -11   18.33    0.47
  -1 -10  11    3.43    0.22
  -1 -10  11    3.56    0.21
  -1  10  11    3.41    0.23
   1  10 -11    3.39    0.19
  -1  10  11    3.15    0.20
   1  10 -11    3.55    0.19
   0 -10  11    7.59    0.30
   0 -10  11    7.21    0.31
   0  10  11    7.35    0.30
   0  10  11    6.95    0.32
   0  10 -11    7.24    0.26
   0  10 -11    7.15    0.27
   1 -10  11    0.55    0.10
   1 -10  11    0.53    0.11
   1  10  11    0.46    0.10
  -1  10 -11    0.60    0.10
  -1  10 -11    0.54    0.09
   1  10  11    0.41    0.11
   2 -10  11    1.08    0.14
   2 -10  11    1.17    0.16
  -2  10 -11    1.20    0.12
  -2  10 -11    1.02    0.12
   3  11 -11    2.35    0.17
   3  11 -11    2.41    0.17
   2  11 -11    0.44    0.09
   2  11 -11    0.44    0.10
  -1 -11  11   13.42    0.59
  -1 -11  11   13.06    0.54
  -1  11  11   14.21    0.48
   1  11 -11   14.52    0.40
   1  11 -11   14.19    0.40
  -1  11  11   14.44    0.45
   0 -11  11   -0.03    0.06
   0 -11  11    0.00    0.05
   0  11 -11   -0.09    0.05
   0  11 -11   -0.04    0.05
   0  11  11    0.03    0.07
   0  11  11   -0.12    0.06
  -1  11 -11   12.38    0.37
  -1  11 -11   12.95    0.38
  -2  11 -11    5.50    0.24
  -2  11 -11    5.37    0.24
   3  12 -11    2.35    0.17
   3  12 -11    2.31    0.17
   2  12 -11    0.63    0.10
   2  12 -11    0.60    0.11
   1  12 -11    7.44    0.29
   1  12 -11    7.77    0.29
   0  12 -11    4.96    0.23
   0  12 -11    5.11    0.24
  -1  12 -11    1.73    0.16
  -1  12 -11    1.66    0.15
  -2  12 -11   -0.04    0.06
  -2  12 -11    0.04    0.07
   2  13 -11    0.61    0.11
   2  13 -11    0.53    0.10
   1  13 -11    3.57    0.21
   1  13 -11    3.51    0.21
   0  13 -11   24.02    0.59
   0  13 -11   24.40    0.58
  -1  13 -11    0.14    0.08
  -1  13 -11    0.13    0.08
  -2  13 -11   12.74    0.38
  -2  13 -11   12.42    0.39
   2  14 -11    0.31    0.09
   2  14 -11    0.55    0.11
   1  14 -11    5.93    0.27
   1  14 -11    6.26    0.28
   0  14 -11    0.14    0.08
   0  14 -11    0.29    0.10
  -1  14 -11    5.70    0.25
  -1  14 -11    5.52    0.26
   1  15 -11   11.39    0.39
   1  15 -11   11.15    0.38
   0  15 -11    1.38    0.15
   0  15 -11    1.72    0.17
  -1  15 -11    3.57    0.23
  -1  15 -11    3.66    0.22
   0  16 -11    4.53    0.25
   0  16 -11    4.47    0.24
   3   0 -12    0.02    0.05
   3   0 -12    0.04    0.05
  -2   0  12    5.95    0.26
   2   0 -12    5.55    0.21
  -2   0  12    5.87    0.24
   2   0 -12    5.50    0.21
   1   0 -12   -0.08    0.05
  -1   0  12    0.02    0.05
  -1   0  12   -0.05    0.04
   1   0 -12   -0.03    0.05
   0   0  12   28.88    0.68
   0   0 -12   29.68    0.60
   0   0 -12   29.30    0.60
   0   0  12   29.39    0.66
  -1   0 -12   -0.04    0.05
  -1   0 -12   -0.02    0.05
   1   0  12    0.11    0.07
   1   0  12    0.01    0.05
  -2   0 -12    8.97    0.28
   2   0  12    8.72    0.33
  -2   0 -12    8.86    0.28
   2   0  12    8.85    0.31
   3  -1 -12    4.77    0.20
   3  -1 -12    5.03    0.20
   3   1 -12    5.42    0.21
   3   1 -12    5.02    0.20
   2  -1 -12    4.87    0.20
  -2  -1  12    4.49    0.23
   2  -1 -12    4.90    0.19
  -2  -1  12    4.41    0.21
  -2   1  12    4.55    0.23
   2   1 -12    4.41    0.19
   2   1 -12    4.69    0.19
  -2   1  12    4.59    0.22
  -1  -1  12    0.03    0.05
  -1  -1  12    0.00    0.04
   1   1 -12    0.06    0.05
  -1   1  12   -0.02    0.04
  -1   1  12   -0.01    0.05
   1   1 -12   -0.02    0.05
   0  -1  12    3.65    0.21
   0  -1  12    3.69    0.20
   0   1  12    3.51    0.21
   0   1 -12    3.08    0.16
   0   1 -12    3.09    0.16
   0   1  12    3.31    0.19
   1  -1  12    0.06    0.06
   1  -1  12    0.12    0.06
  -1   1 -12    0.06    0.05
  -1   1 -12    0.13    0.06
   1   1  12    0.23    0.07
   1   1  12    0.25    0.08
  -2  -1 -12   12.19    0.34
  -2  -1 -12   11.99    0.33
   2  -1  12   11.72    0.39
   2  -1  12   11.78    0.37
   2   1  12   11.32    0.39
  -2   1 -12   11.79    0.33
   2   1  12   11.36    0.37
  -2   1 -12   11.90    0.33
   3  -2 -12    0.39    0.08
   3  -2 -12    0.41    0.08
   3   2 -12    0.27    0.07
   3   2 -12    0.37    0.07
  -2  -2  12    5.08    0.23
  -2  -2  12    5.09    0.25
   2   2 -12    5.07    0.20
  -2   2  12    4.79    0.22
   2   2 -12    5.26    0.20
  -2   2  12    4.97    0.24
  -1  -2  12    1.87    0.14
  -1  -2  12    1.96    0.16
  -1   2  12    1.82    0.15
  -1   2  12    1.76    0.14
   1   2 -12    2.00    0.14
   1   2 -12    1.83    0.13
   0  -2  12    1.39    0.13
   0  -2  12    1.60    0.15
   0   2 -12    1.52    0.12
   0   2  12    1.70    0.15
   0   2  12    1.86    0.16
   0   2 -12    1.53    0.13
   1  -2  12    5.48    0.26
   1  -2  12    5.49    0.24
  -1   2 -12    5.50    0.22
   1   2  12    5.53    0.26
  -1   2 -12    5.40    0.21
   1   2  12    6.01    0.25
   2  -2  12    8.59    0.34
   2  -2  12    9.15    0.32
  -2   2 -12    8.75    0.28
  -2   2 -12    8.83    0.28
   2   2  12    8.70    0.31
   2   2  12    8.92    0.34
   3  -3 -12   -0.02    0.07
   3  -3 -12    0.04    0.06
   3   3 -12    0.17    0.06
   3   3 -12    0.10    0.06
  -2  -3  12    5.95    0.25
  -2  -3  12    5.61    0.26
  -2   3  12    5.78    0.24
  -2   3  12    5.81    0.26
   2   3 -12    6.05    0.22
   2   3 -12    5.95    0.22
  -1  -3  12    0.52    0.09
  -1  -3  12    0.43    0.08
   1   3 -12    0.52    0.08
   1   3 -12    0.51    0.08
  -1   3  12    0.45    0.08
  -1   3  12    0.45    0.09
   0  -3  12    3.50    0.21
   0  -3  12    3.67    0.20
   0   3  12    3.93    0.22
   0   3 -12    3.52    0.17
   0   3 -12    3.43    0.17
   0   3  12    3.72    0.20
   1  -3  12    0.59    0.09
   1  -3  12    0.92    0.12
   1   3  12    0.78    0.11
   1   3  12    0.66    0.11
  -1   3 -12    0.69    0.09
  -1   3 -12    0.78    0.10
   2  -3  12   -0.09    0.05
   2  -3  12   -0.03    0.06
   2   3  12    0.02    0.06
  -2   3 -12   -0.02    0.05
   2   3  12    0.11    0.07
  -2   3 -12    0.01    0.06
   3   4 -12    2.13    0.15
   3   4 -12    1.97    0.15
  -2  -4  12    0.63    0.10
  -2  -4  12    0.48    0.09
   2   4 -12    0.55    0.09
  -2   4  12    0.60    0.10
  -2   4  12    0.44    0.08
   2   4 -12    0.56    0.08
  -1  -4  12   29.03    0.69
  -1  -4  12   29.86    0.66
  -1   4  12   28.99    0.66
   1   4 -12   28.92    0.61
  -1   4  12   29.00    0.69
   1   4 -12   28.91    0.61
   0  -4  12    0.12    0.06
   0  -4  12    0.05    0.06
   0   4 -12    0.05    0.05
   0   4  12    0.02    0.05
   0   4 -12   -0.03    0.05
   0   4  12    0.11    0.06
   1  -4  12    5.31    0.26
   1  -4  12    5.31    0.24
   1   4  12    5.36    0.24
  -1   4 -12    5.31    0.21
   1   4  12    5.38    0.26
  -1   4 -12    5.49    0.21
   2  -4  12    4.61    0.25
   2  -4  12    4.48    0.23
   2   4  12    4.98    0.25
  -2   4 -12    4.83    0.21
   2   4  12    4.66    0.23
  -2   4 -12    4.87    0.21
   3   5 -12   11.66    0.33
   3   5 -12   11.20    0.33
  -2  -5  12    9.50    0.35
  -2  -5  12    9.14    0.32
   2   5 -12    9.31    0.29
  -2   5  12    9.26    0.35
   2   5 -12    9.37    0.29
  -2   5  12    9.28    0.32
  -1  -5  12   14.59    0.45
  -1  -5  12   14.57    0.42
  -1   5  12   14.43    0.42
   1   5 -12   14.80    0.38
  -1   5  12   14.38    0.45
   1   5 -12   14.73    0.38
   0  -5  12   10.02    0.36
   0  -5  12   10.14    0.34
   0   5  12   10.77    0.37
   0   5 -12   10.62    0.31
   0   5  12   10.62    0.35
   0   5 -12   10.63    0.31
   1  -5  12    1.39    0.14
   1  -5  12    1.23    0.13
   1   5  12    0.90    0.12
  -1   5 -12    1.00    0.10
   1   5  12    0.92    0.11
  -1   5 -12    0.91    0.10
   2  -5  12    1.67    0.16
   2  -5  12    1.67    0.15
   2   5  12    1.60    0.17
   2   5  12    1.65    0.16
  -2   5 -12    1.74    0.14
  -2   5 -12    1.67    0.14
   3   6 -12    0.09    0.06
   3   6 -12    0.06    0.06
  -2  -6  12    8.05    0.30
  -2  -6  12    7.84    0.32
  -2   6  12    7.72    0.30
   2   6 -12    7.92    0.27
   2   6 -12    7.53    0.27
  -2   6  12    7.50    0.32
  -1  -6  12    0.33    0.08
  -1  -6  12    0.41    0.09
  -1   6  12    0.55    0.11
   1   6 -12    0.59    0.09
   1   6 -12    0.63    0.09
  -1   6  12    0.51    0.10
   0  -6  12   25.71    0.64
   0  -6  12   25.01    0.60
   0   6  12   25.53    0.61
   0   6  12   24.51    0.63
   0   6 -12   24.79    0.55
   0   6 -12   24.67    0.55
   1  -6  12    1.68    0.16
   1  -6  12    1.85    0.15
  -1   6 -12    1.80    0.14
  -1   6 -12    2.00    0.15
   1   6  12    1.81    0.17
   1   6  12    2.15    0.17
   2  -6  12    3.25    0.20
   2  -6  12    3.12    0.21
  -2   6 -12    3.16    0.18
   2   6  12    3.10    0.20
   2   6  12    2.99    0.22
  -2   6 -12    3.49    0.18
   3   7 -12    1.80    0.15
   3   7 -12    1.88    0.15
  -2  -7  12    0.23    0.08
  -2  -7  12    0.19    0.07
   2   7 -12    0.32    0.08
   2   7 -12    0.19    0.07
  -2   7  12    0.40    0.10
  -2   7  12    0.23    0.09
  -1  -7  12   29.66    0.71
  -1  -7  12   28.92    0.67
  -1   7  12   28.51    0.70
   1   7 -12   28.84    0.62
  -1   7  12   28.95    0.68
   1   7 -12   28.51    0.62
   0  -7  12   10.23    0.35
   0  -7  12   10.39    0.38
   0   7 -12   10.47    0.32
   0   7  12   11.24    0.39
   0   7  12   10.81    0.36
   0   7 -12   10.09    0.31
   1  -7  12    8.69    0.34
   1  -7  12    8.92    0.32
  -1   7 -12    8.65    0.29
   1   7  12    9.01    0.33
  -1   7 -12    8.56    0.29
   1   7  12    8.60    0.35
   2  -7  12   -0.07    0.05
   2  -7  12   -0.08    0.06
   2   7  12    0.02    0.06
  -2   7 -12    0.00    0.05
  -2   7 -12   -0.10    0.05
   2   7  12    0.09    0.08
   3   8 -12    0.03    0.06
   3   8 -12   -0.04    0.05
  -2  -8  12    4.56    0.24
  -2  -8  12    4.71    0.26
  -2   8  12    4.55    0.26
  -2   8  12    4.45    0.24
   2   8 -12    5.05    0.22
   2   8 -12    4.87    0.22
  -1  -8  12    7.75    0.31
  -1  -8  12    7.66    0.33
   1   8 -12    7.95    0.28
   1   8 -12    8.16    0.28
  -1   8  12    8.08    0.32
  -1   8  12    8.12    0.34
   0  -8  12   11.06    0.37
   0  -8  12   11.13    0.39
   0   8 -12   10.82    0.33
   0   8 -12   10.78    0.33
   0   8  12   10.46    0.37
   0   8  12   11.05    0.40
   1  -8  12    1.43    0.16
   1  -8  12    1.16    0.13
  -1   8 -12    1.22    0.13
  -1   8 -12    1.23    0.12
   2  -8  12    0.58    0.11
   2  -8  12    0.77    0.13
  -2   8 -12    0.67    0.10
  -2   8 -12    0.56    0.10
   3   9 -12    8.43    0.30
   3   9 -12    8.48    0.30
  -2   9  12    4.09    0.26
   2   9 -12    4.17    0.22
  -2   9  12    3.85    0.23
   2   9 -12    4.01    0.21
  -1  -9  12    0.35    0.09
  -1  -9  12    0.28    0.08
   1   9 -12    0.29    0.08
  -1   9  12    0.25    0.09
  -1   9  12    0.22    0.08
   1   9 -12    0.23    0.08
   0  -9  12    1.65    0.16
   0  -9  12    1.61    0.16
   0   9  12    1.43    0.16
   0   9 -12    1.40    0.14
   0   9  12    1.37    0.16
   0   9 -12    1.61    0.14
   1  -9  12    4.88    0.25
   1  -9  12    4.86    0.27
  -1   9 -12    4.83    0.23
  -1   9 -12    5.01    0.23
  -2   9 -12    1.15    0.13
  -2   9 -12    1.12    0.12
   3  10 -12    6.22    0.26
   3  10 -12    5.94    0.25
   2  10 -12    7.31    0.28
   2  10 -12    7.19    0.28
   1  10 -12    3.92    0.21
   1  10 -12    4.29    0.22
   0  10 -12    0.03    0.06
   0  10 -12   -0.03    0.06
  -1  10 -12    4.55    0.22
  -1  10 -12    4.62    0.22
  -2  10 -12    3.14    0.20
  -2  10 -12    3.21    0.19
   3  11 -12    0.35    0.09
   3  11 -12    0.46    0.10
   2  11 -12    2.71    0.19
   2  11 -12    3.57    0.21
   1  11 -12    0.04    0.06
   1  11 -12   -0.03    0.07
   0  11 -12   -0.05    0.06
   0  11 -12   -0.11    0.06
  -1  11 -12    4.19    0.22
  -1  11 -12    4.29    0.22
  -2  11 -12    8.38    0.30
  -2  11 -12    8.24    0.30
   2  12 -12    0.04    0.07
   2  12 -12    0.25    0.09
   1  12 -12    0.34    0.09
   1  12 -12    0.37    0.09
   0  12 -12    4.43    0.23
   0  12 -12    4.91    0.24
  -1  12 -12    0.04    0.07
  -1  12 -12    0.07    0.08
  -2  12 -12    0.04    0.08
  -2  12 -12    0.03    0.07
   2  13 -12   -0.09    0.07
   2  13 -12   -0.07    0.07
   1  13 -12    0.90    0.13
   1  13 -12    0.91    0.13
   0  13 -12    3.73    0.22
   0  13 -12    3.69    0.23
  -1  13 -12    6.39    0.28
  -1  13 -12    6.50    0.29
   1  14 -12    4.32    0.24
   1  14 -12    4.94    0.26
   0  14 -12    0.41    0.10
   0  14 -12    0.37    0.10
  -1  14 -12    0.09    0.08
  -1  14 -12    0.06    0.08
   0  15 -12    0.01    0.08
   0  15 -12    0.16    0.08
   3   0 -13    2.23    0.16
   3   0 -13    1.98    0.15
  -2   0  13   -0.02    0.05
   2   0 -13   -0.08    0.05
  -2   0  13   -0.03    0.05
   2   0 -13    0.02    0.06
   1   0 -13    1.04    0.11
  -1   0  13    1.10    0.12
   1   0 -13    1.19    0.11
  -1   0  13    1.19    0.14
   0   0  13   -0.06    0.05
   0   0  13   -0.04    0.05
   0   0 -13   -0.15    0.05
   0   0 -13   -0.05    0.05
   1   0  13   21.42    0.58
   1   0  13   21.20    0.55
  -1   0 -13   20.99    0.49
  -1   0 -13   21.65    0.50
   2   0  13    0.02    0.07
  -2   0 -13    0.01    0.06
   2   0  13    0.01    0.06
  -2   0 -13   -0.09    0.06
   3  -1 -13    1.04    0.11
   3  -1 -13    1.32    0.12
   3   1 -13    1.26    0.12
   3   1 -13    1.21    0.12
  -2  -1  13    6.92    0.28
   2  -1 -13    7.57    0.25
   2  -1 -13    7.12    0.25
  -2  -1  13    7.51    0.31
   2   1 -13    7.20    0.26
   2   1 -13    7.16    0.25
  -2   1  13    7.12    0.30
  -2   1  13    6.65    0.28
  -1  -1  13    0.02    0.06
  -1  -1  13    0.08    0.06
  -1   1  13    0.03    0.05
   1   1 -13    0.02    0.05
   1   1 -13    0.13    0.06
  -1   1  13    0.03    0.06
   0  -1  13   13.13    0.40
   0  -1  13   12.84    0.42
   0   1 -13   12.92    0.35
   0   1  13   12.07    0.41
   0   1  13   12.80    0.39
   0   1 -13   12.97    0.35
   1  -1  13    0.03    0.06
  -1  -1 -13    0.19    0.07
   1  -1  13    0.24    0.09
  -1  -1 -13    0.24    0.07
  -1   1 -13    0.16    0.07
   1   1  13    0.34    0.10
  -1   1 -13    0.17    0.07
   1   1  13    0.20    0.08
   2  -1  13    2.79    0.20
  -2  -1 -13    3.16    0.18
   2  -1  13    2.78    0.22
  -2  -1 -13    3.06    0.17
  -2   1 -13    2.72    0.17
   2   1  13    3.09    0.22
   2   1  13    2.92    0.20
  -2   1 -13    2.90    0.18
   3  -2 -13    1.70    0.15
   3  -2 -13    1.80    0.14
   3   2 -13    2.11    0.15
   3   2 -13    1.97    0.15
   2  -2 -13    0.49    0.09
  -2  -2  13    0.43    0.09
   2  -2 -13    0.51    0.09
  -2  -2  13    0.72    0.10
   2   2 -13    0.51    0.09
   2   2 -13    0.57    0.09
  -2   2  13    0.54    0.10
  -2   2  13    0.43    0.09
  -1  -2  13    0.84    0.11
  -1  -2  13    0.73    0.11
  -1   2  13    0.90    0.12
  -1   2  13    1.04    0.12
   1   2 -13    1.06    0.11
   1   2 -13    1.14    0.11
   0  -2  13    6.63    0.29
   0  -2  13    6.45    0.27
   0   2 -13    6.48    0.24
   0   2 -13    6.26    0.24
   0   2  13    6.52    0.27
   0   2  13    6.38    0.29
   1  -2  13    4.27    0.24
   1  -2  13    4.33    0.22
   1   2  13    4.33    0.23
   1   2  13    4.31    0.24
  -1   2 -13    4.53    0.20
  -1   2 -13    4.50    0.20
  -2  -2 -13   15.60    0.40
   2  -2  13   15.04    0.45
  -2  -2 -13   15.91    0.41
   2  -2  13   15.40    0.48
  -2   2 -13   16.50    0.41
   2   2  13   14.59    0.44
   2   2  13   15.18    0.48
  -2   2 -13   15.46    0.40
   3  -3 -13    2.93    0.19
   3  -3 -13    2.56    0.17
   3   3 -13    2.94    0.17
   3   3 -13    3.14    0.17
  -2  -3  13    3.13    0.19
  -2  -3  13    2.95    0.20
   2   3 -13    3.34    0.17
  -2   3  13    3.11    0.21
   2   3 -13    3.16    0.17
  -2   3  13    2.91    0.19
  -1  -3  13   12.50    0.41
  -1  -3  13   12.45    0.39
   1   3 -13   12.28    0.35
   1   3 -13   12.46    0.35
  -1   3  13   12.02    0.41
  -1   3  13   12.48    0.39
   0  -3  13    3.63    0.20
   0  -3  13    3.32    0.21
   0   3 -13    3.21    0.17
   0   3 -13    3.25    0.18
   0   3  13    2.92    0.19
   0   3  13    2.90    0.21
   1  -3  13    6.54    0.28
   1  -3  13    6.96    0.31
   1   3  13    6.83    0.30
  -1   3 -13    6.38    0.24
   1   3  13    7.08    0.29
  -1   3 -13    6.67    0.25
   2  -3  13    1.13    0.15
   2  -3  13    1.13    0.13
  -2   3 -13    1.19    0.12
  -2   3 -13    1.11    0.12
   2   3  13    1.20    0.14
   2   3  13    1.08    0.14
   3  -4 -13    1.01    0.15
   3  -4 -13    1.18    0.14
   3   4 -13    0.88    0.11
   3   4 -13    1.04    0.12
  -2  -4  13    0.16    0.08
  -2  -4  13    0.03    0.06
  -2   4  13    0.17    0.07
  -2   4  13    0.04    0.06
   2   4 -13    0.18    0.07
   2   4 -13    0.07    0.06
  -1  -4  13    0.49    0.09
  -1  -4  13    0.47    0.10
   1   4 -13    0.61    0.09
  -1   4  13    0.37    0.10
  -1   4  13    0.42    0.09
   1   4 -13    0.55    0.09
   0  -4  13    1.65    0.16
   0  -4  13    1.57    0.17
   0   4  13    1.66    0.16
   0   4 -13    1.68    0.14
   0   4 -13    1.68    0.14
   0   4  13    1.47    0.17
   1  -4  13    0.52    0.11
   1  -4  13    0.51    0.10
  -1   4 -13    0.65    0.09
  -1   4 -13    0.52    0.09
   1   4  13    0.53    0.10
   1   4  13    0.47    0.10
   2  -4  13    2.89    0.20
   2  -4  13    2.98    0.22
  -2   4 -13    3.17    0.18
   2   4  13    3.21    0.21
   2   4  13    3.28    0.22
  -2   4 -13    3.47    0.19
   3   5 -13    6.05    0.24
   3   5 -13    5.88    0.24
  -2  -5  13    4.09    0.22
  -2  -5  13    4.14    0.24
  -2   5  13    3.98    0.22
   2   5 -13    4.20    0.20
  -2   5  13    4.07    0.24
   2   5 -13    4.08    0.20
  -1  -5  13    9.51    0.34
  -1  -5  13    9.11    0.36
   1   5 -13    9.48    0.31
  -1   5  13    9.30    0.37
  -1   5  13    9.45    0.34
   1   5 -13    9.71    0.31
   0  -5  13    0.17    0.07
   0  -5  13    0.17    0.07
   0   5  13    0.16    0.07
   0   5 -13    0.22    0.07
   0   5  13    0.13    0.08
   0   5 -13    0.08    0.06
   1  -5  13    8.55    0.32
   1  -5  13    8.26    0.34
  -1   5 -13    8.21    0.28
  -1   5 -13    8.34    0.29
   1   5  13    8.12    0.32
   1   5  13    7.98    0.34
   2  -5  13    4.16    0.25
   2  -5  13    4.01    0.23
  -2   5 -13    3.86    0.20
  -2   5 -13    4.06    0.20
   3   6 -13    1.38    0.13
   3   6 -13    1.75    0.15
  -2  -6  13    1.51    0.17
  -2  -6  13    1.48    0.16
   2   6 -13    1.31    0.13
  -2   6  13    1.21    0.14
  -2   6  13    1.20    0.16
   2   6 -13    1.39    0.13
  -1  -6  13    0.03    0.06
  -1  -6  13    0.03    0.06
  -1   6  13   -0.01    0.07
  -1   6  13   -0.03    0.06
   1   6 -13    0.04    0.06
   1   6 -13   -0.06    0.06
   0  -6  13    1.75    0.17
   0  -6  13    1.57    0.15
   0   6  13    1.48    0.16
   0   6 -13    1.65    0.14
   0   6  13    1.60    0.18
   0   6 -13    1.59    0.15
   1  -6  13   11.48    0.41
   1  -6  13   11.96    0.39
   1   6  13   11.35    0.39
  -1   6 -13   11.57    0.35
  -1   6 -13   11.69    0.35
   1   6  13   11.17    0.41
  -2   6 -13    0.61    0.09
  -2   6 -13    0.64    0.10
   3   7 -13    1.80    0.16
   3   7 -13    1.93    0.16
   2   7 -13   11.90    0.36
  -2   7  13   11.51    0.46
  -2   7  13   11.54    0.43
   2   7 -13   11.60    0.35
  -1  -7  13    0.75    0.12
  -1  -7  13    0.85    0.13
  -1   7  13    0.73    0.12
  -1   7  13    0.92    0.14
   1   7 -13    0.68    0.10
   1   7 -13    0.84    0.11
   0  -7  13   15.93    0.50
   0  -7  13   15.53    0.46
   0   7  13   15.17    0.46
   0   7 -13   15.85    0.42
   0   7  13   15.66    0.50
   0   7 -13   15.99    0.43
   1  -7  13    3.27    0.32
   1  -7  13    3.09    0.34
  -1   7 -13    3.13    0.19
  -1   7 -13    3.08    0.18
  -2   7 -13    0.93    0.11
  -2   7 -13    1.01    0.12
   3   8 -13    1.37    0.14
   3   8 -13    1.30    0.13
   2   8 -13   13.58    0.39
   2   8 -13   13.51    0.40
   1   8 -13    5.41    0.24
   1   8 -13    5.42    0.25
   0   8 -13    3.20    0.19
   0   8 -13    3.24    0.20
  -1   8 -13    0.22    0.08
  -1   8 -13    0.18    0.08
  -2   8 -13    3.03    0.19
  -2   8 -13    3.03    0.19
   3   9 -13    5.34    0.24
   3   9 -13    5.19    0.24
   2   9 -13    0.08    0.07
   2   9 -13    0.02    0.06
   1   9 -13    6.31    0.26
   1   9 -13    5.87    0.26
   0   9 -13   -0.04    0.07
   0   9 -13   -0.06    0.06
  -1   9 -13    2.30    0.17
  -1   9 -13    2.32    0.18
  -2   9 -13    0.12    0.07
  -2   9 -13    0.18    0.08
   2  10 -13    5.15    0.25
   2  10 -13    5.23    0.24
   1  10 -13    1.45    0.15
   1  10 -13    1.28    0.13
   0  10 -13    0.19    0.09
   0  10 -13    0.26    0.09
  -1  10 -13    2.94    0.20
  -1  10 -13    3.39    0.20
  -2  10 -13   10.52    0.35
  -2  10 -13    9.72    0.34
   2  11 -13    1.25    0.14
   2  11 -13    1.61    0.16
   1  11 -13   17.68    0.48
   1  11 -13   17.17    0.48
   0  11 -13    3.26    0.21
   0  11 -13    3.10    0.20
  -1  11 -13    1.36    0.14
  -1  11 -13    1.64    0.16
   2  12 -13    0.32    0.10
   2  12 -13    0.35    0.09
   1  12 -13    0.42    0.10
   1  12 -13    0.46    0.10
   0  12 -13   12.70    0.40
   0  12 -13   13.47    0.42
  -1  12 -13    8.61    0.32
  -1  12 -13    8.32    0.32
   1  13 -13    2.81    0.21
   1  13 -13    2.89    0.21
   0  13 -13    4.10    0.24
   0  13 -13    3.95    0.23
   3   0 -14   -0.05    0.06
   3   0 -14    0.00    0.06
  -2   0  14    8.35    0.34
   2   0 -14    8.44    0.29
   2   0 -14    8.56    0.29
  -2   0  14    8.23    0.32
   1   0 -14   -0.09    0.05
   1   0 -14   -0.07    0.06
  -1   0  14    0.01    0.06
  -1   0  14   -0.07    0.05
   0   0 -14    0.43    0.09
   0   0  14    0.41    0.09
   0   0 -14    0.44    0.09
   0   0  14    0.32    0.09
  -1   0 -14   -0.11    0.06
   1   0  14   -0.03    0.06
   1   0  14    0.01    0.06
  -1   0 -14    0.03    0.06
  -2   0 -14    1.00    0.12
  -2   0 -14    1.12    0.13
   3  -1 -14   -0.04    0.06
   3  -1 -14    0.02    0.06
   3   1 -14    0.00    0.06
   3   1 -14    0.02    0.06
  -2  -1  14    2.19    0.19
   2  -1 -14    2.15    0.16
   2  -1 -14    2.13    0.16
  -2  -1  14    2.06    0.17
   2   1 -14    2.07    0.16
   2   1 -14    1.90    0.15
  -2   1  14    2.05    0.17
  -2   1  14    1.94    0.18
   1  -1 -14   -0.01    0.07
  -1  -1  14    0.01    0.06
  -1  -1  14    0.01    0.06
   1  -1 -14   -0.03    0.06
   1   1 -14    0.01    0.06
  -1   1  14   -0.03    0.05
  -1   1  14   -0.04    0.05
   1   1 -14    0.02    0.06
   0  -1  14    1.59    0.15
   0  -1  14    1.64    0.16
   0  -1 -14    1.60    0.15
   0  -1 -14    1.45    0.13
   0   1  14    1.27    0.14
   0   1  14    1.61    0.18
   0   1 -14    1.66    0.15
   0   1 -14    1.62    0.14
   1  -1  14    1.03    0.14
  -1  -1 -14    0.74    0.11
  -1  -1 -14    0.94    0.11
   1  -1  14    1.21    0.16
  -1   1 -14    0.87    0.11
   1   1  14    0.83    0.13
  -1   1 -14    0.83    0.11
   1   1  14    0.80    0.12
  -2  -1 -14    1.11    0.12
  -2  -1 -14    1.21    0.13
  -2   1 -14    1.27    0.13
  -2   1 -14    1.31    0.13
   3  -2 -14    9.48    0.31
   3  -2 -14    9.83    0.32
   3   2 -14    9.74    0.31
   3   2 -14    9.50    0.31
   2  -2 -14    0.84    0.11
  -2  -2  14    0.80    0.13
   2  -2 -14    0.91    0.12
  -2  -2  14    0.80    0.12
   2   2 -14    0.78    0.11
   2   2 -14    0.84    0.11
  -2   2  14    0.75    0.12
  -2   2  14    0.70    0.11
  -1  -2  14    3.57    0.22
  -1  -2  14    3.73    0.24
   1   2 -14    4.07    0.20
  -1   2  14    3.75    0.23
  -1   2  14    3.65    0.21
   1   2 -14    3.60    0.19
   0  -2  14   -0.02    0.06
   0  -2  14    0.09    0.07
   0   2 -14    0.02    0.06
   0   2  14   -0.08    0.05
   0   2  14   -0.04    0.05
   0   2 -14    0.02    0.06
   1  -2  14    2.22    0.20
   1  -2  14    2.33    0.19
  -1   2 -14    2.31    0.17
   1   2  14    2.40    0.20
  -1   2 -14    2.49    0.18
   1   2  14    2.30    0.22
  -2  -2 -14    1.56    0.14
  -2  -2 -14    1.36    0.14
  -2   2 -14    1.70    0.15
  -2   2 -14    1.40    0.14
   3  -3 -14    0.61    0.11
   3  -3 -14    0.99    0.13
   3   3 -14    0.68    0.10
   3   3 -14    0.58    0.10
  -2  -3  14    0.64    0.18
  -2  -3  14    0.51    0.18
  -2   3  14    0.42    0.11
  -2   3  14    0.38    0.11
   2   3 -14    0.45    0.09
   2   3 -14    0.53    0.09
  -1  -3  14    3.55    0.23
  -1  -3  14    3.74    0.22
  -1   3  14    3.25    0.21
  -1   3  14    3.58    0.23
   1   3 -14    3.81    0.19
   1   3 -14    3.70    0.20
   0  -3  14    3.94    0.22
   0  -3  14    3.74    0.24
   0   3 -14    4.06    0.21
   0   3 -14    3.96    0.20
   0   3  14    3.67    0.24
   0   3  14    3.68    0.22
   1  -3  14    0.56    0.17
  -1   3 -14    0.40    0.09
  -1   3 -14    0.55    0.09
  -2  -3 -14    3.07    0.19
  -2  -3 -14    2.85    0.19
  -2   3 -14    3.07    0.18
  -2   3 -14    3.18    0.19
   3  -4 -14    6.88    0.30
   3  -4 -14    7.06    0.34
   3   4 -14    6.44    0.26
   3   4 -14    6.84    0.27
   2   4 -14    4.24    0.22
   2   4 -14    4.10    0.21
  -1  -4  14    7.29    0.35
  -1  -4  14    7.14    0.32
   1   4 -14    7.09    0.27
  -1   4  14    7.38    0.36
   1   4 -14    6.96    0.26
  -1   4  14    6.83    0.32
   0  -4  14    0.80    0.14
   0  -4  14    0.94    0.16
   0   4  14    0.81    0.14
   0   4  14    0.81    0.15
   0   4 -14    0.79    0.11
   0   4 -14    0.93    0.11
  -1   4 -14   14.17    0.40
  -1   4 -14   14.47    0.41
  -2   4 -14    0.09    0.07
  -2   4 -14    0.05    0.06
   3   5 -14    3.13    0.19
   3   5 -14    3.17    0.20
   2   5 -14    4.07    0.21
   2   5 -14    4.34    0.22
   1   5 -14    0.51    0.10
   1   5 -14    0.43    0.09
   0   5 -14   16.18    0.44
   0   5 -14   16.32    0.45
  -1   5 -14    8.24    0.30
  -1   5 -14    8.66    0.30
  -2   5 -14    1.25    0.13
  -2   5 -14    1.10    0.12
   3   6 -14   -0.01    0.07
   3   6 -14    0.03    0.07
   2   6 -14   10.67    0.35
   2   6 -14   10.29    0.34
   1   6 -14    3.70    0.21
   1   6 -14    3.50    0.20
   0   6 -14   19.46    0.49
   0   6 -14   18.76    0.48
  -1   6 -14   -0.04    0.06
  -1   6 -14   -0.06    0.06
  -2   6 -14   -0.05    0.06
  -2   6 -14    0.01    0.06
   3   7 -14    1.02    0.13
   3   7 -14    1.02    0.13
   2   7 -14    0.03    0.07
   2   7 -14    0.00    0.07
   1   7 -14   26.06    0.61
   1   7 -14   24.89    0.59
   0   7 -14    2.51    0.19
   0   7 -14    2.36    0.18
  -1   7 -14    6.55    0.28
  -1   7 -14    6.28    0.27
  -2   7 -14   -0.04    0.06
  -2   7 -14    0.02    0.07
   2   8 -14    3.35    0.20
   2   8 -14    3.00    0.20
   1   8 -14    4.50    0.23
   1   8 -14    4.69    0.23
   0   8 -14    7.91    0.30
   0   8 -14    8.49    0.31
  -1   8 -14    1.38    0.14
  -1   8 -14    1.33    0.15
  -2   8 -14    4.17    0.23
  -2   8 -14    3.32    0.21
   2   9 -14    0.32    0.09
   2   9 -14    0.30    0.09
   1   9 -14    3.07    0.20
   1   9 -14    2.91    0.20
   0   9 -14    3.13    0.21
   0   9 -14    3.26    0.20
  -1   9 -14    3.03    0.21
  -1   9 -14    3.16    0.21
   2  10 -14    4.80    0.25
   2  10 -14    4.80    0.24
   1  10 -14    1.54    0.15
   1  10 -14    2.17    0.19
   0  10 -14    2.06    0.18
   0  10 -14    2.08    0.19
  -1  10 -14    7.02    0.30
  -1  10 -14    6.76    0.28
   1  11 -14    0.02    0.07
   1  11 -14    0.05    0.08
   0  11 -14    2.17    0.18
   0  11 -14    2.19    0.19
  -1  11 -14    4.98    0.25
  -1  11 -14    4.94    0.26
   1  12 -14    3.67    0.23
   1  12 -14    3.54    0.23
   0  12 -14    0.16    0.09
   0  12 -14    0.18    0.09
   3   0 -15    0.49    0.10
   3   0 -15    0.42    0.10
   2   0 -15    0.02    0.06
   2   0 -15    0.00    0.07
   1   0 -15   32.24    0.70
   1   0 -15   32.59    0.71
   0   0 -15   -0.04    0.06
   0   0 -15   -0.07    0.06
  -1   0 -15    6.25    0.26
  -1   0 -15    6.32    0.27
  -2   0 -15   -0.10    0.06
  -2   0 -15   -0.04    0.06
   3  -1 -15    3.64    0.21
   3  -1 -15    3.66    0.21
   3   1 -15    3.51    0.20
   3   1 -15    3.80    0.21
   2  -1 -15    1.44    0.14
   2  -1 -15    1.38    0.15
   2   1 -15    1.40    0.13
   2   1 -15    1.53    0.15
   1  -1 -15    0.24    0.09
   1  -1 -15    0.27    0.09
   1   1 -15    0.29    0.09
   1   1 -15    0.30    0.09
   0  -1 -15    2.99    0.20
   0  -1 -15    2.64    0.18
   0   1 -15    2.49    0.18
   0   1 -15    2.88    0.18
  -1  -1 -15    0.85    0.12
  -1  -1 -15    0.93    0.12
  -1   1 -15    0.82    0.11
  -1   1 -15    1.04    0.13
  -2  -1 -15    0.08    0.07
  -2  -1 -15    0.08    0.08
  -2   1 -15    0.10    0.08
  -2   1 -15   -0.02    0.06
   3  -2 -15    0.42    0.10
   3  -2 -15    0.25    0.09
   3   2 -15    0.36    0.09
   3   2 -15    0.44    0.09
   2  -2 -15    5.16    0.24
   2  -2 -15    4.96    0.23
   2   2 -15    5.08    0.23
   2   2 -15    4.69    0.23
   1  -2 -15    1.63    0.15
   1  -2 -15    1.53    0.14
   1   2 -15    1.50    0.15
   1   2 -15    1.59    0.15
   0   2 -15    7.11    0.28
   0   2 -15    7.21    0.28
  -1  -2 -15    3.43    0.22
  -1  -2 -15    3.44    0.21
  -1   2 -15    3.63    0.21
  -1   2 -15    4.01    0.21
  -2  -2 -15    0.07    0.08
  -2  -2 -15    0.10    0.08
  -2   2 -15   -0.04    0.06
  -2   2 -15    0.21    0.08
   3  -3 -15    4.31    0.24
   3  -3 -15    4.35    0.26
   3   3 -15    4.51    0.23
   3   3 -15    4.39    0.22
   2  -3 -15    2.43    0.19
   2  -3 -15    2.20    0.18
   2   3 -15    2.49    0.18
   2   3 -15    2.84    0.19
   1   3 -15    4.27    0.22
   1   3 -15    3.62    0.20
   0   3 -15    2.51    0.19
   0   3 -15    2.82    0.19
  -1   3 -15    1.31    0.14
  -1   3 -15    1.36    0.15
  -2  -3 -15    6.51    0.28
  -2  -3 -15    6.71    0.28
  -2   3 -15    6.71    0.28
  -2   3 -15    6.94    0.27
   3  -4 -15    1.28    0.23
   3  -4 -15    1.60    0.22
   3   4 -15    1.60    0.15
   3   4 -15    1.53    0.15
   2   4 -15    8.90    0.31
   2   4 -15    9.03    0.32
   1   4 -15    0.80    0.12
   1   4 -15    0.94    0.12
   0   4 -15    9.11    0.32
   0   4 -15    9.02    0.32
  -1   4 -15    0.29    0.09
  -1   4 -15    0.38    0.09
  -2   4 -15    7.37    0.29
  -2   4 -15    7.22    0.28
   2   5 -15    0.15    0.07
   2   5 -15    0.14    0.08
   1   5 -15    0.52    0.10
   1   5 -15    0.49    0.10
   0   5 -15    2.36    0.18
   0   5 -15    2.38    0.19
  -1   5 -15   10.91    0.36
  -1   5 -15   10.84    0.36
  -2   5 -15    2.01    0.18
  -2   5 -15    2.04    0.18
   2   6 -15    4.06    0.23
   2   6 -15    4.02    0.23
   1   6 -15    7.14    0.29
   1   6 -15    7.33    0.29
   0   6 -15   -0.04    0.07
   0   6 -15   -0.03    0.06
  -1   6 -15    4.31    0.23
  -1   6 -15    4.35    0.24
   2   7 -15   -0.01    0.08
   2   7 -15   -0.05    0.07
   1   7 -15    0.46    0.10
   1   7 -15    0.38    0.10
   0   7 -15    5.00    0.25
   0   7 -15    5.27    0.26
  -1   7 -15    0.17    0.09
  -1   7 -15    0.27    0.09
   2   8 -15    0.72    0.12
   2   8 -15    0.88    0.13
   1   8 -15    0.04    0.08
   1   8 -15    0.06    0.08
   0   8 -15    1.53    0.16
   0   8 -15    1.91    0.17
  -1   8 -15    5.51    0.26
  -1   8 -15    5.49    0.27
   2   9 -15    0.01    0.07
   2   9 -15   -0.08    0.07
   1   9 -15    0.35    0.10
   1   9 -15    0.21    0.09
   0   9 -15   -0.09    0.07
   0   9 -15    0.09    0.08
  -1   9 -15    1.05    0.14
  -1   9 -15    1.13    0.14
   1  10 -15   -0.04    0.08
   1  10 -15    0.00    0.08
   0  10 -15    6.18    0.29
   0  10 -15    6.57    0.30
   2   0 -16    0.99    0.13
   2   0 -16    0.76    0.12
   1   0 -16    0.05    0.08
   1   0 -16    0.04    0.07
   0   0 -16    1.50    0.15
   0   0 -16    1.63    0.16
  -1   0 -16   -0.01    0.07
  -1   0 -16   -0.06    0.07
   2  -1 -16    7.85    0.30
   2  -1 -16    8.15    0.31
   2   1 -16    8.00    0.31
   2   1 -16    7.52    0.30
   1  -1 -16    4.00    0.23
   1  -1 -16    4.05    0.23
   1   1 -16    3.87    0.22
   1   1 -16    3.97    0.22
   0  -1 -16    1.26    0.14
   0  -1 -16    1.10    0.14
   0   1 -16    0.93    0.13
   0   1 -16    0.92    0.12
  -1  -1 -16    0.68    0.11
  -1  -1 -16    0.71    0.12
  -1   1 -16    0.83    0.12
  -1   1 -16    0.86    0.12
   2  -2 -16    6.11    0.27
   2  -2 -16    6.75    0.28
   2   2 -16    6.12    0.28
   2   2 -16    6.05    0.27
   1  -2 -16    4.49    0.24
   1  -2 -16    4.57    0.23
   1   2 -16    4.13    0.22
   1   2 -16    4.36    0.24
   0  -2 -16    0.23    0.09
   0  -2 -16    0.24    0.09
   0   2 -16    0.08    0.08
   0   2 -16    0.18    0.08
  -1  -2 -16    0.22    0.09
  -1  -2 -16    0.25    0.09
  -1   2 -16    0.34    0.09
  -1   2 -16    0.35    0.10
   2  -3 -16    0.31    0.10
   2  -3 -16    0.32    0.10
   2   3 -16    0.34    0.09
   2   3 -16    0.29    0.10
   1   3 -16    0.76    0.12
   1   3 -16    0.92    0.12
   0   3 -16   11.62    0.38
   0   3 -16   11.33    0.37
  -1  -3 -16    0.14    0.08
  -1  -3 -16    0.17    0.09
  -1   3 -16    0.26    0.09
  -1   3 -16    0.08    0.08
   2  -4 -16    8.51    0.33
   2  -4 -16    8.59    0.32
   2   4 -16    8.51    0.32
   2   4 -16    8.31    0.33
   1   4 -16    0.81    0.12
   1   4 -16    0.69    0.12
   0   4 -16    0.05    0.07
   0   4 -16    0.22    0.09
  -1   4 -16    1.44    0.15
  -1   4 -16    1.25    0.15
   2   5 -16   15.74    0.46
   2   5 -16   15.58    0.45
   1   5 -16    0.49    0.10
   1   5 -16    0.65    0.12
   0   5 -16    0.25    0.09
   0   5 -16    0.46    0.11
  -1   5 -16    1.53    0.15
  -1   5 -16    1.60    0.16
   2   6 -16    1.02    0.13
   2   6 -16    0.96    0.13
   1   6 -16    0.41    0.10
   1   6 -16    0.45    0.11
   0   6 -16    1.28    0.15
   0   6 -16    1.40    0.15
  -1   6 -16    0.46    0.10
  -1   6 -16    0.50    0.11
   1   7 -16   17.20    0.50
   1   7 -16   16.97    0.49
   0   7 -16    0.75    0.13
   0   7 -16    0.64    0.12
   1   8 -16    3.06    0.22
   1   8 -16    3.11    0.21
   0   8 -16   -0.01    0.08
   0   8 -16   -0.02    0.08
   1   0 -17    0.93    0.13
   1   0 -17    0.88    0.13
   0   0 -17    0.05    0.08
   0   0 -17   -0.15    0.06
   1  -1 -17   -0.03    0.07
   1  -1 -17    0.24    0.10
   1   1 -17    0.01    0.08
   1   1 -17   -0.14    0.06
   0  -1 -17   10.07    0.37
   0  -1 -17    9.95    0.36
   0   1 -17   10.10    0.36
   0   1 -17    9.83    0.36
   1  -2 -17   10.35    0.37
   1  -2 -17    9.85    0.36
   1   2 -17    9.72    0.35
   1   2 -17    9.66    0.36
   0  -2 -17    1.66    0.17
   0  -2 -17    1.57    0.16
   0   2 -17    1.05    0.13
   0   2 -17    1.28    0.15
   1  -3 -17    4.60    0.25
   1  -3 -17    4.63    0.26
   1   3 -17    5.10    0.26
   1   3 -17    4.95    0.25
   0  -3 -17    0.93    0.13
   0  -3 -17    0.92    0.13
   0   3 -17    0.92    0.13
   0   3 -17    0.87    0.13
   1   4 -17    4.47    0.25
   1   4 -17    4.52    0.25
   0   4 -17    0.99    0.14
   0   4 -17    0.95    0.14
   0   0   0    0.00    0.00
;
_shelx_hkl_checksum              2520
loop_
_space_group_symop_operation_xyz
'x, y, z'
'-x+1/2, y+1/2, -z+1/2'
'-x, -y, -z'
'x-1/2, -y-1/2, z-1/2'
loop_
_atom_site_label
_atom_site_type_symbol
_atom_site_fract_x
_atom_site_fract_y
_atom_site_fract_z
_atom_site_U_iso_or_equiv
_atom_site_adp_type
_atom_site_occupancy
_atom_site_site_symmetry_order
_atom_site_calc_flag
_atom_site_refinement_flags_posn
_atom_site_refinement_flags_adp
_atom_site_refinement_flags_occupancy
_atom_site_disorder_assembly
_atom_site_disorder_group
Cl1 Cl 0.70003(13) 0.07566(2) 0.41842(3) 0.03109(16) Uani 1 1 d . . . . .
F1 F 0.5929(3) 0.29319(6) 0.14780(6) 0.0314(3) Uani 1 1 d . . . . .
F2 F 0.1562(3) 0.50459(5) 0.38566(8) 0.0328(3) Uani 1 1 d . . . . .
O1 O 0.8710(4) 0.13780(7) 0.23403(8) 0.0295(3) Uani 1 1 d . . . . .
C1 C 0.5709(4) 0.24943(8) 0.33361(9) 0.0167(4) Uani 1 1 d . . . . .
C2 C 0.5140(4) 0.31424(8) 0.24935(9) 0.0191(4) Uani 1 1 d . . . . .
C3 C 0.3748(5) 0.40017(9) 0.26470(10) 0.0231(4) Uani 1 1 d . . . . .
H3 H 0.3363 0.4430 0.2062 0.028 Uiso 1 1 calc R U . . .
C4 C 0.2936(5) 0.42114(8) 0.36928(11) 0.0213(4) Uani 1 1 d . . . . .
C5 C 0.3447(5) 0.36100(9) 0.45645(10) 0.0215(4) Uani 1 1 d . . . . .
H5 H 0.2880 0.3781 0.5274 0.026 Uiso 1 1 calc R U . . .
C6 C 0.4811(4) 0.27496(8) 0.43749(9) 0.0195(4) Uani 1 1 d . . . . .
H6 H 0.5147 0.2322 0.4963 0.023 Uiso 1 1 calc R U . . .
C7 C 0.7284(5) 0.15960(8) 0.31169(10) 0.0199(4) Uani 1 1 d . . . . .
loop_
_atom_site_aniso_label
_atom_site_aniso_U_11
_atom_site_aniso_U_22
_atom_site_aniso_U_33
_atom_site_aniso_U_23
_atom_site_aniso_U_13
_atom_site_aniso_U_12
Cl1 0.0381(5) 0.02374(16) 0.03163(18) 0.00578(11) 0.00470(17) 0.00422(14)
F1 0.0453(9) 0.0364(4) 0.0138(3) 0.0002(3) 0.0087(3) 0.0048(4)
F2 0.0350(10) 0.0209(4) 0.0438(5) -0.0050(3) 0.0111(4) 0.0038(4)
O1 0.0324(11) 0.0294(5) 0.0278(5) -0.0071(4) 0.0080(5) 0.0030(5)
C1 0.0137(14) 0.0209(5) 0.0156(5) -0.0020(4) 0.0015(5) -0.0020(5)
C2 0.0175(14) 0.0255(6) 0.0145(5) -0.0012(4) 0.0033(5) -0.0028(5)
C3 0.0239(15) 0.0230(5) 0.0226(5) 0.0036(4) 0.0033(6) -0.0013(6)
C4 0.0160(14) 0.0195(5) 0.0288(6) -0.0040(4) 0.0040(6) -0.0015(5)
C5 0.0181(14) 0.0277(6) 0.0194(5) -0.0056(4) 0.0049(5) -0.0025(6)
C6 0.0178(14) 0.0256(5) 0.0153(5) -0.0004(4) 0.0027(5) -0.0013(5)
C7 0.0150(14) 0.0223(5) 0.0218(5) -0.0024(4) -0.0010(5) -0.0023(5)
loop_
_atom_type_symbol
_atom_type_description
_atom_type_scat_dispersion_real
_atom_type_scat_dispersion_imag
_atom_type_scat_source
C C 0.0033 0.0016 'International Tables Vol C Tables 4.2.6.8 and 6.1.1.4'
H H 0.0000 0.0000 'International Tables Vol C Tables 4.2.6.8 and 6.1.1.4'
O O 0.0106 0.0060 'International Tables Vol C Tables 4.2.6.8 and 6.1.1.4'
F F 0.0171 0.0103 'International Tables Vol C Tables 4.2.6.8 and 6.1.1.4'
Cl Cl 0.1484 0.1585 'International Tables Vol C Tables 4.2.6.8 and 6.1.1.4'
loop_
_geom_angle_atom_site_label_1
_geom_angle_atom_site_label_2
_geom_angle_atom_site_label_3
_geom_angle
_geom_angle_site_symmetry_1
_geom_angle_site_symmetry_3
C2 C1 C6 117.28(11) . .
C2 C1 C7 119.85(10) . .
C6 C1 C7 122.85(11) . .
F1 C2 C3 117.30(11) . .
F1 C2 C1 119.83(11) . .
C3 C2 C1 122.87(11) . .
C2 C3 C4 116.92(11) . .
C2 C3 H3 121.5 . .
C4 C3 H3 121.5 . .
F2 C4 C5 118.85(12) . .
F2 C4 C3 117.72(12) . .
C5 C4 C3 123.43(12) . .
C4 C5 C6 117.95(11) . .
C4 C5 H5 121.0 . .
C6 C5 H5 121.0 . .
C5 C6 C1 121.55(11) . .
C5 C6 H6 119.2 . .
C1 C6 H6 119.2 . .
O1 C7 C1 127.75(12) . .
O1 C7 Cl1 117.95(10) . .
C1 C7 Cl1 114.30(9) . .
loop_
_geom_bond_atom_site_label_1
_geom_bond_atom_site_label_2
_geom_bond_distance
_geom_bond_site_symmetry_2
Cl1 C7 1.7990(13) .
F1 C2 1.3451(13) .
F2 C4 1.3442(15) .
O1 C7 1.1874(16) .
C1 C2 1.3976(16) .
C1 C6 1.4019(15) .
C1 C7 1.4731(18) .
C2 C3 1.3774(19) .
C3 C4 1.3829(17) .
C3 H3 0.9500 .
C4 C5 1.3781(18) .
C5 C6 1.3829(18) .
C5 H5 0.9500 .
C6 H6 0.9500 .
loop_
_geom_torsion_atom_site_label_1
_geom_torsion_atom_site_label_2
_geom_torsion_atom_site_label_3
_geom_torsion_atom_site_label_4
_geom_torsion
_geom_torsion_site_symmetry_1
_geom_torsion_site_symmetry_2
_geom_torsion_site_symmetry_3
_geom_torsion_site_symmetry_4
C6 C1 C2 F1 -179.49(14) . . . .
C7 C1 C2 F1 2.1(2) . . . .
C6 C1 C2 C3 -0.2(2) . . . .
C7 C1 C2 C3 -178.62(15) . . . .
F1 C2 C3 C4 179.83(15) . . . .
C1 C2 C3 C4 0.6(3) . . . .
C2 C3 C4 F2 -179.76(15) . . . .
C2 C3 C4 C5 -0.1(3) . . . .
F2 C4 C5 C6 178.99(15) . . . .
C3 C4 C5 C6 -0.7(3) . . . .
C4 C5 C6 C1 1.0(2) . . . .
C2 C1 C6 C5 -0.6(2) . . . .
C7 C1 C6 C5 177.75(15) . . . .
C2 C1 C7 O1 13.3(3) . . . .
C6 C1 C7 O1 -164.96(17) . . . .
C2 C1 C7 Cl1 -167.58(12) . . . .
C6 C1 C7 Cl1 14.1(2) . . . .
