#------------------------------------------------------------------------------
#$Date: 2016-05-06 03:19:51 +0300 (Fri, 06 May 2016) $
#$Revision: 182609 $
#$URL: svn://www.crystallography.net/cod/cif/7/11/89/7118905.cif $
#------------------------------------------------------------------------------
#
# This file is available in the Crystallography Open Database (COD),
# http://www.crystallography.net/
#
# All data on this site have been placed in the public domain by the
# contributors.
#
data_7118905
loop_
_publ_author_name
'Ivanov, Daniil M.'
'Novikov, Alexander S.'
'Ananyev, Ivan V.'
'Kirina, Yulia V.'
'Kukushkin, Vadim Yu'
_publ_section_title
;
 Halogen bonding between metal centers and halocarbons.
;
_journal_issue                   32
_journal_name_full
'Chemical communications (Cambridge, England)'
_journal_page_first              5565
_journal_page_last               5568
_journal_paper_doi               10.1039/c6cc01107a
_journal_volume                  52
_journal_year                    2016
_chemical_formula_moiety         'C6 H12 Br2 N4 Pt'
_chemical_formula_sum            'C6 H12 Br2 N4 Pt'
_chemical_formula_weight         495.11
_space_group_crystal_system      monoclinic
_space_group_IT_number           14
_space_group_name_Hall           '-P 2ybc'
_space_group_name_H-M_alt        'P 1 21/c 1'
_symmetry_space_group_name_Hall  '-P 2ybc'
_symmetry_space_group_name_H-M   'P 1 21/c 1'
_atom_sites_solution_hydrogens   geom
_audit_creation_method           SHELXL-2014/6
_audit_update_record
;
2016-01-11 deposited with the CCDC.
2016-03-16 downloaded from the CCDC.
;
_cell_angle_alpha                90
_cell_angle_beta                 108.047(8)
_cell_angle_gamma                90
_cell_formula_units_Z            2
_cell_length_a                   5.7573(4)
_cell_length_b                   11.8165(6)
_cell_length_c                   9.2197(7)
_cell_measurement_reflns_used    72
_cell_measurement_temperature    100(2)
_cell_measurement_theta_max      25
_cell_measurement_theta_min      3
_cell_volume                     596.37(7)
_computing_cell_refinement       'Bruker SAINT'
_computing_data_collection       'Bruker APEX II'
_computing_data_reduction        'Bruker SAINT'
_computing_molecular_graphics    'Bruker SHELXTL'
_computing_publication_material  'Bruker SHELXTL'
_computing_structure_refinement  'SHELXL-97 (Sheldrick, 1997)'
_computing_structure_solution    'SHELXS-97 (Sheldrick, 1997)'
_diffrn_ambient_temperature      100(2)
_diffrn_measured_fraction_theta_full 1.000
_diffrn_measured_fraction_theta_max 0.909
_diffrn_measurement_device_type  'Bruker APEX II CCD area detector''
_diffrn_measurement_method       'omega scans'
_diffrn_radiation_type           MoK\a
_diffrn_radiation_wavelength     0.71073
_diffrn_reflns_av_R_equivalents  0.0480
_diffrn_reflns_av_unetI/netI     0.0544
_diffrn_reflns_Laue_measured_fraction_full 1.000
_diffrn_reflns_Laue_measured_fraction_max 0.909
_diffrn_reflns_limit_h_max       7
_diffrn_reflns_limit_h_min       -7
_diffrn_reflns_limit_k_max       16
_diffrn_reflns_limit_k_min       -16
_diffrn_reflns_limit_l_max       11
_diffrn_reflns_limit_l_min       -12
_diffrn_reflns_number            5150
_diffrn_reflns_point_group_measured_fraction_full 1.000
_diffrn_reflns_point_group_measured_fraction_max 0.909
_diffrn_reflns_theta_full        25.242
_diffrn_reflns_theta_max         30.120
_diffrn_reflns_theta_min         2.893
_exptl_absorpt_coefficient_mu    18.430
_exptl_absorpt_correction_T_max  0.238
_exptl_absorpt_correction_T_min  0.065
_exptl_absorpt_correction_type   multi-scan
_exptl_absorpt_process_details   SADABS
_exptl_crystal_colour            yellow
_exptl_crystal_density_diffrn    2.757
_exptl_crystal_description       prism
_exptl_crystal_F_000             448
_exptl_crystal_size_max          0.297
_exptl_crystal_size_mid          0.223
_exptl_crystal_size_min          0.114
_refine_diff_density_max         1.988
_refine_diff_density_min         -2.254
_refine_diff_density_rms         0.288
_refine_ls_extinction_method     none
_refine_ls_goodness_of_fit_ref   1.066
_refine_ls_hydrogen_treatment    constr
_refine_ls_matrix_type           full
_refine_ls_number_parameters     63
_refine_ls_number_reflns         1593
_refine_ls_number_restraints     0
_refine_ls_restrained_S_all      1.066
_refine_ls_R_factor_all          0.0465
_refine_ls_R_factor_gt           0.0328
_refine_ls_shift/su_max          0.000
_refine_ls_shift/su_mean         0.000
_refine_ls_structure_factor_coef Fsqd
_refine_ls_weighting_details
'w=1/[\s^2^(Fo^2^)+(0.0260P)^2^] where P=(Fo^2^+2Fc^2^)/3'
_refine_ls_weighting_scheme      calc
_refine_ls_wR_factor_gt          0.0639
_refine_ls_wR_factor_ref         0.0710
_reflns_Friedel_coverage         0.000
_reflns_number_gt                1304
_reflns_number_total             1593
_reflns_threshold_expression     I>2\s(I)
_cod_data_source_file            c6cc01107a2.cif
_cod_data_source_block           a
_cod_depositor_comments
'Adding full bibliography for 7118900--7118914.cif.'
_cod_database_code               7118905
_shelx_space_group_comment
;
The symmetry employed for this shelxl refinement is uniquely defined
by the following loop, which should always be used as a source of
symmetry information in preference to the above space-group names.
They are only intended as comments.
;
_shelx_estimated_absorpt_t_min   0.073
_shelx_estimated_absorpt_t_max   0.228
_shelxl_version_number           2014/6
_shelx_res_file
;
TITL 103-264-2779_jb71_a.res in P2(1)/c
REM Old TITL 103-264-2779_jb71 in P21/c #14
REM SHELXT solution in P2(1)/c
REM R1 0.049, Rweak 0.001, Alpha 0.019, Orientation as input
REM Formula found by SHELXT: C6 N4 Br2 Pt
CELL 0.71073 5.75732 11.816461 9.219729 90 108.0474 90
ZERR 2 0.000397 0.000555 0.000663 0 0.0083 0
LATT 1
SYMM -X,0.5+Y,0.5-Z
SFAC C H Br N Pt
UNIT 12 24 4 8 2
temp -173.00
size 0.297 0.223 0.114
L.S. 4
PLAN  20
BOND $H
fmap 2
acta
REM <olex2.extras>
REM <HklSrc "%.\\103-264-2779_jb71.hkl">
REM </olex2.extras>

WGHT    0.026000
FVAR       0.40239
PT1   5    0.000000    0.500000    0.500000    10.50000    0.01092    0.01136 =
         0.01182   -0.00076    0.00158    0.00000
BR1   3    0.185967    0.584612    0.322087    11.00000    0.01955    0.02164 =
         0.01653    0.00078    0.00687   -0.00276
N1    4    0.236939    0.575736    0.673024    11.00000    0.01853    0.02028 =
         0.01247   -0.00172    0.00345   -0.00316
N2    4    0.550435    0.637738    0.904576    11.00000    0.01854    0.01642 =
         0.01292   -0.00033    0.00052   -0.00641
C1    1    0.384220    0.607282    0.778991    11.00000    0.01739    0.01522 =
         0.01452    0.00574    0.00848    0.00178
C2    1    0.476808    0.651718    1.043012    11.00000    0.02527    0.02951 =
         0.01265    0.00025   -0.00145    0.00852
AFIX 137
H2A   2    0.411837    0.728161    1.044988    11.00000   -1.50000
H2B   2    0.618949    0.640358    1.133471    11.00000   -1.50000
H2C   2    0.350671    0.595933    1.042646    11.00000   -1.50000
AFIX   0
C3    1    0.768307    0.698567    0.898424    11.00000    0.02243    0.03130 =
         0.01822    0.00475   -0.00324   -0.01217
AFIX 137
H3A   2    0.813628    0.672869    0.809778    11.00000   -1.50000
H3B   2    0.903161    0.683645    0.991757    11.00000   -1.50000
H3C   2    0.734177    0.779963    0.889614    11.00000   -1.50000
AFIX   0
HKLF 4

REM  103-264-2779_jb71_a.res in P2(1)/c
REM R1 =  0.0328 for    1304 Fo > 4sig(Fo)  and  0.0465 for all    1593 data
REM     63 parameters refined using      0 restraints

END

WGHT      0.0266      0.0000

REM Highest difference peak  1.988,  deepest hole -2.254,  1-sigma level  0.288
Q1    1   0.8179  0.5921  0.6846  11.00000  0.05    1.99
Q2    1   0.1518  0.4826  0.4650  11.00000  0.05    1.95
Q3    1   0.0375  0.5011  0.6226  11.00000  0.05    1.46
Q4    1   0.0970  0.5413  0.4748  11.00000  0.05    1.44
Q5    1   0.0996  0.5302  0.3566  11.00000  0.05    1.42
Q6    1   0.3076  0.5121  0.7676  11.00000  0.05    1.01
Q7    1   0.7023  0.9077  0.8550  11.00000  0.05    0.99
Q8    1   0.3021  0.5012  0.5792  11.00000  0.05    0.99
Q9    1   0.0769  0.5034  0.7475  11.00000  0.05    0.96
Q10   1   0.1336  0.5984  0.2035  11.00000  0.05    0.95
Q11   1   0.2118  0.5802  0.4418  11.00000  0.05    0.94
Q12   1   0.2681  0.5583  0.4573  11.00000  0.05    0.94
Q13   1   0.0313  0.5011  0.9459  11.00000  0.05    0.92
Q14   1   0.4079  0.5972  0.3110  11.00000  0.05    0.86
Q15   1   0.2029  0.5224  0.6519  11.00000  0.05    0.86
Q16   1   0.3234  0.5515  0.2783  11.00000  0.05    0.85
Q17   1   0.7644  0.8440  0.9315  11.00000  0.05    0.85
Q18   1   0.5547  0.5859  1.1665  11.00000  0.05    0.85
Q19   1   0.4980  0.5757  0.9207  11.00000  0.05    0.84
Q20   1   0.6540  0.7848  0.8382  11.00000  0.05    0.84
;
_shelx_res_checksum              87498
_shelx_hkl_file
;
  -1   0   0 3107.86   48.03
  -1   0   0 2915.05   52.33
   1   0   0 3112.51   54.41
   1   0   0 3059.54   47.44
   2   0   0  388.26   23.80
   2   0   0  428.68   29.69
  -2   0   0  372.94   15.97
  -2   0   0  425.60   26.02
   3   0   0   41.70   16.39
  -3   0   0   27.48   10.89
   3   0   0   33.91   11.19
  -4   0   0 1819.10   80.87
   4   0   0 1897.66   93.51
   4   0   0 1825.92  106.97
  -5   0   0 2904.67  117.82
   5   0   0 3152.39  154.81
   5   0   0 2939.07  135.19
   6   0   0 1307.84  112.95
   6   0   0 1508.29  109.99
   7   0   0  281.52   52.67
   7   0   0  220.03   52.67
   7   0   0  270.78   56.20
  -1   1   0  436.67   22.39
  -1   1   0  480.86   29.25
   1  -1   0  483.95   28.53
  -1   1   0  446.60   18.56
  -1  -1   0  402.85   19.32
   1  -1   0  406.54   17.43
   1  -1   0  413.67   26.60
   1   1   0  411.17   19.69
   1  -1   0  403.31   18.08
   1  -1   0  411.08   22.88
  -1   1   0  393.04   18.26
  -1  -1   0  435.83   20.69
  -2  -1   0  144.17   17.29
  -2   1   0  109.48   13.52
  -2   1   0  148.09   16.71
   2  -1   0  135.94   13.65
   2  -1   0  145.93   18.73
   2   1   0  125.85   14.99
   2  -1   0  193.47   26.58
  -2   1   0  133.56   12.69
   2   1   0  156.03   18.15
  -3   1   0   17.55    8.19
  -3   1   0   18.29    5.74
   3   1   0   14.58    8.28
   3  -1   0   15.34    9.33
   3  -1   0   10.09    9.45
   3  -1   0   17.56    6.17
  -3  -1   0   24.20    9.39
  -4   1   0  140.25   22.21
   4   1   0  185.37   29.42
  -4  -1   0  163.82   25.29
   4  -1   0  155.06   27.85
   4  -1   0  187.91   34.90
   5   1   0   61.44   23.44
  -5  -1   0   32.52   16.18
  -5   1   0   50.18   16.08
   5  -1   0   35.91   16.26
   5  -1   0   46.79   21.82
   5   1   0   38.85   18.96
   6   1   0   78.10   26.55
   6  -1   0  -15.82   19.91
   6  -1   0   16.69   14.07
   6  -1   0   61.63   25.32
  -6  -1   0   67.57   20.49
   6   1   0   43.67   28.53
   7  -1   0   32.53   22.39
   7   1   0    6.50   15.11
   7  -1   0   23.75   25.42
   7   1   0   47.91   31.04
   0  -2   0 6340.33   75.04
   0   2   0 6186.86   73.75
   1   2   0 4861.14   53.73
  -1   2   0 4916.14   97.54
   1  -2   0 4627.00   66.33
  -1   2   0 4515.13   67.72
  -1   2   0 4743.28   77.17
   1  -2   0 4740.22   54.18
  -1  -2   0 4778.73   64.90
  -1   2   0 4639.13   80.41
  -1  -2   0 4832.58   77.97
   1  -2   0 4965.81   78.38
   1   2   0 4802.49   77.01
   2  -2   0 1088.88   36.93
  -2   2   0 1094.12   47.70
   2  -2   0 1181.77   54.76
  -2   2   0 1177.35   40.35
   2   2   0 1133.17   50.50
  -2  -2   0 1201.85   49.38
   2  -2   0 1216.73   67.25
  -2   2   0 1157.49   42.69
   2  -2   0 1137.51   62.73
  -3  -2   0 1018.65   53.91
   3  -2   0  926.31   68.09
  -3   2   0 1013.24   44.70
   3  -2   0  892.78   38.10
   3   2   0 1022.71   58.20
   3  -2   0  941.38   68.91
  -3   2   0  851.94   44.73
   3  -2   0  921.70   57.78
   4  -2   0 1171.05   75.84
   4   2   0 1184.38   73.66
   4  -2   0 1236.40   89.56
  -4   2   0 1119.29   59.43
  -4  -2   0 1256.10   70.34
   4  -2   0 1125.96   85.06
   5  -2   0 1752.40  116.76
   5  -2   0 1785.72  105.49
   5  -2   0 1608.25  113.61
  -5   2   0 1639.39   80.25
   5   2   0 1669.28  102.19
  -5  -2   0 1933.13  100.62
   6   2   0 1118.60  107.89
   6   2   0  973.29   89.84
  -6  -2   0  981.90   82.54
   6  -2   0 1066.94   90.11
   6  -2   0 1073.37  100.40
   6  -2   0  913.46   99.06
   7   2   0  405.87   67.01
   7  -2   0  269.14   55.45
   7   2   0  365.30   68.69
   0  -3   0    0.60    2.90
   0  -3   0    6.76    4.88
   0   3   0   -3.74    4.83
   0  -3   0    2.80    2.28
   1   3   0 3634.72   77.11
   1   3   0 3411.60   55.50
  -1   3   0 3591.66   65.30
  -1   3   0 3393.79   77.01
   1   3   0 3530.52   61.48
  -1  -3   0 3482.28   74.27
  -1   3   0 3407.73   61.64
  -1  -3   0 3431.21   54.58
   1  -3   0 3730.94   78.84
  -2   3   0  761.96   39.71
   2  -3   0  723.59   52.82
  -2   3   0  718.47   44.80
   2  -3   0  692.41   33.91
  -2  -3   0  751.71   42.28
   2  -3   0  751.79   40.04
  -3   3   0  296.48   27.14
  -3   3   0  275.80   23.24
   3  -3   0  282.90   20.42
   3  -3   0  352.87   43.51
   3  -3   0  321.16   33.95
  -3  -3   0  315.58   32.10
   3   3   0  323.49   34.07
   4  -3   0  779.04   71.92
  -4   3   0  721.54   43.31
  -4  -3   0  826.46   59.37
   4  -3   0  617.31   33.80
   4   3   0  879.54   63.98
  -4   3   0  775.49   47.64
   4  -3   0  668.49   56.72
   5  -3   0   46.73   20.71
   5  -3   0   36.23   17.36
   5   3   0   24.28   17.20
  -5  -3   0   55.40   18.44
   6  -3   0  105.90   31.69
   6   3   0  182.14   50.89
  -6  -3   0  181.72   37.07
   7  -3   0   63.00   24.98
   7   3   0   78.88   33.82
   0  -4   0  125.06   10.01
   0  -4   0  136.68   14.34
   0   4   0  124.84   15.56
   0  -4   0  122.73   14.10
  -1  -4   0 3139.52   52.79
   1   4   0 3282.29   54.87
  -1   4   0 3322.11   64.57
  -1   4   0 3175.22   83.17
   1   4   0 3340.50   71.81
  -1  -4   0 3282.42   79.14
   2   4   0 2912.46   63.82
  -2   4   0 2789.80   83.75
  -2  -4   0 2872.63   87.59
   2  -4   0 2798.15   65.34
  -2   4   0 2710.78   93.90
  -3   4   0 3582.87  102.94
  -3  -4   0 3685.55  113.23
   3   4   0 3541.12  114.14
   3  -4   0 3451.97  103.74
   3  -4   0 3391.67  141.38
  -4   4   0 1252.29   47.71
   4   4   0 1272.28   79.08
  -4   4   0 1327.88   68.54
  -4  -4   0 1408.78   79.88
   4  -4   0 1360.04   98.80
   4  -4   0 1231.57   74.62
   5  -4   0  378.19   56.83
   5  -4   0  326.31   44.68
   5   4   0  383.43   49.68
  -5  -4   0  426.65   50.13
   6  -4   0  307.69   57.80
   6   4   0  303.01   51.12
  -6  -4   0  388.41   55.15
   7   4   0  570.51   79.83
   7  -4   0  495.63   81.15
   7   4   0  580.49   96.60
   0   5   0    5.46    4.08
   0  -5   0    0.46    3.01
   0   5   0    4.15    2.59
   0  -5   0    6.13    5.50
  -1  -5   0  504.54   22.76
   1  -5   0  515.51   26.93
   1   5   0  486.16   31.64
  -1   5   0  470.01   35.64
  -1   5   0  529.13   27.63
   1   5   0  503.25   21.93
  -1  -5   0  507.94   34.37
  -2   5   0  105.91   18.02
  -2  -5   0  131.31   20.66
   2  -5   0  151.45   14.83
   2   5   0  107.87   15.22
  -2   5   0  107.93   17.97
   3   5   0   75.87   20.63
  -3  -5   0   61.32   17.12
  -3   5   0   46.50   12.75
   3  -5   0   45.81   10.04
  -4  -5   0  186.01   31.01
   4   5   0  203.22   33.17
   4  -5   0  225.90   30.82
  -4   5   0  189.13   28.14
  -5  -5   0   -5.38   10.54
   5  -5   0    3.97   17.31
   5  -5   0   -2.73   10.06
   5   5   0    0.73   15.04
  -6  -5   0   55.68   22.96
   6  -5   0   28.42   23.30
   6   5   0   25.33   20.31
   7  -5   0  -48.60   27.21
   7   5   0  -12.10   25.94
   7   5   0   16.04   17.78
   0   6   0   83.03    8.51
   0  -6   0   83.71   14.04
   0  -6   0  114.63   12.08
   0   6   0   91.85   16.26
  -1   6   0  793.61   50.55
  -1  -6   0  798.49   46.61
   1  -6   0  818.84   36.09
   1  -6   0  851.20   37.48
   1   6   0  807.36   45.97
  -1   6   0  786.69   35.89
  -1  -6   0  762.51   29.81
   1   6   0  853.66   29.11
  -2   6   0 5382.53  124.49
   2   6   0 5277.02  115.56
   2  -6   0 5449.42   93.07
  -2   6   0 5017.94  133.19
  -2  -6   0 5167.42  132.44
  -3   6   0 3515.86  119.01
  -3  -6   0 3624.49  125.51
  -4  -6   0 1409.36   86.27
   4   6   0 1211.02   82.00
  -4   6   0 1320.49   78.57
  -5  -6   0   78.57   22.71
   5   6   0   82.90   26.88
   6   6   0  179.99   41.27
  -6  -6   0  193.94   41.96
  -7  -6   0  548.33   76.32
   0  -7   0   10.57    5.69
   0  -7   0    1.69    3.25
   0   7   0    0.34    1.89
   0   7   0    5.75    8.97
   1  -7   0  505.12   29.92
  -1   7   0  431.62   39.74
   1  -7   0  468.54   30.12
   1   7   0  479.79   38.62
   1   7   0  487.45   22.47
  -1  -7   0  438.20   36.86
   2   7   0   86.46   17.82
  -2   7   0   85.92   19.06
  -2  -7   0  102.00   21.04
  -3   7   0   22.65   12.93
  -3  -7   0    4.81   10.87
  -4  -7   0  152.80   31.11
  -4   7   0  147.97   28.99
   4   7   0  211.40   36.59
   5   7   0   61.89   23.78
  -5  -7   0   45.75   22.43
   6   7   0   41.36   22.59
  -6  -7   0   67.37   26.16
   0  -8   0  817.15   36.27
   0  -8   0  759.65   46.10
   0   8   0  724.48   53.40
   0   8   0  727.09   26.45
   1   8   0  828.57   55.63
  -1   8   0  795.67   58.31
   1  -8   0  817.93   39.37
  -1  -8   0  827.81   53.15
   1  -8   0  783.48   42.22
   1   8   0  785.79   28.63
   2   8   0 2799.98  103.87
  -2  -8   0 2748.02  108.02
  -2   8   0 2717.66  114.01
   2  -8   0 2789.64   72.58
  -3   8   0 1876.40   99.64
  -3  -8   0 1900.31   99.72
   4   8   0  718.15   67.06
  -4  -8   0  685.82   65.91
  -4   8   0  763.02   66.98
  -5  -8   0  345.59   52.06
   5   8   0  389.47   55.25
  -6  -8   0  380.49   60.14
   6   8   0  405.87   65.04
   0   9   0   -0.40    2.10
   0   9   0    6.96    8.34
   0  -9   0   -0.03    4.21
   0  -9   0   -4.89    7.98
   1  -9   0  679.25   42.20
  -1  -9   0  647.50   50.25
   1   9   0  612.16   52.53
  -1   9   0  637.50   56.10
   2   9   0  281.67   36.58
  -2   9   0  240.33   35.98
  -2  -9   0  245.55   34.87
   2  -9   0  212.25   21.82
  -3  -9   0   44.26   18.62
  -3   9   0   26.21   15.29
  -4  -9   0  466.40   56.83
   4   9   0  417.49   53.33
  -4   9   0  399.24   52.93
   5   9   0   -4.60   20.41
  -5  -9   0   28.70   13.21
  -6  -9   0   65.26   31.03
   0  10   0 2403.01  111.80
   0 -10   0 2242.57   91.26
   0 -10   0 2321.90   65.40
  -1 -10   0 1625.56   84.52
   1 -10   0 1613.86   70.55
  -1 -10   0 1713.29   61.85
  -1  10   0 1764.88   99.80
   1  10   0 1709.84   94.31
  -2  10   0  310.36   44.47
  -2 -10   0  371.59   45.85
   2  10   0  356.47   43.94
   2 -10   0  364.33   31.17
  -3 -10   0  448.90   54.17
  -3  10   0  473.05   56.04
   4  10   0  485.60   60.83
  -4 -10   0  559.57   66.11
  -4  10   0  516.19   62.45
   5  10   0 1120.40  100.22
  -5 -10   0 1042.81   96.02
   0 -11   0   -7.19   11.21
   0  11   0   -2.69   10.77
   1 -11   0   96.21   18.27
   1  11   0   89.34   23.19
  -1 -11   0  113.25   24.65
  -1  11   0  119.25   27.56
  -2 -11   0   55.04   20.84
  -2  11   0   31.16   17.62
  -3  11   0   49.20   22.17
  -3 -11   0   55.05   22.20
   4  11   0   62.27   24.71
  -4  11   0   38.30   17.65
  -4 -11   0   45.50   20.05
  -5 -11   0   18.95   15.95
   5  11   0  -12.11   18.42
   0  12   0 2400.02  128.12
   0 -12   0 2154.50  100.36
   1 -12   0 1315.12   73.23
  -1  12   0 1318.78   96.50
  -1 -12   0 1310.82   84.87
   1  12   0 1345.75   95.38
  -2  12   0  290.62   46.94
  -2 -12   0  229.59   41.28
  -3  12   0  127.39   30.49
  -3 -12   0   84.54   27.82
   3  12   0   87.60   26.57
  -4 -12   0  579.79   72.52
   4  12   0  655.78   75.20
  -4  12   0  609.93   74.44
   0 -13   0   10.91   11.32
   0  13   0   17.53   17.58
   1 -13   0   98.23   22.54
  -1  13   0   50.11   22.52
   1  13   0   79.87   25.72
  -1 -13   0  102.70   25.66
  -2  13   0   37.19   22.72
  -2 -13   0   32.06   16.87
  -3 -13   0    5.63   14.07
  -3  13   0   -9.90   12.69
   4  13   0   63.84   27.21
   0  14   0 1156.59   99.94
   0 -14   0 1031.20   78.70
  -1 -14   0  607.70   63.97
  -1  14   0  583.08   73.44
  -2 -14   0  346.66   51.46
  -2  14   0  427.63   63.33
  -3 -14   0  261.65   49.19
   3  14   0  224.74   42.73
  -3  14   0  361.79   59.46
   0 -15   0   -1.29    9.33
  -1 -15   0   66.91   22.41
  -1  15   0  142.97   35.86
  -2 -15   0  124.66   33.66
  -1 -16   0  328.48   52.67
   2  16   0  486.55   62.30
   7   0  -1   15.30   19.25
   7   0  -1   12.46   21.18
   7   0  -1    3.85   16.27
   6   0  -1   -0.28   17.07
   6   0  -1   19.70   18.82
   5   0  -1    9.83   12.84
   5   0  -1    9.63    9.74
  -5   0   1    6.99    5.97
   4   0  -1    4.31    7.27
  -4   0   1   -1.77    2.81
   4   0  -1    0.62   11.27
  -4   0   1    0.71    6.59
  -3   0   1   -2.30    3.21
  -3   0   1   -0.61    4.31
   3   0  -1   -2.33    9.99
   3   0  -1    0.40    4.66
  -2   0   1    5.68    3.41
   1   0  -1    3.56    2.21
   1   0  -1   -0.22    2.76
  -1   0   1    2.02    1.86
  -1   0   1    7.00    3.65
  -1   0  -1   17.09    8.52
   1   0   1   11.96    6.85
  -1   0  -1   11.09    7.46
   1   0   1   29.23   11.74
   2   0   1    6.36    6.60
   2   0   1    0.07    3.05
  -2   0  -1    3.78    5.17
   2   0   1    3.99    5.41
  -3   0  -1    6.36    9.15
   3   0   1    3.84    3.81
   3   0   1    0.24    7.27
   3   0   1   -4.71    8.67
   4   0   1    1.99    9.64
  -4   0  -1  -16.33   13.26
   4   0   1   -8.10   13.04
  -5   0  -1  -13.07   11.24
   5   0   1  -12.65   12.84
   5   0   1   14.95   19.79
   6   0   1   20.31   25.70
   6   0   1  -21.90   19.59
   7   0   1    8.46   19.70
   7   0   1    7.19   15.04
   7   1  -1   78.06   33.86
   7  -1  -1   76.76   34.58
   7   1  -1   81.30   29.90
   7  -1  -1   83.00   33.68
   6  -1  -1  505.11   69.55
   6   1  -1  555.82   74.86
   6   1  -1  654.29   68.41
   6  -1  -1  610.09   64.73
   6  -1  -1  584.99   76.15
   5   1  -1 2416.00  140.70
   5  -1  -1 2281.59  107.64
  -5   1   1 2300.03   90.17
   5  -1  -1 2045.40  127.43
   5   1  -1 2171.74  105.86
  -5  -1   1 2223.58   95.74
  -4   1   1 3733.16   96.60
   4   1  -1 3658.14  115.78
   4  -1  -1 3558.49  113.34
  -4   1   1 3732.35   79.03
   4  -1  -1 3605.38  151.84
  -4  -1   1 3809.11  105.82
  -3  -1   1 1936.06   64.21
  -3   1   1 1816.78   52.55
  -3   1   1 1778.91   51.08
   3  -1  -1 1684.42   62.76
   3   1  -1 1783.25   67.46
   3  -1  -1 1837.50   95.31
  -2  -1   1   40.42    8.93
   2  -1  -1   34.46    7.14
  -2   1   1   38.53    5.54
   2  -1  -1   42.94   13.22
   2   1  -1   36.49    9.23
   1  -1  -1 2451.02   45.96
  -1  -1   1 2516.74   48.20
  -1   1   1 2391.65   67.13
   1  -1  -1 2290.24   65.82
   1   1  -1 2433.76   47.49
   1  -1  -1 2470.22   49.78
   1  -1  -1 2332.95   63.92
  -1   1   1 2470.24   49.84
  -1   1   1 2435.63   45.32
   0   1   1 4442.39   70.85
   0  -1  -1 4466.39   64.24
   1  -1   1 9500.61  152.40
   1  -1   1 9158.53  138.36
   1  -1   1 9582.74  124.07
  -1   1  -1 8760.52  119.86
  -1   1  -1 9698.58  131.61
   1   1   1 9057.82  127.06
  -1  -1  -1 9202.69  129.75
  -1   1  -1 9404.67  158.63
  -1  -1  -1 9022.71  126.29
   1  -1   1 9999.00  126.09
   1   1   1 9172.66  131.61
   2   1   1 3225.35   97.46
   2  -1   1 3212.04  102.17
   2  -1   1 3300.34   73.95
   2  -1   1 3156.70  107.15
   2  -1   1 2920.45   90.28
  -2  -1  -1 3343.78   93.72
  -2   1  -1 3224.98   93.57
  -3  -1  -1  747.76   53.08
  -3   1  -1  618.41   46.88
   3   1   1  780.18   57.54
   3  -1   1  745.00   38.65
   3  -1   1  740.18   57.66
   3  -1   1  721.88   57.91
   4   1   1  182.18   34.79
  -4  -1  -1  234.11   34.82
   4  -1   1  278.20   41.11
   4   1   1  271.30   39.70
   4  -1   1  188.66   33.77
  -4   1  -1  158.22   26.74
  -5  -1  -1 1040.11   80.35
   5  -1   1  912.39   82.18
   5   1   1  968.01   84.86
   5  -1   1  960.04   84.29
  -5   1  -1  974.77   72.16
   5   1   1 1036.59   90.61
   5  -1   1  936.05   83.01
   6  -1   1 1338.96  109.89
  -6  -1  -1 1273.81   96.99
   6  -1   1 1215.22  105.43
   6   1   1 1335.80  113.53
   6  -1   1 1302.13  111.16
   6   1   1 1250.17  108.67
   7  -1   1  929.73  101.10
   7   1   1  874.75  101.79
   7   1   1  904.03  104.74
   7  -1   1  814.13   98.83
   7   2  -1   -1.32   14.81
   7   2  -1   33.52   20.80
   7  -2  -1  -14.25   22.11
  -6  -2   1  346.20   46.46
   6   2  -1  287.51   55.55
   6   2  -1  321.13   49.26
   6  -2  -1  247.74   50.43
   6  -2  -1  283.76   55.94
   6  -2  -1  268.55   43.91
   5  -2  -1  127.24   25.94
   5  -2  -1   93.31   29.69
  -5  -2   1  160.43   26.94
  -5   2   1  106.10   16.99
   5   2  -1  166.88   30.58
   5  -2  -1  169.61   36.88
  -5   2   1  114.34   19.34
   4  -2  -1  166.81   25.53
  -4   2   1  269.77   24.82
  -4   2   1  221.59   22.07
  -4  -2   1  270.56   30.79
   4  -2  -1  257.92   42.05
   4   2  -1  241.05   31.22
   4  -2  -1  203.93   37.45
   3  -2  -1  885.22   47.45
   3  -2  -1 1003.07   71.01
  -3   2   1 1011.78   44.34
   3  -2  -1  959.26   70.54
  -3   2   1  903.73   35.43
  -3  -2   1  958.43   49.17
   2  -2  -1   31.47   11.09
  -2  -2   1   13.59    6.24
   2  -2  -1   21.28    5.85
   2   2  -1   23.10    7.45
   1   2  -1 2188.16   46.61
   1  -2  -1 2237.97   51.07
  -1   2   1 2247.58   43.35
  -1   2   1 2296.84   52.47
  -1   2   1 2243.89   69.75
  -1  -2   1 2291.87   48.24
   0   2   1  390.51   20.36
   0  -2  -1  370.89   20.33
   0   2   1  402.35   18.17
   1  -2   1   13.76    5.77
   1  -2   1   11.34    6.30
  -1   2  -1   18.39    7.03
  -1   2  -1   14.96    5.73
  -1   2  -1    9.77    8.53
   1   2   1   20.54    7.47
  -1  -2  -1   23.68    7.41
   1   2   1   15.51    6.75
  -1   2  -1   22.29    6.77
   1  -2   1   18.29    6.53
   2  -2   1  834.52   54.71
  -2  -2  -1  854.98   47.67
  -2   2  -1  804.89   44.09
   2  -2   1  813.22   51.83
   2  -2   1  831.04   42.80
   2  -2   1  722.73   46.80
   2   2   1  853.90   49.62
  -3   2  -1  300.05   32.79
   3  -2   1  279.90   36.45
   3  -2   1  287.20   37.46
  -3  -2  -1  304.86   35.49
   3  -2   1  306.60   38.83
   3   2   1  326.82   36.84
   4  -2   1   86.42   24.29
   4  -2   1   78.10   23.50
  -4   2  -1  106.33   22.05
  -4  -2  -1   87.71   22.67
   4   2   1  129.40   27.72
   4  -2   1  114.21   26.02
   5  -2   1   96.88   25.24
   5  -2   1  133.84   32.72
   5  -2   1  137.98   36.53
  -5  -2  -1   95.96   25.43
  -5   2  -1  132.33   25.17
   5   2   1  146.06   35.32
   5   2   1  180.60   42.20
   6  -2   1   29.31   13.86
   6   2   1   57.03   25.65
  -6  -2  -1   61.39   23.76
   6  -2   1   34.25   18.50
   6  -2   1   28.37   16.80
   6   2   1   87.07   31.89
   7  -2   1  -12.22   23.75
   7   2   1   38.55   25.70
   7  -3  -1  524.03   77.60
   7   3  -1  646.45   95.35
   7   3  -1  616.36   77.12
   6  -3  -1  494.82   70.35
   6   3  -1  584.72   80.37
   6   3  -1  566.05   64.61
  -6  -3   1  549.93   59.25
  -5   3   1 1136.07   59.89
  -5  -3   1 1130.36   73.82
   5  -3  -1  957.28   90.24
   5  -3  -1 1030.75   73.75
   5   3  -1 1132.82   78.82
  -4   3   1 1486.53   63.82
  -4  -3   1 1440.97   72.15
   4  -3  -1 1297.36   93.80
  -4   3   1 1255.53   45.52
   4  -3  -1 1351.50   71.16
   4   3  -1 1483.09   78.97
  -3  -3   1 1342.62   61.03
   3  -3  -1 1368.65   85.99
  -3   3   1 1405.04   58.13
   3  -3  -1 1294.87   57.99
   2   3  -1 3234.71   77.17
  -2   3   1 2993.94   49.35
   2  -3  -1 3270.72  112.66
   2  -3  -1 3010.45   56.63
  -2   3   1 3228.41   81.34
  -2  -3   1 3177.15   52.51
  -2  -3   1 3261.84   82.70
   1  -3  -1 2318.24   37.96
   1  -3  -1 2380.45   56.53
  -1  -3   1 2264.32   52.86
  -1  -3   1 2374.59   51.93
  -1   3   1 2389.49   57.37
  -1   3   1 2297.61   44.32
   1   3  -1 2311.24   50.55
   0   3   1 5756.89   84.27
   0  -3  -1 5654.83   84.56
   0  -3   1 5737.46   94.55
   1  -3   1 1465.48   46.62
   1  -3   1 1492.71   54.90
  -1  -3  -1 1489.07   55.26
  -1   3  -1 1378.90   53.01
  -1   3  -1 1532.42   59.72
  -1   3  -1 1506.39   56.36
   1   3   1 1393.42   51.50
   2  -3   1 2551.52  101.17
   2   3   1 2489.78   85.47
   2  -3   1 2380.69   85.45
  -2   3  -1 2501.11   70.01
   2  -3   1 2419.73   84.37
  -2  -3  -1 2482.07   84.48
   3   3   1 1403.40   76.31
  -3  -3  -1 1332.34   72.13
   3  -3   1 1329.46   81.94
  -3   3  -1 1332.15   61.67
   3  -3   1 1178.82   62.23
   3  -3   1 1361.01   78.99
   4   3   1 1800.70  100.51
   4  -3   1 1703.92  104.01
  -4  -3  -1 1704.25   93.71
   4  -3   1 1837.11  102.08
  -4   3  -1 1698.76   78.05
   5  -3   1  738.46   71.48
   5  -3   1  698.36   74.58
  -5  -3  -1  822.52   74.34
   5   3   1  788.01   76.38
  -6  -3  -1  651.63   73.98
   6   3   1  673.75   81.44
   6  -3   1  526.20   70.65
   6   3   1  651.03   85.64
   6  -3   1  570.36   68.27
   7   3   1  351.05   65.90
   7  -3   1  319.66   61.67
   7   3   1  394.29   73.78
   7   4  -1   20.31   26.02
   7  -4  -1  -11.29   17.37
   7   4  -1  -16.38   20.94
  -6  -4   1  200.11   36.29
   6   4  -1  184.84   38.09
   6  -4  -1  170.56   43.08
   5  -4  -1  102.46   21.57
   5   4  -1  117.84   28.39
  -5   4   1  119.62   23.47
  -5  -4   1  136.88   28.20
   5  -4  -1  120.84   32.71
  -4  -4   1  116.16   21.84
   4  -4  -1   93.77   18.31
  -4   4   1  107.51   19.00
   4  -4  -1   94.13   28.27
   4   4  -1  120.00   23.75
   3  -4  -1  816.00   40.68
  -3   4   1  798.55   48.36
  -3  -4   1  846.70   51.15
   3  -4  -1  798.59   68.67
  -3   4   1  808.71   34.43
   2   4  -1   66.22   12.01
  -2  -4   1   84.34   10.56
  -2   4   1   73.35   14.57
  -2  -4   1   56.70   12.82
  -2   4   1   61.15    8.94
  -1   4   1  728.72   34.18
  -1  -4   1  713.89   33.69
   1  -4  -1  767.25   34.42
  -1   4   1  768.00   40.84
   1  -4  -1  727.23   26.53
   1   4  -1  719.26   29.21
  -1  -4   1  769.68   32.43
   0   4  -1  897.87   44.26
   0   4   1  845.83   35.14
   0  -4  -1  809.23   36.43
  -1  -4  -1   12.29    7.41
  -1   4  -1    8.87    4.94
  -1   4  -1    9.94    5.84
   1   4   1   -1.06    4.83
  -1  -4  -1    8.88    3.47
  -1   4  -1    0.85    2.83
   2   4   1  663.53   45.89
  -2   4  -1  648.53   43.63
   2   4   1  629.59   27.93
   2  -4   1  629.22   40.18
  -2  -4  -1  653.96   45.56
   3   4   1  381.72   40.70
   3  -4   1  294.08   32.67
   3  -4   1  304.46   42.59
  -3  -4  -1  331.93   37.04
   3  -4   1  349.16   37.40
   4   4   1   36.75   13.83
   4  -4   1   69.52   24.07
  -4  -4  -1  109.49   24.42
  -4   4  -1   74.30   16.12
   4  -4   1   45.42   18.55
   5  -4   1  269.96   43.56
   5  -4   1  255.78   49.32
  -5  -4  -1  330.78   49.30
   5   4   1  234.01   42.76
   6   4   1   28.25   25.75
  -6  -4  -1   45.48   21.10
   6  -4   1  -18.97   18.19
   7   4   1   25.79   25.46
   7  -4   1    2.23   19.40
   7   5  -1 1558.09  124.76
   7   5  -1 1508.01  153.06
   7  -5  -1 1118.64  121.02
   6  -5  -1  637.14   86.98
  -6  -5   1  830.15   76.25
   6   5  -1  706.80   74.43
   5  -5  -1  192.53   44.90
   5   5  -1  142.05   31.82
  -5  -5   1  183.57   32.61
  -5   5   1  216.73   31.29
   4  -5  -1  176.26   39.29
  -4  -5   1  185.58   29.84
  -4   5   1  176.99   26.23
   4  -5  -1  184.52   23.26
   4   5  -1  178.60   31.00
  -3   5   1 1982.99   55.55
  -3  -5   1 2154.27   87.36
  -3   5   1 2223.59   87.95
  -2  -5   1 7201.59  108.40
   2   5  -1 6424.92  112.27
  -2   5   1 6556.41  141.89
  -2   5   1 6509.92  112.16
  -2  -5   1 6799.15  137.61
   1  -5  -1 3393.82   76.63
  -1   5   1 3306.14   93.96
   1   5  -1 3282.38   65.51
  -1  -5   1 3494.25   90.84
   1  -5  -1 3275.52   64.78
  -1  -5   1 3471.18   72.34
   0   5   1  927.27   46.26
   0  -5  -1  994.14   44.22
   0   5  -1  903.61   50.12
  -1  -5  -1  390.14   32.70
  -1   5  -1  404.60   35.49
  -1   5  -1  369.74   21.59
  -1  -5  -1  394.85   17.54
   1   5   1  412.42   29.28
  -2  -5  -1 1272.06   67.11
   2   5   1 1319.53   66.37
   2  -5   1 1373.08   57.12
  -2   5  -1 1239.91   64.67
   2   5   1 1300.98   47.65
  -3  -5  -1 3110.36  116.85
   3   5   1 3396.07  123.63
  -4  -5  -1 2381.37  116.75
   4  -5   1 2283.69  106.91
   4   5   1 2281.37  116.16
   5   5   1  842.02   80.95
   5  -5   1  861.77   73.08
  -5  -5  -1  883.31   80.07
  -6  -5  -1  205.78   45.31
   6   5   1  299.51   56.98
   7   6  -1   12.43   22.18
  -7  -6   1   49.42   24.07
   6   6  -1  -25.50   21.17
  -6  -6   1    0.97   10.93
   5   6  -1    4.31   14.75
  -5   6   1   -2.49    7.65
  -5  -6   1  -16.47   14.70
  -4  -6   1   -4.16   10.13
  -4   6   1   -3.86    6.56
  -3  -6   1    5.58   10.63
  -3   6   1    4.01    3.99
  -3   6   1   -0.95    7.51
  -2   6   1   52.03   14.50
   2   6  -1   44.04   10.21
  -2   6   1   53.94   10.44
  -2  -6   1   43.77   13.03
   2  -6  -1   39.37    6.67
  -1  -6   1   13.19    7.76
   1   6  -1    5.29    6.69
   1  -6  -1   10.33    4.87
   1   6  -1   14.62    4.98
   1  -6  -1   14.67    6.29
  -1   6   1    9.96    7.63
   0  -6  -1    0.92    3.46
   0   6   1    6.30    7.31
   0  -6  -1    4.35    7.10
   0  -6   1    2.20    1.81
   0   6  -1   -1.73    9.13
  -1  -6  -1   47.63    5.98
   1   6   1   59.31   13.30
  -1   6  -1   42.59   13.56
  -1  -6  -1   39.77   11.52
  -1   6  -1   42.62    7.87
   2  -6   1   11.15    5.65
  -2   6  -1   17.31    9.46
  -2  -6  -1   10.99    8.03
   2   6   1   13.75    6.91
   2   6   1   38.00   13.85
   3  -6   1   32.94   13.26
   3   6   1   28.70    8.32
   3   6   1   14.40   10.87
  -3  -6  -1   44.67   17.00
  -4  -6  -1   13.50   15.48
   4   6   1    9.84    9.14
  -5  -6  -1  -26.19   18.57
   5   6   1   -6.50   21.14
  -6  -6  -1   32.10   22.69
   6   6   1   41.39   21.09
  -7  -7   1  790.43   88.40
  -6  -7   1  815.90   80.95
   6   7  -1  706.75   79.03
  -5   7   1  256.13   38.14
  -5  -7   1  271.08   43.39
   5   7  -1  213.70   40.17
  -4   7   1  248.33   35.48
  -4  -7   1  204.33   34.44
  -3   7   1 1582.83   85.06
  -3  -7   1 1641.79   84.76
  -2  -7   1 3652.34  114.14
  -2   7   1 3299.84  117.33
  -2   7   1 3619.07   84.46
   2   7  -1 3498.81   85.66
   2  -7  -1 3540.99   71.02
   1   7  -1 3958.34   76.74
   1  -7  -1 3895.11   89.27
  -1   7   1 3957.34  121.20
  -1  -7   1 4035.67  110.60
   1  -7  -1 3951.79   91.85
   1   7  -1 3808.61  118.32
   0   7  -1  595.10   46.96
   0   7  -1  521.86   29.99
   0  -7  -1  558.31   34.64
   0  -7  -1  509.02   37.27
   0  -7   1  570.13   21.41
   0   7   1  586.56   45.19
   1   7   1  663.72   45.77
  -1   7  -1  675.06   52.59
  -1   7  -1  589.58   29.75
  -1  -7  -1  633.96   46.43
  -1  -7  -1  483.31   19.13
   2   7   1  637.45   42.78
  -2   7  -1  684.40   55.47
   2   7   1  636.02   50.17
  -2  -7  -1  589.77   30.38
  -2  -7  -1  688.56   54.86
  -3  -7  -1 2760.74  120.14
   3   7   1 2800.86   87.50
  -3   7  -1 2811.54  118.60
   3   7   1 2961.43  122.54
   4   7   1 1694.40  104.61
  -4  -7  -1 1811.93  109.82
  -5  -7  -1  718.43   75.98
   5   7   1  841.84   82.97
  -6  -7  -1  100.05   36.85
   6   7   1  100.24   36.91
   6   8  -1  189.96   42.32
  -6  -8   1  121.48   36.12
  -5  -8   1   54.17   25.02
  -5   8   1   49.15   19.29
   5   8  -1  121.50   30.19
  -4  -8   1  137.20   29.90
  -4   8   1  101.33   24.56
  -3  -8   1  633.02   56.01
  -3   8   1  565.32   53.53
  -2   8   1   14.62   11.22
   2  -8  -1    4.37    3.47
  -2  -8   1    8.97    9.68
   2   8  -1   21.48    8.29
  -2   8   1   24.83    8.63
   1   8  -1  446.60   43.87
   1  -8  -1  460.17   32.87
   1   8  -1  426.01   26.08
   1  -8  -1  509.79   35.54
  -1  -8   1  494.23   41.06
  -1   8   1  460.59   20.54
  -1  -8   1  479.53   23.66
  -1   8   1  455.93   44.21
   0   8  -1  335.46   38.44
   0  -8   1  362.79   33.03
   0   8  -1  354.53   25.27
   0  -8  -1  406.63   31.00
   0   8   1  378.05   39.24
   0  -8  -1  409.41   35.83
  -1  -8  -1   -2.43    7.94
   1   8   1    6.64    7.08
  -1   8  -1    3.50    7.78
  -2   8  -1  389.63   44.49
  -2  -8  -1  475.73   47.88
   2   8   1  425.15   38.66
   2   8   1  441.74   43.65
   3   8   1  127.65   21.66
   3   8   1  165.55   30.37
  -3   8  -1  122.41   26.57
  -3  -8  -1  167.44   32.16
   4   8   1   35.62   16.70
  -4  -8  -1   86.35   25.82
   5   8   1  142.13   36.20
  -5  -8  -1  135.03   34.47
  -6  -8  -1   63.85   28.91
  -6  -9   1  649.16   77.62
   6   9  -1  748.59   85.39
  -5  -9   1  519.60   63.44
   5   9  -1  665.03   71.90
  -5   9   1  530.91   62.21
  -4   9   1  838.42   72.73
  -4  -9   1  830.10   74.45
  -3  -9   1  989.08   74.26
  -3   9   1 1060.17   78.45
  -2  -9   1  958.45   65.77
  -2   9   1 1021.68   74.43
   2   9  -1  985.02   46.51
   2  -9  -1 1057.23   49.84
   1  -9  -1 1219.76   55.35
   1   9  -1 1216.43   76.66
  -1  -9   1 1299.19   69.33
  -1   9   1 1225.96   77.97
   1  -9  -1 1289.21   61.00
   1   9  -1 1185.75   43.92
  -1  -9   1 1258.02   38.66
   0  -9  -1 1428.16   59.68
   0   9  -1 1355.46   82.53
   0   9  -1 1370.47   50.28
   0  -9  -1 1408.28   70.45
   0  -9   1 1487.76   69.89
   0   9   1 1311.88   77.85
   1   9   1 1366.97   76.32
  -1   9  -1 1342.37   83.45
  -1  -9  -1 1355.42   76.56
  -2  -9  -1 1556.83   89.98
  -2   9  -1 1534.20   93.42
   2   9   1 1471.10   79.16
   2   9   1 1630.60   86.88
  -3  -9  -1  692.22   65.55
   3   9   1  696.56   63.99
   4   9   1  617.61   67.02
  -4  -9  -1  688.94   73.70
  -5  -9  -1  585.10   73.74
   5   9   1  435.05   63.59
  -5  10   1   73.59   25.46
  -5 -10   1   90.26   29.40
   5  10  -1   66.37   25.05
  -4 -10   1   74.26   24.92
  -4  10   1   45.16   19.83
  -3  10   1  260.47   41.32
  -3 -10   1  270.91   40.15
   2 -10  -1   -0.54    5.72
  -2  10   1   -4.88   13.75
   2  10  -1    1.05    4.33
  -2 -10   1   -7.53   12.47
   1 -10  -1  157.69   21.55
  -1 -10   1  182.54   28.29
  -1  10   1  158.42   29.31
   1  10  -1  174.49   17.20
   1 -10  -1  156.14   23.93
   0  10  -1  298.19   23.41
   0 -10  -1  302.99   35.76
   0  10   1  300.34   40.13
   0 -10   1  266.73   30.89
   0  10  -1  247.56   37.64
   0 -10  -1  243.07   25.75
  -1  10  -1   16.64   15.98
   1  10   1   14.38    9.08
   1 -10   1   28.91   11.89
  -1 -10  -1    6.21    9.09
  -2 -10  -1  151.47   32.09
   2  10   1  206.46   32.35
  -2  10  -1  212.30   38.06
   2  10   1  208.52   32.31
   2 -10   1  237.80   26.26
   3  10   1   84.63   25.34
  -3 -10  -1  105.11   28.44
  -4 -10  -1   23.70   18.21
   4  10   1   -5.71   14.66
  -5 -10  -1  154.63   40.68
   5  10   1   32.02   17.55
  -5 -11   1 1130.80  103.83
   5  11  -1 1211.68  105.65
  -5  11   1 1130.39   99.13
  -4  11   1 1462.35  107.17
  -4 -11   1 1463.07  105.92
  -3 -11   1  708.17   68.19
  -3  11   1  634.00   68.28
  -2  11   1  183.16   34.76
  -2 -11   1  157.41   29.37
   1 -11  -1  287.16   34.09
  -1 -11   1  290.12   37.23
   1 -11  -1  297.78   29.49
  -1  11   1  341.46   46.66
   0 -11   1 1705.47   82.47
   0  11   1 1932.65  106.34
   0  11  -1 1677.85  102.97
   0 -11  -1 1802.08   71.66
   0 -11  -1 1780.05   90.26
   1  11   1 1907.55  105.50
  -1  11  -1 1941.72  112.89
  -1 -11  -1 2030.51   81.45
  -1 -11  -1 2090.21  104.93
   1 -11   1 1836.13   81.76
   2  11   1 1497.90   94.06
  -2  11  -1 1605.54  106.55
   2  11   1 1442.03   89.46
   2 -11   1 1470.20   68.25
  -2 -11  -1 1614.00   99.90
  -3 -11  -1  191.32   38.66
   3  11   1  218.72   39.10
  -4 -11  -1  105.87   32.90
   4  11   1  202.80   42.35
  -5  12   1    3.94   16.14
   4  12  -1   26.97   19.02
  -4 -12   1   19.03   17.14
  -4  12   1  -28.39   21.82
  -3 -12   1   38.39   22.25
  -3  12   1   -3.57   14.48
  -2  12   1    3.44   11.11
  -2 -12   1   -6.02   11.85
  -1  12   1   -5.56   12.53
   1 -12  -1    1.46    7.41
  -1 -12   1   13.54   12.79
   0  12   1    4.00   10.55
   0 -12  -1   16.32   10.91
   0 -12   1   -7.01   11.10
   1 -12   1    4.69    8.66
  -1 -12  -1  -10.72   12.87
   1  12   1   -1.05   13.26
  -1  12  -1   -9.18   13.48
   2  12   1    2.52    9.93
   2  12   1  -13.19   12.29
  -2 -12  -1   -6.73   13.66
  -3 -12  -1   -6.10   12.80
   3  12   1  -10.81   17.72
  -4 -12  -1  -26.95   19.37
   4  12   1   26.04   18.49
   4  13  -1  953.62   90.02
  -4  13   1  857.31   91.55
  -4 -13   1  915.06   90.50
  -3 -13   1  415.18   57.96
  -3  13   1  461.14   64.26
  -2  13   1  112.86   32.94
  -2 -13   1  153.19   30.65
  -1 -13   1  392.88   48.57
  -1  13   1  474.82   61.88
   1 -13  -1  410.13   45.98
   0 -13  -1 1044.84   77.34
   0  13   1  970.44   85.77
   0 -13   1  985.24   71.14
   1  13   1 1578.40  110.51
  -1 -13  -1 1593.42  100.83
   1 -13   1 1493.57   82.08
   2  13   1  443.46   58.40
  -2 -13  -1  656.48   70.34
   2  13   1  547.94   60.03
   3  13   1  368.21   54.63
  -3 -13  -1  292.26   50.66
  -3  14   1  125.56   38.11
  -3 -14   1  124.32   36.46
  -2  14   1  -14.46   19.87
  -2 -14   1   15.17   14.09
  -1 -14   1   68.45   22.86
  -1  14   1   57.39   24.82
   0 -14   1  141.37   27.34
   0  14   1  162.86   37.46
   0 -14  -1  142.18   30.70
   1  14   1   25.80   14.68
  -1 -14  -1    1.88   12.61
   1  14   1   -8.55   16.11
   2  14   1  130.34   30.82
  -2 -14  -1  164.55   39.08
  -3 -14  -1   80.50   27.79
   3  14   1   43.38   22.59
  -2 -15   1  524.59   65.01
  -2  15   1  579.50   77.88
  -1  15   1  495.27   69.31
  -1 -15   1  530.35   63.10
   0  15   1  448.49   68.37
   0 -15   1  413.68   50.97
   0 -15  -1  357.47   50.49
  -1 -15  -1  378.11   55.66
   1  15   1  481.55   71.32
  -2 -15  -1  303.56   52.12
   2  15   1  397.35   55.44
  -1 -16   1   85.76   30.07
   0  16   1   13.42   15.16
  -1 -16  -1   12.46   13.70
   7   0  -2  177.85   45.39
   7   0  -2  248.95   55.66
   6   0  -2   99.18   33.51
   6   0  -2   88.85   25.23
   5   0  -2  955.90   63.59
  -5   0   2  979.76   55.00
   5   0  -2  854.04   83.14
   4   0  -2 3713.76  104.82
   4   0  -2 3533.64  150.19
  -4   0   2 3751.34   91.44
  -3   0   2 4258.70   80.77
   3   0  -2 4138.25  142.09
   2   0  -2 3032.92   73.85
   2   0  -2 3177.68  102.12
   1   0  -2  533.59   30.94
   1   0  -2  493.96   23.76
  -1   0   2  514.34   25.14
  -1   0   2  508.70   24.68
   1   0  -2  500.65   24.65
   0   0   2  804.13   41.32
   0   0  -2  811.79   41.81
   0   0   2  838.02   41.80
   0   0  -2  742.61   38.93
   1   0   2 2845.72   97.52
  -1   0  -2 3017.04   99.75
  -1   0  -2 2823.52  100.52
   1   0   2 2905.32  104.53
   2   0   2 8226.71  195.12
  -2   0  -2 8300.26  181.12
  -3   0  -2 2386.93  107.31
   3   0   2 2495.33  119.76
   3   0   2 2239.55  105.34
   3   0   2 2288.21   72.29
   4   0   2  596.36   59.61
   4   0   2  606.19   66.78
  -4   0  -2  606.55   58.66
   5   0   2    8.32   13.59
   5   0   2   22.14   15.68
  -5   0  -2   -8.47   16.80
   6   0   2  700.82   81.70
   6   0   2  786.92   85.71
   6   0   2  721.19   87.21
   7   0   2 1011.79  111.13
   7   0   2  842.95   96.59
   7   1  -2   39.97   21.55
   7  -1  -2   32.63   23.34
   7   1  -2  -17.79   25.89
   7  -1  -2   32.71   23.18
   6  -1  -2    3.25   11.64
   6  -1  -2   -2.76   10.27
   6   1  -2   13.30    9.92
   6  -1  -2   -1.79   15.90
   6   1  -2    2.78   13.15
   5   1  -2  147.15   25.35
   5  -1  -2  106.70   31.69
   5   1  -2  142.64   33.30
  -5   1   2  147.92   17.63
  -5  -1   2  140.55   22.17
   5  -1  -2  139.30   24.57
  -5   1   2  176.18   22.71
  -4   1   2   81.02   12.26
   4  -1  -2  109.01   17.73
   4  -1  -2   40.20   16.88
   4   1  -2   58.90   21.02
  -4  -1   2  122.93   18.92
  -4   1   2   98.10   14.43
   4   1  -2  110.37   20.69
  -3  -1   2  115.13   15.04
   3  -1  -2  108.51   23.86
   3  -1  -2  129.09   15.47
   3   1  -2  122.10   19.69
  -3   1   2  116.97   11.88
   2   1  -2  466.11   29.36
  -2  -1   2  447.69   26.92
   2  -1  -2  469.30   40.94
   2  -1  -2  400.07   28.34
   2  -1  -2  449.60   28.37
   1   1  -2  248.26   18.40
  -1   1   2  243.33   19.04
  -1   1   2  249.98   16.77
   1  -1  -2  237.90   16.88
   1   1  -2  227.10   14.32
   1  -1  -2  256.75   18.60
  -1  -1   2  231.10   18.20
   1  -1  -2  222.41   20.41
  -1   1   2  272.62   22.68
  -1  -1   2  244.83   15.29
  -1   1   2  235.35   18.20
   1  -1  -2  257.75   16.69
   0  -1  -2  755.04   42.15
   0  -1  -2  820.34   46.95
   0   1  -2  810.24   37.96
   0   1  -2  825.12   37.66
   0   1   2  770.40   43.44
   0  -1   2  855.86   39.30
   0   1   2  876.82   47.51
   1  -1   2  575.41   30.98
   1   1   2  574.98   44.30
   1  -1   2  505.45   42.83
  -1   1  -2  515.85   39.00
   1  -1   2  588.00   29.54
  -1  -1  -2  534.65   42.33
   1  -1   2  546.62   41.41
  -1   1  -2  509.01   44.20
   1   1   2  499.24   39.94
   2  -1   2   26.87   14.93
  -2  -1  -2    7.66    8.42
   2   1   2   19.16   12.77
  -2   1  -2   10.74    9.45
   2  -1   2   18.83    7.88
   3  -1   2  320.90   37.72
   3   1   2  230.41   37.92
  -3   1  -2  273.96   36.41
   3   1   2  184.25   19.06
   3  -1   2  217.37   36.92
  -3  -1  -2  240.11   35.48
   4  -1   2   81.39   25.04
  -4   1  -2   82.44   18.36
   4  -1   2   42.53   17.61
   4   1   2   87.24   26.52
   4   1   2   89.11   24.58
  -4  -1  -2   58.28   19.17
   5   1   2   16.53   16.07
   5  -1   2   -1.33   15.30
   5  -1   2    2.73   14.27
   5  -1   2   18.46   17.96
  -5  -1  -2   21.94   18.94
   5   1   2   53.35   22.55
   6  -1   2   24.59   18.95
  -6  -1  -2  126.54   33.18
   6   1   2   96.19   33.04
   6  -1   2   23.84   16.93
   6  -1   2   70.58   28.75
   6   1   2   48.40   22.50
   7  -1   2  -71.51   30.31
   7   1   2   -1.14   14.85
   7   1   2    3.41   16.67
   7  -1   2 -106.00   37.44
   7   1   2  -69.04   30.64
   7  -2  -2  388.84   65.53
   7  -2  -2  447.99   75.85
   7   2  -2  391.34   56.34
   7   2  -2  380.46   71.27
   6  -2  -2  294.41   55.53
   6  -2  -2  352.20   62.34
   6   2  -2  294.68   56.58
  -6  -2   2  352.62   42.26
   6   2  -2  360.85   47.78
   5  -2  -2  746.95   80.59
  -5  -2   2  879.17   58.20
  -5   2   2  838.10   46.91
   5  -2  -2  809.92   58.19
   5   2  -2  802.43   62.58
   5  -2  -2  826.71   82.96
   4  -2  -2 2235.42   78.22
  -4   2   2 2497.71   77.59
   4  -2  -2 2244.82  123.50
   4  -2  -2 2264.50  123.57
  -4   2   2 2391.54   59.75
  -4  -2   2 2438.64   85.60
  -3   2   2 3516.67   51.02
   3  -2  -2 3438.22   72.39
   3  -2  -2 3511.68  135.69
   3  -2  -2 3606.97  137.55
  -3  -2   2 3669.74   89.99
   3   2  -2 3546.14   99.86
  -2   2   2 2268.91   42.51
   2  -2  -2 2516.45   72.29
   2  -2  -2 2428.68   92.69
  -2  -2   2 2509.45   61.01
   2   2  -2 2407.64   68.11
   2  -2  -2 2408.41   65.22
  -1  -2   2 1205.69   43.23
   1  -2  -2 1098.49   41.43
   1   2  -2 1107.33   28.02
  -1   2   2 1152.64   33.78
   1   2  -2 1131.19   40.90
   1  -2  -2 1067.11   42.98
  -1   2   2 1124.44   42.70
  -1   2   2 1028.81   50.86
  -1  -2   2 1208.90   30.15
   1  -2  -2 1063.45   31.02
  -1   2   2 1024.30   39.03
   1  -2  -2 1096.46   32.20
   0  -2  -2 1026.13   51.13
   0  -2  -2  975.73   41.23
   0   2   2  947.86   45.72
   0   2   2  982.65   46.42
   0  -2   2 1169.56   44.97
  -1  -2  -2 4628.38  119.08
   1  -2   2 4348.25  106.59
   1  -2   2 4534.99  116.84
  -1   2  -2 4738.66   89.09
  -1   2  -2 4331.10  102.52
   1   2   2 4611.32  116.67
  -2  -2  -2 4289.13  128.43
   2  -2   2 4223.34  116.98
   2  -2   2 4029.56  136.10
   2   2   2 4045.96  127.70
  -2   2  -2 4038.23  116.95
   3  -2   2 2043.64   97.21
   3  -2   2 2318.04  105.83
   3   2   2 2227.82  108.87
  -3  -2  -2 2214.64  103.78
   3  -2   2 2056.76  109.40
  -3   2  -2 2015.86   92.41
  -4   2  -2  511.91   51.55
   4  -2   2  507.08   57.36
   4  -2   2  497.11   58.95
   4  -2   2  601.33   61.22
  -4  -2  -2  492.94   55.11
   4   2   2  516.84   60.59
   5  -2   2  376.30   56.89
   5  -2   2  428.50   57.24
  -5   2  -2  445.80   50.02
   5   2   2  505.90   67.01
  -5  -2  -2  472.17   60.39
   5  -2   2  439.91   58.62
   5   2   2  491.42   66.30
   6   2   2  692.15   87.42
   6  -2   2  610.25   76.66
  -6  -2  -2  662.73   79.46
   6   2   2  856.57   93.01
   6  -2   2  657.90   76.27
   7   2   2  641.11   90.69
   7  -2   2  499.98   73.36
   7   2   2  627.25   91.41
   7  -3  -2   83.07   33.97
   7   3  -2   70.28   28.57
   7   3  -2  112.01   43.55
   6   3  -2   34.03   24.70
   6   3  -2   15.74   15.34
   6  -3  -2   14.07   20.30
  -6  -3   2   22.62   11.95
  -5   3   2  459.22   38.59
   5   3  -2  472.26   48.88
  -5  -3   2  519.26   46.89
   5  -3  -2  377.00   56.93
   5  -3  -2  426.81   41.47
  -4   3   2  163.73   21.92
  -4  -3   2  152.21   24.03
   4  -3  -2  158.03   21.13
   4  -3  -2  215.60   40.24
  -3  -3   2  260.77   27.66
   3  -3  -2  261.46   20.14
   3  -3  -2  303.07   41.09
   3   3  -2  290.57   29.79
   2  -3  -2  580.12   36.33
   2  -3  -2  489.58   45.49
   2   3  -2  596.30   34.75
   1   3  -2  525.44   28.91
  -1   3   2  511.86   25.10
  -1   3   2  555.09   32.05
  -1  -3   2  578.44   31.72
   1  -3  -2  543.37   31.16
   1  -3  -2  547.17   21.94
  -1   3   2  561.48   25.39
   1  -3  -2  519.22   32.61
  -1  -3   2  551.96   17.90
  -1   3   2  562.61   22.56
   0   3   2  858.49   39.90
   0  -3  -2  851.30   44.45
   0   3   2  865.96   41.54
   0  -3  -2  811.56   34.82
   1   3   2 1439.14   62.69
   1  -3   2 1541.26   61.37
  -1   3  -2 1546.79   56.72
  -1  -3  -2 1482.53   67.00
  -2   3  -2    6.42    7.95
   2   3   2    0.70    6.66
  -2  -3  -2   15.75   11.21
   2  -3   2   -0.17    9.85
  -3   3  -2  644.17   49.90
   3  -3   2  697.53   62.22
   3   3   2  730.86   63.09
  -3  -3  -2  707.23   60.46
   3  -3   2  581.24   56.48
   4  -3   2  384.38   49.60
  -4   3  -2  415.25   43.43
  -4  -3  -2  507.19   57.03
   4  -3   2  337.83   46.60
   4   3   2  435.99   54.97
   5  -3   2   63.62   24.05
   5  -3   2   57.30   18.33
  -5  -3  -2   69.64   25.83
   5   3   2   95.04   31.42
  -6  -3  -2  284.59   52.14
   6   3   2  294.92   60.31
   6  -3   2  245.29   48.82
   6  -3   2  279.64   52.53
   6   3   2  346.97   62.71
   7   3   2   24.88   22.17
   7   4  -2  563.73   70.19
   7  -4  -2  478.59   77.29
   7   4  -2  683.92  103.12
   6  -4  -2 1197.53  113.87
   6   4  -2 1325.51   94.97
  -6  -4   2 1357.40   89.74
   5   4  -2 1235.15   81.06
  -5   4   2 1171.20   66.03
   5  -4  -2  994.75   94.81
  -5  -4   2 1119.90   72.58
  -4  -4   2  570.09   46.72
  -4   4   2  559.89   43.85
   4  -4  -2  533.86   63.58
   4  -4  -2  584.38   38.27
  -3  -4   2  777.00   32.76
   3  -4  -2  664.95   25.24
   3  -4  -2  832.20   70.51
  -3  -4   2  829.37   49.81
  -3   4   2  816.85   49.71
   3   4  -2  831.42   49.99
   2  -4  -2 2026.61   70.57
   2   4  -2 2063.33   65.92
  -1   4   2 5368.69   81.16
   1  -4  -2 5147.87   97.40
  -1  -4   2 5113.54   46.18
   1  -4  -2 5211.95  101.82
  -1   4   2 5134.90   70.85
   1   4  -2 5128.20   93.88
  -1   4   2 5369.13   65.93
   0   4   2 4144.40   84.41
   0  -4  -2 4165.16   98.18
   1   4   2 1637.21   66.39
  -1  -4  -2 1740.55   73.13
   2  -4   2  415.57   40.16
  -2  -4  -2  493.35   44.87
   2   4   2  377.04   38.61
  -3  -4  -2 1557.74   89.59
   3  -4   2 1416.46   85.67
   3   4   2 1406.21   85.89
  -3   4  -2 1448.04   70.73
  -4   4  -2 1309.94   72.41
   4  -4   2 1450.43   94.94
   4  -4   2 1326.50   97.85
   4   4   2 1431.41   99.52
  -4  -4  -2 1452.66   97.13
   5  -4   2 1940.31  128.87
   5  -4   2 1716.15  112.83
  -5  -4  -2 1784.39  119.74
   5   4   2 1933.16  130.65
  -6  -4  -2  448.63   67.42
   6   4   2  312.89   66.49
   6  -4   2  304.33   57.98
   6   4   2  480.00   74.21
   7   4   2  272.37   72.18
   7   5  -2   18.98   18.54
   7  -5  -2   16.64   21.96
   6  -5  -2  -13.26   16.48
  -6  -5   2   -3.70   12.40
   5  -5  -2   74.91   31.10
  -5  -5   2   56.84   18.81
   5   5  -2   54.26   19.79
  -5   5   2   27.20   13.55
  -4   5   2   41.07   14.29
  -4  -5   2   40.52   13.70
  -3  -5   2    4.45    2.86
  -3   5   2   16.18    9.07
   3   5  -2    8.95    7.87
  -3  -5   2    2.94    8.10
   2  -5  -2  254.85   26.24
   2  -5  -2  255.65   20.32
   2   5  -2  241.98   23.41
  -1   5   2   17.22    4.75
  -1   5   2   25.61    4.59
   1   5  -2   12.94    5.88
  -1   5   2   18.51    5.35
   1  -5  -2   21.64    8.23
   1  -5  -2   29.27    7.96
   0   5   2   61.12   10.79
   0  -5  -2   47.28   12.58
   1   5   2  338.08   31.10
  -1  -5  -2  312.16   32.38
  -2  -5  -2    9.40    9.80
   2   5   2   -6.35   10.20
   3   5   2  137.40   14.92
  -3  -5  -2  185.79   33.06
   3   5   2  167.07   30.03
   4   5   2   64.07   20.21
  -4  -5  -2   75.83   27.29
   4  -5   2   62.46   22.50
  -5  -5  -2   18.24   16.15
   5   5   2   54.83   27.67
   5  -5   2   47.15   23.45
  -6  -5  -2   49.11   25.75
   6   5   2   31.02   24.96
   7   6  -2  793.94   86.37
  -7  -6   2  848.34   85.55
   6   6  -2 1630.84  112.72
  -6  -6   2 1509.12  103.32
  -5   6   2 1268.62   79.29
   5   6  -2 1135.03   83.89
  -5  -6   2 1166.61   83.06
  -4   6   2  213.62   31.28
  -4  -6   2  225.92   32.62
  -3   6   2  241.82   32.48
  -3  -6   2  252.01   32.06
   3   6  -2  268.07   29.58
   2   6  -2 1960.56   67.71
  -2   6   2 1998.68   85.29
   2  -6  -2 2033.76   76.31
   2  -6  -2 2036.68   59.44
  -2  -6   2 2173.20   85.52
  -1   6   2 5054.14   79.80
   1  -6  -2 5014.54  111.43
   1  -6  -2 4953.21  103.82
   1   6  -2 5006.06   99.44
  -1   6   2 4809.16   56.80
   0   6   2 5433.64  107.83
   0  -6  -2 5310.01  120.65
  -1   6  -2  554.10   27.09
   1   6   2  599.11   43.13
  -1  -6  -2  535.64   20.82
  -1  -6  -2  600.82   46.88
   2   6   2  103.66   21.32
   2   6   2  145.96   19.27
   3   6   2  460.25   31.00
  -3  -6  -2  560.92   56.21
   3   6   2  505.57   53.82
   4   6   2 2395.78  130.71
  -4  -6  -2 2585.04  135.21
  -5  -6  -2 1816.05  126.26
   5   6   2 1734.59  126.98
  -6  -6  -2  401.61   65.28
   6   6   2  555.59   81.15
  -7  -7   2   -1.19   14.28
   6   7  -2   20.40   20.44
  -6  -7   2  -16.62   18.81
  -5   7   2   84.90   21.03
  -5  -7   2  126.53   29.64
   5   7  -2   74.87   22.68
  -4  -7   2   44.03   15.93
  -4   7   2   52.09   16.55
  -3   7   2  116.38   24.09
   3   7  -2  100.74   18.60
  -3  -7   2   75.95   16.92
  -2   7   2   72.06   10.11
  -2   7   2  100.55   20.86
  -2   7   2   80.93    7.87
   2  -7  -2   80.98   12.91
   2   7  -2   91.73   15.64
   2  -7  -2   97.01   18.17
  -2  -7   2  103.95   20.46
   1  -7  -2   86.68   15.73
   1   7  -2   74.65   13.18
   1  -7  -2   93.96   15.54
  -1   7   2   92.68   20.20
  -1   7   2   51.31    5.32
  -1   7   2   85.08   11.78
   0  -7  -2  149.66   22.05
   0   7   2  164.33   24.99
   0   7   2  158.95   19.71
  -1  -7  -2  186.50   27.48
   1   7   2  162.50   23.71
  -1   7  -2  189.83   16.03
  -1  -7  -2  144.68    9.05
   1   7   2  223.65   28.00
   2   7   2    5.54    8.68
   2   7   2   -0.20    7.23
  -2  -7  -2   10.27   12.97
   3   7   2   52.72   12.27
  -3  -7  -2   82.17   20.83
   4   7   2   98.49   27.75
  -4  -7  -2   66.43   28.74
  -5  -7  -2   23.94   20.24
   5   7   2   17.53   19.49
  -6  -7  -2   20.14   21.39
  -6  -8   2  842.60   83.42
  -6   8   2  690.18   69.05
   6   8  -2  662.31   76.31
  -5   8   2  725.07   67.04
  -5  -8   2  824.66   76.35
  -4  -8   2  640.37   60.00
  -4   8   2  678.17   62.24
  -3  -8   2  672.09   55.85
   3   8  -2  745.36   49.32
  -3   8   2  761.57   63.43
  -2  -8   2 1388.70   75.77
   2  -8  -2 1256.76   63.91
   2  -8  -2 1293.75   54.95
  -2   8   2 1258.23   77.93
   2   8  -2 1235.36   55.36
   1   8  -2 2058.53   67.20
   1  -8  -2 2135.90   80.38
  -1   8   2 1959.58   95.66
   1  -8  -2 2043.00   76.03
   0   8  -2 2157.53   76.07
   0  -8  -2 2171.43   87.78
   0   8   2 2348.64   98.82
   0  -8  -2 2216.13   83.38
   0   8   2 2244.27   77.94
  -1  -8  -2 1305.12   74.83
   1   8   2 1276.76   71.53
  -1   8  -2 1081.87   38.52
   1   8   2 1234.20   67.36
   2   8   2  632.42   48.98
   2   8   2  709.18   58.46
  -2  -8  -2  649.06   59.42
   3   8   2  643.00   62.91
  -3  -8  -2  465.80   56.39
  -4  -8  -2 1287.00  101.32
   4   8   2 1436.58  105.89
  -5  -8  -2  798.95   89.26
   5   8   2  958.83   98.51
  -6   9   2  -24.87   16.86
  -6  -9   2    3.15   20.52
   6   9  -2   27.21   24.81
  -5   9   2  208.60   37.86
  -5  -9   2  174.41   36.74
  -4  -9   2   94.81   23.88
  -4   9   2   99.13   27.29
   3   9  -2  103.08   19.33
  -3   9   2  107.48   26.10
  -3  -9   2   56.36   15.05
   2   9  -2  624.86   39.95
  -2  -9   2  666.42   54.31
  -2   9   2  636.97   59.01
   2  -9  -2  646.51   47.28
   2  -9  -2  667.05   43.16
  -1   9   2   61.43   19.86
   1  -9  -2   51.22   14.15
   1   9  -2   34.99   10.09
   1  -9  -2   63.40   14.95
  -1  -9   2   69.65   18.08
   0  -9  -2  283.54   34.39
   0  -9  -2  310.05   32.43
   0   9  -2  276.77   27.89
   0   9   2  307.56   38.15
   0   9   2  389.26   34.28
   1   9   2  587.37   52.29
  -1  -9  -2  638.28   55.94
   1   9   2  629.02   50.12
   2   9   2    2.88    7.25
  -2  -9  -2   18.10   14.03
   2   9   2   15.76    9.12
  -3  -9  -2  344.89   50.08
   3   9   2  367.12   49.14
  -4  -9  -2  212.85   44.01
   4   9   2   88.37   29.53
  -5  -9  -2   33.88   26.00
   5   9   2   27.56   18.44
  -6  10   2  262.77   49.68
  -5 -10   2  466.63   62.51
  -5  10   2  480.96   60.67
  -4 -10   2 1631.08  104.84
  -4  10   2 1354.98   97.89
  -3 -10   2 1299.71   85.82
   3  10  -2 1271.24   65.68
  -3  10   2 1276.25   92.01
  -2 -10   2  844.27   64.16
   2 -10  -2  834.92   55.44
   2 -10  -2  881.74   53.94
  -2  10   2  834.37   71.56
   2  10  -2  833.62   46.84
  -1  10   2  606.24   59.74
   1 -10  -2  569.58   43.86
   1 -10  -2  564.88   46.25
  -1 -10   2  667.29   53.93
   1  10  -2  587.77   37.15
   0  10  -2  403.68   33.15
   0  10   2  479.05   51.62
   0 -10  -2  457.22   45.01
   0  10   2  488.76   40.97
   0 -10  -2  435.61   39.12
   1  10   2 1608.85   92.20
   1  10   2 1692.67   86.26
  -1 -10  -2 1627.89   92.79
   2  10   2 1266.65   80.08
   2  10   2 1455.19   89.95
  -2 -10  -2 1246.50   88.93
  -3 -10  -2 1243.08   97.66
   3  10   2 1322.59   95.92
   4  10   2  367.39   56.35
  -4 -10  -2  285.43   52.27
  -5  11   2   -3.23   13.71
  -5 -11   2   -0.67   15.37
   5  11  -2   43.00   24.21
  -4 -11   2   47.41   23.85
  -4  11   2   -1.59   10.67
  -3 -11   2   23.84   17.78
  -3  11   2   -3.32   10.52
  -2 -11   2   84.29   21.88
  -2  11   2   74.81   27.36
   2 -11  -2   75.78   17.60
  -1  11   2    7.06   13.65
   1 -11  -2    0.83    6.36
  -1  11   2    3.04    5.36
  -1 -11   2    5.60    9.01
   1 -11  -2   -6.43   10.10
   0 -11  -2    3.88    6.38
   0 -11  -2   -8.40   11.03
   0  11   2    5.23    9.02
   0 -11   2   -0.31    9.10
   0  11   2    8.42    7.85
  -1 -11  -2   20.25   14.07
   1  11   2   42.85   17.94
   1  11   2   66.91   18.59
  -2 -11  -2   -9.28   11.53
   2  11   2    6.81    7.92
   2  11   2   10.12    8.75
  -3 -11  -2   52.36   23.05
   3  11   2   57.81   21.39
  -4 -11  -2   15.92   15.31
   4  11   2    1.85   21.05
  -5  12   2  316.04   54.34
  -4 -12   2 1255.77  101.51
  -4  12   2 1238.18  103.61
  -3 -12   2 1413.31   99.33
  -3  12   2 1467.89  108.68
   2 -12  -2  743.52   55.23
  -2 -12   2  775.42   67.68
  -2  12   2  695.92   73.40
   1 -12  -2   79.13   17.51
   1 -12  -2   97.31   23.93
  -1  12   2   52.87   19.94
  -1 -12   2  106.37   24.19
   0 -12  -2  258.43   39.04
   0  12   2  230.80   41.13
   0  12   2  271.15   33.93
   0 -12   2  257.06   34.63
   0 -12  -2  275.53   32.75
   1 -12   2 1316.22   75.50
   1  12   2 1245.52   91.04
  -1 -12  -2 1342.04   92.16
  -1 -12  -2 1222.16   72.60
   1  12   2 1254.19   81.48
   2  12   2 1741.48  108.34
  -2 -12  -2 1786.23  116.81
   2  12   2 1830.99  109.03
  -3 -12  -2  973.41   93.95
   3  12   2  898.22   83.96
   4  12   2  101.28   33.06
  -4 -13   2  -52.94   23.67
  -4  13   2   -1.39   11.43
  -3  13   2   35.11   19.66
  -3 -13   2   -5.20   17.30
  -2  13   2   77.23   25.23
  -2 -13   2   84.08   24.99
  -1  13   2    7.20   13.88
  -1 -13   2   -0.27    8.42
   0 -13  -2   12.30   11.45
   0 -13   2   31.50   13.93
   1  13   2  104.93   33.24
  -1 -13  -2  110.28   30.86
   1  13   2   88.26   23.87
   1 -13   2   79.82   19.31
  -2 -13  -2   22.54   17.57
   2  13   2  -21.51   17.33
  -3 -13  -2   -7.81   13.80
   3  13   2   59.92   22.49
  -3 -14   2  814.19   83.11
  -3  14   2  650.89   78.98
  -2 -14   2  481.95   60.28
  -2  14   2  520.14   69.69
  -1 -14   2  342.72   46.81
  -1  14   2  310.86   55.13
   0 -14   2  496.40   53.77
   0  14   2  489.86   65.44
   0 -14  -2  514.33   59.36
   1  14   2  439.71   61.97
  -1 -14  -2  441.84   59.60
   2  14   2  895.92   82.01
  -2 -14  -2  823.74   85.97
   3  14   2  400.23   61.91
  -2 -15   2  124.09   29.60
  -2  15   2  144.22   39.08
  -1  15   2   38.06   25.27
  -1 -15   2   -0.99   13.14
   0 -15  -2   70.11   25.86
   0  15   2   48.46   22.88
   0 -15   2   67.33   21.57
  -1 -15  -2  103.50   30.94
   1  15   2  101.87   31.95
  -2 -15  -2  -14.20   17.57
   2  15   2   14.74   15.97
  -1 -16   2  690.03   72.16
   0  16   2  535.80   76.58
   1  16   2  189.40   46.10
  -1 -16  -2  278.54   51.85
   7   0  -3  -24.00   28.39
   7   0  -3   23.86   23.79
   6   0  -3   14.98   17.75
   6   0  -3   15.21    8.28
   5   0  -3  -21.86   16.11
  -5   0   3   -2.70    6.50
   5   0  -3   -9.90    8.01
   4   0  -3    3.89   11.67
  -4   0   3    0.06    3.74
   3   0  -3    4.33    6.47
   3   0  -3    7.80   12.89
   2   0  -3   -2.81    4.62
   2   0  -3   10.35    9.23
   2   0  -3    3.57    5.92
  -1   0   3    4.14    4.66
   1   0  -3   -0.52    4.51
   1   0  -3    1.04    3.99
  -1   0   3   -0.27    3.29
   1   0  -3   -3.45    5.04
   0   0  -3   13.78   11.97
   0   0   3    3.46    8.20
   0   0  -3    0.94    6.98
  -1   0  -3    5.41   10.50
   1   0   3   -7.32   10.10
   2   0   3   -6.61    7.07
  -2   0  -3    8.83    9.83
   2   0   3   -8.19   10.75
   3   0   3   -1.85   16.51
  -3   0  -3   -9.44   13.29
   3   0   3   -5.66    9.96
  -4   0  -3   -4.44   12.09
   4   0   3    2.70   13.25
   4   0   3    5.13   10.85
   5   0   3  -11.80   18.97
  -5   0  -3   -3.14   12.45
   5   0   3    9.18   14.73
   6   0   3  -45.01   22.58
   6   0   3  -19.04   12.94
   6   0   3  -47.75   35.21
   7   1  -3  973.18   84.09
   7   1  -3  858.01  102.36
   7  -1  -3  807.11   96.85
   7  -1  -3  794.40   98.11
   6   1  -3  275.19   52.57
   6   1  -3  331.81   42.46
   6  -1  -3  262.16   51.78
   6  -1  -3  304.82   38.92
   6  -1  -3  198.28   45.31
  -5   1   3  108.96   17.45
  -5  -1   3  118.81   21.31
   5   1  -3   92.93   29.19
   5  -1  -3   80.09   29.82
   5  -1  -3   66.73   24.72
   5  -1  -3  100.66   19.04
   5   1  -3  134.94   25.28
  -5   1   3  130.08   18.14
  -4   1   3 1071.31   41.99
  -4  -1   3 1091.06   51.43
   4   1  -3  932.32   78.47
   4  -1  -3 1006.37   48.40
   4  -1  -3 1042.55   86.21
   4   1  -3 1061.75   64.22
   3  -1  -3 4490.03  151.39
   3   1  -3 4612.91  115.38
   3  -1  -3 4542.41  113.17
   2   1  -3 7668.40  116.49
  -2   1   3 8213.52  118.13
   2  -1  -3 8075.80  165.73
   2   1  -3 7855.66  130.47
   2  -1  -3 7879.24  129.58
   2  -1  -3 7855.10  123.32
   2  -1  -3 7748.65  163.57
   1  -1  -3 1417.58   47.34
   1  -1  -3 1367.71   50.17
   1  -1  -3 1281.48   48.62
  -1   1   3 1250.48   55.51
  -1  -1   3 1448.34   55.20
   1  -1  -3 1260.23   53.52
   1   1  -3 1408.06   52.03
   1   1  -3 1253.07   41.37
  -1   1   3 1431.12   48.63
  -1   1   3 1238.09   50.74
   1  -1  -3 1350.49   49.41
   0  -1  -3  119.06   20.74
   0   1  -3  115.85   19.60
   0   1   3  116.28   22.32
   0  -1  -3   96.31   20.60
  -1  -1  -3 1251.09   75.69
   1  -1   3 1112.34   72.06
  -1   1  -3 1194.32   68.49
   1   1   3 1158.19   75.48
   1  -1   3 1236.51   42.01
  -2  -1  -3 3316.03  132.10
   2  -1   3 3428.90  141.80
   2   1   3 3293.58  138.80
   2  -1   3 3280.79   97.15
  -2   1  -3 3234.40  125.88
   2  -1   3 3460.08  101.61
  -3  -1  -3 4616.84  167.18
   3  -1   3 4680.14  181.06
  -3   1  -3 4505.53  159.36
   3  -1   3 4797.93  144.08
   3  -1   3 4816.42  144.07
   3   1   3 4533.84  177.43
  -4  -1  -3 1026.74   86.27
   4   1   3 1201.04  100.99
   4  -1   3 1069.71   78.15
   4  -1   3  942.35   87.42
   4   1   3 1053.01   81.98
  -4   1  -3  915.26   78.32
   4  -1   3 1031.91   76.64
   5   1   3  372.35   53.82
  -5   1  -3  309.93   49.74
  -5  -1  -3  321.75   52.12
   5  -1   3  342.30   49.33
   5  -1   3  331.79   49.26
   5  -1   3  340.04   58.58
   5   1   3  290.09   55.78
   6  -1   3  172.43   43.42
   6   1   3  141.45   41.17
   6  -1   3  174.90   41.35
   6   1   3  163.64   40.75
   6  -1   3   26.40   24.68
   7  -2  -3   90.12   36.11
   7   2  -3  169.89   34.39
   7   2  -3  185.81   49.44
   7  -2  -3  177.26   46.34
   6   2  -3  119.94   39.72
   6  -2  -3  148.12   40.35
  -6  -2   3  124.44   24.07
   6  -2  -3  127.16   39.86
   6   2  -3  134.62   29.59
   5  -2  -3    5.99    5.26
   5  -2  -3   14.39   14.63
  -5   2   3    1.21    5.07
   5   2  -3  -16.72   21.00
   5  -2  -3   15.89   16.77
  -5  -2   3   16.16    9.87
   5   2  -3   14.74   11.46
   4  -2  -3  506.77   62.23
   4  -2  -3  649.02   67.55
   4  -2  -3  630.63   36.33
  -4  -2   3  634.54   42.74
   4   2  -3  619.00   50.30
  -4   2   3  652.00   27.61
   3  -2  -3  480.86   52.95
  -3   2   3  623.39   29.00
   3  -2  -3  516.89   53.59
   3  -2  -3  533.60   39.08
   3   2  -3  600.10   42.18
   2  -2  -3  414.47   31.82
  -2  -2   3  427.05   26.20
   2  -2  -3  410.97   38.36
   2  -2  -3  400.72   27.51
   2   2  -3  451.35   32.16
  -2   2   3  406.59   27.52
   1  -2  -3 2180.97   55.57
   1   2  -3 2171.36   66.97
  -1   2   3 2141.88   61.78
   1   2  -3 2150.80   48.19
   1  -2  -3 2135.55   66.60
  -1   2   3 2212.41   77.29
   1  -2  -3 2014.10   63.51
   1  -2  -3 2018.94   76.13
  -1   2   3 2222.44   57.63
  -1   2   3 2022.13   73.02
   0   2   3   31.81   13.20
   0  -2  -3   43.15   15.35
   0  -2  -3   43.62   12.46
  -1  -2  -3 1060.20   69.30
   1   2   3 1140.53   72.49
   1  -2   3 1069.45   67.02
  -1   2  -3 1164.66   46.62
  -1   2  -3 1037.33   59.46
   2   2   3  667.61   60.55
   2  -2   3  597.98   58.62
   2  -2   3  651.75   45.53
  -2  -2  -3  604.73   56.55
  -2   2  -3  656.32   53.44
   3  -2   3   15.00    8.22
  -3   2  -3   13.66    8.92
   3   2   3   37.84   18.97
  -3  -2  -3    3.85   10.62
   3  -2   3    9.20   10.06
  -4   2  -3  487.69   54.95
  -4  -2  -3  550.70   65.05
   4  -2   3  501.56   63.21
   4   2   3  559.73   67.89
   4  -2   3  551.93   56.69
   5   2   3   20.37   21.52
   5  -2   3   60.08   21.98
   5  -2   3   29.45   15.36
  -5   2  -3    4.81   12.31
  -5  -2  -3   29.40   18.31
   5   2   3   56.93   28.41
   6   2   3   19.50   24.63
  -6  -2  -3   22.83   19.74
   6  -2   3   -7.16   18.17
   6  -2   3   75.84   21.95
   6   2   3   11.01   15.43
   7   3  -3  599.15   70.39
   7   3  -3  496.68   79.53
   7  -3  -3  417.59   72.50
   6  -3  -3  599.23   79.58
  -6  -3   3  857.27   65.21
   6   3  -3  696.73   89.50
   6   3  -3  917.40   74.70
   5  -3  -3  990.97   56.26
  -5   3   3 1103.65   62.11
   5  -3  -3 1060.87   95.95
  -5  -3   3 1169.32   68.18
   4  -3  -3  961.71   82.86
   4  -3  -3  931.16   42.25
  -4  -3   3 1103.15   59.54
   4   3  -3 1045.94   65.36
   3  -3  -3 1814.52   76.72
  -3   3   3 1566.42   35.77
   3  -3  -3 1761.49   98.23
   3  -3  -3 1645.14   36.80
   3   3  -3 1826.92   73.76
   2  -3  -3 2087.92   73.13
  -2  -3   3 2159.22   55.80
   2   3  -3 2032.99   69.22
  -2   3   3 1930.86   54.87
   2  -3  -3 1823.98   37.05
   2  -3  -3 2078.93   61.61
   1   3  -3 3099.04   83.17
   1  -3  -3 3068.66   67.72
  -1   3   3 3248.99   66.11
   1  -3  -3 3068.59   61.09
   1   3  -3 3074.64   50.05
  -1   3   3 2781.67   79.29
   1  -3  -3 3131.32  104.14
   1  -3  -3 2868.20   81.82
  -1   3   3 3013.75   83.36
   0   3   3 2478.72   93.30
   0  -3  -3 2175.90   72.02
   0  -3  -3 2450.69   97.47
  -1   3  -3 1778.44   59.79
   1   3   3 1677.80   83.25
  -1   3  -3 1818.70   58.31
  -1  -3  -3 1710.11   86.06
  -2  -3  -3 2395.23  111.44
   2  -3   3 2447.31  112.75
   2   3   3 2358.60  110.36
  -2   3  -3 2259.90   95.86
   3   3   3 1078.24   84.67
   3  -3   3 1206.40   88.93
   3  -3   3 1110.83   74.97
  -3   3  -3 1121.66   74.18
  -3  -3  -3 1099.97   83.26
  -4  -3  -3 1244.83   98.09
  -4   3  -3 1117.39   78.49
   4  -3   3 1222.95   97.40
   4  -3   3 1180.30   87.77
   4   3   3 1162.55   97.88
   5   3   3  509.36   73.83
   5  -3   3  423.18   59.51
   5  -3   3  529.70   69.37
  -5  -3  -3  502.80   68.54
  -6  -3  -3  614.85   81.31
   6   3   3  648.32   93.01
   6  -3   3  597.60   77.40
   7  -4  -3   82.61   33.53
   7   4  -3  129.76   45.33
   7   4  -3   62.48   23.30
   6  -4  -3  194.93   45.16
  -6  -4   3  187.45   33.03
   6   4  -3  189.88   35.38
   5  -4  -3    5.81   11.93
  -5   4   3   23.03    9.90
  -5  -4   3    9.75    8.08
  -4  -4   3  486.62   42.44
   4  -4  -3  418.60   25.68
   4  -4  -3  492.72   60.89
   4   4  -3  495.77   45.36
   3  -4  -3  325.57   34.53
   3  -4  -3  380.16   49.28
   3   4  -3  375.95   34.26
   2  -4  -3  497.37   37.46
   2  -4  -3  468.20   28.78
  -2   4   3  503.89   23.95
  -2  -4   3  543.39   26.40
   2  -4  -3  522.15   30.85
   2   4  -3  464.83   34.38
   1  -4  -3 1315.04   37.26
  -1   4   3 1256.72   58.14
   1   4  -3 1204.76   53.17
   1  -4  -3 1190.66   55.76
   1  -4  -3 1259.16   37.93
   1  -4  -3 1303.59   68.36
  -1   4   3 1332.97   40.11
  -1   4   3 1236.38   50.22
   0  -4  -3    2.56   11.46
   0   4   3   27.15   12.13
   1   4   3  731.33   53.56
  -1   4  -3  767.58   44.40
  -1  -4  -3  708.03   55.90
   2  -4   3  425.15   45.67
   2   4   3  426.79   47.30
  -2  -4  -3  363.55   45.05
  -3   4  -3   49.99   17.54
  -3  -4  -3   27.13   15.12
   3  -4   3   51.64   21.78
   3   4   3   20.40   14.03
  -4   4  -3  260.16   36.58
  -4  -4  -3  295.88   50.37
   4  -4   3  300.23   48.27
   4   4   3  266.87   47.38
  -5  -4  -3   26.82   21.15
   5  -4   3   14.99   14.39
   5  -4   3   68.70   26.70
   5   4   3   21.14   16.72
   6   4   3   10.20   17.63
  -6  -4  -3   19.88   18.68
   6  -4   3   58.83   25.36
   6   4   3   36.92   25.46
   7   5  -3  184.03   59.25
   7  -5  -3  218.67   56.08
   7   5  -3  305.19   50.44
   6  -5  -3 1181.08  118.13
   6   5  -3 1216.54   90.73
  -6  -5   3 1282.15   87.68
  -5   5   3 2350.67  102.76
  -5  -5   3 2364.44  108.94
   5  -5  -3 2345.22  152.77
   4   5  -3 1639.50   83.24
  -4  -5   3 1677.39   82.83
  -4   5   3 1566.69   81.81
   3  -5  -3  349.45   36.28
  -3  -5   3  447.10   40.76
   3   5  -3  427.44   37.56
   2  -5  -3   48.03   12.35
   2   5  -3   38.95   10.86
   2  -5  -3   59.72   13.22
  -2  -5   3   74.80    9.43
  -2   5   3   71.43    9.26
   1   5  -3 2869.67   84.72
  -1   5   3 2989.29   55.74
   1  -5  -3 2822.38   89.29
  -1   5   3 3046.20   85.52
   1  -5  -3 3041.96  101.65
   1  -5  -3 2949.16   52.34
   0  -5  -3 5903.34   70.92
   0   5   3 5922.73  131.62
   0  -5  -3 6197.81  149.64
   1   5   3 3761.66  119.90
  -1  -5  -3 3799.04  128.48
   2   5   3  693.27   59.00
  -2  -5  -3  712.61   61.79
  -3  -5  -3   73.52   22.88
   3   5   3   73.19   25.31
   4  -5   3  839.17   76.74
  -4  -5  -3  760.20   79.78
   4   5   3  746.40   79.95
   5   5   3 1581.34  128.20
  -5  -5  -3 1391.20  117.10
   5  -5   3 1463.06  109.94
  -6  -5  -3  992.72  107.42
   6   5   3  858.65  105.86
   7   6  -3    7.59   12.92
  -7  -6   3   21.12   14.19
  -6  -6   3   12.18   12.75
  -6   6   3   -6.92    9.58
  -5   6   3   14.05   12.78
  -5  -6   3   28.59   15.66
  -4   6   3    9.66   12.37
   4   6  -3    2.15    7.01
  -4  -6   3   -6.35   13.86
   3   6  -3   -1.35    5.82
   3  -6  -3    7.67    8.91
  -3  -6   3    0.47    7.60
   2   6  -3   28.26    9.02
   2  -6  -3   14.56    9.69
  -2  -6   3   30.27    5.47
   2  -6  -3   19.69    9.61
  -2   6   3   28.59    6.48
   1   6  -3   -0.37    5.17
   1  -6  -3   10.69    8.17
   1  -6  -3    5.35    6.30
  -1   6   3   13.14    7.87
   0  -6  -3   24.69   13.90
   0   6   3    0.97    8.07
  -1  -6  -3    5.27   11.09
   1   6   3   -5.33    8.37
  -2  -6  -3   -0.32    8.67
   2   6   3   -1.21   11.01
   3   6   3    5.63   12.65
  -3  -6  -3   16.27   14.82
  -4  -6  -3   -7.17   16.68
   4   6   3   10.22   19.79
  -5  -6  -3    3.44   15.88
   5   6   3   46.28   29.66
  -6  -6  -3   31.36   33.91
  -7  -7   3  125.25   34.98
  -6  -7   3 1167.46   91.37
  -6   7   3 1047.06   79.78
   6   7  -3 1170.66   95.45
  -5   7   3 1912.58  104.31
  -5  -7   3 1932.09  107.75
  -4  -7   3 1539.87   88.36
  -4   7   3 1423.05   86.96
   4   7  -3 1540.07   82.50
   3   7  -3  149.99   23.30
  -3   7   3  146.57   28.54
   3  -7  -3  206.72   29.51
  -3  -7   3  175.16   28.11
   2  -7  -3  287.20   31.84
  -2  -7   3  266.82   14.34
   2  -7  -3  232.20   29.12
   2   7  -3  250.92   27.81
  -2   7   3  285.68   20.77
   1  -7  -3 2221.40   88.32
   1  -7  -3 2073.55   83.74
  -1   7   3 2168.82   69.38
   1   7  -3 1948.95   73.93
   0   7   3 4441.76  115.31
   0  -7  -3 4387.38  132.76
  -1   7  -3 2515.87   59.92
   1   7   3 2644.24  103.02
  -1  -7  -3 2573.90  111.13
   2   7   3  381.87   44.98
  -2  -7  -3  345.09   45.73
  -3  -7  -3  368.33   52.54
   3   7   3  435.52   54.59
  -4  -7  -3  529.50   67.83
   4   7   3  531.83   69.59
   5   7   3 1292.10  121.51
  -5  -7  -3 1166.80  110.86
   6   8  -3  150.36   36.75
  -6   8   3  137.69   31.65
  -6  -8   3  117.72   30.55
  -5   8   3   16.65   13.28
  -5  -8   3  -10.10   20.18
  -4   8   3  248.32   39.44
   4   8  -3  224.88   33.51
  -4  -8   3  204.29   34.94
  -3   8   3  231.78   35.74
   3  -8  -3  229.18   31.85
  -3  -8   3  225.13   34.54
   3   8  -3  279.97   31.77
   2   8  -3  186.96   23.55
  -2   8   3  209.02   32.72
   2  -8  -3  191.57   26.82
  -2   8   3  141.32   16.06
   2  -8  -3  217.54   29.21
   1   8  -3  672.70   44.59
   1  -8  -3  715.27   51.41
  -1   8   3  703.42   41.27
   1  -8  -3  717.14   52.81
   0  -8  -3    4.80    8.08
   0   8   3   13.31    7.00
  -1  -8  -3  319.31   41.23
   1   8   3  287.00   34.70
   2   8   3  351.68   38.31
  -2  -8  -3  358.61   48.81
   2   8   3  363.04   44.91
  -3  -8  -3   25.02   22.16
   3   8   3   12.78   12.85
   4   8   3  247.40   48.76
  -4  -8  -3  276.74   51.05
  -5  -8  -3   -0.58   14.69
   5   8   3  -27.29   21.68
  -6   9   3  374.08   54.24
  -6  -9   3  302.32   52.76
   6   9  -3  382.34   58.42
  -5  -9   3  590.66   64.65
  -5   9   3  636.61   67.68
  -4  -9   3 1002.41   77.10
  -4   9   3  930.54   79.07
   4   9  -3  930.17   65.53
   3  -9  -3  974.03   66.69
  -3  -9   3 1124.58   76.64
  -3   9   3 1039.18   79.89
   3   9  -3  959.79   59.35
  -2  -9   3 1386.42   80.83
   2  -9  -3 1348.85   73.57
  -2   9   3 1364.75   88.69
   2  -9  -3 1352.55   73.81
   2   9  -3 1320.59   63.69
   1   9  -3  867.18   51.47
  -1   9   3  780.44   44.96
  -1   9   3  940.13   70.70
   1  -9  -3  936.36   60.21
   1  -9  -3 1033.77   65.79
   0   9  -3 1158.67   66.00
   0   9   3 1210.39   65.25
   0   9   3 1150.92   77.47
   0  -9  -3 1163.91   70.14
   0  -9  -3 1214.64   76.40
   1   9   3 1012.49   70.03
   1   9   3  941.10   65.20
  -1  -9  -3 1033.78   75.89
   2   9   3  810.02   62.34
  -2  -9  -3  743.16   71.45
   2   9   3  908.64   72.85
   3   9   3  944.59   83.94
  -3  -9  -3  988.54   89.51
   4   9   3  660.15   79.51
  -4  -9  -3  715.38   83.84
  -5  -9  -3  368.25   67.80
  -6  10   3   94.74   28.96
  -5  10   3   -7.62   10.50
  -5 -10   3    1.56   11.53
  -4  10   3  227.90   41.65
  -4 -10   3  240.04   42.23
   4  10  -3  241.38   34.74
   3  10  -3  122.32   20.62
  -3  10   3   93.95   28.04
   3 -10  -3   82.92   23.25
  -3 -10   3   93.91   23.29
   2  10  -3   78.65   16.09
  -2  10   3   48.90   19.25
   2 -10  -3   73.29   19.63
   2 -10  -3   78.34   19.07
  -2 -10   3  106.29   23.82
   1  10  -3  490.03   39.06
  -1  10   3  475.54   37.28
   1 -10  -3  548.90   48.14
  -1  10   3  536.61   56.65
   1 -10  -3  507.98   48.71
   0 -10  -3    6.07    7.93
   0  10   3    5.81   11.47
   0 -10  -3    4.67   11.91
   0  10   3   10.87    9.61
   0  10  -3    6.49    7.76
   1  10   3  247.07   37.66
  -1 -10  -3  185.82   33.66
   1  10   3  225.95   34.17
   2  10   3  136.13   31.37
   2  10   3  167.93   30.43
  -2 -10  -3  128.16   32.47
  -3 -10  -3   25.54   15.35
   3  10   3   19.73   14.77
  -4 -10  -3  130.12   38.33
   4  10   3  124.61   36.89
  -5 -11   3  130.12   33.21
  -5  11   3  136.13   36.60
  -4 -11   3  408.84   54.43
  -4  11   3  422.26   58.08
  -3 -11   3 1774.49  104.25
  -3  11   3 1844.98  118.35
  -2 -11   3 1908.08  103.48
   2 -11  -3 1863.72   91.50
  -2  11   3 1933.16  116.67
   2  11  -3 1857.17   77.31
  -1 -11   3  664.17   58.71
   1 -11  -3  589.77   50.67
  -1  11   3  685.42   68.29
   1 -11  -3  537.45   53.06
   1  11  -3  609.27   43.09
   0 -11  -3  128.05   26.05
   0  11  -3  142.59   23.04
   0  11   3  160.60   32.16
   0 -11  -3  138.31   29.89
   0  11   3  172.41   28.03
   1  11   3  342.34   47.46
  -1 -11  -3  325.72   47.31
   1  11   3  338.21   42.19
   2  11   3 1202.10   86.49
   2  11   3 1344.45   94.12
  -2 -11  -3 1353.90  103.55
   3  11   3 1334.99  105.79
  -3 -11  -3 1159.95  104.10
  -4 -11  -3  643.61   87.00
   4  11   3  709.86   86.73
  -5  12   3   -4.84   13.59
  -4  12   3  -13.28   15.13
  -4 -12   3   -3.37   14.79
  -3  12   3   33.09   16.73
  -3 -12   3   -5.18   10.22
   2 -12  -3    9.30   10.16
  -2  12   3   10.80   11.38
  -2 -12   3    6.85   10.48
  -1  12   3  -12.76   16.42
   1 -12  -3  -18.61   16.55
   1 -12  -3   -1.73    8.84
  -1 -12   3   -7.81   12.52
   0 -12  -3    4.20   11.62
   0  12   3    9.99   11.58
   0 -12  -3  -19.45   17.20
   0  12   3   -7.54    7.68
   0 -12   3  -11.45   12.31
   1  12   3   31.37   20.85
  -1 -12  -3  -10.62   13.75
  -1 -12  -3  -13.03   14.57
   1  12   3   12.14   11.05
  -2 -12  -3   -9.05   17.20
   2  12   3   22.81   14.06
  -3 -12  -3  -16.12   21.59
   3  12   3   -8.10   17.37
  -4  13   3  319.86   55.20
  -4 -13   3  391.17   58.87
  -3 -13   3 1072.24   89.31
  -3  13   3 1039.94   95.90
  -2 -13   3 1222.91   89.56
  -2  13   3 1192.48  100.66
  -1 -13   3  601.95   60.43
  -1  13   3  609.06   72.71
   0  13   3   68.76   25.59
   0 -13  -3  133.07   34.01
   0 -13   3   96.81   23.70
   1 -13   3  312.53   40.20
   1  13   3  255.40   44.42
  -1 -13  -3  243.12   44.54
   1  13   3  360.14   47.67
   2  13   3  968.48   85.97
  -2 -13  -3  978.01   95.78
   3  13   3 1097.16  101.47
  -3 -13  -3 1065.52  107.59
  -3  14   3   57.80   24.44
  -3 -14   3   38.21   21.46
  -2  14   3   45.49   21.14
  -2 -14   3   41.50   19.37
  -1  14   3  146.38   37.72
  -1 -14   3  122.95   31.06
   0 -14   3    3.59    9.17
   0  14   3   -0.73   18.89
   0 -14  -3  -14.71   16.61
   1  14   3   77.32   28.00
  -1 -14  -3   91.32   28.76
  -2 -14  -3   53.00   25.80
   2  14   3   93.98   28.24
  -2 -15   3  400.39   56.08
  -1  15   3  354.72   60.06
  -1 -15   3  403.46   54.09
   0  15   3  409.90   63.07
   0 -15   3  482.74   55.34
   1  15   3  441.96   65.41
  -1 -15  -3  398.97   64.33
  -1 -16   3   81.38   27.25
   7   0  -4 1187.04  117.68
   7   0  -4 1311.00  124.10
   6   0  -4 1383.33   79.56
   6   0  -4 1122.04  104.88
  -5   0   4  261.35   26.49
   5   0  -4  268.54   47.88
   5   0  -4  300.33   33.16
   4   0  -4    9.84    8.09
   4   0  -4   -4.20   12.59
   3   0  -4 2493.88   85.32
   3   0  -4 2566.00  112.84
   3   0  -4 2668.26   90.10
   2   0  -4 6096.22  142.41
   2   0  -4 5883.70  120.56
   1   0  -4 6530.63  120.46
   1   0  -4 6415.73   97.99
   1   0  -4 6997.43  129.76
   1   0  -4 6668.13  137.98
   0   0  -4 1106.41   69.45
   0   0   4 1111.71   69.72
  -1   0  -4   83.89   22.87
   1   0   4   92.13   11.24
   1   0   4   70.51   24.51
   2   0   4 1235.02   93.49
  -2   0  -4 1271.57   88.95
   2   0   4 1326.64   60.15
   3   0   4 2482.80  101.72
  -3   0  -4 2176.27  124.91
   3   0   4 2319.29  137.78
   4   0   4 2747.92  160.66
  -4   0  -4 2503.32  140.56
   4   0   4 2617.39  121.25
   5   0   4  746.15   72.46
  -5   0  -4  697.24   79.04
   5   0   4  742.53   90.64
   5   0   4  560.20   65.02
   6   0   4  124.65   41.09
   7   1  -4   -5.07   23.70
   7  -1  -4  -13.23   16.76
   7  -1  -4  -10.05   14.13
   6  -1  -4  153.66   42.78
   6  -1  -4  112.70   35.67
   6   1  -4   95.06   31.69
   6   1  -4  116.60   25.85
   5  -1  -4   22.80   18.56
   5   1  -4   23.22   15.99
   5  -1  -4   41.26   22.37
  -5  -1   4   47.12   12.56
  -5   1   4   50.35   10.87
   5  -1  -4   28.98    9.74
   4  -1  -4    8.60    6.91
   4   1  -4   29.81   12.93
   4   1  -4    7.87   11.32
   4  -1  -4    6.89   10.36
   4  -1  -4   20.19   12.41
  -4   1   4   22.33    7.81
   3  -1  -4  342.54   32.95
   3  -1  -4  347.74   43.10
   3   1  -4  289.39   37.67
   3  -1  -4  347.15   32.45
   3   1  -4  308.52   31.98
   3  -1  -4  339.85   42.08
   2  -1  -4    1.60    4.02
   2   1  -4    4.31    6.12
   2  -1  -4    1.37    7.29
   2   1  -4   -0.12    3.56
   2  -1  -4    4.14    5.95
   2  -1  -4    2.90    6.00
   1  -1  -4    8.74    6.54
   1   1  -4    5.61    4.05
   1  -1  -4    2.94    3.92
   1   1  -4    5.54    5.20
   1   1  -4    6.99    5.03
   1  -1  -4    3.85    6.24
  -1   1   4   17.28    6.34
   1  -1  -4    9.75    8.13
   0  -1  -4  320.86   41.82
   0   1   4  326.30   40.85
   0   1  -4  338.82   36.37
  -1   1  -4   25.72   15.04
  -1  -1  -4   34.10   18.43
   1  -1   4   51.19   20.48
   1   1   4   44.16   17.81
   2  -1   4  122.26   18.92
   2   1   4  157.89   35.62
  -2   1  -4  178.05   33.56
  -2  -1  -4  180.55   35.76
   2  -1   4  211.96   23.59
   2  -1   4  149.93   34.81
  -3   1  -4   56.54   22.96
  -3  -1  -4   64.21   22.58
   3  -1   4   69.50   17.52
   3   1   4   45.45   18.41
   3  -1   4   71.75   16.35
   3  -1   4   56.19   24.80
   3   1   4   77.34   24.48
   4  -1   4   10.97   10.03
  -4   1  -4   -6.36   18.70
  -4  -1  -4    4.55   15.20
   4   1   4   13.24    8.53
   4  -1   4    5.25   10.73
   4  -1   4   11.65   19.44
   4   1   4   37.92   24.24
   5   1   4   59.46   20.93
   5   1   4   94.35   37.55
  -5   1  -4   63.75   23.96
  -5  -1  -4   90.25   27.60
   5  -1   4   63.23   30.46
   6   1   4  -29.21   36.81
   6  -1   4   32.47   22.95
   7  -2  -4  803.88   98.07
   7   2  -4  997.66   82.01
   7   2  -4  828.09  102.90
   6  -2  -4  876.57   97.23
  -6  -2   4 1112.83   70.79
   6  -2  -4  835.49   92.61
   6   2  -4  872.59   97.33
   6   2  -4 1012.25   74.30
  -5  -2   4  457.79   41.39
   5   2  -4  397.39   58.50
   5  -2  -4  439.42   62.16
   5  -2  -4  475.96   65.99
   5  -2  -4  480.32   36.05
   4  -2  -4  708.27   73.43
   4  -2  -4  634.77   66.71
  -4   2   4  644.79   36.47
   4  -2  -4  580.01   48.32
  -4   2   4  638.73   30.50
   4   2  -4  564.54   48.54
   3  -2  -4 1899.28   78.77
   3  -2  -4 1700.55   94.50
  -3   2   4 1882.80   66.89
   3  -2  -4 1809.13   72.62
   3   2  -4 1832.44   77.35
   2   2  -4 3409.38   79.32
   2  -2  -4 3378.29   96.80
   2  -2  -4 3523.28  110.69
  -2   2   4 3341.41   99.66
   2  -2  -4 3338.26   80.07
   2  -2  -4 3478.91   87.55
   2   2  -4 3319.74   95.31
   1  -2  -4 3173.16   80.80
   1   2  -4 3116.18   93.23
   1   2  -4 3135.49   72.12
   1  -2  -4 3079.65   91.53
  -1   2   4 3288.53   97.22
   1  -2  -4 2980.93  108.29
  -1   2   4 3107.23   93.64
   1  -2  -4 3045.90   96.36
   0   2   4 2050.15  103.40
   0  -2  -4 2146.40  107.44
  -1  -2  -4  959.68   75.77
   1  -2   4 1096.75   76.05
  -1   2  -4  975.06   66.46
   1   2   4 1063.87   80.31
  -2  -2  -4  906.08   77.51
   2   2   4  981.17   83.73
   2  -2   4  991.86   81.89
  -2   2  -4 1002.69   74.43
   2  -2   4  913.52   58.90
  -3  -2  -4 1556.38  108.69
   3  -2   4 1684.26  114.38
   3  -2   4 1690.92   87.68
   3   2   4 1805.14  121.42
  -3   2  -4 1506.75   97.67
   4   2   4 1552.26  104.55
   4  -2   4 1498.69   92.34
   4  -2   4 1600.84  119.99
   4   2   4 1500.62  120.44
  -4   2  -4 1583.97  102.95
  -4  -2  -4 1692.36  120.68
  -5  -2  -4  894.75   94.27
  -5   2  -4  796.19   78.32
   5  -2   4 1105.74  107.30
   5   2   4  911.58  102.23
   5   2   4  985.49   88.51
  -6  -2  -4  267.88   56.68
   6   2   4  263.86   59.97
   6  -2   4  416.77   72.34
   7   3  -4    6.11   15.26
   7  -3  -4  -24.83   21.60
   7   3  -4  -12.15   12.03
   6  -3  -4  243.44   53.26
   6   3  -4  253.76   53.24
  -6  -3   4  344.34   42.86
   6   3  -4  308.33   43.07
  -5  -3   4  353.72   39.06
   5  -3  -4  306.63   54.73
   5   3  -4  323.28   40.92
  -4   3   4   82.94    8.40
   4   3  -4  135.83   25.60
  -4   3   4   93.61   11.96
   4  -3  -4  101.56   28.85
   4  -3  -4  100.65   11.95
  -4  -3   4  100.77   20.95
   3  -3  -4 1376.66   69.51
   3  -3  -4 1302.13   39.79
   3  -3  -4 1284.33   84.94
  -3   3   4 1210.08   50.60
   3  -3  -4 1232.62   59.48
   3   3  -4 1349.26   67.30
   2  -3  -4   98.12   15.89
   2  -3  -4   85.71   13.96
   2   3  -4  109.08   18.46
  -2  -3   4  119.04   14.51
  -2   3   4  108.17   18.55
   2   3  -4   95.17   12.72
   2  -3  -4  105.20   14.22
   2  -3  -4  110.79   19.60
   1  -3  -4  502.42   30.31
   1   3  -4  458.15   37.21
   1   3  -4  492.47   25.93
   1  -3  -4  507.09   49.07
   1  -3  -4  456.72   37.25
  -1   3   4  399.77   38.14
   1  -3  -4  471.68   35.69
   0   3   4 1129.29   77.45
   0  -3  -4 1125.01   78.62
  -1   3  -4   18.70   14.43
  -1  -3  -4   23.23   16.55
  -1   3  -4   22.71    7.42
   1   3   4   32.30   20.87
  -2  -3  -4  789.40   72.66
   2  -3   4  699.82   66.48
   2   3   4  831.99   74.57
  -2   3  -4  717.11   60.14
  -3   3  -4  198.76   34.95
  -3  -3  -4  169.69   37.39
   3  -3   4  228.63   41.51
   3   3   4  235.69   44.45
  -4   3  -4  -17.67   15.55
   4  -3   4  -16.68   19.31
  -4  -3  -4  -33.46   21.38
   4  -3   4  -22.42   14.14
   4   3   4   -7.11   22.71
   5   3   4  200.56   44.54
   5  -3   4  294.35   54.83
  -5  -3  -4  169.40   43.74
   5   3   4  197.38   50.18
   6  -3   4   23.23   19.71
  -6  -3  -4   -2.19   16.85
   7   4  -4  209.01   58.23
   7  -4  -4  165.33   45.86
   7   4  -4  244.44   43.85
   6   4  -4  567.27   58.90
   6  -4  -4  526.15   76.49
  -6  -4   4  530.31   53.11
  -5  -4   4 1441.03   79.88
   5  -4  -4 1211.03  107.95
   5   4  -4 1322.83   85.27
  -4  -4   4 2804.96  107.67
   4  -4  -4 2723.24  145.29
   4   4  -4 2710.36  107.88
   3  -4  -4 1112.35   64.32
  -3   4   4  917.22   34.65
   3  -4  -4 1042.51   54.33
   3   4  -4 1060.18   60.59
   2   4  -4 1122.99   57.38
   2  -4  -4 1142.34   61.50
  -2  -4   4 1213.73   42.60
   2  -4  -4  987.12   30.96
   2  -4  -4 1042.90   56.45
  -2   4   4 1043.86   49.16
   2  -4  -4 1065.47   45.64
   1   4  -4  805.20   50.16
   1   4  -4  764.50   28.07
   1  -4  -4  785.58   50.57
  -1   4   4  770.72   54.99
   1  -4  -4  813.91   40.73
   1  -4  -4  747.55   62.91
   1  -4  -4  817.52   36.21
   0  -4  -4 2318.60  111.21
   0   4   4 2376.04  108.87
  -1   4  -4 3921.61   92.39
   1   4   4 3557.18  137.89
  -1  -4  -4 3514.05  141.75
   2   4   4 1886.87  111.20
  -2  -4  -4 1856.27  110.72
  -3  -4  -4  913.81   85.44
   3  -4   4 1037.29   86.36
   3   4   4 1022.46   89.94
  -3   4  -4  873.53   69.79
  -4   4  -4  392.00   49.60
  -4  -4  -4  324.43   56.14
   4  -4   4  334.94   53.67
   4   4   4  319.27   56.36
   5  -4   4  615.71   76.93
  -5  -4  -4  493.60   73.79
   5   4   4  582.32   86.89
  -6  -4  -4  574.91   84.61
   6  -4   4  643.30   81.41
   7  -5  -4   -0.40   14.18
   7   5  -4    8.87   19.45
   7   5  -4    1.05   15.66
  -6   5   4   25.20   13.76
  -6  -5   4    4.02   12.59
   5   5  -4  134.36   29.35
  -5   5   4   52.82   16.92
   5  -5  -4   98.73   35.48
  -5  -5   4  118.51   27.61
   4   5  -4   87.35   20.18
  -4  -5   4   84.37   21.24
   3   5  -4  129.03   22.26
   3  -5  -4  108.95   20.91
  -3   5   4   79.79    8.82
   2  -5  -4   55.78   10.43
   2   5  -4   65.29   14.33
   2  -5  -4   41.27   14.09
   2  -5  -4   67.81   16.95
   1   5  -4  126.91    9.10
   1   5  -4  118.24   19.66
   1  -5  -4  158.21   24.81
   1  -5  -4  143.80   27.57
   1  -5  -4  131.61   15.46
  -1   5   4  159.16   28.25
   1  -5  -4  143.55   14.01
   0  -5  -4  116.70   13.83
   0  -5  -4  107.98   27.38
   0   5   4  138.75   26.61
  -1  -5  -4   -3.51   12.94
   1   5   4   -5.96   10.76
  -2  -5  -4   58.06   22.38
   2   5   4   47.07   20.45
  -3  -5  -4   74.77   29.46
   3   5   4  114.23   30.75
   4  -5   4  -28.10   18.51
  -4  -5  -4  -10.19   17.86
   4   5   4   14.33   19.34
   5  -5   4    4.45   17.35
  -5  -5  -4   33.26   24.04
   5   5   4   23.82   22.89
  -7  -6   4   52.94   23.05
   7   6  -4   82.59   27.75
  -6   6   4  293.82   41.24
  -6  -6   4  275.22   42.60
  -5  -6   4 1889.30  100.54
  -5   6   4 1811.73   98.61
   5   6  -4 1913.69  103.74
  -4  -6   4 3364.76  127.09
   4   6  -4 3038.56  116.97
   3  -6  -4 1323.55   74.71
   3   6  -4 1266.53   68.07
   2   6  -4  167.02   23.68
   2  -6  -4  181.52   29.53
   2  -6  -4  173.31   26.74
   1   6  -4  441.27   39.55
  -1   6   4  413.38   42.24
   1  -6  -4  440.20   41.32
   1  -6  -4  395.60   45.43
   1  -6  -4  411.24   21.00
   0  -6  -4 2064.99   49.53
   0   6   4 2135.55   95.80
   0  -6  -4 2163.45  106.25
   1   6   4 4018.68  143.38
  -1  -6  -4 3880.73  150.02
   2   6   4 2120.78  116.75
  -2  -6  -4 2237.59  125.14
  -3  -6  -4  338.78   53.48
   3   6   4  481.57   62.50
   4   6   4  174.75   42.75
  -4  -6  -4  139.25   38.74
  -5  -6  -4  269.61   60.08
   5   6   4  231.41   55.68
  -7  -7   4  -13.73   18.14
   7   7  -4   10.28   15.84
  -6  -7   4   47.20   23.60
  -6   7   4   54.47   17.10
  -5   7   4  100.42   24.51
  -5  -7   4   92.01   23.71
   5   7  -4   96.37   26.40
   4   7  -4   58.43   19.29
  -4   7   4   29.60   16.29
  -4  -7   4   43.69   18.41
   3   7  -4  220.95   29.81
   3  -7  -4  239.33   33.79
   2   7  -4   18.42    9.19
   2  -7  -4   23.90   13.69
  -2   7   4    8.38    3.95
   2  -7  -4   21.24   11.65
   1   7  -4   83.50   16.97
   1  -7  -4   72.98   17.97
   1  -7  -4   73.36   23.18
  -1   7   4   79.17   18.90
   0  -7  -4  233.88   36.14
   0   7   4  266.73   34.76
   0  -7  -4  199.46   11.01
  -1  -7  -4   54.22   21.07
   1   7   4   14.53   12.15
  -2  -7  -4  132.66   31.86
   2   7   4  105.31   28.03
  -3  -7  -4    3.09   18.90
   3   7   4   21.39   17.10
  -4  -7  -4  -19.40   22.77
   4   7   4   38.18   27.54
  -5  -7  -4   28.23   22.31
   5   7   4  127.99   42.98
  -6   8   4  280.14   45.47
  -6  -8   4  364.16   53.31
  -5  -8   4 1111.50   85.72
  -5   8   4  990.52   81.09
   5   8  -4 1135.50   82.17
  -4  -8   4 1317.10   87.18
  -4   8   4 1238.75   87.71
   4   8  -4 1322.46   79.94
   3  -8  -4 1277.14   77.64
   3   8  -4 1209.17   69.35
   2  -8  -4  382.16   40.71
   2  -8  -4  384.91   45.96
   2   8  -4  387.87   36.46
   1   8  -4  840.48   56.01
   1  -8  -4  801.27   59.86
  -1   8   4  918.30   59.45
   1  -8  -4  846.81   67.19
   0   8   4 1548.53   82.55
   0  -8  -4 1446.49   89.81
   1   8   4 1728.60   97.17
  -1  -8  -4 1598.36  100.71
   2   8   4 1296.63   93.54
  -2  -8  -4 1170.28   94.11
   3   8   4  531.22   67.54
  -3  -8  -4  478.40   66.73
  -4  -8  -4  375.34   64.51
   4   8   4  372.28   63.38
  -6   9   4   51.95   23.42
  -6  -9   4  102.63   30.13
  -5   9   4  159.17   35.59
  -5  -9   4  181.06   37.42
  -4   9   4   16.90   14.83
  -4  -9   4   44.37   18.14
   3  -9  -4  302.91   39.45
  -3   9   4  311.32   45.75
   3   9  -4  278.53   34.50
  -3  -9   4  334.11   43.52
   2   9  -4   72.54   17.87
   2  -9  -4   49.55   16.13
   2  -9  -4   77.95   20.90
   1  -9  -4  201.64   31.60
   1   9  -4  157.38   25.54
   1  -9  -4  167.44   31.38
  -1   9   4  186.48   27.07
   0   9  -4  380.89   43.15
   0  -9  -4  380.53   49.06
   0  -9  -4  418.79   46.88
   0   9   4  479.29   47.95
  -1  -9  -4   22.18   19.05
   1   9   4   14.53   11.55
   2   9   4  146.20   27.57
  -2  -9  -4  136.32   36.24
   2   9   4  137.06   32.42
  -3  -9  -4  148.64   39.65
   3   9   4  181.61   42.13
  -4  -9  -4    6.22   19.08
   4   9   4    7.61   15.23
  -6  10   4  480.48   63.70
  -5  10   4  212.29   41.11
  -5 -10   4  255.65   45.78
   4  10  -4  203.18   33.38
  -4  10   4  255.95   43.88
  -4 -10   4  221.98   37.30
   3 -10  -4  700.83   60.99
  -3  10   4  676.36   69.40
  -3 -10   4  845.64   71.57
   3  10  -4  769.14   58.43
   2 -10  -4 1726.79   92.11
  -2  10   4 1617.10  103.38
   2 -10  -4 1792.56  104.71
   2  10  -4 1727.16   80.01
   1  10  -4 1469.88   76.61
  -1  10   4 1436.38   96.52
   1 -10  -4 1602.62   88.91
   1 -10  -4 1673.79  101.86
   0  10  -4  713.04   58.77
   0  10   4  804.51   70.46
   0 -10  -4  751.46   63.25
   0  10   4  808.73   62.94
   0 -10  -4  692.92   67.60
   1  10   4  234.07   37.57
  -1 -10  -4  241.85   44.49
   1  10   4  223.23   38.06
   2  10   4  513.90   55.86
   2  10   4  504.72   61.87
  -2 -10  -4  574.96   70.94
   3  10   4 1012.72   96.87
  -3 -10  -4  890.75   94.98
  -4 -10  -4  652.52   89.04
   4  10   4  808.67   95.06
  -5  11   4   17.29   19.46
  -5 -11   4   26.85   19.12
  -4  11   4   -5.49   13.33
  -4 -11   4   -3.62   11.09
   3  11  -4   56.31   14.87
  -3  11   4   63.83   25.02
   3 -11  -4  106.49   24.66
  -3 -11   4   36.93   19.34
   2  11  -4   -5.97    5.95
  -2  11   4    7.46   15.75
   2 -11  -4   29.96   14.31
  -2 -11   4   33.36   14.47
   1 -11  -4   19.46   14.87
   1  11  -4   74.49   17.89
  -1  11   4   33.86   17.49
   1 -11  -4   51.21   21.44
   0  11  -4   53.32   15.82
   0 -11  -4   24.96   10.85
   0  11   4   38.45   16.23
   0 -11  -4   10.55   17.16
   0  11   4   33.20   15.77
   1  11   4   16.33   16.30
  -1 -11  -4    7.02   13.01
   1  11   4  -13.79   15.05
  -2 -11  -4   -7.09   15.51
   2  11   4   -6.65   16.04
  -3 -11  -4   82.93   33.58
   3  11   4   85.87   32.80
  -4  12   4   81.35   25.81
  -4 -12   4  116.08   30.79
   3 -12  -4  543.97   56.74
  -3  12   4  485.49   64.95
  -3 -12   4  431.29   55.11
  -2 -12   4 1800.11  107.85
   2 -12  -4 1713.21   96.31
  -2  12   4 1629.21  115.64
   1 -12  -4 1388.14   87.98
  -1  12   4 1226.35   97.90
   1 -12  -4 1452.75  103.26
   0  12   4  446.47   60.23
   0 -12  -4  446.34   51.39
   0 -12  -4  534.77   65.78
   1  12   4  123.17   29.75
  -1 -12  -4  122.73   36.32
   1  12   4  117.97   29.64
  -2 -12  -4  266.23   55.02
   2  12   4  304.30   51.92
  -3 -12  -4  708.03   89.42
   3  12   4  792.75   89.74
   3 -13  -4   54.72   16.70
  -3  13   4   28.06   20.43
  -3 -13   4   54.95   21.45
  -2  13   4   11.75   16.26
   2 -13  -4   29.24   15.03
  -2 -13   4   53.63   20.14
  -1  13   4   30.30   21.71
   1 -13  -4   19.65   10.33
  -1 -13   4   17.36   14.66
   0 -13  -4  107.79   26.72
   0  13   4   73.08   25.37
   0 -13  -4  137.06   34.74
   1  13   4   -3.44   10.97
  -1 -13  -4  -25.50   22.59
  -2 -13  -4   30.20   14.43
   2  13   4   23.90   14.65
   3  13   4   79.33   32.72
  -2  14   4  632.18   80.23
  -2 -14   4  569.78   64.61
  -1 -14   4  730.29   71.84
  -1  14   4  653.57   80.46
   0  14   4  367.33   59.01
   0 -14  -4  302.26   54.69
   0 -14   4  390.26   51.73
   1  14   4  344.94   56.02
  -1 -14  -4  302.99   55.71
  -1  15   4   14.91   13.71
  -1 -15   4   57.18   21.15
   0  15   4   77.86   28.46
   0 -15   4   65.13   23.64
  -1 -15  -4   42.21   28.20
   7   0  -5  -49.80   27.64
   7   0  -5   23.99   20.23
   6   0  -5   -6.92   16.51
   6   0  -5    8.84   14.16
   6   0  -5   -8.14    9.19
   5   0  -5    2.61    7.91
   5   0  -5    7.37   11.76
  -5   0   5   13.82    9.01
   4   0  -5    9.86    8.37
   4   0  -5   -0.23   10.01
   3   0  -5   11.91    8.12
   3   0  -5   -3.14    8.14
   3   0  -5    0.29    6.00
   2   0  -5   -0.35    5.09
   2   0  -5   -4.51    9.31
   2   0  -5    1.29    5.31
   2   0  -5   -5.03    5.51
   1   0  -5   20.88   10.10
   1   0  -5    7.72    7.80
   0   0  -5   -9.82   15.42
   0   0   5    3.52   10.26
   1   0   5    5.07   13.53
  -1   0  -5   -9.31   15.34
   2   0   5    4.72    4.76
  -2   0  -5    6.46   16.87
   2   0   5  -14.59   14.27
  -3   0  -5  -13.44   15.76
   3   0   5   -0.97    7.57
   3   0   5   15.72   11.55
   3   0   5    8.17   12.26
  -4   0  -5  -10.99   14.17
   4   0   5   -7.63   19.19
  -5   0  -5    8.37   14.50
   5   0   5  -19.85   25.50
   7  -1  -5  562.25   83.66
   7   1  -5  659.94   91.11
   7  -1  -5  551.53   82.36
   6  -1  -5 1523.25  123.89
   6   1  -5 1675.65  129.18
   6  -1  -5 1508.93  123.54
   6   1  -5 1897.53   94.79
   5  -1  -5 1196.16   99.95
  -5   1   5 1316.94   55.66
  -5  -1   5 1363.71   68.21
   5  -1  -5 1202.91   99.83
   5   1  -5 1299.93  103.68
   5  -1  -5 1332.39   83.49
   5   1  -5 1339.01   84.92
   4  -1  -5  598.27   64.32
   4  -1  -5  587.79   62.33
   4   1  -5  639.08   64.47
   4  -1  -5  613.60   51.15
   4   1  -5  584.27   50.89
   3  -1  -5  186.07   31.55
   3  -1  -5  186.65   25.54
   3   1  -5  145.63   23.18
   3   1  -5  165.01   30.90
   3   1  -5  160.08   22.50
   3  -1  -5  155.42   29.27
   3  -1  -5  204.32   26.85
   2   1  -5 1491.67   68.64
   2   1  -5 1301.10   57.41
   2  -1  -5 1372.43   64.65
   2  -1  -5 1427.47   67.79
   2   1  -5 1565.36   72.61
   2  -1  -5 1364.72   63.11
   1  -1  -5 4631.34  117.85
   1   1  -5 4479.58  123.30
   1   1  -5 4333.19  107.55
   1   1  -5 4254.65   78.31
   1  -1  -5 4332.82  138.79
   1   1  -5 4379.65   78.97
   0   1   5 5074.97  172.54
   0  -1  -5 5105.00  174.55
   0   1  -5 4890.26  154.46
   1  -1   5 1213.81   91.65
   1   1   5 1337.51   99.59
  -1   1  -5 1214.25   85.58
  -1  -1  -5 1369.16   98.18
   2  -1   5  180.72   22.28
  -2   1  -5  181.06   37.05
  -2  -1  -5  189.63   40.40
   2   1   5  131.13   32.73
   2  -1   5  263.08   46.10
  -3   1  -5  343.75   51.60
  -3  -1  -5  350.95   56.11
   3  -1   5  382.60   38.97
   3   1   5  424.97   42.95
   3  -1   5  419.85   62.87
   3   1   5  421.83   64.99
   4  -1   5 1749.26  133.76
   4   1   5 1717.25  135.87
  -4   1  -5 1834.48  123.19
  -4  -1  -5 1624.45  123.87
   5  -1   5 1655.82  138.57
   5   1   5 1571.79  138.42
  -5   1  -5 1328.13  111.20
  -5  -1  -5 1421.95  121.53
   7   2  -5  136.89   44.08
   7  -2  -5   79.19   35.22
   6  -2  -5  -14.02   15.10
  -6  -2   5    1.20    8.81
   6   2  -5   -2.56   18.79
   6  -2  -5   -2.75   15.15
  -5  -2   5  458.21   42.72
   5  -2  -5  402.58   31.82
   5  -2  -5  382.39   60.70
   5  -2  -5  436.29   63.48
   5   2  -5  376.92   56.32
   5   2  -5  397.69   47.73
   4  -2  -5   91.25   20.70
   4   2  -5   86.62   23.00
   4   2  -5   75.64   25.10
   4  -2  -5   93.51   26.85
   3   2  -5   11.71    7.95
   3  -2  -5    1.90    6.57
   3   2  -5   21.57   11.67
   3  -2  -5   16.19    9.58
   3  -2  -5   11.16   10.06
   2   2  -5 1153.56   62.06
   2   2  -5 1195.96   52.05
   2  -2  -5 1273.69   64.83
   2  -2  -5 1245.00   60.24
   2  -2  -5 1345.37   60.49
   1  -2  -5   95.56   24.41
   1  -2  -5  120.51   18.74
   1   2  -5  105.03   21.33
  -1   2   5   61.00   15.40
   1   2  -5  100.78   15.55
  -1   2   5   98.76   17.30
  -1   2   5  110.10   22.20
   0  -2  -5  264.68   41.55
   0   2   5  231.89   39.92
   1  -2   5  633.44   64.10
   1   2   5  618.38   69.52
  -1   2  -5  506.41   54.94
  -1  -2  -5  589.61   66.81
  -2   2  -5   45.47   19.62
   2   2   5   55.79   24.72
  -2  -2  -5   48.88   25.74
   2  -2   5   74.74   29.63
  -3   2  -5  307.08   48.01
  -3  -2  -5  349.00   57.16
   3  -2   5  330.49   54.12
   3  -2   5  324.24   38.58
   3   2   5  337.54   57.03
  -4   2  -5  188.20   40.64
  -4  -2  -5  252.55   52.05
   4  -2   5  204.03   47.20
   4   2   5  239.49   55.39
  -5   2  -5   -6.86   14.79
  -5  -2  -5   -1.79   20.11
   5  -2   5  -22.62   16.16
   5   2   5   40.56   19.10
  -6  -2  -5   47.22   26.67
   7  -3  -5  394.23   70.86
   7   3  -5  484.79   79.09
   7   3  -5  602.99   64.52
  -6  -3   5  646.62   55.76
   6   3  -5  487.55   74.89
   6  -3  -5  641.06   84.54
  -5  -3   5 1069.76   68.64
   5  -3  -5  887.78   89.92
   5   3  -5  993.47   75.09
   4  -3  -5 1008.84   68.64
   4  -3  -5 1013.27   86.26
   4  -3  -5  953.69   62.24
   4   3  -5  978.05   66.32
   3  -3  -5 1819.93   84.05
   3  -3  -5 1804.65  100.02
   3  -3  -5 1830.98   61.54
   3  -3  -5 1903.71   76.74
   3   3  -5 1763.40   81.46
   2   3  -5 1547.41   73.12
   2   3  -5 1432.78   53.32
   2  -3  -5 1511.41   72.98
   2  -3  -5 1537.88   67.83
   2  -3  -5 1419.22   74.02
   2  -3  -5 1488.74   61.56
   1  -3  -5 1905.35   69.12
   1   3  -5 1719.59   81.53
   1   3  -5 1863.11   61.67
   1  -3  -5 1709.44   81.12
  -1   3   5 1724.74   88.31
   1  -3  -5 1893.67  104.76
   0  -3  -5 1518.87  101.38
   0   3   5 1439.89   95.64
  -1   3  -5 1660.27   92.96
  -1  -3  -5 1823.47  114.99
   2  -3   5 1310.01   97.77
   2   3   5 1361.74  105.18
  -2   3  -5 1278.26   88.92
  -2  -3  -5 1533.71  109.87
   3  -3   5 1064.93   95.52
   3   3   5 1079.01  101.93
  -3   3  -5 1016.13   83.73
  -3  -3  -5 1193.11  104.06
  -4  -3  -5  647.82   82.60
   4  -3   5  832.19   89.49
  -4   3  -5  732.06   74.57
   4   3   5  656.12   86.89
  -5  -3  -5  469.07   72.46
   5  -3   5  499.19   72.78
   5   3   5  474.05   79.72
   7   4  -5   84.93   37.94
   7  -4  -5   63.33   33.77
   7   4  -5  130.23   32.20
  -6   4   5    1.52    7.40
   6  -4  -5    0.20   16.99
  -6  -4   5    7.73   11.70
   5   4  -5  143.61   31.25
   5  -4  -5   97.97   34.17
  -5  -4   5  188.64   29.84
   4  -4  -5  256.41   36.14
   4   4  -5  300.84   37.97
   4  -4  -5  230.78   46.24
   3  -4  -5   32.20   11.86
   3   4  -5   25.03    9.89
   3  -4  -5   19.33   11.13
   3  -4  -5   17.09    5.43
   2   4  -5  513.27   43.45
   2   4  -5  509.46   29.61
   2  -4  -5  507.83   44.49
   2  -4  -5  486.95   33.15
   2  -4  -5  414.33   43.56
   2  -4  -5  478.85   33.99
   1  -4  -5  435.81   31.78
   1   4  -5  409.29   40.74
   1  -4  -5  391.37   51.44
   1   4  -5  432.14   26.72
   1  -4  -5  319.96   36.61
  -1   4   5  355.92   42.83
   0   4   5  283.18   44.03
   0  -4  -5  274.48   43.56
  -1   4  -5  726.81   38.17
   1   4   5  603.20   64.93
  -1  -4  -5  632.96   68.32
  -2  -4  -5   92.02   31.00
   2   4   5   31.11   17.69
  -3   4  -5  365.83   49.83
  -3  -4  -5  394.01   60.82
   3  -4   5  324.22   52.10
   3   4   5  365.39   60.31
  -4   4  -5  154.10   34.66
  -4  -4  -5  191.46   45.43
   4  -4   5  200.52   43.06
   4   4   5  142.18   43.85
   5   4   5    3.29   20.52
  -5  -4  -5  -31.61   28.63
   5  -4   5   27.00   25.01
   7   5  -5  248.64   66.19
   7  -5  -5  141.97   45.09
   7   5  -5  285.27   48.86
  -6   5   5   37.66   15.41
   6  -5  -5   19.05   17.48
  -5  -5   5  613.17   56.48
   5   5  -5  645.01   61.96
   4  -5  -5 2180.89  104.96
   4   5  -5 2068.66   98.40
   3  -5  -5 3140.48  116.77
   3  -5  -5 3202.00   97.41
   3   5  -5 3231.97  113.82
   2   5  -5 1581.44   76.84
   2  -5  -5 1550.12   79.60
   2  -5  -5 1361.90   44.64
   2  -5  -5 1342.47   82.48
   2  -5  -5 1601.60   59.05
   1   5  -5  244.92   31.80
   1   5  -5  250.40   17.70
   1  -5  -5  284.83   44.41
   1  -5  -5  257.23   33.62
  -1   5   5  234.41   36.05
   1  -5  -5  271.88   23.04
   0  -5  -5  366.84   30.56
   0  -5  -5  368.78   51.28
   0   5   5  455.14   55.99
  -1  -5  -5 1811.52  114.75
   1   5   5 1805.39  111.09
   2   5   5 2626.33  144.02
  -2  -5  -5 2852.79  150.67
   3   5   5 1857.62  131.79
  -3  -5  -5 1795.61  129.50
  -4  -5  -5  243.19   54.32
   4   5   5  294.42   60.13
  -5  -5  -5   59.42   29.46
   5   5   5   80.81   30.39
  -7  -6   5  -13.12   11.76
   7   6  -5  -21.69   17.41
  -6   6   5    1.03    8.73
  -6  -6   5   23.16   14.66
   5   6  -5   29.67   16.25
  -5  -6   5   25.69   16.01
   4   6  -5    5.06    8.93
   4  -6  -5    9.08    8.28
   3   6  -5   37.18   12.33
   3  -6  -5   37.56   16.00
   2  -6  -5   54.25   16.94
   2  -6  -5   33.73    9.12
   2   6  -5   29.30   11.15
   2  -6  -5   21.54   12.83
   1  -6  -5   -1.45    3.08
   1   6  -5    9.29    9.28
   1  -6  -5    2.79    9.90
   1  -6  -5   -3.84    8.94
   1   6  -5    0.74    1.37
  -1   6   5    6.84   10.95
   0  -6  -5    9.85    4.86
   0  -6  -5   -3.02   10.77
   0   6   5    6.50   10.54
  -1  -6  -5    4.20   11.11
   1   6   5   21.09   17.19
  -2  -6  -5    7.20   18.22
   2   6   5    4.88   13.59
  -3  -6  -5   -3.03   19.68
   3   6   5   26.00   22.17
  -4  -6  -5  -29.26   25.91
   4   6   5  -14.44   18.59
  -5  -6  -5   23.95   22.33
   7   7  -5  295.89   51.84
  -7  -7   5  360.81   55.83
  -6   7   5  113.72   29.28
  -6  -7   5  210.54   38.78
   5   7  -5  332.06   45.30
  -5   7   5  347.88   47.54
  -5  -7   5  339.36   46.09
   4  -7  -5 1539.81   93.02
   4   7  -5 1627.10   89.96
   3  -7  -5 2285.01  106.19
   3   7  -5 2211.95   98.08
   2   7  -5 1814.45   85.28
   2  -7  -5 1620.18  103.10
   2  -7  -5 1824.97   92.91
   1   7  -5  184.37   29.28
   1  -7  -5  229.49   33.59
   1  -7  -5  249.55   42.75
  -1   7   5  205.85   33.61
   1  -7  -5  221.73   16.58
   0  -7  -5  267.60   19.74
   0  -7  -5  265.23   44.26
   0   7   5  311.95   44.16
   1   7   5 1278.61   92.35
  -1  -7  -5 1099.49   90.88
   2   7   5 2829.55  148.71
  -2  -7  -5 2763.39  153.91
   3   7   5 1293.51  111.32
  -3  -7  -5 1293.57  113.58
  -4  -7  -5  136.77   41.89
   4   7   5  242.25   55.33
  -6   8   5  -19.14   14.79
  -6  -8   5   21.63   16.28
   5   8  -5  166.64   33.29
  -5   8   5  117.19   30.39
  -5  -8   5  141.52   31.31
   4   8  -5  176.12   30.66
   4  -8  -5  198.90   34.90
  -4  -8   5  224.01   37.55
   3   8  -5   49.67   15.99
   3  -8  -5   53.47   19.14
   2   8  -5  357.83   39.45
   2  -8  -5  375.24   44.09
   2  -8  -5  298.82   46.42
   1   8  -5  113.99   23.04
   1  -8  -5  123.17   26.65
   1  -8  -5  139.50   31.54
  -1   8   5  198.27   33.39
   0  -8  -5  227.49   40.64
   0   8   5  219.20   36.74
  -1  -8  -5  219.99   43.42
   1   8   5  266.44   44.03
  -2  -8  -5   -5.08   13.64
   2   8   5    5.15   15.07
  -3  -8  -5  148.16   43.14
   3   8   5  134.27   37.73
  -4  -8  -5   99.32   44.80
   4   8   5   92.65   37.05
  -6   9   5  498.73   63.98
  -6  -9   5  458.56   62.20
  -5  -9   5  510.31   62.51
  -5   9   5  519.11   63.19
   5   9  -5  570.19   61.26
   4  -9  -5  568.24   60.18
  -4  -9   5  685.41   67.19
  -4   9   5  609.02   65.68
   4   9  -5  619.60   57.34
   3  -9  -5  690.27   62.60
   3   9  -5  754.39   59.07
   2  -9  -5 1026.59   86.12
   2  -9  -5  866.34   69.84
   2   9  -5  811.32   59.44
   1   9  -5 1262.13   77.15
   1  -9  -5 1265.83   83.73
  -1   9   5 1342.22   86.71
   1  -9  -5 1122.41   90.52
   0   9  -5  823.30   72.05
   0  -9  -5  967.30   85.36
   1   9   5  750.46   73.01
  -1  -9  -5  828.93   83.13
   2   9   5  699.82   76.91
  -2  -9  -5  729.53   83.83
  -3  -9  -5  544.73   79.99
   3   9   5  392.85   66.24
  -4  -9  -5  509.65   84.66
   4   9   5  456.03   80.28
  -6  10   5    6.89   16.83
   5  10  -5   79.42   24.15
  -5  10   5   39.94   23.10
  -5 -10   5   63.48   22.57
   4 -10  -5  163.92   34.07
   4  10  -5  132.40   28.36
  -4  10   5   93.78   27.42
  -4 -10   5  138.52   31.20
   3  10  -5    8.36    6.53
  -3  10   5   19.83   13.26
   3 -10  -5   18.98    9.79
   2  10  -5  195.81   29.68
   2 -10  -5  119.61   26.20
   1 -10  -5   98.64   26.73
   1  10  -5  117.77   25.15
   1 -10  -5   88.60   30.30
   0  10  -5   44.80   19.78
   0 -10  -5   36.34   17.60
   0 -10  -5   73.16   23.45
   0  10   5   54.88   17.32
  -1 -10  -5  283.07   50.96
   1  10   5  304.31   48.45
  -2 -10  -5   -6.96   14.96
   2  10   5  -15.75   16.76
  -3 -10  -5  136.48   40.13
   3  10   5   75.89   36.14
  -5 -11   5  680.34   75.74
  -5  11   5  662.96   76.91
   4  11  -5  197.49   33.15
  -4  11   5  165.86   38.13
  -4 -11   5  219.88   40.38
   3 -11  -5  143.97   30.75
   3  11  -5  160.99   28.54
  -3  11   5  123.53   31.39
  -3 -11   5  161.96   33.29
   2 -11  -5  481.91   54.31
  -2  11   5  471.37   60.24
   2  11  -5  480.71   46.58
   1  11  -5 1910.52   97.25
  -1  11   5 1617.61  108.34
   1 -11  -5 1831.38  105.56
   1 -11  -5 2038.24  130.70
   0  11  -5 1201.72   86.00
   0  11   5 1299.06   97.41
   0 -11  -5 1410.20   96.52
   0 -11  -5 1271.93  103.82
   1  11   5  401.13   54.41
  -1 -11  -5  521.34   70.21
   1  11   5  551.86   65.04
  -2 -11  -5   99.61   36.01
   2  11   5  105.09   32.59
  -3 -11  -5  218.05   53.49
   3  11   5  189.29   46.08
  -4  12   5   19.93   16.52
  -4 -12   5   -8.94   13.15
  -3  12   5    8.50   14.68
   3 -12  -5    3.68   11.98
  -3 -12   5   -3.60   13.70
  -2  12   5   20.41   23.35
   2 -12  -5    3.71   12.93
   1 -12  -5   10.24   14.49
  -1  12   5   -8.79   16.75
   1 -12  -5   -4.71   13.83
   0  12  -5   22.16   14.12
   0 -12  -5   -6.19   15.18
   0  12   5   19.68   16.00
   0 -12  -5   31.13   16.37
  -1  12  -5  -16.85   19.52
   1  12   5   -1.87   16.07
  -1 -12  -5   18.44   18.73
   1  12   5    4.10   15.64
  -2 -12  -5   16.54   23.97
   2  12   5   56.60   25.65
   3  12   5   16.57   21.78
  -3  13   5  122.86   35.39
   3 -13  -5  181.19   36.72
  -3 -13   5  173.04   37.38
  -2 -13   5  550.06   65.49
   2 -13  -5  506.15   58.36
  -2  13   5  432.57   63.73
   1 -13  -5  908.55   77.10
  -1  13   5  678.66   78.53
   0  13   5  976.15   94.27
   0 -13  -5 1039.53   84.22
   0 -13  -5  885.72   94.47
   1  13   5  222.64   45.38
  -1 -13  -5  311.93   49.03
  -1 -13  -5  346.23   61.69
  -2 -13  -5   72.52   28.94
   2  13   5  114.91   33.33
  -2  14   5  116.22   35.42
  -2 -14   5   95.48   26.23
  -1  14   5   27.68   19.18
  -1 -14   5   91.38   30.72
   0  14   5   45.75   24.43
   0 -14  -5   20.51   19.73
  -1 -14  -5  105.37   34.19
   0  15   5  450.95   71.04
   0 -15   5  494.79   63.68
   7   0  -6  141.98   45.43
   7   0  -6   95.96   35.21
   6   0  -6  683.52   83.73
   6   0  -6  895.90   95.75
   5   0  -6 2256.05  135.83
   5   0  -6 2694.34  122.96
   5   0  -6 2503.15  142.99
   4   0  -6 2025.81   92.88
   4   0  -6 1931.64  111.20
   4   0  -6 2025.89  114.82
   4   0  -6 1971.84   95.13
   3   0  -6  199.25   31.36
   3   0  -6  234.99   31.46
   3   0  -6  271.61   31.62
   3   0  -6  261.31   36.36
   2   0  -6   52.02   14.01
   2   0  -6   54.03   14.80
   2   0  -6   44.99   12.83
   1   0  -6 1766.47   85.23
   1   0  -6 1829.53   96.66
   0   0   6 4250.35  167.23
   0   0  -6 4319.32  168.16
   1   0   6 4294.25  185.89
  -1   0  -6 4671.53  187.10
  -2   0  -6  413.13   59.17
   2   0   6  476.41   66.64
  -3   0  -6   87.61   30.76
   3   0   6  171.68   44.18
  -4   0  -6  353.36   61.31
   4   0   6  292.82   59.11
  -5   0  -6  853.03   94.63
   5   0   6  814.07  103.56
   7  -1  -6  -21.71   24.04
   7  -1  -6   41.25   30.02
   7   1  -6   -0.35   16.61
   7   1  -6  -10.87   22.77
   6   1  -6    4.78   19.59
   6  -1  -6   -3.90   16.86
   5  -1  -6   58.88   21.28
   5   1  -6   36.02   17.09
   5  -1  -6    1.70   12.41
   5  -1  -6   28.34   17.35
   5   1  -6   -0.86   12.03
   4  -1  -6  400.71   42.77
   4  -1  -6  363.81   50.34
   4  -1  -6  338.58   48.97
   4   1  -6  317.40   45.03
   4  -1  -6  378.49   41.74
   4   1  -6  367.82   41.67
   3  -1  -6   67.73   17.17
   3   1  -6   75.11   18.57
   3  -1  -6   62.35   17.99
   3   1  -6   57.34   14.03
   3  -1  -6   98.52   20.02
   3   1  -6   41.63   17.24
   2   1  -6   26.97   10.13
   2  -1  -6   14.29    9.02
   2  -1  -6   27.83   12.03
   2   1  -6   22.02   11.84
   2   1  -6   33.87   11.79
   2  -1  -6   25.21    9.43
   1  -1  -6  516.45   44.64
   1   1  -6  525.98   48.04
   1   1  -6  356.56   20.54
   1  -1  -6  507.92   54.32
   0   1  -6   17.15   14.08
   0  -1  -6   23.06   18.25
   0   1   6   19.68   14.55
  -1   1  -6  156.49   36.20
   1   1   6  121.54   11.70
  -1  -1  -6   78.19   26.51
   1  -1   6  112.42   32.22
   1   1   6  127.45   33.68
  -2   1  -6  130.62   33.94
  -2  -1  -6  144.70   38.63
   2   1   6  187.01   21.55
   2  -1   6  186.46   41.84
   2   1   6  128.59   37.18
  -3   1  -6   37.65   26.53
  -3  -1  -6   31.74   22.51
   3  -1   6   10.22   17.51
   3   1   6  -29.39   24.77
  -4   1  -6   12.26   15.46
  -4  -1  -6   75.74   31.70
   4  -1   6   37.78   27.93
   4   1   6   -1.43   25.29
   5  -1   6   20.94   28.23
  -5   1  -6   -6.95   16.65
  -5  -1  -6   10.18   20.45
   5   1   6   10.58   17.50
   7  -2  -6  150.85   44.29
   7   2  -6  207.62   52.85
   6   2  -6  535.29   74.05
   6  -2  -6  569.66   77.37
   6   2  -6  693.22   70.42
   5  -2  -6 1820.70  124.80
   5   2  -6 1638.51  116.62
   5  -2  -6 1873.78  101.23
   5   2  -6 1859.50  104.35
   4  -2  -6 1672.67   88.57
   4  -2  -6 1694.76  107.41
   4   2  -6 1510.47   99.40
   4  -2  -6 1691.09   86.69
   4   2  -6 1776.48   92.46
   3   2  -6  499.39   39.56
   3  -2  -6  488.86   44.99
   3  -2  -6  504.80   52.68
   3   2  -6  493.61   49.53
   3  -2  -6  476.05   42.05
   3   2  -6  531.26   47.23
   2   2  -6  495.10   44.82
   2   2  -6  406.69   34.10
   2  -2  -6  449.00   41.84
   2   2  -6  499.01   41.17
   2  -2  -6  440.08   46.26
   2  -2  -6  496.11   40.84
   1  -2  -6 1618.41   76.71
   1   2  -6 1454.97   81.73
   1   2  -6 1504.82   69.81
   1  -2  -6 1548.57  100.97
   1   2  -6 1565.48   45.05
   0   2   6 2931.40   79.88
   0   2   6 3324.07  155.20
   0  -2  -6 3481.06  162.06
   1  -2   6 2136.77  126.67
   1   2   6 2209.99  135.42
  -1   2  -6 2054.20  116.36
  -1  -2  -6 2346.20  138.82
  -2  -2  -6  755.66   82.37
   2  -2   6  808.05   84.82
   2   2   6  735.60   83.84
  -2   2  -6  650.84   71.70
  -3   2  -6  378.54   57.85
  -3  -2  -6  368.53   61.41
   3  -2   6  387.09   61.31
   3   2   6  429.21   67.25
  -4  -2  -6  652.59   85.28
   4  -2   6  826.82   94.93
  -4   2  -6  579.57   73.60
   4   2   6  707.66   92.64
  -5   2  -6  577.28   74.28
  -5  -2  -6  677.55   91.25
   5  -2   6  826.03  100.33
   5   2   6  656.98   96.48
   7  -3  -6  119.15   39.24
   7   3  -6  100.12   37.54
   6   3  -6  212.70   39.93
   6   3  -6  160.72   44.75
  -6  -3   6  256.56   36.11
   5   3  -6    9.94   10.25
   5   3  -6   -7.75   18.13
   5  -3  -6    5.15   14.51
   4  -3  -6  736.05   60.84
   4  -3  -6  685.13   71.93
   4  -3  -6  677.57   54.60
   4   3  -6  754.60   60.77
   3   3  -6  327.81   31.42
   3  -3  -6  345.50   39.02
   3  -3  -6  338.79   32.84
   3  -3  -6  308.18   33.23
   3   3  -6  407.87   42.30
   2  -3  -6  107.82   21.75
   2  -3  -6  134.37   25.48
   2  -3  -6  131.56   20.53
   2   3  -6  122.78   23.64
   2   3  -6  126.94   18.24
   1  -3  -6 1043.66   59.38
   1   3  -6  946.99   67.62
   1   3  -6 1015.83   54.21
  -1   3   6  944.66   74.86
   1  -3  -6  990.68   84.24
   0   3   6  213.15   41.32
   0  -3  -6  197.94   41.93
  -1  -3  -6  400.04   59.95
  -1   3  -6  358.56   48.80
   1   3   6  467.09   62.88
  -2  -3  -6  485.32   68.12
   2  -3   6  650.10   75.39
   2   3   6  643.55   78.15
  -2   3  -6  556.32   63.17
  -3   3  -6   -9.14   13.98
  -3  -3  -6   -6.93   15.76
   3   3   6   11.55   20.55
   3  -3   6   -8.62   14.11
   4  -3   6  214.24   46.83
  -4   3  -6  113.14   32.18
  -4  -3  -6  203.22   47.70
   4   3   6  197.14   54.15
  -5  -3  -6   91.26   39.64
   5  -3   6   91.74   38.91
   7   4  -6  691.00   98.62
   7  -4  -6  335.47   67.64
  -6  -4   6  482.77   50.52
   6   4  -6  391.22   54.57
   6   4  -6  332.83   64.15
   6  -4  -6  334.76   65.29
   5   4  -6  258.61   40.06
   5  -4  -6  271.70   54.48
   4  -4  -6  646.30   58.61
   4  -4  -6  619.65   51.43
   4   4  -6  671.51   58.85
   3  -4  -6 2145.50   99.05
   3  -4  -6 2120.71   84.27
   3   4  -6 2196.38   98.03
   2   4  -6 2773.60  109.60
   2   4  -6 2625.63   75.23
   2  -4  -6 2614.04  107.41
   2  -4  -6 2639.25   87.74
   1  -4  -6 1173.78   59.46
   1   4  -6 1173.05   77.15
   1   4  -6 1202.00   54.16
   1  -4  -6 1066.65   73.63
  -1   4   6  961.04   75.19
   1  -4  -6 1252.58   99.55
   0  -4  -6  511.56   44.86
   0   4  -6  567.03   30.52
   0   4   6  678.99   73.01
   0  -4  -6  679.11   74.62
  -1  -4  -6  484.63   66.50
   1   4   6  607.60   72.96
   2   4   6 1775.55  127.80
  -2  -4  -6 1674.84  125.26
   3   4   6 1414.37  122.74
  -3   4  -6 1344.28  101.20
  -3  -4  -6 1276.84  115.24
  -4  -4  -6  750.34   94.40
   4  -4   6  789.25   91.13
   4   4   6  777.43   98.39
  -4   4  -6  732.76   77.23
  -5  -4  -6  380.49   73.32
   5  -4   6  315.95   62.12
   7   5  -6    4.42   21.78
   6   5  -6   77.43   24.36
  -6  -5   6   90.27   24.27
   5   5  -6    5.88   16.40
  -5  -5   6    7.38   11.64
   4  -5  -6   48.72   14.78
   4   5  -6   42.50   17.62
   4  -5  -6   46.23   20.57
   3  -5  -6  196.34   25.81
   3   5  -6  204.20   30.98
   3  -5  -6  214.48   32.13
   2  -5  -6   91.80   21.73
   2  -5  -6   81.58   15.67
   2  -5  -6   94.26   29.28
   2   5  -6  107.47   22.76
   2   5  -6   96.40   13.46
   1   5  -6  122.83   16.02
   1  -5  -6  145.21   20.17
   1   5  -6  150.27   28.71
   1  -5  -6  110.02   31.18
   1  -5  -6  120.94   26.18
  -1   5   6   93.29   23.98
   0  -5  -6   30.15   11.77
   0  -5  -6   59.03   23.52
   0   5   6   57.87   26.31
  -1  -5  -6  129.84   36.95
   1   5   6  114.01   32.30
  -2  -5  -6   71.15   24.35
   2   5   6   60.17   26.40
  -3  -5  -6   36.39   21.97
   3   5   6   18.76   16.87
  -4  -5  -6   48.77   21.72
   4   5   6   29.43   28.58
   6   6  -6  326.98   50.85
  -6  -6   6  341.03   46.73
   5   6  -6   81.27   25.17
  -5  -6   6   65.19   22.99
   4   6  -6  302.28   40.27
   4  -6  -6  240.34   37.99
   3  -6  -6 2719.54  118.55
   3  -6  -6 2506.75   98.22
   3  -6  -6 2466.87   87.61
   3   6  -6 2717.07  112.72
   2   6  -6 3128.48  120.69
   2  -6  -6 3317.21  129.79
   2  -6  -6 3201.72  149.73
   2  -6  -6 3182.76   87.93
   1   6  -6 1220.57   82.48
   1   6  -6 1253.43   41.67
   1  -6  -6 1290.04   84.71
  -1   6   6 1249.26   90.80
   1  -6  -6 1367.91  106.20
   1  -6  -6 1272.69   53.55
   0  -6  -6   38.92   11.93
   0  -6  -6   87.50   29.87
   0   6   6   83.00   29.44
  -1  -6  -6  224.86   45.89
   1   6   6  247.11   47.17
   2   6   6 1630.60  124.79
  -2  -6  -6 1435.38  118.48
   3   6   6 1957.65  146.43
  -3  -6  -6 1622.53  135.15
   4   6   6  821.87  103.41
  -4  -6  -6  850.98  104.06
  -7  -7   6   10.95   15.36
   6   7  -6   30.36   22.96
  -6   7   6   47.60   20.03
  -6  -7   6    7.93   13.51
   5   7  -6    6.10   14.05
  -5  -7   6   20.20   19.45
   4   7  -6  147.19   29.26
   4  -7  -6  136.14   30.23
   3   7  -6   71.72   18.64
   3  -7  -6   91.35   24.23
   2  -7  -6   32.36   16.77
   2  -7  -6   31.90    9.32
   2   7  -6   60.95   18.87
   2  -7  -6    9.96   12.56
   1  -7  -6   79.28   12.16
   1   7  -6  105.87   24.57
   1  -7  -6   72.50   25.29
   1  -7  -6   55.80   19.49
  -1   7   6   91.20   26.46
   0  -7  -6   53.57   11.53
   0  -7  -6   62.68   27.05
   0   7   6   75.43   28.93
  -1  -7  -6    9.09   16.73
   1   7   6   93.90   31.29
  -2  -7  -6   85.35   32.16
   2   7   6   90.20   34.37
  -3  -7  -6  -17.69   17.11
   3   7   6    9.65   19.45
  -4  -7  -6  -27.11   27.76
   4   7   6  -24.58   32.70
   6   8  -6  420.22   58.63
  -6   8   6  327.14   50.78
  -6  -8   6  462.33   60.76
   5   8  -6  298.16   44.29
  -5  -8   6  283.87   45.27
   4  -8  -6  449.77   54.03
   4   8  -6  503.17   53.37
   3  -8  -6 1077.41   79.52
   3   8  -6 1102.89   74.91
   2   8  -6 1630.72   90.81
   2  -8  -6 1602.46   96.05
   2  -8  -6 1519.52  113.39
   1   8  -6 1057.16   79.19
   1  -8  -6 1050.09   80.94
  -1   8   6 1181.77   90.67
   1  -8  -6 1124.93   97.92
   0   8  -6  308.63   47.52
   0  -8  -6  331.68   53.66
   0   8   6  351.10   52.54
   1   8   6  610.46   72.69
  -1  -8  -6  591.53   74.59
   2   8   6  839.96   90.65
  -2  -8  -6  752.79   88.99
   3   8   6 1061.31  112.48
  -3  -8  -6 1100.92  114.32
  -6   9   6  136.48   34.93
  -6  -9   6  158.16   36.56
   6   9  -6  160.02   36.68
   5   9  -6   -0.75   19.34
  -5   9   6    9.02   11.48
  -5  -9   6    0.13   11.99
   4   9  -6  297.21   41.38
   4  -9  -6  264.46   43.49
   3  -9  -6  386.68   50.03
   3   9  -6  404.71   45.87
   2   9  -6  165.19   30.00
   2  -9  -6  148.69   40.70
   2  -9  -6  121.19   28.31
   1   9  -6  413.25   50.44
   1  -9  -6  355.33   48.78
   1  -9  -6  359.18   57.85
   0   9  -6   38.93   16.90
   0  -9  -6   77.34   27.86
   0   9   6   28.94   16.96
  -1  -9  -6  218.68   49.97
   1   9   6  258.67   47.61
  -2  -9  -6  162.19   44.05
   2   9   6  193.87   45.52
  -3  -9  -6   11.95   15.65
   3   9   6   -6.37   19.26
  -5 -10   6  889.78   82.95
  -5  10   6  690.61   76.54
   5  10  -6  782.78   73.45
   4 -10  -6  729.17   72.62
  -4 -10   6  792.26   77.64
  -4  10   6  715.22   75.12
   4  10  -6  691.09   64.13
   3  10  -6  253.59   36.77
   3 -10  -6  275.29   43.41
   2  10  -6  488.80   50.26
   2 -10  -6  406.64   52.78
   1  10  -6  619.07   61.34
   1 -10  -6  548.08   73.94
   1 -10  -6  509.20   59.06
   0  10  -6 1262.70   99.22
   0 -10  -6 1276.59   97.62
   0  10   6 1386.40  105.21
   0 -10  -6 1280.57  109.31
   1  10   6 1090.53   97.53
  -1 -10  -6 1040.52  102.47
  -2 -10  -6  391.41   67.70
   2  10   6  612.14   79.33
  -3 -10  -6  111.65   39.79
   3  10   6  144.22   45.02
  -5  11   6   33.31   18.37
   4  11  -6   29.79   19.88
  -4  11   6    2.63   13.07
   4 -11  -6   16.17   12.04
  -4 -11   6   24.11   20.38
   3  11  -6   37.32   14.99
  -3  11   6   16.76   16.54
   3 -11  -6   28.26   17.42
   2  11  -6   15.47   12.45
   2 -11  -6   -6.91    9.37
   1 -11  -6   88.03   25.00
   1  11  -6  100.66   24.94
   1 -11  -6   72.68   29.25
   0  11  -6   -5.59   15.05
   0 -11  -6    4.93   15.03
   0 -11  -6  -26.19   18.53
  -1 -11  -6   26.10   25.54
   1  11   6   49.83   27.82
  -2 -11  -6   58.34   30.71
   2  11   6   74.73   35.93
   4 -12  -6  689.45   73.76
  -4  12   6  625.70   78.23
  -3  12   6  143.03   37.00
   3 -12  -6  141.92   33.12
  -3 -12   6  138.36   34.49
   2  12  -6   54.35   19.76
  -2  12   6   10.55   12.02
   2 -12  -6   82.07   23.97
   1  12  -6  576.17   59.57
   1 -12  -6  503.24   61.63
  -1  12   6  406.31   60.57
   0  12  -6 1492.67  106.96
   0  12   6 1210.27  102.12
   0 -12  -6 1380.41  104.95
   0 -12  -6 1671.24  133.41
  -1  12  -6  908.10   92.42
   1  12   6  654.39   74.85
  -1 -12  -6  816.14   95.77
  -2 -12  -6  276.71   62.78
   2  12   6  292.64   59.76
   4 -13  -6   29.97   25.00
   3 -13  -6    6.27   14.68
  -2  13   6   62.02   21.73
   2 -13  -6   20.57   16.44
  -1  13   6   37.43   16.68
   1 -13  -6   31.45   19.74
   0 -13  -6   14.14   16.21
   0  13   6  -22.95   18.07
   0 -13  -6    2.60   20.98
  -1 -13  -6   13.75   18.95
  -1 -13  -6   55.12   32.98
   3 -14  -6  258.71   44.37
   2 -14  -6   97.70   27.11
  -1  14   6  378.91   60.92
   1 -14  -6  385.58   55.90
   0  14   6  401.64   63.96
   7   0  -7   22.78   18.44
   7   0  -7  -13.03   20.57
   6   0  -7   19.77   14.85
   6   0  -7    6.79   17.03
   6   0  -7  -12.15   15.44
   5   0  -7    3.12   11.04
   5   0  -7    2.67   11.09
   5   0  -7  -16.32   15.23
   4   0  -7   13.16   11.49
   4   0  -7    6.22   12.32
   4   0  -7    9.88   10.59
   4   0  -7   19.92   11.44
   3   0  -7  -11.34    8.51
   3   0  -7   -8.48   10.42
   3   0  -7    6.00    8.63
   2   0  -7    7.43    8.68
   2   0  -7    0.72    7.52
   2   0  -7   -5.46    4.90
   1   0  -7   -2.22    8.14
   1   0  -7   -1.56    9.43
   0   0  -7   -5.51   17.26
  -1   0  -7  -25.78   19.27
   1   0   7   -4.94   19.75
  -2   0  -7   20.13   16.26
   2   0   7  -30.29   21.85
  -3   0  -7   30.42   23.03
   3   0   7   28.68   23.06
  -4   0  -7  -14.88   25.65
   4   0   7    8.57   29.03
  -5   0  -7   -9.37   22.98
   7   1  -7   74.36   33.62
   7   1  -7   60.86   29.94
   7  -1  -7   82.58   34.88
   6   1  -7  185.60   37.80
   6  -1  -7  102.87   34.03
   6  -1  -7  278.21   54.79
   6   1  -7  150.16   40.64
   6   1  -7  186.34   44.70
   6  -1  -7  201.00   38.70
   5  -1  -7 1723.21  123.37
   5  -1  -7 1517.23  112.70
   5   1  -7 1502.50  110.68
   5  -1  -7 1648.78   99.28
   5   1  -7 1722.10  102.45
   4   1  -7 2385.73  102.76
   4  -1  -7 2288.40  106.18
   4  -1  -7 2556.04  128.49
   4   1  -7 2381.80  123.67
   4  -1  -7 2481.94  111.28
   4   1  -7 2492.81  113.64
   3   1  -7 1548.89   77.34
   3  -1  -7 1461.36   80.22
   3   1  -7 1368.26   79.90
   3  -1  -7 1447.80   82.70
   3   1  -7 1474.24   82.46
   3  -1  -7 1501.38   80.74
   3   1  -7 1429.42   81.09
   2  -1  -7  370.78   40.20
   2   1  -7  342.05   40.68
   2   1  -7  345.80   36.79
   2  -1  -7  330.22   39.82
   2   1  -7  359.76   31.18
   1  -1  -7  229.80   40.42
   1  -1  -7  166.52   28.87
   1   1  -7  152.20   29.05
   0   1   7 1808.48  121.33
   0   1  -7 1711.97  111.65
   0  -1  -7 1634.42  117.26
   1  -1   7 2517.70  150.80
   1   1   7 2438.81  151.06
  -1   1  -7 2429.38  141.21
  -1  -1  -7 2668.91  155.62
   2  -1   7 2095.34  144.60
   2   1   7 2101.92  147.08
  -2   1  -7 1986.25  133.97
  -2  -1  -7 2052.80  142.58
  -3   1  -7  541.35   73.39
  -3  -1  -7  578.67   79.43
   3  -1   7  662.72   86.33
   3   1   7  585.39   85.00
  -4   1  -7  115.64   45.16
  -4  -1  -7  189.80   49.12
   4  -1   7  204.73   52.41
   4   1   7  169.80   52.68
  -5   1  -7  185.85   50.61
   7   2  -7   -4.57   15.42
   7  -2  -7   33.98   25.03
   6   2  -7  256.50   51.96
   6   2  -7  196.32   39.16
   6  -2  -7  198.99   44.84
   5  -2  -7  186.92   35.30
   5   2  -7  250.84   39.71
   5  -2  -7  223.46   44.73
   5   2  -7  178.26   39.09
   4  -2  -7   -6.67    8.56
   4   2  -7   -0.92    9.59
   4  -2  -7    5.21   11.29
   4  -2  -7   10.27   11.58
   4   2  -7   -1.32    9.63
   3   2  -7  520.21   43.33
   3  -2  -7  536.98   50.23
   3   2  -7  554.75   51.30
   3  -2  -7  501.19   46.86
   3   2  -7  479.44   47.84
   2   2  -7  129.52   21.93
   2   2  -7  177.51   23.45
   2  -2  -7  120.32   24.57
   2  -2  -7  170.02   27.06
   2   2  -7  159.92   28.97
   2  -2  -7  122.22   27.94
   1  -2  -7   21.05   18.59
   1  -2  -7   58.15   18.35
   1   2  -7   36.46   14.06
  -1   2   7   24.33   10.80
   1   2  -7   39.35   13.39
   0   2   7  849.24   85.42
   0  -2  -7  892.91   88.89
  -1   2  -7  -13.64   15.79
  -1  -2  -7  -19.71   22.83
   1   2   7   14.91   16.64
  -2   2  -7   65.30   22.82
  -2  -2  -7   92.76   33.59
   2  -2   7   49.24   23.83
   2   2   7   74.51   32.74
  -3   2  -7  280.96   53.34
  -3  -2  -7  285.05   58.11
   3  -2   7  237.91   51.94
   3   2   7  342.78   66.25
  -4   2  -7    6.17   17.41
  -4  -2  -7    7.68   26.41
   4  -2   7  -29.18   24.69
   4   2   7  -23.95   21.95
   7   3  -7  333.66   67.43
   7  -3  -7  291.42   62.15
  -6  -3   7  605.02   58.06
   6  -3  -7  450.72   71.39
   6   3  -7  486.50   74.54
   6   3  -7  554.27   65.58
   5   3  -7  543.30   68.42
   5  -3  -7  490.50   67.95
   5  -3  -7  616.28   60.32
   5   3  -7  665.58   65.10
   4  -3  -7  906.57   69.97
   4  -3  -7  942.33   83.53
   4   3  -7  872.61   76.26
   4  -3  -7 1044.17   70.67
   4   3  -7 1011.38   74.28
   3   3  -7 1121.59   60.64
   3  -3  -7 1201.08   77.60
   3   3  -7 1052.92   71.81
   3  -3  -7 1149.70   68.69
   3   3  -7 1191.14   76.01
   2   3  -7 1025.00   71.72
   2   3  -7 1119.54   59.76
   2  -3  -7 1085.77   74.16
   2   3  -7 1143.83   61.84
   2  -3  -7 1071.39   83.55
   2  -3  -7 1140.14   66.71
   1  -3  -7 1335.00   75.69
   1   3  -7 1238.16   86.15
   1  -3  -7 1376.47  107.09
   1   3  -7 1321.26   71.20
  -1   3   7 1527.17  101.62
   1   3  -7 1078.76   34.05
   0   3   7 1182.31  103.24
   0  -3  -7 1100.93  101.98
   1   3   7 1341.97  113.36
  -1  -3  -7 1507.15  121.01
   2   3   7  823.13   93.50
  -2   3  -7  758.76   79.24
  -2  -3  -7  877.38   96.39
  -3  -3  -7  757.68   91.94
   3  -3   7  735.03   89.17
   3   3   7  951.94  105.11
  -3   3  -7  631.86   75.66
  -4   3  -7  455.87   66.40
  -4  -3  -7  598.78   86.93
   4  -3   7  617.90   86.28
   4   3   7  583.87   89.23
   7  -4  -7   32.79   25.07
   7   4  -7  -27.93   34.84
   6   4  -7  187.53   39.54
   6   4  -7  152.88   44.11
   6  -4  -7  181.30   47.26
  -6  -4   7  189.09   35.17
   5   4  -7  212.50   37.54
   5   4  -7  236.72   49.19
   5  -4  -7  211.40   35.32
   4  -4  -7   25.96   11.29
   4   4  -7   24.19   12.09
   4  -4  -7   23.99   13.49
   3   4  -7  263.52   28.57
   3  -4  -7  242.06   30.93
   3   4  -7  282.69   38.06
   3  -4  -7  305.17   40.07
   2  -4  -7  155.42   34.72
   2  -4  -7  174.76   25.84
   2  -4  -7  157.86   30.00
   2   4  -7  156.37   28.81
   2   4  -7  166.24   21.29
   1  -4  -7  118.34   36.34
   1  -4  -7  201.83   28.51
   1   4  -7  166.31   33.41
   1   4  -7  122.89   19.93
   1  -4  -7   84.66   24.40
  -1   4   7  167.27   35.42
   0  -4  -7  269.86   51.24
   0  -4  -7  196.38   31.19
   0   4   7  260.59   47.52
  -1  -4  -7    9.27   15.09
   1   4   7   40.37   25.03
  -2  -4  -7  134.64   37.76
   2   4   7   78.62   33.82
  -3  -4  -7  132.24   48.12
   3   4   7  113.79   45.56
  -4  -4  -7   21.83   18.54
   4   4   7   19.62   29.59
  -6  -5   7 1174.68   86.28
   6   5  -7  914.74  107.67
   6   5  -7 1132.03   94.42
   5  -5  -7  284.76   45.11
   5   5  -7  235.66   39.42
   4  -5  -7  137.93   25.45
   4   5  -7  159.21   30.86
   4  -5  -7  106.45   25.88
   3  -5  -7  559.86   56.31
   3  -5  -7  474.89   41.95
   3   5  -7  504.44   51.72
   2   5  -7 2333.91  112.67
   2   5  -7 2226.72   71.59
   2  -5  -7 2040.69  107.08
   2  -5  -7 2046.54  125.98
   2  -5  -7 2213.49   85.26
   1  -5  -7 2806.53   98.30
   1   5  -7 2743.81  133.74
   1   5  -7 3048.57   92.24
   1  -5  -7 2625.46  128.90
  -1   5   7 2780.59  144.56
   1  -5  -7 3171.44  171.11
   0  -5  -7  685.30   55.03
   0   5   7 1003.93   94.20
   0  -5  -7  922.57   93.88
   1   5   7  250.11   51.57
  -1  -5  -7  221.86   47.93
  -2  -5  -7  170.28   43.89
   2   5   7  331.38   59.94
   3   5   7 1040.19  112.72
  -3  -5  -7  841.21  101.48
   4   5   7 1311.51  133.84
  -4  -5  -7 1112.46  122.17
   6   6  -7   11.09   13.75
  -6  -6   7   -3.86   12.37
   5  -6  -7  -12.33   12.23
   5   6  -7   -5.28   17.27
   4  -6  -7    8.44    8.54
   4   6  -7   -5.55   10.69
   4  -6  -7   11.93   14.74
   3  -6  -7    9.73    9.17
   3   6  -7   22.03   14.20
   3  -6  -7   -9.63    8.34
   3  -6  -7    6.30    9.08
   2  -6  -7   10.94   11.51
   2  -6  -7   15.96    9.66
   2  -6  -7    3.41   17.39
   2   6  -7    5.71   10.52
   1  -6  -7   -4.69    7.26
   1   6  -7    3.73    9.82
   1  -6  -7   -1.31   20.53
   1  -6  -7   -0.23    9.26
  -1   6   7    7.45   13.27
   0  -6  -7    7.92    9.86
   0  -6  -7   12.27   23.74
   0   6   7    3.19   12.67
  -1  -6  -7   19.15   16.18
   1   6   7   22.50   23.39
  -2  -6  -7   -1.33   20.41
   2   6   7  -28.49   20.99
  -3  -6  -7    1.57   16.66
   3   6   7  -43.68   32.91
  -6  -7   7  929.27   82.47
   6   7  -7  832.50   82.95
   5  -7  -7  249.76   43.50
   5   7  -7  236.96   41.46
   4   7  -7   84.52   23.52
   4  -7  -7  143.93   32.15
   3  -7  -7  594.09   60.87
   3  -7  -7  574.96   43.44
   3   7  -7  611.16   58.15
   2   7  -7 1877.73  105.21
   2  -7  -7 1898.35  109.29
   2  -7  -7 1886.62  130.89
   2  -7  -7 1766.93   68.15
   1   7  -7 1613.29  107.03
   1  -7  -7 1723.64  108.97
  -1   7   7 1801.44  118.36
   1  -7  -7 1851.65  136.58
   0   7   7  926.96   92.94
   0  -7  -7  865.04   93.21
  -1  -7  -7  231.64   46.81
   1   7   7  274.90   53.42
  -2  -7  -7  281.08   57.80
   2   7   7  324.88   59.92
  -3  -7  -7  600.14   88.30
   3   7   7  533.51   83.44
   6   8  -7   50.45   23.15
  -6   8   7   54.21   23.10
  -6  -8   7   70.61   27.36
   5  -8  -7  139.86   34.74
   5   8  -7  158.79   34.79
  -5  -8   7  209.92   39.87
   4   8  -7    3.82   10.11
   4  -8  -7   51.07   19.71
   3   8  -7  179.40   32.25
   3  -8  -7  148.24   31.27
   2  -8  -7  276.48   43.23
   2   8  -7  241.64   38.80
   2  -8  -7  247.79   52.72
   1   8  -7  132.07   29.49
   1  -8  -7   62.31   29.38
   1  -8  -7   92.84   26.77
  -1   8   7  127.04   32.31
   0   8  -7  160.31   35.79
   0  -8  -7  219.62   47.08
   0   8   7  181.60   42.23
  -1  -8  -7   22.26   21.21
   1   8   7   44.43   24.92
  -2  -8  -7  102.91   37.54
   2   8   7  146.66   42.29
  -3  -8  -7   63.47   35.90
   3   8   7  112.72   43.13
   6   9  -7  263.35   47.88
  -6   9   7  236.44   46.27
  -5  -9   7  743.75   77.47
   5   9  -7  533.07   62.99
   5  -9  -7  566.25   68.73
   4  -9  -7  498.60   61.56
   4   9  -7  578.47   61.41
   3  -9  -7  710.57   70.77
   3   9  -7  761.48   67.52
   2   9  -7  612.62   61.73
   2  -9  -7  502.69   72.70
   2  -9  -7  641.46   67.90
   1   9  -7  601.31   65.88
   1  -9  -7  500.87   62.71
   1  -9  -7  689.98   85.75
   0   9   7  999.88   95.99
   0  -9  -7  899.99   98.77
  -1  -9  -7  584.24   80.27
   1   9   7  795.77   89.25
  -2  -9  -7  459.57   77.08
   2   9   7  699.39   90.99
   3   9   7  458.59   77.66
   5  10  -7  126.22   31.93
  -5  10   7   96.00   31.83
  -5 -10   7  152.26   37.37
   4  10  -7   -2.60    9.35
   4 -10  -7   29.86   16.71
   3  10  -7  171.17   33.40
   3 -10  -7  177.64   37.37
   2  10  -7   59.35   17.68
   2 -10  -7   96.88   27.93
   1 -10  -7    5.63   10.37
   1 -10  -7   29.22   20.98
   0  10  -7   64.02   28.25
   0 -10  -7  102.80   35.67
   0 -10  -7   48.71   23.93
  -1 -10  -7   14.04   16.69
   1  10   7   -3.12   17.00
  -2 -10  -7   30.22   21.84
   2  10   7   63.45   29.72
   5  11  -7  594.77   66.97
  -4 -11   7 1151.98   99.37
   4 -11  -7 1171.83   98.19
  -4  11   7  880.17   89.97
   4  11  -7 1058.26   84.13
   3 -11  -7  584.17   68.09
   3  11  -7  615.48   62.10
   2  11  -7  138.58   28.67
   2 -11  -7  189.84   40.54
   1 -11  -7  138.51   34.26
   1  11  -7  158.09   35.02
   1 -11  -7  120.70   37.77
   0  11  -7  478.48   66.70
   0 -11  -7  485.16   76.38
   0 -11  -7  526.81   68.53
  -1  11  -7  986.22  108.31
  -1 -11  -7 1190.17  120.56
   2  11   7  651.22   89.05
   4 -12  -7    5.51   14.51
  -3  12   7  -11.56   18.73
   3 -12  -7   -4.63   11.47
   2  12  -7   -3.90   10.43
   2 -12  -7   -6.62   13.77
   1 -12  -7   73.20   30.95
   1  12  -7   18.45   20.21
   0  12  -7   13.82   14.42
   0 -12  -7   -2.65   18.11
   0 -12  -7  -41.37   29.01
  -1  12  -7   15.94   19.74
  -1 -12  -7  -35.24   25.10
   3 -13  -7  514.91   66.63
   2 -13  -7  175.91   40.98
   1 -13  -7  128.77   35.42
  -1  13   7   88.11   32.73
   0 -13  -7  316.85   52.37
   0 -13  -7  298.70   58.97
   0  13   7  256.41   49.75
   2 -14  -7   19.34   19.15
   1 -14  -7   27.07   17.59
   7   0  -8  169.01   51.24
   7   0  -8  205.68   53.85
   6   0  -8  114.75   30.88
   6   0  -8   58.62   30.51
   6   0  -8  158.26   41.68
   5   0  -8  165.40   34.42
   5   0  -8   97.55   31.95
   5   0  -8  185.49   41.57
   4   0  -8 1554.41   89.34
   4   0  -8 1377.55   91.95
   4   0  -8 1499.10   91.86
   3   0  -8 3259.31  124.86
   3   0  -8 3183.32  117.06
   3   0  -8 3280.64  130.44
   2   0  -8 1480.76   89.77
   2   0  -8 1462.73   85.71
   1   0  -8  226.57   38.65
   0   0  -8   51.56   26.80
   1   0   8 1158.13  109.72
  -1   0  -8 1083.83  103.72
   2   0   8 2505.75  167.34
  -2   0  -8 2398.86  158.21
   3   0   8 1597.28  140.11
  -3   0  -8 1244.10  118.68
  -4   0  -8  146.74   47.97
   7   1  -8   17.53   19.40
   7   1  -8   60.85   35.03
   7  -1  -8    6.65   20.74
   6  -1  -8    2.23   10.18
   6   1  -8    6.87   18.55
   6   1  -8   -5.46   16.66
   6   1  -8  -15.66   17.65
   6  -1  -8   -4.25   16.47
   5   1  -8   37.95   20.36
   5  -1  -8    0.86    9.75
   5   1  -8   44.24   20.30
   5   1  -8   21.90   16.67
   5  -1  -8   20.69   16.02
   4  -1  -8   76.86   22.36
   4   1  -8   97.60   24.36
   4   1  -8   84.75   22.71
   4   1  -8   60.18   18.28
   4   1  -8   36.89   14.52
   4  -1  -8   83.04   22.32
   4  -1  -8   79.28   22.28
   3  -1  -8   17.81   10.52
   3   1  -8   10.24    9.26
   3   1  -8   -5.77   10.37
   3   1  -8   -8.94   11.30
   3   1  -8   -3.16    7.40
   3  -1  -8    3.04    9.80
   2   1  -8  141.94   27.28
   2  -1  -8  147.13   30.29
   2  -1  -8  176.23   31.71
   2   1  -8  178.20   32.39
   2   1  -8  117.62   17.34
   1  -1  -8   37.03   21.31
   1  -1  -8    9.89   10.86
   1   1  -8   25.30   14.63
   0   1  -8   24.03   21.39
   0  -1  -8  -11.11   15.47
  -1   1  -8  271.61   52.08
  -1  -1  -8  283.75   55.86
   1   1   8  285.93   56.92
  -2   1  -8    0.70   16.95
  -2  -1  -8   20.64   25.87
   2  -1   8   29.58   28.14
   2   1   8   23.86   26.23
  -3   1  -8   -4.26   16.20
  -3  -1  -8   59.51   30.26
   3  -1   8   26.72   23.45
   3   1   8  -17.60   26.24
  -4   1  -8  160.34   46.71
  -4  -1  -8   19.62   27.63
   7   2  -8  283.20   58.99
   7  -2  -8  226.59   52.35
   7   2  -8  297.24   61.40
   6  -2  -8  241.29   44.12
   6   2  -8  269.01   48.21
   6   2  -8  338.00   59.96
   6  -2  -8  178.59   44.15
   5  -2  -8  376.16   49.66
   5  -2  -8  379.43   49.79
   5   2  -8  367.61   49.55
   5   2  -8  396.19   57.39
   5  -2  -8  361.63   57.66
   4   2  -8  901.38   64.89
   4  -2  -8 1082.90   78.96
   4  -2  -8  970.85   80.33
   4   2  -8  989.41   78.49
   4  -2  -8 1059.93   75.83
   4   2  -8 1002.13   77.13
   3   2  -8 1751.82   85.48
   3  -2  -8 1615.40   93.91
   3   2  -8 1671.13   86.19
   3  -2  -8 1628.72   89.69
   3   2  -8 1541.85   92.31
   2  -2  -8 1425.01   84.37
   2   2  -8 1322.67   88.60
   2   2  -8 1465.32   80.30
   2  -2  -8 1388.69   88.76
   1  -2  -8  614.17   58.91
   1   2  -8  609.44   65.12
   1   2  -8  622.32   57.48
   1  -2  -8  700.76   79.69
   0  -2  -8  380.82   62.05
   0  -2  -8  326.85   47.06
   0   2   8  496.87   69.43
   1   2   8  927.13   98.69
  -1   2  -8  786.16   84.78
  -1  -2  -8  812.66   93.40
   2   2   8 1623.42  136.01
  -2   2  -8 1245.19  110.34
  -2  -2  -8 1479.78  129.70
   3  -2   8 1038.26  113.30
   3   2   8  883.82  105.94
  -3   2  -8 1015.41  103.30
  -3  -2  -8  823.48  100.44
  -4   2  -8  321.89   59.81
   7   3  -8   76.89   35.32
   6   3  -8    3.84   16.48
   6  -3  -8   -5.50   14.79
   6   3  -8  -25.64   28.38
   5  -3  -8  168.76   33.25
   5   3  -8  117.20   29.17
   5  -3  -8  156.48   33.49
   5  -3  -8  151.57   38.82
   5   3  -8  164.75   37.96
   4  -3  -8  405.52   49.78
   4   3  -8  375.26   48.37
   4   3  -8  355.15   48.63
   4  -3  -8  397.13   46.19
   3  -3  -8    1.08    7.50
   3   3  -8  -13.97   11.97
   3   3  -8    8.76    8.86
   3   3  -8   -6.82   11.45
   3  -3  -8    2.44    7.58
   2  -3  -8  659.93   55.47
   2   3  -8  582.10   60.40
   2   3  -8  595.04   48.83
   2  -3  -8  558.81   58.06
   2  -3  -8  655.10   70.88
   1  -3  -8  159.75   42.47
   1  -3  -8  142.94   28.47
   1   3  -8  160.40   35.54
   1   3  -8  162.03   26.90
   1  -3  -8  179.53   35.32
   0  -3  -8   35.90   22.12
   0  -3  -8   18.20   10.40
   0   3   8   -7.42   18.90
   1   3   8  728.24   87.22
  -1  -3  -8  772.82   95.13
  -2  -3  -8   40.15   27.55
  -2   3  -8   16.07   16.26
   2   3   8   -7.15   18.93
  -3   3  -8  123.63   38.17
  -3  -3  -8  164.24   48.46
   3   3   8  178.15   53.37
  -4   3  -8  116.88   34.78
  -6  -4   8  780.68   72.38
   6   4  -8  644.52   84.11
   6   4  -8  677.45   75.15
   5  -4  -8  928.30   81.00
   5   4  -8  946.45   92.31
   5  -4  -8  858.65   72.88
   5   4  -8  932.37   80.55
   4  -4  -8  449.66   53.93
   4   4  -8  497.54   57.98
   4  -4  -8  478.87   49.86
   4   4  -8  533.16   57.45
   3   4  -8  300.77   32.36
   3   4  -8  278.38   36.86
   3   4  -8  218.55   36.48
   3  -4  -8  292.04   43.42
   3  -4  -8  322.67   39.04
   2   4  -8  799.18   71.22
   2   4  -8  828.53   54.32
   2  -4  -8  762.18   69.93
   2  -4  -8  809.37   82.79
   2  -4  -8  757.69   57.75
   1  -4  -8 1411.71   82.81
   1   4  -8 1251.63   97.94
   1   4  -8 1463.97   79.97
   1  -4  -8 1370.09   99.59
  -1   4   8 1413.49  108.07
   1  -4  -8 1364.88  120.98
   0   4   8 1765.77  131.49
   0  -4  -8 1900.33  143.48
   1   4   8  920.95  101.40
  -1  -4  -8  998.77  106.08
  -2  -4  -8  306.30   63.39
   2   4   8  359.82   65.72
  -3  -4  -8  256.58   60.87
   3   4   8  333.32   66.26
   6   5  -8    7.54   15.67
   6   5  -8   43.40   28.99
  -6  -5   8    7.62   15.03
   5  -5  -8    8.38   10.93
   5   5  -8    1.14   11.15
   5  -5  -8   22.46   16.91
   5   5  -8  -24.33   21.96
   4  -5  -8   93.80   22.49
   4   5  -8  102.15   27.46
   4  -5  -8   64.76   21.74
   3  -5  -8   -1.38    7.64
   3   5  -8   -8.40   12.13
   3  -5  -8   12.28   15.01
   2  -5  -8   29.95   20.20
   2  -5  -8   30.11   13.23
   2  -5  -8   52.03   20.53
   2   5  -8   36.86   15.25
   2   5  -8   34.45   10.97
   1  -5  -8  115.13   22.78
   1  -5  -8   72.36   28.33
   1   5  -8  120.42   21.76
   1   5  -8  121.75   32.72
   1  -5  -8   87.13   26.09
  -1   5   8  135.10   33.32
   0  -5  -8   39.40   18.03
   0   5   8   36.54   19.76
  -1  -5  -8   44.36   29.92
   1   5   8   92.94   32.03
  -2  -5  -8   56.56   31.15
   2   5   8  -20.82   22.96
  -3  -5  -8   72.07   38.62
   3   5   8   74.49   36.79
  -6  -6   8 1158.01   92.52
   6   6  -8 1030.79   93.52
   5  -6  -8 1141.41   93.39
   5   6  -8 1045.53   87.40
   4   6  -8  362.42   49.35
   4  -6  -8  373.50   51.83
   4  -6  -8  325.63   39.85
   3  -6  -8   54.90   15.90
   3   6  -8   68.87   22.97
   3  -6  -8   53.23   21.81
   3  -6  -8   35.25   16.42
   2  -6  -8  388.71   53.51
   2  -6  -8  398.52   64.43
   2   6  -8  397.36   52.42
   2  -6  -8  444.34   40.37
   1  -6  -8 1645.82   78.91
   1   6  -8 1801.05  121.53
   1  -6  -8 1705.31  115.30
  -1   6   8 1845.06  125.02
   1  -6  -8 1853.56  140.37
   0  -6  -8 1777.18   91.38
   0   6  -8 1845.91  135.81
   0   6   8 2568.97  160.99
   0  -6  -8 2410.71  161.49
   1   6   8  934.40  101.72
  -1  -6  -8  784.21   95.53
  -2  -6  -8   21.12   26.05
   2   6   8   81.97   31.55
  -3  -6  -8   96.56   38.27
   3   6   8  238.85   57.22
   6   7  -8  -29.86   22.52
  -6  -7   8   -5.47   17.22
   5   7  -8   -2.35   17.62
   5  -7  -8   32.44   20.37
   4   7  -8   86.38   26.56
   4  -7  -8   80.13   27.80
   3   7  -8   17.34   19.01
   3  -7  -8   13.37   12.80
   2  -7  -8  120.63   30.35
   2   7  -8  184.04   37.32
   1   7  -8   29.85   11.60
   1  -7  -8   26.19   27.04
   1  -7  -8   71.59   25.76
  -1   7   8   48.95   23.35
   0   7  -8  -11.51   22.81
   0  -7  -8    8.68   26.78
   0   7   8    8.51   15.70
  -1  -7  -8   65.02   33.61
   1   7   8   83.84   30.42
  -2  -7  -8    3.79   16.14
   2   7   8   -7.29   16.87
   5  -8  -8  599.88   71.92
   5   8  -8  705.06   72.98
   4  -8  -8  450.84   60.56
   4   8  -8  466.46   57.42
   3   8  -8  284.70   43.97
   3  -8  -8  265.85   45.39
   2   8  -8  451.90   58.10
   2  -8  -8  505.85   62.08
   2  -8  -8  461.19   73.76
   1   8  -8 1056.07   97.08
   1  -8  -8  993.43   91.85
   1  -8  -8 1124.87  116.82
   0   8  -8  963.23  101.04
   0   8   8 1217.15  110.79
   0  -8  -8 1172.09  116.27
  -1  -8  -8  473.44   75.36
   1   8   8  634.34   84.89
  -2  -8  -8  380.18   72.49
   2   8   8  295.04   62.56
   5   9  -8   49.64   20.89
   5  -9  -8  101.44   33.10
   4   9  -8  114.79   30.27
   4  -9  -8  150.78   36.49
   3   9  -8   11.31   13.50
   3  -9  -8    7.62   11.70
   2  -9  -8  106.99   34.86
   2   9  -8  245.63   44.03
   1   9  -8  263.88   47.78
   1  -9  -8  199.55   51.79
   1  -9  -8  145.04   36.92
   0   9  -8   18.86   13.52
   0  -9  -8   71.94   31.82
  -1  -9  -8  150.69   46.48
   1   9   8  183.65   44.86
  -2  -9  -8   -8.45   24.78
   2   9   8   87.03   35.42
   5  10  -8  182.32   39.03
   4 -10  -8  680.38   77.64
   4  10  -8  654.69   68.20
   3 -10  -8 1039.18   93.59
   3  10  -8  970.09   82.73
   2  10  -8  605.09   68.05
   2 -10  -8  473.28   65.22
   1  10  -8  309.52   57.93
   1 -10  -8  214.91   46.72
   1 -10  -8  288.41   60.29
   0  10  -8  282.96   57.91
   0 -10  -8  268.20   59.65
   0 -10  -8  252.55   49.30
  -1 -10  -8  424.49   74.70
   1  10   8  534.69   78.63
   2  10   8  758.65  101.83
   4  11  -8   14.58    9.79
   3  11  -8    5.84   11.33
   3 -11  -8   30.55   25.81
   2  11  -8   22.88   13.01
   2 -11  -8   83.21   27.96
   1 -11  -8   12.70   15.64
   1  11  -8   21.78   18.03
   1 -11  -8   14.97   22.82
   0  11  -8  -71.24   30.10
   0 -11  -8  -38.14   30.21
   0 -11  -8  -18.76   25.19
  -1  11  -8   32.59   17.06
  -1 -11  -8   64.52   34.11
   3  12  -8  919.49   82.12
   2  12  -8  531.85   64.33
   2 -12  -8  634.65   76.22
   1 -12  -8  129.10   35.26
   1  12  -8  160.64   42.27
   0 -12  -8   36.23   24.35
   0 -12  -8   22.60   23.78
   7   0  -9  -45.65   27.31
   6   0  -9   27.81   19.26
   6   0  -9    6.31   13.27
   5   0  -9    0.58    9.65
   5   0  -9   -5.56   10.93
   5   0  -9   -5.86    9.11
   4   0  -9   -4.08   11.40
   4   0  -9    0.60   11.30
   4   0  -9    0.07   10.37
   3   0  -9   12.35   15.60
   3   0  -9   -7.52   10.35
   2   0  -9   -4.98   12.50
   2   0  -9    9.95   12.45
   1   0  -9   -1.33   11.28
   1   0  -9    0.43   14.87
   0   0  -9   -2.40   16.63
   0   0  -9   -2.42   11.83
  -1   0  -9   25.81   21.58
  -2   0  -9    0.87   22.98
   2   0   9   -4.48   25.79
  -3   0  -9   -3.93   21.87
   3   0   9   53.45   30.47
   7   1  -9  607.10   92.59
   7   1  -9  414.86   71.60
   6   1  -9  494.62   65.60
   6   1  -9  319.81   60.07
   6   1  -9  227.26   47.23
   6  -1  -9  355.61   60.73
   6  -1  -9  502.20   65.02
   5  -1  -9   57.74   22.74
   5   1  -9   51.53   22.85
   5  -1  -9   32.69   17.43
   5   1  -9   26.18   11.94
   5  -1  -9   31.75   17.91
   5   1  -9   81.41   29.99
   4  -1  -9  278.05   42.13
   4   1  -9  236.66   40.34
   4   1  -9  249.23   38.20
   4   1  -9  190.18   33.89
   4  -1  -9  179.31   33.86
   4  -1  -9  220.26   38.15
   3   1  -9 1504.75   89.89
   3  -1  -9 1565.29   97.08
   3  -1  -9 1425.46   92.07
   3   1  -9 1424.05   94.80
   2  -1  -9 2520.70  124.14
   2   1  -9 2232.82  122.92
   2   1  -9 2575.68  121.81
   2  -1  -9 2510.33  127.23
   1  -1  -9 1056.72   88.08
   1   1  -9  976.99   89.33
   1   1  -9 1068.49   85.99
   1  -1  -9  967.20   87.17
   1  -1  -9 1066.46  102.19
   0  -1  -9   74.30   28.07
   0   1  -9   57.65   22.80
   0   1  -9   94.49   32.66
  -1   1  -9  243.85   52.39
  -1  -1  -9  225.75   51.44
   1   1   9  161.85   44.88
  -2  -1  -9  750.70   96.32
   2   1   9  945.55  109.71
  -2   1  -9  911.86  101.62
   3  -1   9 1186.55  125.68
   3   1   9 1268.30  129.76
  -3   1  -9 1058.92  111.64
  -3  -1  -9 1132.24  121.21
   7   2  -9   15.08   22.33
   6  -2  -9  276.37   48.47
   6   2  -9  187.13   38.87
   6   2  -9  224.18   51.96
   6   2  -9  199.43   44.37
   6  -2  -9  221.53   50.89
   5  -2  -9   -5.01   11.42
   5   2  -9   -8.12   12.32
   5  -2  -9  -14.69   11.72
   5   2  -9   -3.45   12.43
   5  -2  -9   -0.60   13.10
   5   2  -9    1.10   10.29
   4  -2  -9  264.15   40.93
   4   2  -9  220.66   39.91
   4   2  -9  201.00   32.78
   4   2  -9  191.07   33.30
   4  -2  -9  149.39   32.07
   3  -2  -9  174.38   33.83
   3   2  -9  219.83   39.03
   3   2  -9  242.87   35.29
   3  -2  -9  185.92   35.53
   2   2  -9   23.77   14.45
   2  -2  -9    8.46   11.08
   2   2  -9    7.72   10.89
   2  -2  -9   -3.30   11.64
   1  -2  -9  548.30   60.41
   1  -2  -9  471.56   69.07
   1   2  -9  498.79   65.31
   1   2  -9  441.01   54.91
   1  -2  -9  453.62   61.51
   0  -2  -9   -7.39   17.53
   0   2  -9    9.86   11.63
  -1  -2  -9   16.77   18.52
   1   2   9   -2.79   24.17
  -2   2  -9  251.67   53.90
  -2  -2  -9  178.77   48.52
   2   2   9  219.89   52.79
  -3   2  -9    0.40   20.30
  -3  -2  -9    1.99   31.59
   6  -3  -9  415.91   58.42
   6   3  -9  394.08   58.68
   6   3  -9  474.64   71.71
   6  -3  -9  387.95   65.43
   5  -3  -9  683.64   71.93
   5   3  -9  558.05   68.62
   5  -3  -9  650.61   67.19
   5   3  -9  574.49   66.15
   4   3  -9  627.59   55.15
   4  -3  -9  525.70   60.30
   4  -3  -9  624.01   60.83
   4   3  -9  640.31   66.55
   3   3  -9  754.26   71.33
   3   3  -9  853.49   62.20
   3  -3  -9  794.06   73.79
   3  -3  -9  805.85   66.12
   2  -3  -9  627.94   59.19
   2   3  -9  636.70   68.55
   2   3  -9  804.26   63.14
   2  -3  -9  700.21   72.26
   2  -3  -9  742.14   82.95
   1  -3  -9  765.18   69.74
   1   3  -9  704.28   78.29
   1   3  -9  726.48   65.67
   1  -3  -9  564.00   68.54
   1  -3  -9  788.41   92.07
   0  -3  -9  628.11   71.20
   0   3  -9  603.01   78.44
   0   3   9  935.39  102.59
   0  -3  -9 1050.37  111.12
   1   3   9  877.57  101.96
  -1  -3  -9  906.00  105.58
  -2  -3  -9  588.99   88.27
   2   3   9  463.82   73.20
   6   4  -9  174.80   40.47
   6  -4  -9  139.15   31.58
   6   4  -9  165.79   45.40
   5  -4  -9   -1.64   10.46
   5   4  -9    4.07   12.04
   5  -4  -9   39.31   21.28
   5   4  -9   18.22   16.02
   4  -4  -9  175.26   32.72
   4   4  -9  203.09   38.09
   4  -4  -9  250.11   42.92
   3   4  -9  315.97   36.16
   3  -4  -9  335.43   42.59
   3   4  -9  314.94   45.87
   3  -4  -9  335.95   50.54
   2  -4  -9   17.30   23.83
   2  -4  -9    2.36    8.76
   2  -4  -9   10.88   12.51
   2   4  -9    8.63   13.44
   2   4  -9   10.40    8.15
   1  -4  -9  420.89   49.10
   1  -4  -9  411.46   67.98
   1   4  -9  418.49   63.35
   1   4  -9  310.48   41.75
   1  -4  -9  326.72   53.72
   0  -4  -9   77.53   38.59
   0  -4  -9  124.09   30.58
   0   4  -9   99.13   32.25
   0   4   9   89.59   30.20
  -1  -4  -9  132.15   40.52
   1   4   9  125.88   41.45
  -2  -4  -9   88.23   38.56
   2   4   9  122.92   42.71
   6   5  -9  432.31   72.44
   5  -5  -9 1588.62  112.15
   5  -5  -9 1359.18   93.61
   5   5  -9 1591.96  110.28
   4  -5  -9 1010.67   86.58
   4  -5  -9 1026.95   75.06
   4   5  -9 1063.86   87.25
   3  -5  -9  215.83   33.41
   3   5  -9  220.82   41.14
   3  -5  -9  293.04   47.97
   2  -5  -9   83.66   38.98
   2  -5  -9   82.12   21.44
   2  -5  -9   81.71   26.81
   2   5  -9   90.93   30.28
   1  -5  -9  454.12   48.98
   1  -5  -9  539.28   79.35
   1   5  -9  363.39   59.75
   1  -5  -9  401.17   60.80
   0  -5  -9 1499.12   96.56
   0   5  -9 1436.35  127.79
   0   5   9 1985.87  146.16
   0  -5  -9 1863.64  148.87
   1   5   9 1469.64  129.92
  -1  -5  -9 1363.38  129.00
  -2  -5  -9  442.63   79.76
   2   5   9  578.44   87.00
   6   6  -9   14.64   18.67
   5   6  -9    0.50    9.79
   5  -6  -9   -5.31   12.18
   4  -6  -9  -13.81   10.73
   4   6  -9   21.84   16.14
   4  -6  -9  -11.67   18.25
   3  -6  -9   -7.64    8.01
   3   6  -9  -18.18   16.62
   3  -6  -9   16.92   15.56
   2  -6  -9   32.70   20.28
   2  -6  -9   -4.54   16.28
   2   6  -9   17.23   17.75
   1  -6  -9   -4.49   27.63
   1   6  -9   21.06   14.45
   1  -6  -9    2.20   13.19
  -1   6   9   -5.94   14.39
   0  -6  -9   -4.60   25.06
   0   6  -9  -18.91   30.01
   0   6   9   28.59   21.75
  -1  -6  -9   36.82   24.60
   1   6   9  -29.46   20.94
  -2  -6  -9    7.09   19.37
   2   6   9   13.31   21.92
   5  -7  -9 1117.08   97.89
   5   7  -9 1274.51  100.58
   4  -7  -9 1077.58   95.34
   4   7  -9  983.88   85.86
   3   7  -9  283.43   46.27
   3  -7  -9  275.00   50.89
   2  -7  -9   63.64   24.37
   2  -7  -9   36.45   27.95
   2   7  -9   64.45   27.32
   1  -7  -9  529.21   80.96
   1   7  -9  417.27   65.53
   1  -7  -9  376.87   60.46
   0   7   9 1464.09  125.62
   0  -7  -9 1600.62  141.95
   1   7   9 1332.25  127.73
  -1  -7  -9 1005.64  115.00
   2   7   9  278.24   61.08
   5   8  -9    6.65   14.55
   4   8  -9  169.30   37.88
   4  -8  -9  165.28   37.34
   3   8  -9   99.22   24.43
   3  -8  -9  127.52   35.93
   2  -8  -9   14.67   17.14
   2  -8  -9   25.66   21.19
   2   8  -9   36.91   19.29
   1  -8  -9  179.85   48.04
   1   8  -9  188.17   46.20
   1  -8  -9  236.93   50.08
   0  -8  -9   84.82   34.87
   0   8  -9   50.24   25.31
  -1  -8  -9   99.23   37.65
   1   8   9  108.89   40.14
   2   8   9    9.31   22.78
   4   9  -9  494.86   63.82
   4  -9  -9  491.97   67.58
   3   9  -9  474.56   60.98
   3  -9  -9  565.69   71.20
   2  -9  -9  488.84   68.78
   2   9  -9  431.21   62.03
   1   9  -9  625.11   82.22
   1  -9  -9  694.30   97.31
   1  -9  -9  627.34   81.44
   0   9  -9  340.49   68.72
   0  -9  -9  377.30   66.50
   0  -9  -9  322.11   59.53
  -1  -9  -9  524.62   86.00
   1   9   9  407.12   69.99
   4  10  -9   89.25   28.59
   3  10  -9   90.76   30.97
   3 -10  -9  124.93   35.31
   2 -10  -9    9.06   14.67
   2  10  -9   15.40   14.79
   1  10  -9  141.78   40.61
   1 -10  -9  167.72   42.75
   1 -10  -9   87.36   41.60
   0  10  -9   47.26   18.48
   0 -10  -9   82.74   31.90
   0 -10  -9   55.68   30.20
   3  11  -9  627.05   71.85
   2  11  -9 1119.35  102.05
   1  11  -9  561.99   78.28
   0 -11  -9  107.13   43.58
   6   0 -10  708.42   80.34
   5   0 -10  424.97   58.26
   5   0 -10  360.47   51.78
   4   0 -10  -11.66   16.61
   4   0 -10   37.27   20.47
   3   0 -10  235.85   41.46
   3   0 -10  280.07   45.66
   2   0 -10 1461.08  107.26
   2   0 -10 1337.14   99.84
   1   0 -10 1485.29  115.59
   1   0 -10 1385.28  111.34
   0   0 -10  771.77   91.90
   0   0 -10  891.92  101.66
  -1   0 -10  137.52   45.05
  -2   0 -10   46.26   20.46
   6  -1 -10   11.69   16.08
   6   1 -10   51.26   23.76
   5  -1 -10   79.21   27.03
   5   1 -10   57.45   26.68
   5  -1 -10   72.56   26.36
   4  -1 -10   10.43   15.38
   4   1 -10   -1.59    9.76
   4  -1 -10   19.58   11.80
   3  -1 -10  106.76   30.22
   3   1 -10   93.93   29.03
   3   1 -10  108.41   27.73
   3  -1 -10   86.59   28.56
   2   1 -10   54.89   20.93
   2  -1 -10   20.66   14.14
   2   1 -10   37.89   19.72
   1  -1 -10   13.58   14.56
   1   1 -10    5.62   10.77
   1   1 -10  -10.22   17.91
   1  -1 -10   -6.59   13.54
   0  -1 -10   45.85   22.51
   0  -1 -10    8.84   18.82
   0   1 -10   28.75   23.49
  -1   1 -10    7.63   16.93
  -1  -1 -10   21.11   23.22
  -2   1 -10    8.20   17.39
  -2  -1 -10   29.24   32.26
   2   1  10  -43.28   23.05
   6  -2 -10  513.19   74.72
   6  -2 -10  790.91   84.01
   5  -2 -10  269.53   46.32
   5   2 -10  411.67   59.77
   5  -2 -10  405.88   57.02
   4  -2 -10  209.10   39.15
   4   2 -10  169.32   36.50
   4   2 -10  212.15   35.61
   4  -2 -10  224.66   41.27
   3   2 -10  498.28   62.21
   3  -2 -10  403.91   51.79
   3   2 -10  455.98   52.89
   3  -2 -10  413.83   58.18
   2  -2 -10  991.18   83.08
   2   2 -10 1112.43   96.11
   2   2 -10 1083.47   84.19
   2  -2 -10 1001.04   90.78
   1  -2 -10  824.18   83.77
   1   2 -10  842.78   92.08
   1   2 -10  882.08   82.70
   1  -2 -10  897.76   91.69
   0  -2 -10  520.70   71.51
   0   2 -10  329.86   60.23
  -1  -2 -10  368.04   70.46
   1   2  10  373.65   68.53
   2   2  10  345.78   68.28
   6  -3 -10   81.10   28.22
   5  -3 -10  147.30   34.25
   5   3 -10  191.48   42.80
   5  -3 -10  228.51   44.15
   4  -3 -10    1.61   10.54
   4   3 -10    2.56    8.27
   4  -3 -10    0.40   10.87
   3  -3 -10  257.83   40.46
   3   3 -10  272.31   47.82
   3   3 -10  223.15   35.73
   3  -3 -10  302.00   50.36
   2   3 -10  167.23   32.28
   2  -3 -10  171.88   33.78
   2  -3 -10  211.05   43.27
   2   3 -10  222.08   44.83
   1  -3 -10   -2.25   16.65
   1  -3 -10    5.14   11.39
   1   3 -10  -22.03   16.09
   1   3 -10    9.67   13.86
   1  -3 -10    3.73   16.19
   0  -3 -10  210.23   53.00
   0  -3 -10  157.02   38.48
   0   3 -10  152.71   44.56
  -1  -3 -10   34.83   28.50
   1   3  10   67.75   32.36
   2   3  10   65.91   36.38
   6  -4 -10  226.39   42.82
   5  -4 -10  426.03   56.23
   5   4 -10  487.70   64.25
   5  -4 -10  518.83   67.54
   4  -4 -10  927.25   86.82
   4  -4 -10 1024.25   81.02
   4   4 -10 1088.80   92.84
   3   4 -10  846.36   82.75
   3  -4 -10  786.65   81.59
   3  -4 -10  814.16   70.29
   2  -4 -10  195.58   46.61
   2  -4 -10  207.43   35.17
   2  -4 -10  260.96   48.31
   2   4 -10  305.83   55.08
   1  -4 -10  358.79   67.43
   1  -4 -10  349.05   49.30
   1   4 -10  189.97   44.80
   1  -4 -10  239.53   50.47
   0  -4 -10  503.39   82.43
   0  -4 -10  440.82   60.80
   0   4 -10  391.27   70.03
   0   4  10  529.85   79.67
  -1  -4 -10  728.52   84.23
   1   4  10  925.86  109.05
  -1  -4 -10  826.17  105.50
   5  -5 -10   15.09   12.43
   5   5 -10    8.18   12.97
   4  -5 -10   -8.31    9.87
   4   5 -10    1.65   14.50
   4  -5 -10   -5.40   15.56
   3  -5 -10   37.76   17.14
   3   5 -10   74.64   26.70
   3  -5 -10   51.58   25.05
   2  -5 -10   13.15   22.18
   2  -5 -10   24.13   14.14
   2  -5 -10    0.05   15.81
   2   5 -10   49.28   28.35
   1  -5 -10   18.54   24.20
   1  -5 -10   18.16   12.93
   1   5 -10   20.85   18.63
   1  -5 -10  -11.81   16.08
   0  -5 -10    8.22   18.95
   0   5 -10   33.84   23.75
   0   5  10   68.80   32.59
  -1  -5 -10   -4.96   18.38
   1   5  10   26.40   24.83
   4  -6 -10 1194.59  102.44
   4   6 -10 1343.95  106.10
   3   6 -10  944.45   91.14
   3  -6 -10  918.89   93.11
   2  -6 -10   75.22   28.31
   2  -6 -10  118.99   35.36
   2   6 -10  166.54   43.71
   1  -6 -10   74.85   41.96
   1   6 -10   80.37   33.35
   1  -6 -10   16.81   14.12
   0  -6 -10  442.72   78.73
   0   6 -10  341.24   68.41
   0   6  10  367.20   70.26
  -1  -6 -10  801.29  104.75
   1   6  10 1059.52  114.94
   4   7 -10    8.13   11.27
   4  -7 -10  -10.70   13.61
   3   7 -10   43.28   20.89
   3  -7 -10   34.42   18.14
   2  -7 -10   38.87   21.10
   2  -7 -10   17.31   15.09
   2   7 -10   48.50   24.62
   1  -7 -10   24.99   21.50
   1   7 -10   15.62   18.88
   1  -7 -10   26.02   18.91
   0  -7 -10   11.97   18.84
   0   7 -10   20.12   22.15
   0   7  10   38.76   26.70
   1   7  10   72.04   33.43
   3   8 -10  474.84   65.51
   3  -8 -10  602.85   77.30
   2  -8 -10  387.27   65.30
   2   8 -10  515.54   74.57
   1  -8 -10  311.95   65.42
   1   8 -10  163.89   46.35
   1  -8 -10  171.02   49.45
   0  -8 -10  326.18   67.70
   1   8  10  426.78   73.81
   2   9 -10   36.66   13.32
   1  -9 -10   86.29   41.26
   0  -9 -10   85.73   34.57
   5   0 -11  -17.69   15.80
   5   0 -11  -15.89   10.69
   4   0 -11   -2.01   15.11
   4   0 -11   -5.53   14.21
   3   0 -11   11.12   13.18
   3   0 -11  -15.25   14.75
   2   0 -11    0.67   16.94
   2   0 -11   -9.82   11.10
   1   0 -11    4.04   16.97
   1   0 -11    5.14   11.30
   0   0 -11    5.39   13.99
   5   1 -11  834.21   79.95
   5  -1 -11  912.29   87.23
   5  -1 -11  869.38   86.51
   5   1 -11  938.13   90.54
   4  -1 -11  260.34   47.54
   4   1 -11  298.12   51.67
   4   1 -11  283.19   46.73
   4  -1 -11  328.36   51.48
   3  -1 -11  118.01   32.51
   3   1 -11  129.16   34.11
   3   1 -11  124.43   31.42
   3  -1 -11   82.15   27.81
   2   1 -11  225.50   45.27
   2  -1 -11  199.69   45.20
   2  -1 -11  214.32   45.11
   2   1 -11  192.17   44.70
   1  -1 -11  756.69   86.90
   1   1 -11  835.09   96.39
   1   1 -11  694.68   81.22
   1  -1 -11  749.30   88.03
   0  -1 -11 1110.53  112.72
   0   1 -11 1225.33  125.52
   0  -1 -11 1394.54  134.68
  -1  -1 -11  600.84   89.97
   5  -2 -11   46.35   22.45
   5   2 -11   51.09   22.82
   5  -2 -11   66.18   28.54
   4  -2 -11  235.06   43.84
   4   2 -11  212.94   44.33
   4   2 -11  188.39   37.56
   4  -2 -11  228.98   45.74
   3  -2 -11   -7.90   14.30
   3   2 -11    5.57   11.39
   3   2 -11    3.20   12.98
   3  -2 -11   23.71   27.51
   2   2 -11   67.21   25.06
   2  -2 -11   56.94   26.39
   2  -2 -11   99.99   30.91
   2   2 -11  133.35   37.57
   1  -2 -11  123.28   35.40
   1   2 -11  223.76   51.76
   1   2 -11  185.03   42.96
   1  -2 -11   82.70   28.62
   1  -2 -11  111.57   43.72
   0  -2 -11   23.98   30.72
   0  -2 -11   31.04   17.49
   0   2 -11   -9.30   16.44
  -1  -2 -11  269.36   56.67
   5  -3 -11  513.60   64.19
   5  -3 -11  428.02   63.03
   4  -3 -11  418.39   56.81
   4   3 -11  522.29   67.91
   4  -3 -11  455.26   65.89
   3  -3 -11  458.41   58.13
   3   3 -11  525.19   70.18
   3  -3 -11  616.39   76.37
   2  -3 -11  397.55   63.96
   2  -3 -11  450.94   61.26
   2   3 -11  374.17   62.22
   1  -3 -11  587.17   88.63
   1  -3 -11  384.77   58.45
   1   3 -11  410.94   71.15
   1  -3 -11  430.67   71.25
   0  -3 -11  446.81   79.56
   0  -3 -11  463.95   70.43
   0   3 -11  465.79   81.53
  -1  -3 -11  429.45   72.87
   5  -4 -11   81.46   28.36
   4  -4 -11  110.75   30.67
   4   4 -11  112.25   35.13
   4  -4 -11   76.76   28.90
   3  -4 -11    0.53    9.07
   3   4 -11  -14.54   16.02
   3  -4 -11   17.89   21.23
   2  -4 -11  108.69   34.79
   2  -4 -11   66.58   22.03
   2   4 -11  126.48   42.83
   1  -4 -11  147.72   45.13
   1  -4 -11   98.57   29.94
   1   4 -11   88.01   36.87
   1  -4 -11   58.55   28.37
   0  -4 -11    1.83   25.40
   0   4 -11   -3.86   17.42
   4  -5 -11  582.82   74.96
   3   5 -11 1212.16  108.87
   3  -5 -11 1033.53  102.54
   2   5 -11  952.47  104.45
   2  -5 -11  753.46  102.10
   2  -5 -11  827.54   97.12
   1  -5 -11  166.29   52.08
   1   5 -11  123.84   39.89
   1  -5 -11   95.72   35.62
   0  -5 -11   13.69   33.82
   3   6 -11    4.60   16.10
   3  -6 -11   -1.66   22.58
   2  -6 -11   64.66   34.96
   2  -6 -11   25.93   25.42
   2   6 -11   15.79   23.25
   1  -6 -11   11.56   23.15
   1  -6 -11   22.47   19.51
   0   6  11  -47.64   28.18
   2  -7 -11  483.67   79.67
   1  -7 -11  223.74   61.04
   1  -8 -11   93.64   38.26
   5   0 -12 1026.38   96.77
   4   0 -12  925.03   92.53
   4   0 -12  872.28   90.93
   3   0 -12  250.98   50.16
   3   0 -12  232.19   49.22
   2   0 -12   63.74   28.13
   2   0 -12  -14.55   19.66
   1   0 -12  264.86   56.55
   1   0 -12  224.78   52.14
   4  -1 -12   29.14   22.64
   4   1 -12    0.40   19.22
   4  -1 -12  -10.31   19.63
   3  -1 -12   76.64   25.74
   3   1 -12  102.69   33.57
   3   1 -12   68.18   28.80
   3  -1 -12  103.01   34.80
   2   1 -12    7.04   15.35
   2  -1 -12    5.12   16.62
   2  -1 -12  -33.39   21.08
   2   1 -12    6.98   16.50
   1  -1 -12   17.59   15.16
   1   1 -12  -10.82   18.90
   1   1 -12   12.91   18.65
   1  -1 -12   23.01   17.17
   0  -1 -12   41.28   25.97
   4  -2 -12  752.85   86.53
   4  -2 -12  607.71   73.67
   3  -2 -12  295.42   49.12
   3   2 -12  267.40   55.03
   3  -2 -12  340.66   58.74
   2  -2 -12  169.67   46.47
   2  -2 -12  123.88   36.31
   2   2 -12  162.82   45.25
   1  -2 -12  257.68   53.76
   1  -2 -12  207.29   50.34
   0  -2 -12  491.08   77.97
   4  -3 -12   62.26   24.68
   3  -3 -12  319.66   53.04
   3  -3 -12  226.53   52.85
   2  -3 -12   -0.21   20.84
   2  -3 -12   -0.16   15.80
   1  -3 -12  169.73   40.76
   0  -3 -12   56.47   25.12
   4  -4 -12  232.34   43.52
   2  -6 -12  896.57  115.08

TITL 103-264-2779_jb71 in P2(1)/c
REM P2(1)/c (#14 in standard setting)
CELL 0.71073   5.757320  11.816461   9.219729  90.0000 108.0474  90.0000
ZERR    3.00   0.000397   0.000555   0.000663   0.0000   0.0083   0.0000
LATT  1
SYMM -x, y+1/2,-z+1/2
SFAC C H N Br Pt
UNIT 18.00 36.00 12.00 6.00 3.00
TREF
HKLF 4
END
_computing_structure_solution     'SHELXS-97 (Sheldrick, 1997)'
_computing_structure_solution     'SHELXS-97 (Sheldrick, 1997)'
;
_shelx_hkl_checksum              63738
loop_
_space_group_symop_operation_xyz
'x, y, z'
'-x, y+1/2, -z+1/2'
'-x, -y, -z'
'x, -y-1/2, z-1/2'
loop_
_atom_site_label
_atom_site_type_symbol
_atom_site_fract_x
_atom_site_fract_y
_atom_site_fract_z
_atom_site_U_iso_or_equiv
_atom_site_adp_type
_atom_site_occupancy
_atom_site_site_symmetry_order
_atom_site_calc_flag
_atom_site_refinement_flags_posn
_atom_site_refinement_flags_adp
_atom_site_refinement_flags_occupancy
Pt1 Pt 0.0000 0.5000 0.5000 0.01181(11) Uani 1 2 d S . P
Br1 Br 0.18597(11) 0.58461(5) 0.32209(7) 0.01895(15) Uani 1 1 d . . .
N1 N 0.2369(9) 0.5757(4) 0.6730(6) 0.0174(11) Uani 1 1 d . . .
N2 N 0.5504(9) 0.6377(4) 0.9046(6) 0.0170(11) Uani 1 1 d . . .
C1 C 0.3842(11) 0.6073(5) 0.7790(7) 0.0149(13) Uani 1 1 d . . .
C2 C 0.4768(12) 0.6517(6) 1.0430(8) 0.0242(15) Uani 1 1 d . . .
H2A H 0.4118 0.7282 1.0450 0.036 Uiso 1 1 calc R U .
H2B H 0.6189 0.6404 1.1335 0.036 Uiso 1 1 calc R U .
H2C H 0.3507 0.5959 1.0426 0.036 Uiso 1 1 calc R U .
C3 C 0.7683(11) 0.6986(6) 0.8984(8) 0.0262(16) Uani 1 1 d . . .
H3A H 0.8136 0.6729 0.8098 0.039 Uiso 1 1 calc R U .
H3B H 0.9032 0.6836 0.9918 0.039 Uiso 1 1 calc R U .
H3C H 0.7342 0.7800 0.8896 0.039 Uiso 1 1 calc R U .
loop_
_atom_site_aniso_label
_atom_site_aniso_U_11
_atom_site_aniso_U_22
_atom_site_aniso_U_33
_atom_site_aniso_U_23
_atom_site_aniso_U_13
_atom_site_aniso_U_12
Pt1 0.01092(16) 0.01136(16) 0.01182(18) -0.00076(13) 0.00158(13) 0.00000(14)
Br1 0.0196(3) 0.0216(3) 0.0165(3) 0.0008(3) 0.0069(3) -0.0028(3)
N1 0.019(3) 0.020(3) 0.012(3) -0.002(2) 0.003(2) -0.003(2)
N2 0.019(3) 0.016(3) 0.013(3) 0.000(2) 0.001(2) -0.006(2)
C1 0.017(3) 0.015(3) 0.015(3) 0.006(3) 0.008(3) 0.002(3)
C2 0.025(3) 0.030(4) 0.013(3) 0.000(3) -0.001(3) 0.009(3)
C3 0.022(3) 0.031(4) 0.018(4) 0.005(3) -0.003(3) -0.012(3)
loop_
_atom_type_symbol
_atom_type_description
_atom_type_scat_dispersion_real
_atom_type_scat_dispersion_imag
_atom_type_scat_source
C C 0.0033 0.0016 'International Tables Vol C Tables 4.2.6.8 and 6.1.1.4'
H H 0.0000 0.0000 'International Tables Vol C Tables 4.2.6.8 and 6.1.1.4'
Br Br -0.2901 2.4595 'International Tables Vol C Tables 4.2.6.8 and 6.1.1.4'
N N 0.0061 0.0033 'International Tables Vol C Tables 4.2.6.8 and 6.1.1.4'
Pt Pt -1.7033 8.3905 'International Tables Vol C Tables 4.2.6.8 and 6.1.1.4'
loop_
_geom_angle_atom_site_label_1
_geom_angle_atom_site_label_2
_geom_angle_atom_site_label_3
_geom_angle
_geom_angle_site_symmetry_1
_geom_angle_site_symmetry_3
N1 Pt1 N1 180.0(3) 3_566 .
N1 Pt1 Br1 91.17(14) 3_566 3_566
N1 Pt1 Br1 88.83(14) . 3_566
N1 Pt1 Br1 88.83(14) 3_566 .
N1 Pt1 Br1 91.17(14) . .
Br1 Pt1 Br1 180.0 3_566 .
C1 N1 Pt1 172.0(5) . .
C1 N2 C3 120.3(5) . .
C1 N2 C2 118.1(5) . .
C3 N2 C2 117.3(5) . .
N1 C1 N2 176.4(7) . .
N2 C2 H2A 109.5 . .
N2 C2 H2B 109.5 . .
H2A C2 H2B 109.5 . .
N2 C2 H2C 109.5 . .
H2A C2 H2C 109.5 . .
H2B C2 H2C 109.5 . .
N2 C3 H3A 109.5 . .
N2 C3 H3B 109.5 . .
H3A C3 H3B 109.5 . .
N2 C3 H3C 109.5 . .
H3A C3 H3C 109.5 . .
H3B C3 H3C 109.5 . .
loop_
_geom_bond_atom_site_label_1
_geom_bond_atom_site_label_2
_geom_bond_distance
_geom_bond_site_symmetry_2
Pt1 N1 1.964(5) 3_566
Pt1 N1 1.964(5) .
Pt1 Br1 2.4340(6) 3_566
Pt1 Br1 2.4341(6) .
N1 C1 1.140(8) .
N2 C1 1.304(8) .
N2 C3 1.462(7) .
N2 C2 1.474(8) .
C2 H2A 0.9800 .
C2 H2B 0.9800 .
C2 H2C 0.9800 .
C3 H3A 0.9800 .
C3 H3B 0.9800 .
C3 H3C 0.9800 .
