#------------------------------------------------------------------------------
#$Date: 2016-05-06 03:19:51 +0300 (Fri, 06 May 2016) $
#$Revision: 182609 $
#$URL: svn://www.crystallography.net/cod/cif/7/11/89/7118906.cif $
#------------------------------------------------------------------------------
#
# This file is available in the Crystallography Open Database (COD),
# http://www.crystallography.net/
#
# All data on this site have been placed in the public domain by the
# contributors.
#
data_7118906
loop_
_publ_author_name
'Ivanov, Daniil M.'
'Novikov, Alexander S.'
'Ananyev, Ivan V.'
'Kirina, Yulia V.'
'Kukushkin, Vadim Yu'
_publ_section_title
;
 Halogen bonding between metal centers and halocarbons.
;
_journal_issue                   32
_journal_name_full
'Chemical communications (Cambridge, England)'
_journal_page_first              5565
_journal_page_last               5568
_journal_paper_doi               10.1039/c6cc01107a
_journal_volume                  52
_journal_year                    2016
_chemical_formula_moiety         'C6 H12 Br2 N4 Pt, 2(C H I3)'
_chemical_formula_sum            'C8 H14 Br2 I6 N4 Pt'
_chemical_formula_weight         1282.54
_space_group_crystal_system      triclinic
_space_group_IT_number           2
_space_group_name_Hall           '-P 1'
_space_group_name_H-M_alt        'P -1'
_symmetry_space_group_name_Hall  '-P 1'
_symmetry_space_group_name_H-M   'P -1'
_atom_sites_solution_hydrogens   geom
_audit_creation_method           SHELXL-2014/6
_audit_update_record
;
2016-01-11 deposited with the CCDC.
2016-03-16 downloaded from the CCDC.
;
_cell_angle_alpha                81.0370(13)
_cell_angle_beta                 75.8368(13)
_cell_angle_gamma                65.7179(12)
_cell_formula_units_Z            2
_cell_length_a                   9.2800(6)
_cell_length_b                   9.8201(6)
_cell_length_c                   15.7209(10)
_cell_measurement_reflns_used    556
_cell_measurement_temperature    120(2)
_cell_measurement_theta_max      25
_cell_measurement_theta_min      3
_cell_volume                     1263.74(14)
_computing_cell_refinement       'Bruker SAINT'
_computing_data_collection       'Bruker APEX II'
_computing_data_reduction        'Bruker SAINT'
_computing_molecular_graphics    'Bruker SHELXTL'
_computing_publication_material  'Bruker SHELXTL'
_computing_structure_refinement  'SHELXL-97 (Sheldrick, 1997)'
_computing_structure_solution    'SHELXS-97 (Sheldrick, 1997)'
_diffrn_ambient_temperature      120(2)
_diffrn_measured_fraction_theta_full 1.000
_diffrn_measured_fraction_theta_max 1.000
_diffrn_measurement_device_type  'Bruker APEX II CCD area detector''
_diffrn_measurement_method       'omega scans'
_diffrn_radiation_type           MoK\a
_diffrn_radiation_wavelength     0.71073
_diffrn_reflns_av_R_equivalents  0.0311
_diffrn_reflns_av_unetI/netI     0.0419
_diffrn_reflns_Laue_measured_fraction_full 1.000
_diffrn_reflns_Laue_measured_fraction_max 1.000
_diffrn_reflns_limit_h_max       12
_diffrn_reflns_limit_h_min       -12
_diffrn_reflns_limit_k_max       13
_diffrn_reflns_limit_k_min       -13
_diffrn_reflns_limit_l_max       21
_diffrn_reflns_limit_l_min       -21
_diffrn_reflns_number            15799
_diffrn_reflns_point_group_measured_fraction_full 1.000
_diffrn_reflns_point_group_measured_fraction_max 1.000
_diffrn_reflns_theta_full        25.242
_diffrn_reflns_theta_max         28.998
_diffrn_reflns_theta_min         1.338
_exptl_absorpt_coefficient_mu    16.041
_exptl_absorpt_correction_T_max  0.245
_exptl_absorpt_correction_T_min  0.155
_exptl_absorpt_correction_type   multi-scan
_exptl_absorpt_process_details   SADABS
_exptl_crystal_colour            yellow
_exptl_crystal_density_diffrn    3.370
_exptl_crystal_description       prism
_exptl_crystal_F_000             1112
_exptl_crystal_size_max          0.173
_exptl_crystal_size_mid          0.163
_exptl_crystal_size_min          0.127
_refine_diff_density_max         1.794
_refine_diff_density_min         -1.278
_refine_diff_density_rms         0.237
_refine_ls_extinction_method     none
_refine_ls_goodness_of_fit_ref   1.041
_refine_ls_hydrogen_treatment    constr
_refine_ls_matrix_type           full
_refine_ls_number_parameters     206
_refine_ls_number_reflns         6724
_refine_ls_number_restraints     16
_refine_ls_restrained_S_all      1.041
_refine_ls_R_factor_all          0.0426
_refine_ls_R_factor_gt           0.0351
_refine_ls_shift/su_max          0.001
_refine_ls_shift/su_mean         0.000
_refine_ls_structure_factor_coef Fsqd
_refine_ls_weighting_details
'w=1/[\s^2^(Fo^2^)+(0.0484P)^2^+1.4806P] where P=(Fo^2^+2Fc^2^)/3'
_refine_ls_weighting_scheme      calc
_refine_ls_wR_factor_gt          0.0874
_refine_ls_wR_factor_ref         0.0908
_reflns_Friedel_coverage         0.000
_reflns_number_gt                5849
_reflns_number_total             6724
_reflns_threshold_expression     I>2\s(I)
_cod_data_source_file            c6cc01107a2.cif
_cod_data_source_block           a
_cod_depositor_comments
'Adding full bibliography for 7118900--7118914.cif.'
_cod_database_code               7118906
_shelx_space_group_comment
;
The symmetry employed for this shelxl refinement is uniquely defined
by the following loop, which should always be used as a source of
symmetry information in preference to the above space-group names.
They are only intended as comments.
;
_shelx_estimated_absorpt_t_min   0.168
_shelx_estimated_absorpt_t_max   0.235
_shelxl_version_number           2014/6
_shelx_res_file
;

TITL a in P-1
CELL 0.71073   9.28000   9.82010  15.72090  81.0370  75.8368  65.7179
ZERR    2.00   0.00060   0.00060   0.00100   0.0013   0.0013   0.0012
LATT  1
SFAC C H N I PT Br
UNIT 16 28 8 12 2 4

TEMP -153.000
SIZE 0.127 0.163 0.173

L.S. 10
omit -4 58
BOND $h
conf
htab
FMAP 2
PLAN 20
acta
isor 0.005 c2 c3
eadp c2 c2'
eadp c3 c3'
dfix 1.47 0.01 n2 c2 n2 c3 n2 c2' n2 c3'
WGHT    0.048400    1.480600
FVAR       0.05840   0.49183
PT1   5    0.500000    0.500000    0.000000    10.50000    0.02645    0.01671 =
         0.02085    0.00019   -0.00902   -0.01101
BR1   6    0.228464    0.581576    0.091974    11.00000    0.02139    0.02050 =
         0.02337   -0.00323   -0.00458   -0.00977
N1    3    0.541405    0.648415    0.049339    11.00000    0.02855    0.02317 =
         0.03313   -0.00442   -0.01034   -0.01388
C1    1    0.570055    0.734788    0.076502    11.00000    0.02500    0.02440 =
         0.02630   -0.00049   -0.00518   -0.00977
N2    3    0.607731    0.829892    0.106625    11.00000    0.02812    0.02959 =
         0.04258   -0.00979   -0.01100   -0.01367
PART   1
C2    1    0.769847    0.797810    0.119914    21.00000    0.02633    0.03492 =
         0.04490   -0.01102   -0.00747   -0.01766
AFIX 137
H2A   2    0.841376    0.695395    0.104310    21.00000   -1.50000
H2B   2    0.764704    0.808154    0.181708    21.00000   -1.50000
H2C   2    0.811821    0.868437    0.082606    21.00000   -1.50000
AFIX   0
C3    1    0.505509    0.989049    0.112541    21.00000    0.04472    0.02238 =
         0.03626   -0.00121   -0.01712   -0.01609
AFIX 137
H3A   2    0.398759    1.007341    0.102458    21.00000   -1.50000
H3B   2    0.554756    1.047343    0.068009    21.00000   -1.50000
H3C   2    0.494438    1.019235    0.171127    21.00000   -1.50000
AFIX   0
PART   2
C2'   1    0.761028    0.759363    0.137638   -21.00000    0.02633    0.03492 =
         0.04490   -0.01102   -0.00747   -0.01766
AFIX 137
H2'A  2    0.807841    0.651851    0.129000   -21.00000   -1.50000
H2'B  2    0.741229    0.774692    0.200256   -21.00000   -1.50000
H2'C  2    0.836116    0.804570    0.104314   -21.00000   -1.50000
AFIX   0
C3'   1    0.481042    0.974941    0.132681   -21.00000    0.04472    0.02238 =
         0.03626   -0.00121   -0.01712   -0.01609
AFIX 137
H3'A  2    0.407584    1.012323    0.091261   -21.00000   -1.50000
H3'B  2    0.530228    1.046350    0.132252   -21.00000   -1.50000
H3'C  2    0.420596    0.963144    0.191955   -21.00000   -1.50000
AFIX   0
PART   0
PT1A  5    0.500000    0.000000    0.500000    10.50000    0.02023    0.01927 =
         0.02184    0.00398   -0.00699   -0.01128
BR1A  6    0.596325   -0.118123    0.359344    11.00000    0.02551    0.03061 =
         0.02141   -0.00413   -0.00200   -0.01672
N1A   3    0.674579    0.073340    0.470649    11.00000    0.02246    0.02012 =
         0.03426   -0.00372   -0.00420   -0.01087
C1A   1    0.771249    0.121986    0.445061    11.00000    0.02677    0.02230 =
         0.01690   -0.00047   -0.00205   -0.01108
N2A   3    0.882019    0.178448    0.421159    11.00000    0.02797    0.02634 =
         0.03540    0.00229   -0.00816   -0.02016
C2A   1    0.837589    0.340649    0.414422    11.00000    0.04364    0.03067 =
         0.03670    0.00335   -0.00864   -0.02332
AFIX 137
H2AA  2    0.729539    0.389362    0.449909    11.00000   -1.50000
H2AB  2    0.837898    0.378149    0.352871    11.00000   -1.50000
H2AC  2    0.915615    0.362919    0.435979    11.00000   -1.50000
AFIX   0
C3A   1    1.042634    0.084952    0.373346    11.00000    0.02813    0.03679 =
         0.03718   -0.00240   -0.00653   -0.01533
AFIX 137
H3AA  2    1.057848   -0.020656    0.383889    11.00000   -1.50000
H3AB  2    1.125891    0.100300    0.394090    11.00000   -1.50000
H3AC  2    1.050994    0.113023    0.310259    11.00000   -1.50000
AFIX   0
C1S   1    0.918041    0.196625    0.111286    11.00000    0.04074    0.02132 =
         0.02568    0.00144   -0.00722   -0.01673
AFIX  13
H1SA  2    0.884775    0.221491    0.053042    11.00000   -1.20000
AFIX   0
I1S   4    0.702521    0.242403    0.210052    11.00000    0.03100    0.03132 =
         0.03103   -0.00044   -0.00730   -0.01416
I2S   4    1.046867    0.333459    0.116687    11.00000    0.03789    0.02291 =
         0.02949   -0.00020   -0.00402   -0.01714
I3S   4    1.072109   -0.037776    0.116074    11.00000    0.03779    0.02176 =
         0.03324   -0.00100   -0.00834   -0.01442
C2S   1    0.255633    0.551566    0.319312    11.00000    0.03029    0.01985 =
         0.02564    0.00465   -0.01041   -0.00528
AFIX  13
H2SA  2    0.284603    0.531261    0.255653    11.00000   -1.20000
AFIX   0
I4S   4    0.391712    0.676678    0.334791    11.00000    0.02591    0.02397 =
         0.03066    0.00061   -0.00343   -0.01140
I5S   4    0.332690    0.335990    0.390702    11.00000    0.02882    0.02177 =
         0.04950    0.00899   -0.00839   -0.00970
I6S   4    0.003547    0.674009    0.348015    11.00000    0.02543    0.02374 =
         0.03194    0.00316   -0.00747   -0.01027

HKLF 4

REM  a in P-1
REM R1 =  0.0351 for    5849 Fo > 4sig(Fo)  and  0.0426 for all    6724 data
REM    206 parameters refined using     16 restraints

END

WGHT      0.0409      1.8425

REM Instructions for potential hydrogen bonds
HTAB C2 I2S
EQIV $1 x, y+1, z
HTAB C2 Br1A_$1
HTAB C2 I3S_$1
EQIV $2 x-1, y+1, z
HTAB C3 I3S_$2
HTAB C2' I2S
HTAB C2' Br1A_$1
HTAB C2' I3S_$1
HTAB C3' I3S_$2
EQIV $3 x+1, y-1, z
HTAB C3A I4S_$3
EQIV $4 -x+1, -y+1, -z
HTAB C1S Br1_$4
EQIV $5 -x+2, -y, -z
HTAB C1S I3S_$5
HTAB C2S Br1

REM Highest difference peak  1.794,  deepest hole -1.278,  1-sigma level  0.237
Q1    1   0.4242  0.0006  0.4798  11.00000  0.05    1.79
Q2    1   0.6296 -0.1783  0.3641  11.00000  0.05    1.74
Q3    1   0.4552  0.5079  0.0538  11.00000  0.05    1.71
Q4    1   0.6030 -0.0208  0.5052  11.00000  0.05    1.68
Q5    1   0.5539  0.0034  0.4467  11.00000  0.05    1.55
Q6    1   0.2811  0.5843  0.1063  11.00000  0.05    1.52
Q7    1   0.3354  0.3348  0.3388  11.00000  0.05    1.48
Q8    1   0.6000 -0.1005  0.3918  11.00000  0.05    1.47
Q9    1   0.5636  0.5167  0.0288  11.00000  0.05    1.45
Q10   1   0.2520  0.5220  0.0954  11.00000  0.05    1.43
Q11   1   0.5272 -0.0947  0.3642  11.00000  0.05    1.41
Q12   1   0.1906  0.5937  0.1311  11.00000  0.05    1.37
Q13   1   0.4225  0.0747  0.4870  11.00000  0.05    1.30
Q14   1   0.1850  0.6497  0.0881  11.00000  0.05    1.29
Q15   1   1.0263 -0.0337  0.1727  11.00000  0.05    1.28
Q16   1   0.5132 -0.0889  0.4847  11.00000  0.05    1.25
Q17   1   0.5755  0.4216  0.0110  11.00000  0.05    1.09
Q18   1   0.3822  0.5667  0.0002  11.00000  0.05    1.06
Q19   1   1.1349 -0.0249  0.1526  11.00000  0.05    1.05
Q20   1   0.2564  0.5830  0.0485  11.00000  0.05    1.02
;
_shelx_res_checksum              58035
_shelx_hkl_file
;
  -1   0   0   23.83    0.86
  -1   0   0   22.26    0.86
   1   0   0   23.93    0.86
  -2   0   0  177.25    6.01
  -2   0   0  167.64    6.01
   2   0   0  167.86    6.06
  -3   0   0  106.61    3.92
  -3   0   0  113.41    3.92
   3   0   0  105.50    3.98
  -4   0   0   60.07    2.19
  -4   0   0   54.80    2.18
   4   0   0   54.83    2.28
  -5   0   0    4.27    0.45
  -5   0   0    3.48    0.42
   5   0   0    3.80    0.51
  -6   0   0    9.98    0.68
  -6   0   0    8.90    0.69
   6   0   0    9.42    0.86
  -7   0   0   21.62    1.14
  -7   0   0   21.78    1.15
   7   0   0   20.60    1.31
  -8   0   0    8.93    0.78
  -8   0   0   10.10    0.79
   8   0   0    8.61    1.01
  -9   0   0   12.39    0.92
   9   0   0   10.82    1.18
 -10   0   0   21.11    1.30
  10   0   0   21.72    1.62
 -11   0   0   14.89    1.18
  11   0   0   17.14    1.72
 -12   0   0    6.46    0.89
  12   0   0    4.62    1.09
 -13   0   0    0.33    0.53
  13   0   0    0.24    0.87
 -13   1   0    0.24    0.53
  12  -1   0    0.46    0.82
 -12   1   0    0.91    0.53
  11  -1   0    2.68    0.88
 -11   1   0    5.17    0.77
  10  -1   0    3.72    0.87
 -10   1   0    3.07    0.60
   9  -1   0    2.06    0.70
  -9   1   0    1.05    0.41
   8  -1   0   11.14    1.14
  -8   1   0   11.33    0.85
  -8   1   0   11.87    0.92
   7  -1   0    6.99    0.82
  -7   1   0    8.17    0.68
  -7   1   0    7.33    0.76
   6  -1   0    1.56    0.45
  -6   1   0    2.68    0.48
  -6   1   0    3.12    0.42
   5  -1   0   16.08    0.94
  -5   1   0   15.73    0.98
  -5   1   0   18.25    0.88
   4  -1   0    8.76    0.60
  -4   1   0    8.67    0.65
  -4   1   0    9.07    0.54
   3  -1   0    2.59    0.32
  -3   1   0    1.12    0.29
  -3   1   0    1.85    0.24
   2  -1   0   16.83    0.73
  -2   1   0   16.78    0.80
   1  -1   0   22.75    0.87
  -1   1   0   23.05    0.95
  -1   1   0   22.93    0.87
   0  -1   0   10.57    0.41
  -1  -1   0   24.26    0.90
   1   1   0   25.46    0.91
   1   1   0   25.51    0.97
  -2  -1   0   25.75    1.01
   2   1   0   24.65    1.07
  -3  -1   0   84.34    3.02
  -3  -1   0   79.65    2.92
   3   1   0   83.51    3.15
  -4  -1   0   36.60    1.44
  -4  -1   0   38.70    1.56
   4   1   0   38.33    1.68
  -5  -1   0   20.65    0.98
  -5  -1   0   20.92    0.92
   5   1   0   19.51    1.13
  -6  -1   0   43.57    1.74
  -6  -1   0   42.96    1.82
   6   1   0   42.40    2.01
  -7  -1   0   21.98    1.19
  -7  -1   0   24.38    1.13
   7   1   0   23.89    1.41
  -8  -1   0    0.81    0.37
   8   1   0    0.66    0.52
  -9  -1   0   18.33    1.08
   9   1   0   15.74    1.37
 -10  -1   0    0.94    0.40
  10   1   0    1.42    0.65
 -11  -1   0    7.73    0.92
  11   1   0   10.80    1.38
 -12  -1   0   -0.67    0.34
  12   1   0   -0.21    0.69
 -13  -1   0    1.80    0.59
  13   1   0   -0.09    0.77
 -12   2   0    1.19    0.54
  11  -2   0   -0.45    0.64
 -11   2   0    0.55    0.50
  10  -2   0   -0.23    0.58
 -10   2   0   -0.31    0.38
   9  -2   0    5.23    0.85
  -9   2   0    5.44    0.72
   8  -2   0   24.38    1.45
  -8   2   0   21.56    1.40
  -8   2   0   24.03    1.31
   7  -2   0  173.77    6.68
  -7   2   0  179.42    6.75
  -7   2   0  183.26    6.62
   6  -2   0    5.97    0.65
  -6   2   0    5.92    0.59
  -6   2   0    5.82    0.71
   5  -2   0   33.34    1.48
  -5   2   0   31.02    1.42
  -5   2   0   32.60    1.61
   4  -2   0   24.62    1.13
  -4   2   0   24.25    1.10
  -4   2   0   24.67    1.26
   3  -2   0  256.53    8.86
  -3   2   0  246.40    8.86
  -3   2   0  249.43    9.03
   2  -2   0    6.53    0.39
  -2   2   0    6.11    0.51
  -2   2   0    5.88    0.37
   1  -2   0   14.82    0.61
   1  -2   0   14.13    0.59
   0  -2   0    7.89    0.36
   0  -2   0    8.49    0.39
   0   2   0    8.08    0.50
  -1  -2   0   41.57    1.55
  -1  -2   0   41.91    1.57
   1   2   0   41.42    1.57
  -2  -2   0  245.51    8.83
   2   2   0  248.34    8.85
   2   2   0  258.46    8.77
  -3  -2   0  312.03   10.81
   3   2   0  302.36   10.89
  -4  -2   0  383.97   13.43
   4   2   0  380.11   13.57
  -5  -2   0   56.65    2.28
   5   2   0   57.53    2.45
  -6  -2   0   10.17    0.71
   6   2   0   10.26    0.85
  -7  -2   0    2.32    0.43
   7   2   0    2.06    0.51
  -8  -2   0    0.58    0.33
   8   2   0    2.39    0.64
  -9  -2   0    8.68    0.80
   9   2   0   10.46    1.17
 -10  -2   0    0.25    0.37
  10   2   0   -0.57    0.46
 -11  -2   0   20.77    1.42
  11   2   0   26.68    1.82
 -12  -2   0   12.94    1.11
  12   2   0   13.21    1.43
 -13  -2   0    7.73    1.03
  13   2   0    9.56    1.34
 -14  -2   0    0.43    0.59
 -12   3   0    1.18    0.60
 -11   3   0    2.01    0.63
  10  -3   0    2.11    0.72
 -10   3   0    0.27    0.47
   9  -3   0    1.00    0.56
  -9   3   0    0.66    0.41
   8  -3   0    9.07    0.94
  -8   3   0   10.45    0.87
  -8   3   0   10.18    1.08
   7  -3   0    0.64    0.42
  -7   3   0    0.51    0.33
  -7   3   0   -0.05    0.45
   6  -3   0    0.32    0.34
  -6   3   0    0.53    0.31
  -6   3   0    0.89    0.52
   5  -3   0    0.35    0.29
  -5   3   0    0.68    0.28
  -5   3   0    0.58    0.41
   4  -3   0    2.79    0.38
  -4   3   0    2.82    0.53
  -4   3   0    2.89    0.37
   3  -3   0  137.52    4.88
  -3   3   0  130.84    5.12
  -3   3   0  136.48    4.90
   2  -3   0    3.57    0.28
   2  -3   0    4.27    0.33
  -2   3   0    3.89    0.52
   1  -3   0   55.95    1.99
   1  -3   0   52.90    1.97
  -1   3   0   51.93    2.19
   0  -3   0  387.68   13.98
   0  -3   0  415.11   14.15
   0   3   0  403.92   14.15
  -1  -3   0   51.31    1.91
  -1  -3   0   50.66    1.90
   1   3   0   50.97    1.98
  -2  -3   0  394.40   13.67
  -2  -3   0  386.71   13.68
   2   3   0  388.71   13.62
  -3  -3   0  123.44    4.73
   3   3   0  135.04    4.59
   3   3   0  129.28    4.76
  -4  -3   0    0.93    0.30
   4   3   0    1.01    0.30
  -5  -3   0   41.33    1.72
   5   3   0   37.29    1.79
  -6  -3   0   66.54    2.61
   6   3   0   62.40    2.74
  -7  -3   0   12.75    0.84
   7   3   0   10.91    0.95
  -8  -3   0   29.95    1.53
   8   3   0   31.32    1.74
  -9  -3   0    3.91    0.61
   9   3   0    4.51    0.75
 -10  -3   0   -0.06    0.37
  10   3   0   -0.24    0.48
 -11  -3   0    6.82    0.88
  11   3   0    8.76    1.15
 -12  -3   0    2.76    0.62
  12   3   0    3.30    0.86
 -13  -3   0    0.62    0.49
  13   3   0    0.47    0.64
 -14  -3   0    0.23    0.56
  14   3   0    0.71    0.74
  11  -4   0    2.65    0.61
  10  -4   0   13.02    1.00
  -9   4   0    3.63    0.67
   8  -4   0    0.35    0.44
  -8   4   0    0.94    0.63
  -8   4   0    0.50    0.41
   7  -4   0    0.12    0.36
  -7   4   0    0.95    0.38
  -7   4   0    0.81    0.58
   6  -4   0    5.68    0.62
  -6   4   0    4.67    0.80
  -6   4   0    5.22    0.61
   5  -4   0   74.55    2.97
  -5   4   0   77.92    3.35
  -5   4   0   76.38    3.00
   4  -4   0   68.49    2.62
   4  -4   0   69.44    2.67
  -4   4   0   67.55    2.99
   3  -4   0  131.02    4.79
   3  -4   0  135.32    4.83
  -3   4   0  132.68    5.15
   2  -4   0   14.93    0.73
   2  -4   0   16.74    0.71
  -2   4   0   13.77    0.99
   1  -4   0    3.92    0.32
   1  -4   0    3.78    0.28
  -1   4   0    4.01    0.54
   0  -4   0    2.71    0.25
   0   4   0    2.25    0.39
  -1  -4   0   95.58    3.47
  -1  -4   0   94.80    3.47
   1   4   0   96.37    3.61
  -2  -4   0    5.51    0.44
  -2  -4   0    6.61    0.49
   2   4   0    5.61    0.47
  -3  -4   0    7.91    0.62
   3   4   0    9.75    0.54
   3   4   0    9.01    0.60
   4   4   0   23.72    1.21
   4   4   0   26.21    1.04
  -5  -4   0  269.71   10.01
   5   4   0  289.50   10.12
  -6  -4   0   32.19    1.54
   6   4   0   33.00    1.64
  -7  -4   0   69.72    2.86
   7   4   0   68.37    2.98
  -8  -4   0   11.27    0.90
   8   4   0   11.95    1.02
  -9  -4   0   42.86    2.05
   9   4   0   44.89    2.23
 -10  -4   0   -0.08    0.35
  10   4   0    0.59    0.50
 -11  -4   0    0.42    0.46
  11   4   0    1.90    0.66
 -12  -4   0    1.15    0.56
  12   4   0    1.70    0.69
 -13  -4   0    0.81    0.51
  13   4   0    1.06    0.72
 -14  -4   0   10.20    1.19
  14   4   0   11.12    1.33
  10  -5   0    0.77    0.46
   9  -5   0    1.42    0.42
  -9   5   0    1.39    0.98
   8  -5   0    0.37    0.31
  -8   5   0   -0.73    0.60
   7  -5   0   20.02    1.11
   7  -5   0   18.97    1.21
  -7   5   0   19.04    1.61
   6  -5   0    1.28    0.42
   6  -5   0    1.72    0.35
  -6   5   0    1.17    0.68
   5  -5   0   38.91    1.68
   5  -5   0   36.54    1.61
  -5   5   0   35.44    2.04
   4  -5   0   28.73    1.33
   4  -5   0   29.99    1.28
  -4   5   0   26.91    1.67
   3  -5   0   38.47    1.55
   3  -5   0   37.09    1.57
  -3   5   0   37.39    1.94
   2  -5   0   27.11    1.17
   2  -5   0   27.29    1.14
  -2   5   0   26.55    1.52
   1  -5   0   49.33    1.93
   1  -5   0   50.67    1.95
  -1   5   0   51.96    2.29
   0  -5   0   38.19    1.53
   0  -5   0   40.17    1.55
   0   5   0   38.60    1.80
  -1  -5   0  134.69    4.86
  -1  -5   0  135.39    4.85
   1   5   0  133.62    5.05
  -2  -5   0   45.29    1.83
  -2  -5   0   44.00    1.78
   2   5   0   43.87    1.88
  -3  -5   0   43.73    1.88
  -3  -5   0   43.47    1.84
   3   5   0   45.42    1.83
  -4  -5   0  211.27    8.03
   4   5   0  222.36    8.03
   4   5   0  231.00    7.89
  -5  -5   0    6.74    0.69
   5   5   0    6.17    0.45
   5   5   0    6.70    0.69
  -6  -5   0    5.47    0.67
   6   5   0    6.77    0.75
  -7  -5   0    2.91    0.53
   7   5   0    3.70    0.61
  -8  -5   0    6.24    0.73
   8   5   0    8.38    0.98
  -9  -5   0    2.73    0.59
   9   5   0    1.27    0.56
 -10  -5   0    1.47    0.49
  10   5   0    0.96    0.52
 -11  -5   0    1.45    0.56
  11   5   0    1.63    0.63
 -12  -5   0    3.89    0.75
  12   5   0    5.39    0.95
 -13  -5   0    1.17    0.60
  13   5   0    1.26    0.69
 -14  -5   0    0.61    0.54
  14   5   0    1.29    0.73
   9  -6   0   -0.03    0.36
  -9   6   0    0.99    1.07
   8  -6   0    5.74    0.71
  -8   6   0    7.05    1.24
   7  -6   0    6.59    0.71
  -7   6   0    7.72    1.19
   6  -6   0   26.77    1.32
  -6   6   0   26.26    1.90
   5  -6   0    2.78    0.42
   5  -6   0    2.70    0.45
  -5   6   0    3.54    0.82
   4  -6   0    0.79    0.30
   4  -6   0    0.71    0.26
  -4   6   0    1.52    0.65
   3  -6   0    2.68    0.35
   3  -6   0    2.68    0.39
  -3   6   0    2.49    0.64
   2  -6   0  118.74    4.37
   2  -6   0  117.54    4.35
  -2   6   0  121.99    4.82
   1  -6   0   14.31    0.71
   1  -6   0   13.28    0.71
  -1   6   0   12.12    1.06
   0  -6   0  177.74    6.59
   0  -6   0  190.99    6.61
   0   6   0  184.58    6.93
  -1  -6   0    0.77    0.23
  -1  -6   0    1.93    0.30
   1   6   0    1.33    0.41
  -2  -6   0  344.80   12.01
  -2  -6   0  326.90   11.95
   2   6   0  344.65   12.12
  -3  -6   0   53.53    2.19
  -3  -6   0   51.71    2.14
   3   6   0   51.40    2.17
  -4  -6   0   30.19    1.48
   4   6   0   30.22    1.43
   4   6   0   31.56    1.38
  -5  -6   0    4.46    0.59
   5   6   0    5.89    0.49
   5   6   0    4.92    0.58
  -6  -6   0   81.01    3.34
   6   6   0   84.57    3.38
   6   6   0   81.31    3.02
  -7  -6   0   36.30    1.81
   7   6   0   35.53    1.82
  -8  -6   0   40.92    2.00
   8   6   0   40.31    2.06
  -9  -6   0   45.12    2.25
   9   6   0   51.04    2.41
 -10  -6   0    3.41    0.66
  10   6   0    2.77    0.67
 -11  -6   0    7.21    0.96
  11   6   0    8.64    1.05
 -12  -6   0    7.33    0.99
  12   6   0    8.62    1.14
 -13  -6   0    4.70    0.85
  13   6   0    4.35    0.91
 -14  -6   0   -0.09    0.51
  14   6   0    0.39    0.62
   8  -7   0   -0.36    0.33
  -8   7   0    0.05    0.84
   7  -7   0    6.87    0.73
  -7   7   0    6.85    1.27
   6  -7   0   11.22    0.83
  -6   7   0   11.53    1.45
   5  -7   0    1.28    0.34
  -5   7   0    0.92    0.69
   4  -7   0   12.54    0.78
  -4   7   0   12.88    1.31
   3  -7   0   69.61    2.81
   3  -7   0   72.45    2.81
  -3   7   0   75.94    3.42
   2  -7   0    3.72    0.44
   2  -7   0    4.39    0.46
  -2   7   0    4.75    0.85
   1  -7   0    0.06    0.22
   1  -7   0    0.25    0.20
  -1   7   0    0.01    0.41
   0  -7   0    9.59    0.59
   0  -7   0    8.26    0.58
   0   7   0    9.44    0.92
  -1  -7   0   11.35    0.69
  -1  -7   0   10.95    0.67
   1   7   0   12.18    0.98
  -2  -7   0    3.73    0.47
  -2  -7   0    3.32    0.41
   2   7   0    2.62    0.53
  -3  -7   0   14.41    0.86
  -3  -7   0   11.35    0.77
   3   7   0   11.64    0.87
  -4  -7   0   23.81    1.26
   4   7   0   22.81    1.18
   4   7   0   23.65    1.21
  -5  -7   0   15.25    1.02
   5   7   0   15.23    0.86
   5   7   0   14.38    0.93
  -6  -7   0    0.50    0.41
   6   7   0    1.98    0.35
   6   7   0    0.79    0.32
  -7  -7   0   60.93    2.75
   7   7   0   64.54    2.77
  -8  -7   0   19.33    1.30
   8   7   0   21.41    1.34
  -9  -7   0    2.07    0.58
   9   7   0    1.58    0.53
 -10  -7   0    3.61    0.67
  10   7   0    3.74    0.74
 -11  -7   0   -0.20    0.47
  11   7   0    0.45    0.56
 -12  -7   0    0.34    0.51
  12   7   0   -0.03    0.53
 -13  -7   0    4.68    0.87
  13   7   0    4.65    0.91
 -14  -7   0    0.23    0.55
  14   7   0   -0.64    0.54
  -8   8   0    3.24    1.13
   7  -8   0    4.71    0.66
  -7   8   0    3.98    1.15
   6  -8   0    0.11    0.33
  -6   8   0   -0.28    0.70
   5  -8   0   34.18    1.62
  -5   8   0   35.70    2.32
   4  -8   0    0.41    0.29
  -4   8   0    0.23    0.65
   3  -8   0   42.42    1.82
  -3   8   0   42.27    2.39
   2  -8   0    2.14    0.39
  -2   8   0    2.13    0.75
   1  -8   0  109.19    4.06
   1  -8   0  107.26    4.07
  -1   8   0  108.79    4.56
   0  -8   0    0.91    0.31
   0  -8   0    0.59    0.26
   0   8   0    0.86    0.52
  -1  -8   0   25.90    1.23
  -1  -8   0   27.47    1.27
   1   8   0   24.63    1.54
  -2  -8   0   14.85    0.95
  -2  -8   0   15.43    0.90
   2   8   0   16.69    1.17
  -3  -8   0   23.19    1.27
  -3  -8   0   24.00    1.22
   3   8   0   24.53    1.38
  -4  -8   0   86.36    3.47
   4   8   0   85.11    3.46
   4   8   0   88.22    3.41
  -5  -8   0   20.67    1.27
   5   8   0   20.73    1.15
   5   8   0   22.78    1.18
  -6  -8   0   52.75    2.40
   6   8   0   54.02    2.22
   6   8   0   53.21    2.36
  -7  -8   0    2.89    0.63
   7   8   0    4.80    0.67
  -8  -8   0    3.80    0.69
   8   8   0    4.10    0.66
  -9  -8   0   17.37    1.30
   9   8   0   21.75    1.40
 -10  -8   0   26.70    1.66
  10   8   0   28.78    1.74
 -11  -8   0   31.11    1.88
  11   8   0   35.21    2.04
 -12  -8   0    0.69    0.59
  12   8   0    0.54    0.55
 -13  -8   0    7.28    1.02
  13   8   0   11.76    1.34
 -14  -8   0    0.20    0.53
  14   8   0    2.17    0.79
  -7   9   0    1.70    1.05
   6  -9   0    4.89    0.93
  -6   9   0    6.03    1.32
   5  -9   0    2.99    0.52
  -5   9   0    1.30    0.94
   4  -9   0    5.22    0.64
  -4   9   0    4.83    1.12
   3  -9   0   18.06    1.04
  -3   9   0   17.65    1.63
   2  -9   0    0.87    0.35
  -2   9   0    0.60    0.64
   1  -9   0    0.21    0.28
  -1   9   0    0.67    0.59
   0  -9   0   75.45    2.94
   0  -9   0   71.64    2.89
   0   9   0   75.01    3.43
  -1  -9   0    1.09    0.34
  -1  -9   0    0.95    0.32
   1   9   0    1.54    0.61
  -2  -9   0   15.02    0.97
  -2  -9   0   15.19    0.92
   2   9   0   17.33    1.23
  -3  -9   0   56.02    2.36
  -3  -9   0   55.96    2.43
   3   9   0   54.90    2.52
  -4  -9   0   27.56    1.50
   4   9   0   30.66    1.44
   4   9   0   29.01    1.56
  -5  -9   0   27.26    1.50
   5   9   0   27.77    1.39
   5   9   0   26.43    1.40
  -6  -9   0    1.06    0.46
   6   9   0    0.43    0.32
   6   9   0    0.56    0.34
  -7  -9   0   19.60    1.31
   7   9   0   18.87    1.22
  -8  -9   0    1.71    0.60
   8   9   0    2.81    0.59
  -9  -9   0    6.62    0.91
   9   9   0    7.12    0.91
 -10  -9   0    0.83    0.56
  10   9   0    0.62    0.53
 -11  -9   0    7.40    0.99
  11   9   0    8.26    1.07
 -12  -9   0    2.59    0.74
  12   9   0    3.04    0.79
 -13  -9   0    0.81    0.65
  13   9   0    1.32    0.69
 -14  -9   0    0.56    0.60
  14   9   0    0.44    0.61
  -6  10   0    0.92    1.04
  -5  10   0    0.25    0.93
   4 -10   0    9.90    0.86
  -4  10   0   10.17    1.51
   3 -10   0   18.34    1.12
  -3  10   0   18.25    1.83
   2 -10   0    5.90    0.67
  -2  10   0    3.93    0.97
   1 -10   0   29.16    1.46
  -1  10   0   28.99    1.98
   0 -10   0    1.14    0.40
   0  10   0    0.68    0.63
  -1 -10   0   11.21    0.89
   1  10   0   13.69    1.23
  -2 -10   0   14.80    1.05
  -2 -10   0   14.73    0.96
   2  10   0   17.76    1.33
  -3 -10   0   61.40    2.58
  -3 -10   0   61.55    2.66
   3  10   0   60.42    2.80
  -4 -10   0    2.94    0.59
   4  10   0    3.10    0.62
   4  10   0    2.53    0.46
  -5 -10   0    2.35    0.56
   5  10   0    2.86    0.49
   5  10   0    2.19    0.54
  -6 -10   0    8.17    0.92
   6  10   0    8.88    0.79
   6  10   0    9.15    0.79
  -7 -10   0   41.24    2.07
   7  10   0   40.04    1.96
  -8 -10   0   40.44    2.10
   8  10   0   40.23    2.04
  -9 -10   0   10.17    1.11
   9  10   0    8.27    0.97
 -10 -10   0    2.68    0.71
  10  10   0    3.31    0.71
 -11 -10   0    1.52    0.63
  11  10   0    0.93    0.56
 -12 -10   0    1.64    0.66
  12  10   0    1.14    0.65
 -13 -10   0    6.46    1.06
  13  10   0    6.79    1.02
 -14 -10   0    6.17    1.51
  -5  11   0    1.11    1.03
  -4  11   0    4.21    1.24
   3 -11   0   10.06    1.16
  -3  11   0   12.89    1.72
   2 -11   0    6.48    0.77
  -2  11   0    4.05    1.08
   1 -11   0    1.89    0.54
  -1  11   0    1.29    0.82
   0 -11   0   37.88    1.83
   0  11   0   35.77    2.32
  -1 -11   0    5.85    0.74
   1  11   0    5.43    1.02
  -2 -11   0    0.38    0.43
   2  11   0    0.48    0.60
  -3 -11   0    3.05    0.62
   3  11   0    3.53    0.55
   3  11   0    3.06    0.77
  -4 -11   0    7.56    0.86
   4  11   0    8.85    1.00
   4  11   0    8.55    0.76
  -5 -11   0    2.20    0.59
   5  11   0    2.33    0.60
   5  11   0    2.53    0.52
  -6 -11   0    6.97    0.86
   6  11   0    6.96    0.78
   6  11   0    6.51    0.81
  -7 -11   0   18.22    1.32
   7  11   0   19.68    1.25
  -8 -11   0    6.01    0.87
   8  11   0    4.20    0.71
  -9 -11   0    3.51    0.75
   9  11   0    4.86    0.78
 -10 -11   0    2.29    0.72
  10  11   0    2.41    0.66
 -11 -11   0    3.08    0.74
  11  11   0    4.13    0.79
 -12 -11   0    0.33    0.56
  12  11   0   -0.01    0.52
 -13 -11   0    8.50    1.15
  13  11   0    8.11    1.07
  -4  12   0    6.33    1.44
  -3  12   0    0.31    0.97
  -2  12   0   -0.82    0.80
   1 -12   0    2.03    0.60
  -1  12   0    2.28    0.91
   0 -12   0   48.88    2.26
   0  12   0   45.13    2.77
  -1 -12   0   14.36    1.17
   1  12   0   13.69    1.55
  -2 -12   0   21.58    1.41
   2  12   0   21.90    1.72
  -3 -12   0    0.69    0.47
   3  12   0    0.59    0.58
  -4 -12   0   24.95    1.50
   4  12   0   23.01    1.60
  -5 -12   0    1.35    0.54
   5  12   0    0.44    0.50
   5  12   0    0.47    0.41
  -6 -12   0   36.57    1.93
   6  12   0   33.80    1.75
  -7 -12   0    2.28    0.62
   7  12   0    3.28    0.61
  -8 -12   0    2.96    0.71
   8  12   0    2.50    0.59
  -9 -12   0    0.59    0.54
   9  12   0    0.76    0.46
 -10 -12   0    5.95    0.93
  10  12   0    4.96    0.81
 -11 -12   0   26.30    1.76
  11  12   0   23.66    1.61
 -12 -12   0    2.42    0.74
  12  12   0    3.27    0.76
 -13 -12   0    2.96    0.89
  -2  13   0   -0.09    0.92
  -1  13   0    1.53    0.98
   0  13   0    9.83    1.49
  -1 -13   0   -0.25    0.53
   1  13   0    0.43    0.79
  -2 -13   0    4.93    0.83
   2  13   0    3.88    0.99
  -3 -13   0   -0.50    0.44
   3  13   0    1.29    0.68
  -4 -13   0    2.36    0.65
   4  13   0    2.85    0.80
  -5 -13   0    0.73    0.53
   5  13   0    0.36    0.54
  -6 -13   0    1.49    0.60
  -7 -13   0    0.70    0.53
   7  13   0    0.76    0.43
  -8 -13   0    7.26    0.99
   8  13   0    8.24    0.94
  -9 -13   0    2.16    0.69
   9  13   0    1.75    0.60
 -10 -13   0    0.20    0.53
  10  13   0    0.44    0.48
 -11 -13   0   11.59    1.30
  11  13   0   13.73    1.26
 -12 -13   0    2.15    0.74
  12  13   0    4.38    0.83
   0  14   0    2.24    1.07
   1  14   0    4.23    1.18
   2  14   0    1.30    0.87
  -3 -14   0   16.69    1.37
   3  14   0   15.89    1.68
  -4 -14   0   24.69    1.65
   4  14   0   25.37    1.86
  -5 -14   0    9.72    1.12
   5  14   0    8.18    1.15
  -6 -14   0    6.42    0.96
  -7 -14   0    0.56    0.57
  -8 -14   0   11.48    1.23
  -9 -14   0    0.42    0.61
 -10 -14   0    0.39    0.58
  10  14   0    1.19    0.58
 -11 -14   0    4.90    0.91
   2  15   0    0.43    0.81
   3  15   0    0.37    0.77
   4  15   0    0.87    0.81
  -5 -15   0    3.39    0.78
  -6 -15   0    3.47    0.78
  -7 -15   0   -0.28    0.52
  -8 -15   0   -0.29    0.53
  -9 -15   0    0.23    0.57
  -9 -15   1    1.96    0.67
  -7 -15   1    8.57    1.07
  -6 -15   1    2.58    0.72
   4  15  -1    2.10    0.91
   3  15  -1    1.66    0.86
   2  15  -1    2.20    0.98
  10  14  -1    7.41    1.00
 -10 -14   1    7.07    1.00
   9  14  -1    2.93    0.69
  -9 -14   1    3.06    0.74
  -8 -14   1   15.81    1.32
  -7 -14   1    9.33    1.07
  -6 -14   1    1.95    0.61
  -5 -14   1    8.89    1.07
   4  14  -1   -0.31    0.67
  -4 -14   1   -0.36    0.52
   3  14  -1    2.42    0.91
   2  14  -1    0.05    0.78
   1  14  -1    3.96    1.13
   0  14  -1   -0.42    0.88
 -12 -13   1    3.15    0.78
  11  13  -1    1.01    0.59
 -11 -13   1    1.44    0.61
  10  13  -1    6.17    0.91
 -10 -13   1    7.20    1.01
   9  13  -1    4.90    0.80
  -9 -13   1    3.99    0.80
   8  13  -1   29.82    1.70
  -8 -13   1   24.16    1.64
   7  13  -1    6.36    0.84
  -7 -13   1    5.49    0.85
   6  13  -1    3.78    0.79
  -6 -13   1    3.24    0.72
   5  13  -1    5.98    0.97
  -5 -13   1    4.31    0.78
   4  13  -1   27.32    1.85
  -4 -13   1   30.74    1.70
   3  13  -1    3.49    0.86
  -3 -13   1    2.84    0.69
   2  13  -1   35.76    2.31
  -2 -13   1   38.04    1.99
   1  13  -1   -0.45    0.69
   0  13  -1   10.74    1.51
  -1  13  -1    0.87    0.92
  -2  13  -1    4.73    1.31
  12  12  -1    9.54    1.12
 -12 -12   1    6.42    0.96
  11  12  -1    1.21    0.61
 -11 -12   1    0.83    0.55
  10  12  -1    0.90    0.53
 -10 -12   1    1.49    0.64
   9  12  -1    0.62    0.50
  -9 -12   1    0.16    0.49
   8  12  -1    4.17    0.70
   7  12  -1    0.66    0.43
  -7 -12   1    0.56    0.50
   6  12  -1    8.77    0.86
  -6 -12   1    9.36    1.00
   5  12  -1    6.85    0.91
   5  12  -1    6.83    0.79
  -5 -12   1    6.91    0.87
   4  12  -1    0.82    0.55
   4  12  -1    1.08    0.55
  -4 -12   1    0.94    0.49
   3  12  -1    1.42    0.64
  -3 -12   1    1.62    0.54
   2  12  -1    2.71    0.81
  -2 -12   1    3.43    0.63
   1  12  -1    2.92    0.88
  -1 -12   1    3.25    0.68
   0  12  -1   -0.16    0.77
   0 -12   1    0.13    0.46
  -1  12  -1    3.24    1.02
  -2  12  -1    2.22    1.04
  -3  12  -1    2.44    1.10
  -4  12  -1   -0.07    0.98
  13  11  -1    5.41    0.95
 -13 -11   1    5.64    1.03
  12  11  -1    0.98    0.61
 -12 -11   1    0.24    0.52
  11  11  -1   26.40    1.76
 -11 -11   1   25.14    1.68
  10  11  -1    2.18    0.65
 -10 -11   1    2.90    0.76
   9  11  -1   17.42    1.31
  -9 -11   1   17.37    1.35
   8  11  -1   21.01    1.38
  -8 -11   1   21.46    1.48
   7  11  -1   33.77    1.74
  -7 -11   1   34.96    1.86
   6  11  -1    6.15    0.77
  -6 -11   1    6.89    0.85
   5  11  -1   77.79    3.33
   5  11  -1   78.89    3.22
  -5 -11   1   76.88    3.30
   4  11  -1   14.48    0.99
   4  11  -1   14.21    1.17
  -4 -11   1   10.70    1.00
   3  11  -1   10.26    1.13
  -3 -11   1    9.14    0.94
  -3 -11   1    9.14    0.88
   2  11  -1    1.38    0.64
  -2 -11   1    2.01    0.56
   1  11  -1    0.94    0.64
  -1 -11   1    0.18    0.42
   0  11  -1   27.93    1.97
   0 -11   1   30.32    1.56
  -1  11  -1    8.50    1.33
   1 -11   1   10.72    0.93
  -2  11  -1    5.73    1.18
   2 -11   1    5.99    0.95
  -3  11  -1    1.52    1.00
  -4  11  -1    2.26    1.07
  -5  11  -1    7.93    1.53
  13  10  -1    4.63    0.89
 -13 -10   1    4.11    0.86
  12  10  -1    2.72    0.75
 -12 -10   1    2.18    0.73
  11  10  -1    0.55    0.55
 -11 -10   1    0.02    0.49
  10  10  -1    5.63    0.85
 -10 -10   1    5.72    0.88
   9  10  -1    0.81    0.49
  -9 -10   1    0.14    0.50
   8  10  -1   17.95    1.26
  -8 -10   1   19.05    1.30
   7  10  -1    2.03    0.49
  -7 -10   1    1.91    0.57
   6  10  -1    0.43    0.36
   6  10  -1    0.44    0.35
  -6 -10   1    0.69    0.45
   5  10  -1   31.68    1.58
   5  10  -1   31.13    1.63
  -5 -10   1   31.20    1.66
   4  10  -1    0.40    0.41
   4  10  -1    0.07    0.29
  -4 -10   1    0.01    0.34
   3  10  -1   16.82    1.23
  -3 -10   1   16.89    1.09
  -3 -10   1   17.16    1.10
   2  10  -1   38.40    2.08
  -2 -10   1   38.49    1.78
  -2 -10   1   37.23    1.83
   1  10  -1    0.08    0.53
  -1 -10   1    0.33    0.34
  -1 -10   1    0.53    0.37
   0  10  -1   11.11    1.28
   0 -10   1   10.87    0.83
  -1  10  -1   11.29    1.39
   1 -10   1   11.86    0.87
  -2  10  -1    3.92    0.99
   2 -10   1    4.00    0.60
  -3  10  -1    4.71    1.11
   3 -10   1    5.64    0.66
  -4  10  -1   -0.34    0.81
  -5  10  -1    3.77    1.15
  -6  10  -1    6.16    1.36
 -14  -9   1    3.80    0.91
  13   9  -1    5.21    0.93
 -13  -9   1    4.63    0.91
  12   9  -1   34.46    2.08
 -12  -9   1   29.98    1.91
  11   9  -1    3.31    0.76
 -11  -9   1    3.43    0.75
  10   9  -1   11.25    1.20
 -10  -9   1   11.46    1.18
  -9  -9   1    8.42    0.98
   8   9  -1    4.90    0.71
  -8  -9   1    4.58    0.76
   7   9  -1   39.11    1.95
  -7  -9   1   43.42    2.08
   6   9  -1    0.56    0.32
   6   9  -1    0.87    0.36
  -6  -9   1    0.18    0.36
   5   9  -1    4.94    0.63
   5   9  -1    4.91    0.62
  -5  -9   1    4.43    0.68
   4   9  -1   14.14    1.02
  -4  -9   1   13.31    0.97
  -4  -9   1   14.32    1.00
   3   9  -1   68.09    2.97
  -3  -9   1   68.71    2.82
  -3  -9   1   68.18    2.83
   2   9  -1   70.32    3.21
  -2  -9   1   71.65    3.00
  -2  -9   1   78.03    2.98
   1   9  -1   38.15    2.03
  -1  -9   1   36.84    1.69
  -1  -9   1   37.26    1.69
   0   9  -1   21.02    1.60
   0  -9   1   24.11    1.20
   0  -9   1   23.85    1.22
  -1   9  -1    3.67    0.80
   1  -9   1    4.90    0.57
   1  -9   1    5.27    0.85
  -2   9  -1   11.83    1.37
   2  -9   1   11.98    0.82
  -3   9  -1    0.23    0.74
   3  -9   1    0.21    0.32
  -4   9  -1    6.18    1.20
   4  -9   1    7.97    0.72
  -5   9  -1    6.96    1.35
   5  -9   1    6.02    0.72
  -6   9  -1    7.63    1.41
  -7   9  -1    4.12    1.28
  14   8  -1   -0.12    0.58
 -14  -8   1    0.18    0.54
  13   8  -1    1.30    0.64
 -13  -8   1   -0.47    0.46
  12   8  -1    1.72    0.70
 -12  -8   1    1.14    0.60
  11   8  -1    2.85    0.74
 -11  -8   1    1.91    0.62
  10   8  -1    5.52    0.87
 -10  -8   1    4.20    0.74
   9   8  -1   12.76    1.10
  -9  -8   1   12.66    1.11
   8   8  -1    7.84    0.92
  -8  -8   1    9.54    0.99
   7   8  -1   37.08    1.80
  -7  -8   1   33.92    1.82
   6   8  -1   34.23    1.54
   6   8  -1   35.17    1.72
  -6  -8   1   35.01    1.77
   5   8  -1   64.36    2.65
   5   8  -1   66.05    2.74
  -5  -8   1   66.32    2.80
   4   8  -1    4.77    0.59
  -4  -8   1    3.87    0.58
  -4  -8   1    3.85    0.57
   3   8  -1    1.75    0.47
  -3  -8   1    1.73    0.41
  -3  -8   1    1.02    0.37
   2   8  -1   79.19    3.37
  -2  -8   1   80.58    3.17
  -2  -8   1   84.34    3.23
   1   8  -1   56.96    2.63
  -1  -8   1   60.56    2.37
  -1  -8   1   56.65    2.36
   0   8  -1    8.49    0.97
   0  -8   1    8.67    0.63
   0  -8   1    7.82    0.61
  -1   8  -1    2.07    0.65
   1  -8   1    0.98    0.29
   1  -8   1    1.34    0.34
  -2   8  -1   21.27    1.56
   2  -8   1   19.31    1.05
   2  -8   1   19.58    1.01
  -3   8  -1    1.14    0.67
   3  -8   1    1.21    0.33
  -4   8  -1    0.50    0.70
   4  -8   1    0.78    0.33
  -5   8  -1   -0.13    0.70
   5  -8   1    0.23    0.33
  -6   8  -1    0.97    0.88
   6  -8   1    0.62    0.35
  -7   8  -1    8.75    1.43
  -8   8  -1    5.52    1.33
  14   7  -1    3.71    0.91
 -14  -7   1    2.33    0.74
  13   7  -1    0.88    0.70
 -13  -7   1    1.56    0.62
  12   7  -1    0.56    0.57
 -12  -7   1   -0.28    0.49
  11   7  -1    8.38    1.10
 -11  -7   1    7.22    0.92
  10   7  -1   56.05    2.69
 -10  -7   1   50.98    2.50
   9   7  -1   37.59    2.06
  -9  -7   1   40.16    2.01
   8   7  -1   99.56    4.01
  -8  -7   1   91.19    3.90
   7   7  -1    2.70    0.56
  -7  -7   1    3.05    0.60
   6   7  -1   51.33    2.27
   6   7  -1   51.40    2.01
  -6  -7   1   49.09    2.28
   5   7  -1   15.24    0.92
   5   7  -1   13.13    0.80
  -5  -7   1   13.94    0.96
   4   7  -1   20.23    1.08
  -4  -7   1   19.56    1.16
  -4  -7   1   20.92    1.16
   3   7  -1    7.29    0.68
  -3  -7   1    5.46    0.59
  -3  -7   1    5.23    0.60
   2   7  -1   49.01    2.19
  -2  -7   1   47.77    2.06
  -2  -7   1   50.15    2.05
   1   7  -1    3.77    0.62
  -1  -7   1    3.72    0.44
  -1  -7   1    4.39    0.47
   0   7  -1   58.54    2.63
   0  -7   1   58.20    2.31
   0  -7   1   56.58    2.26
  -1   7  -1   10.46    1.00
   1  -7   1    9.31    0.59
   1  -7   1    8.64    0.62
  -2   7  -1   85.14    3.67
   2  -7   1   86.29    3.22
   2  -7   1   83.71    3.25
  -3   7  -1   19.05    1.45
   3  -7   1   19.83    0.99
   3  -7   1   19.78    1.04
  -4   7  -1   19.72    1.57
   4  -7   1   22.32    1.06
   4  -7   1   19.76    1.13
  -5   7  -1    7.86    1.16
   5  -7   1    9.93    0.69
  -6   7  -1   -0.42    0.67
   6  -7   1    0.24    0.30
  -7   7  -1   -0.68    0.71
   7  -7   1    0.19    0.31
  -8   7  -1    0.17    0.89
  -9   7  -1   11.18    1.58
  14   6  -1    1.51    0.69
 -14  -6   1    1.06    0.63
  13   6  -1    1.23    0.70
 -13  -6   1    0.97    0.56
  12   6  -1    8.51    1.12
 -12  -6   1    8.45    1.06
  11   6  -1    1.24    0.60
 -11  -6   1    0.02    0.45
  10   6  -1    3.67    0.73
 -10  -6   1    2.51    0.63
   9   6  -1   36.84    1.97
  -9  -6   1   35.38    1.86
   8   6  -1    2.08    0.55
  -8  -6   1    1.28    0.47
   7   6  -1   31.31    1.61
  -7  -6   1   28.20    1.54
   6   6  -1    0.90    0.22
   6   6  -1    0.44    0.30
  -6  -6   1    0.46    0.34
   5   6  -1    7.44    0.51
   5   6  -1    6.50    0.61
  -5  -6   1    5.97    0.67
   4   6  -1   77.50    2.91
   4   6  -1   76.85    3.01
  -4  -6   1   72.30    3.03
   3   6  -1   25.05    1.24
  -3  -6   1   24.80    1.23
  -3  -6   1   27.14    1.27
   2   6  -1   -0.05    0.28
  -2  -6   1    0.33    0.27
  -2  -6   1    0.40    0.25
   1   6  -1   35.94    1.67
  -1  -6   1   35.20    1.48
  -1  -6   1   33.61    1.45
   0   6  -1    6.52    0.74
   0  -6   1    6.26    0.44
   0  -6   1    6.81    0.51
  -1   6  -1   53.37    2.40
   1  -6   1   52.60    2.06
   1  -6   1   49.43    1.99
  -2   6  -1   28.00    1.64
   2  -6   1   29.37    1.23
   2  -6   1   28.03    1.27
  -3   6  -1   22.39    1.47
   3  -6   1   22.46    1.02
   3  -6   1   21.38    1.09
  -4   6  -1   39.98    2.14
   4  -6   1   38.83    1.66
   4  -6   1   40.28    1.75
  -5   6  -1    0.83    0.64
   5  -6   1    0.83    0.29
   5  -6   1    0.42    0.33
  -6   6  -1    3.69    0.86
   6  -6   1    3.40    0.55
   6  -6   1    3.26    0.48
  -7   6  -1   -0.24    0.68
   7  -6   1   -0.21    0.27
  -8   6  -1    2.10    0.92
   8  -6   1    2.18    0.48
  -9   6  -1   -0.72    0.70
   9  -6   1    0.71    0.40
  14   5  -1    0.68    0.65
 -14  -5   1   -0.43    0.50
  13   5  -1   14.73    1.52
 -13  -5   1   12.28    1.29
  12   5  -1    9.80    1.15
 -12  -5   1    7.60    0.99
  11   5  -1    7.38    1.01
 -11  -5   1    7.05    0.93
  10   5  -1    8.29    1.04
 -10  -5   1    8.29    0.93
   9   5  -1   10.08    1.07
  -9  -5   1    8.77    0.95
   8   5  -1    1.07    0.44
  -8  -5   1    0.88    0.39
   7   5  -1   77.72    3.22
  -7  -5   1   72.77    3.08
   6   5  -1    4.54    0.62
  -6  -5   1    4.30    0.60
   5   5  -1  444.18   14.93
   5   5  -1  419.79   15.24
  -5  -5   1  419.38   15.20
   4   5  -1   45.28    1.97
   4   5  -1   47.42    1.81
  -4  -5   1   44.73    1.96
   3   5  -1  192.83    6.86
  -3  -5   1  192.35    6.94
  -3  -5   1  187.98    6.92
   2   5  -1    0.99    0.30
  -2  -5   1    0.65    0.26
  -2  -5   1    0.37    0.23
   1   5  -1    0.38    0.30
  -1  -5   1    1.26    0.25
  -1  -5   1    0.96    0.23
   0   5  -1    8.00    0.69
   0  -5   1    7.72    0.51
   0  -5   1    7.70    0.45
  -1   5  -1    0.50    0.36
   1  -5   1    0.87    0.17
   1  -5   1    0.75    0.22
  -2   5  -1  154.26    6.02
   2  -5   1  160.99    5.67
   2  -5   1  160.32    5.73
  -3   5  -1   54.58    2.53
   3  -5   1   54.95    2.19
   3  -5   1   55.14    2.12
  -4   5  -1   10.62    1.01
   4  -5   1    9.59    0.70
   4  -5   1    9.81    0.60
  -5   5  -1   10.40    1.13
   5  -5   1    9.21    0.75
   5  -5   1    9.10    0.62
  -6   5  -1   17.28    1.46
   6  -5   1   16.90    0.92
   6  -5   1   16.67    1.05
  -7   5  -1   50.10    2.61
   7  -5   1   46.55    2.15
   7  -5   1   46.46    2.03
  -8   5  -1   -1.03    0.53
   8  -5   1    0.02    0.28
  -9   5  -1    3.05    0.91
   9  -5   1    4.50    0.62
  10  -5   1    5.73    0.76
  14   4  -1    4.43    0.97
 -14  -4   1    2.79    0.76
  13   4  -1    0.33    0.65
 -13  -4   1    0.00    0.47
  12   4  -1    0.95    0.65
 -12  -4   1    1.46    0.58
  11   4  -1   22.24    1.56
 -11  -4   1   19.99    1.38
  10   4  -1   17.64    1.35
 -10  -4   1   17.10    1.18
   9   4  -1    0.30    0.43
  -9  -4   1    0.66    0.36
   8   4  -1   41.87    2.10
  -8  -4   1   40.17    1.94
   7   4  -1   19.67    1.26
  -7  -4   1   19.27    1.11
   6   4  -1    0.45    0.32
  -6  -4   1    0.00    0.28
   5   4  -1   51.95    2.23
   4   4  -1   11.91    0.77
   4   4  -1   12.79    0.57
  -4  -4   1   11.40    0.75
   3   4  -1   46.40    1.82
  -3  -4   1   47.46    1.96
  -3  -4   1   48.12    1.95
   2   4  -1   13.89    0.74
  -2  -4   1   14.83    0.77
  -2  -4   1   14.78    0.75
   1   4  -1   71.52    2.85
  -1  -4   1   76.56    2.76
  -1  -4   1   74.31    2.77
   0   4  -1    9.62    0.67
   0  -4   1    8.83    0.51
   0  -4   1    9.25    0.46
  -1   4  -1    6.87    0.63
   1  -4   1    6.36    0.36
   1  -4   1    6.29    0.43
  -2   4  -1   44.98    2.02
   2  -4   1   44.48    1.76
   2  -4   1   45.29    1.71
  -3   4  -1    8.67    0.81
   3  -4   1    9.77    0.52
   3  -4   1    9.37    0.59
  -4   4  -1    0.34    0.41
   4  -4   1    0.48    0.19
   4  -4   1   -0.27    0.23
  -5   4  -1    0.61    0.49
   5  -4   1    1.34    0.37
  -6   4  -1    3.51    0.49
  -6   4  -1    4.35    0.79
   6  -4   1    2.73    0.49
  -7   4  -1    1.05    0.39
  -7   4  -1   -0.06    0.48
   7  -4   1    1.03    0.41
  -8   4  -1    0.52    0.38
  -8   4  -1    0.17    0.60
   8  -4   1    0.24    0.46
  -9   4  -1    3.78    0.65
   9  -4   1    2.57    0.67
  10  -4   1    0.55    0.38
  11  -4   1    0.48    0.41
  14   3  -1    5.40    1.07
 -14  -3   1    3.80    0.82
  13   3  -1    1.67    0.78
 -13  -3   1    1.58    0.59
  12   3  -1   30.10    1.93
 -12  -3   1   26.14    1.66
  11   3  -1    8.20    1.13
 -11  -3   1    5.74    0.83
  10   3  -1   30.40    1.82
 -10  -3   1   28.83    1.62
   9   3  -1   -0.28    0.40
  -9  -3   1    0.22    0.33
   8   3  -1   13.05    1.11
  -8  -3   1   12.57    0.91
   7   3  -1    0.76    0.42
  -7  -3   1    0.61    0.33
   6   3  -1    0.48    0.35
  -6  -3   1    0.76    0.28
   5   3  -1  112.41    4.35
  -5  -3   1  112.94    4.22
   4   3  -1    9.26    0.65
  -4  -3   1    7.96    0.58
   3   3  -1  171.39    6.03
   3   3  -1  161.26    5.80
  -3  -3   1  163.57    5.96
   2   3  -1    4.50    0.33
  -2  -3   1    5.60    0.43
  -2  -3   1    4.71    0.40
   1   3  -1  670.84   23.83
  -1  -3   1  671.72   23.41
  -1  -3   1  671.70   23.78
   0   3  -1  315.66   11.09
   0  -3   1  302.64   10.93
   0  -3   1  323.77   11.00
  -1   3  -1    1.95    0.36
   1  -3   1    1.61    0.17
   1  -3   1    2.02    0.24
  -2   3  -1   13.47    0.86
   2  -3   1   14.99    0.63
   2  -3   1   14.70    0.69
  -3   3  -1   97.16    3.59
  -3   3  -1   95.68    3.81
   3  -3   1  100.10    3.61
  -4   3  -1   59.08    2.58
  -4   3  -1   60.55    2.35
   4  -3   1   61.17    2.38
  -5   3  -1    4.00    0.63
  -5   3  -1    3.01    0.42
   5  -3   1    3.90    0.49
  -6   3  -1  143.01    5.28
  -6   3  -1  144.24    5.55
   6  -3   1  137.07    5.29
  -7   3  -1    9.80    1.04
  -7   3  -1    9.51    0.76
   7  -3   1    8.42    0.81
  -8   3  -1   15.72    1.02
  -8   3  -1   13.03    1.22
   8  -3   1   13.93    1.09
  -9   3  -1    2.14    0.53
  -9   3  -1    2.64    0.83
   9  -3   1    2.08    0.63
 -10   3  -1   18.12    1.31
  10  -3   1   18.22    1.48
 -11   3  -1    1.81    0.64
 -12   3  -1    0.96    0.65
  13   2  -1    2.92    0.92
 -13  -2   1    1.51    0.58
  12   2  -1    0.87    0.68
 -12  -2   1   -0.03    0.43
  11   2  -1   10.31    1.27
 -11  -2   1   11.30    1.03
  10   2  -1    1.03    0.57
 -10  -2   1    0.01    0.37
   9   2  -1    0.49    0.47
  -9  -2   1    0.05    0.32
   8   2  -1   92.79    3.86
  -8  -2   1   88.59    3.60
   7   2  -1    0.45    0.40
  -7  -2   1    0.14    0.27
   6   2  -1    0.83    0.38
  -6  -2   1    1.34    0.33
   5   2  -1  161.47    6.15
  -5  -2   1  166.81    5.98
   4   2  -1   50.31    2.16
  -4  -2   1   53.61    2.06
   3   2  -1   46.30    1.89
  -3  -2   1   45.83    1.80
   2   2  -1   40.46    1.46
  -2  -2   1   39.82    1.61
  -2  -2   1   40.49    1.57
   1   2  -1   41.66    1.57
  -1  -2   1   41.77    1.60
  -1  -2   1   43.38    1.60
   0   2  -1   29.44    1.21
   0  -2   1   30.44    1.16
   0  -2   1   30.13    1.11
  -1   2  -1    0.63    0.20
   1  -2   1    0.53    0.09
   1  -2   1    1.00    0.16
  -2   2  -1   15.86    0.72
  -2   2  -1   18.89    0.90
   2  -2   1   16.28    0.75
  -3   2  -1   20.80    0.93
  -3   2  -1   21.35    1.10
   3  -2   1   22.26    0.97
  -4   2  -1    1.20    0.37
  -4   2  -1    1.54    0.26
   4  -2   1    0.91    0.28
  -5   2  -1    1.07    0.40
  -5   2  -1    1.30    0.29
   5  -2   1    1.03    0.32
  -6   2  -1    2.82    0.43
  -6   2  -1    2.22    0.50
   6  -2   1    2.79    0.50
  -7   2  -1    1.09    0.53
  -7   2  -1    0.68    0.34
   7  -2   1    2.03    0.49
  -8   2  -1    0.50    0.47
  -8   2  -1    0.96    0.40
   8  -2   1    0.82    0.47
  -9   2  -1   16.82    1.14
   9  -2   1   16.52    1.32
 -10   2  -1   16.60    1.20
  10  -2   1   15.40    1.42
 -11   2  -1    0.74    0.49
  11  -2   1    0.05    0.69
 -12   2  -1    0.77    0.56
  13   1  -1   -0.58    0.75
 -13  -1   1    0.63    0.55
  12   1  -1    1.82    0.86
 -12  -1   1    2.20    0.61
  11   1  -1    0.80    0.69
 -11  -1   1    1.82    0.54
  10   1  -1   25.18    1.74
 -10  -1   1   22.24    1.37
   9   1  -1    0.84    0.57
  -9  -1   1    1.52    0.44
   8   1  -1  176.01    6.71
  -8  -1   1  167.99    6.39
   7   1  -1   23.88    1.46
  -7  -1   1   24.19    1.25
  -7  -1   1   26.30    1.19
   6   1  -1   20.55    1.28
  -6  -1   1   21.93    1.01
  -6  -1   1   20.03    1.07
   5   1  -1  107.39    4.19
  -5  -1   1  110.22    3.90
  -5  -1   1  103.21    3.98
   4   1  -1   13.41    0.88
  -4  -1   1   15.25    0.70
  -4  -1   1   14.47    0.74
   3   1  -1   80.22    3.30
  -3  -1   1   93.19    3.14
  -3  -1   1   87.39    3.20
   2   1  -1   81.23    2.76
   2   1  -1   73.73    2.87
  -2  -1   1   79.25    2.81
  -2  -1   1   75.22    2.75
   1   1  -1   78.16    2.78
  -1  -1   1   82.08    2.82
  -1  -1   1   77.21    2.84
   0  -1   1   64.81    2.30
   0  -1   1   66.70    2.34
  -1   1  -1  253.29    9.00
  -1   1  -1  259.36    8.97
   1  -1   1  251.85    8.88
  -2   1  -1  257.12    9.12
  -2   1  -1  259.95    9.04
   2  -1   1  259.35    9.08
  -3   1  -1  260.45    9.25
  -3   1  -1  260.43    9.35
   3  -1   1  269.33    9.31
  -4   1  -1  124.05    4.53
  -4   1  -1  122.95    4.42
   4  -1   1  118.12    4.48
  -5   1  -1   29.20    1.45
  -5   1  -1   31.65    1.35
   5  -1   1   32.55    1.46
  -6   1  -1   14.99    0.85
  -6   1  -1   15.11    0.95
   6  -1   1   15.13    0.99
  -7   1  -1    2.96    0.55
  -7   1  -1    2.87    0.46
   7  -1   1    3.53    0.63
  -8   1  -1   24.44    1.41
  -8   1  -1   27.64    1.37
   8  -1   1   26.97    1.61
  -9   1  -1   15.74    1.07
   9  -1   1   14.10    1.25
 -10   1  -1   10.15    1.01
  10  -1   1    8.30    1.13
 -11   1  -1   16.83    1.27
  11  -1   1   16.41    1.65
 -12   1  -1    4.93    0.84
  12  -1   1    4.15    1.04
 -13   1  -1    0.22    0.53
  13  -1   1   -0.55    0.84
  13   0  -1    0.08    0.84
 -13   0   1    0.44    0.53
  12   0  -1    4.01    1.04
 -12   0   1    5.25    0.80
  11   0  -1    2.88    0.91
 -11   0   1    2.11    0.59
  10   0  -1    4.28    0.93
 -10   0   1    3.83    0.62
   9   0  -1    0.68    0.57
  -9   0   1    0.68    0.37
   8   0  -1   22.73    1.52
  -8   0   1   23.71    1.26
   7   0  -1   10.22    1.06
  -7   0   1   10.27    0.81
  -7   0   1   10.52    0.76
   6   0  -1    2.30    0.51
  -6   0   1    4.39    0.49
  -6   0   1    3.70    0.50
   5   0  -1    2.91    0.48
  -5   0   1    4.07    0.45
  -5   0   1    4.24    0.48
   4   0  -1   73.33    3.03
  -4   0   1   78.77    2.93
  -4   0   1   79.90    2.92
  -3   0   1    1.67    0.24
  -3   0   1    2.32    0.30
   2   0  -1   21.29    0.98
  -2   0   1   23.54    0.94
  -2   0   1   21.84    0.90
   1   0  -1  156.73    5.30
  -1   0   1  141.18    5.26
  -1   0   1  153.30    5.30
   0   0  -1    0.02    0.02
   0   0  -1    0.02    0.02
   0   0   1    0.00    0.04
   0   0   1   -0.01    0.02
  -1   0  -1   40.41    1.36
  -1   0  -1   37.42    1.36
   1   0   1   35.64    1.38
  -2   0  -1    5.49    0.30
  -2   0  -1    5.34    0.30
   2   0   1    4.95    0.36
  -3   0  -1  181.02    6.30
  -3   0  -1  177.06    6.31
   3   0   1  176.25    6.37
  -4   0  -1    4.16    0.38
  -4   0  -1    3.35    0.38
   4   0   1    3.54    0.43
  -5   0  -1   38.91    1.66
  -5   0  -1   43.14    1.67
   5   0   1   38.34    1.76
  -6   0  -1  162.29    6.10
  -6   0  -1  173.32    6.13
   6   0   1  167.76    6.28
  -7   0  -1   18.63    0.97
  -7   0  -1   15.79    0.95
   7   0   1   15.26    1.11
  -8   0  -1    1.88    0.43
  -8   0  -1    1.23    0.39
   8   0   1    0.94    0.50
  -9   0  -1   11.46    0.87
   9   0   1   11.43    1.13
 -10   0  -1    6.05    0.77
  10   0   1    7.59    1.11
 -11   0  -1    0.60    0.44
  11   0   1    0.82    0.71
 -12   0  -1    1.51    0.59
  12   0   1    1.27    0.85
 -13   0  -1    0.53    0.53
  13   0   1   -0.61    0.76
  12  -1  -1    1.02    0.83
 -12   1   1    1.10    0.56
  11  -1  -1   12.88    1.52
 -11   1   1   13.89    1.15
  10  -1  -1    2.60    0.84
 -10   1   1    4.47    0.70
   9  -1  -1    8.09    1.05
  -9   1   1    8.78    0.87
   8  -1  -1    5.77    0.84
  -8   1   1    5.20    0.65
  -8   1   1    4.99    0.68
   7  -1  -1   20.02    1.29
  -7   1   1   22.69    1.16
  -7   1   1   20.36    1.22
   6  -1  -1   26.25    1.43
  -6   1   1   28.52    1.32
  -6   1   1   26.61    1.38
   5  -1  -1  215.71    7.96
  -5   1   1  225.68    7.98
  -5   1   1  217.03    7.88
   4  -1  -1   83.70    3.20
  -4   1   1   84.46    3.24
  -4   1   1   82.72    3.14
   3  -1  -1  142.25    5.23
  -3   1   1  144.66    5.20
  -3   1   1  148.11    5.29
   2  -1  -1  148.33    5.34
  -2   1   1  150.94    5.34
  -2   1   1  152.64    5.42
   1  -1  -1    0.97    0.12
  -1   1   1    1.08    0.22
  -1   1   1    0.68    0.12
   0  -1  -1   40.39    1.50
   0   1   1   43.84    1.59
  -1  -1  -1  302.74   11.33
   1   1   1  364.96   11.48
   1   1   1  306.19   11.43
  -2  -1  -1   60.42    2.19
  -2  -1  -1   63.36    2.28
  -2  -1  -1   65.61    2.23
   2   1   1   58.63    2.31
  -3  -1  -1   11.57    0.49
  -3  -1  -1   13.08    0.59
   3   1   1   11.21    0.67
  -4  -1  -1  117.19    4.23
  -4  -1  -1  122.11    4.32
   4   1   1  117.19    4.43
  -5  -1  -1  121.23    4.46
  -5  -1  -1  130.56    4.57
   5   1   1  120.41    4.69
  -6  -1  -1   38.96    1.58
  -6  -1  -1   38.80    1.67
   6   1   1   39.21    1.85
  -7  -1  -1   16.37    0.87
  -7  -1  -1   16.07    0.95
   7   1   1   17.14    1.16
  -8  -1  -1    0.42    0.33
   8   1   1   -0.10    0.41
  -9  -1  -1    6.16    0.73
   9   1   1    7.21    0.96
 -10  -1  -1    5.72    0.74
  10   1   1    6.11    0.97
 -11  -1  -1   19.94    1.32
  11   1   1   18.86    1.61
 -12  -1  -1    0.71    0.48
  12   1   1    0.96    0.81
 -13  -1  -1   17.86    1.40
  13   1   1   19.67    1.85
 -12   2   1    1.44    0.59
  11  -2  -1   -0.17    1.10
 -11   2   1    2.00    0.59
  10  -2  -1   -0.45    0.58
 -10   2   1    0.31    0.44
   9  -2  -1    0.35    0.55
  -9   2   1    1.08    0.42
   8  -2  -1   38.86    2.00
  -8   2   1   39.48    1.88
  -8   2   1   39.92    2.00
   7  -2  -1    4.86    0.70
  -7   2   1    4.31    0.54
  -7   2   1    4.32    0.70
   6  -2  -1   32.63    1.55
  -6   2   1   30.72    1.46
  -6   2   1   31.76    1.63
   5  -2  -1   10.18    0.71
  -5   2   1   10.21    0.66
  -5   2   1    9.61    0.82
   4  -2  -1    1.41    0.30
  -4   2   1    1.19    0.26
  -4   2   1    1.60    0.41
   3  -2  -1  111.31    4.07
  -3   2   1  113.51    4.26
  -3   2   1  112.39    4.10
   2  -2  -1    7.15    0.41
  -2   2   1    7.58    0.44
  -2   2   1    8.39    0.61
   1  -2  -1   57.03    2.08
   1  -2  -1   58.99    2.06
  -1   2   1   55.77    2.23
   0  -2  -1   37.60    1.41
   0  -2  -1   40.10    1.38
   0   2   1   35.28    1.52
   0   2   1   40.21    1.39
  -1  -2  -1   41.68    1.60
   1   2   1   45.05    1.61
   1   2   1   43.23    1.66
  -2  -2  -1    1.85    0.28
   2   2   1    1.02    0.21
   2   2   1    0.89    0.22
  -3  -2  -1  366.32   11.50
  -3  -2  -1  323.78   11.64
   3   2   1  308.67   11.69
   3   2   1  323.96   11.49
   4   2   1   81.20    3.18
  -5  -2  -1    3.66    0.44
   5   2   1    4.32    0.57
  -6  -2  -1   33.95    1.50
   6   2   1   33.42    1.65
  -7  -2  -1   33.63    1.56
   7   2   1   33.62    1.76
  -8  -2  -1    5.02    0.61
   8   2   1    4.71    0.77
  -9  -2  -1    3.53    0.59
   9   2   1    3.13    0.71
 -10  -2  -1   11.28    0.96
  10   2   1   11.70    1.29
 -11  -2  -1   -0.30    0.35
  11   2   1    0.49    0.67
 -12  -2  -1    1.78    0.58
  12   2   1    2.21    0.85
 -13  -2  -1    0.46    0.50
  13   2   1    0.22    0.69
 -14  -2  -1    1.87    0.67
  14   2   1    1.69    0.90
 -11   3   1    1.26    0.58
 -10   3   1    6.32    0.86
   9  -3  -1    0.21    0.52
  -9   3   1    0.57    0.42
   8  -3  -1   12.72    1.07
  -8   3   1   14.24    1.01
  -8   3   1   12.67    1.18
   7  -3  -1   11.73    0.92
  -7   3   1    9.63    0.99
  -7   3   1   11.43    0.86
   6  -3  -1   64.68    2.63
  -6   3   1   63.14    2.63
  -6   3   1   64.48    2.87
   5  -3  -1    1.96    0.38
  -5   3   1    2.12    0.54
  -5   3   1    2.23    0.37
   4  -3  -1    3.87    0.42
  -4   3   1    4.46    0.47
  -4   3   1    4.56    0.64
   3  -3  -1   79.83    2.95
  -3   3   1   79.21    3.22
  -3   3   1   79.22    3.00
   2  -3  -1  128.16    4.57
   2  -3  -1  129.66    4.55
  -2   3   1  124.75    4.82
   1  -3  -1  260.75    9.16
   1  -3  -1  266.28    9.13
  -1   3   1  257.64    9.38
   0  -3  -1    1.12    0.14
   0  -3  -1    0.87    0.14
   0   3   1    1.10    0.29
  -1  -3  -1   42.76    1.63
  -1  -3  -1   45.85    1.65
   1   3   1   42.16    1.74
  -2  -3  -1    2.49    0.32
   2   3   1    2.18    0.29
   2   3   1    2.33    0.28
  -3  -3  -1    7.92    0.55
   3   3   1    7.33    0.45
   3   3   1    7.48    0.52
  -4  -3  -1  134.54    4.90
   4   3   1  130.63    4.94
  -5  -3  -1    4.02    0.47
   5   3   1    4.17    0.54
  -6  -3  -1  248.12    9.03
   6   3   1  253.80    9.19
  -7  -3  -1    2.11    0.45
   7   3   1    0.70    0.42
  -8  -3  -1  138.57    5.33
   8   3   1  143.19    5.53
  -9  -3  -1    0.36    0.38
   9   3   1    0.76    0.47
 -10  -3  -1    8.65    0.91
  10   3   1    8.39    1.08
 -11  -3  -1    0.32    0.44
  11   3   1    0.21    0.56
 -12  -3  -1   10.32    1.09
  12   3   1   13.97    1.36
 -13  -3  -1    1.97    0.63
  13   3   1    1.20    0.76
 -14  -3  -1    0.30    0.57
  14   3   1   -0.07    0.70
  11  -4  -1    1.90    0.58
  10  -4  -1    5.30    0.72
  -9   4   1   -0.07    0.40
   8  -4  -1    3.05    0.63
  -8   4   1    3.64    0.62
  -8   4   1    5.25    0.92
   7  -4  -1   -0.34    0.34
  -7   4   1    0.23    0.33
  -7   4   1   -0.55    0.46
   6  -4  -1    6.11    0.66
  -6   4   1    8.00    0.78
  -6   4   1    6.05    0.92
   5  -4  -1   20.45    1.10
  -5   4   1   22.99    1.14
  -5   4   1   21.83    1.49
   4  -4  -1   78.43    2.95
   4  -4  -1   78.41    2.95
  -4   4   1   75.31    3.30
   3  -4  -1   52.48    2.05
   3  -4  -1   52.52    2.04
  -3   4   1   53.24    2.40
   2  -4  -1   66.87    2.48
   2  -4  -1   67.12    2.45
  -2   4   1   63.86    2.79
   1  -4  -1   21.42    0.92
   1  -4  -1   22.65    0.90
  -1   4   1   21.06    1.19
   0  -4  -1  110.37    3.77
   0  -4  -1  100.10    3.79
   0   4   1  106.79    4.04
  -1  -4  -1    7.66    0.45
  -1  -4  -1    7.39    0.42
   1   4   1    7.35    0.59
  -2  -4  -1   15.38    0.75
  -2  -4  -1   13.90    0.76
   2   4   1   15.29    0.80
  -3  -4  -1    3.39    0.45
   3   4   1    4.16    0.42
   3   4   1    4.90    0.45
  -4  -4  -1   12.06    0.78
   4   4   1   12.29    0.76
   4   4   1   12.92    0.63
  -5  -4  -1    2.01    0.39
   5   4   1    0.92    0.32
  -6  -4  -1   41.18    1.85
   6   4   1   41.41    1.92
  -7  -4  -1   76.14    3.11
   7   4   1   77.31    3.23
  -8  -4  -1   -0.52    0.27
   8   4   1    0.48    0.42
  -9  -4  -1    8.93    0.92
   9   4   1    8.72    0.98
 -10  -4  -1   31.61    1.76
  10   4   1   37.99    1.96
 -11  -4  -1    3.20    0.68
  11   4   1    4.56    0.84
 -12  -4  -1    5.68    0.89
  12   4   1    7.54    1.09
 -13  -4  -1    5.77    0.92
  13   4   1    6.58    1.05
 -14  -4  -1    0.33    0.57
  14   4   1    1.12    0.75
  10  -5  -1    3.87    0.67
   9  -5  -1    5.89    0.72
   8  -5  -1   16.45    1.05
  -8   5   1   15.63    1.50
   7  -5  -1    1.66    0.42
  -7   5   1    2.96    0.82
   6  -5  -1   38.58    1.71
   6  -5  -1   36.29    1.72
  -6   5   1   39.07    2.20
   5  -5  -1    0.32    0.24
   5  -5  -1    0.72    0.31
  -5   5   1    0.87    0.55
   4  -5  -1   52.66    2.14
   4  -5  -1   53.03    2.12
  -4   5   1   53.00    2.57
   3  -5  -1    1.21    0.27
   3  -5  -1    1.05    0.24
  -3   5   1    0.37    0.48
   2  -5  -1   62.56    2.40
   2  -5  -1   63.41    2.37
  -2   5   1   62.69    2.78
   1  -5  -1   26.73    1.14
   1  -5  -1   28.22    1.13
  -1   5   1   27.31    1.49
   0  -5  -1    2.35    0.28
   0  -5  -1    2.43    0.27
   0   5   1    2.67    0.50
  -1  -5  -1  191.03    6.68
  -1  -5  -1  181.16    6.71
   1   5   1  193.21    6.93
  -2  -5  -1    8.73    0.54
  -2  -5  -1    8.52    0.56
   2   5   1    8.06    0.67
  -3  -5  -1  144.80    5.53
   3   5   1  156.87    5.50
   3   5   1  149.74    5.50
  -4  -5  -1    2.44    0.45
   4   5   1    2.27    0.35
   4   5   1    2.33    0.37
  -5  -5  -1  109.53    4.33
   5   5   1  114.74    4.34
   5   5   1  114.72    4.12
  -6  -5  -1   14.60    0.98
   6   5   1   14.00    0.96
  -7  -5  -1    4.52    0.63
   7   5   1    4.61    0.65
  -8  -5  -1    8.44    0.85
   8   5   1    6.00    0.79
  -9  -5  -1   46.78    2.24
   9   5   1   48.97    2.38
 -10  -5  -1   68.47    3.11
  10   5   1   73.32    3.23
 -11  -5  -1    7.06    0.93
  11   5   1    9.03    1.07
 -12  -5  -1    1.32    0.57
  12   5   1    1.71    0.69
 -13  -5  -1    0.63    0.56
  13   5   1    1.44    0.72
 -14  -5  -1   -0.14    0.53
  14   5   1    1.35    0.74
  10  -6  -1    2.11    0.55
   9  -6  -1    3.96    0.67
   8  -6  -1    0.14    0.35
  -8   6   1   -0.55    0.71
   7  -6  -1    0.92    0.37
  -7   6   1    1.19    0.78
   6  -6  -1    3.29    0.51
  -6   6   1    3.36    0.89
   5  -6  -1   17.99    0.98
  -5   6   1   17.05    1.51
   4  -6  -1    3.71    0.47
   4  -6  -1    4.74    0.51
  -4   6   1    4.83    0.90
   3  -6  -1    3.25    0.40
   3  -6  -1    3.31    0.41
  -3   6   1    4.35    0.81
   2  -6  -1    4.96    0.43
   2  -6  -1    5.05    0.42
  -2   6   1    5.12    0.83
   1  -6  -1   92.53    3.37
   1  -6  -1   89.35    3.41
  -1   6   1   94.08    3.84
   0  -6  -1   51.18    2.03
   0  -6  -1   52.99    2.00
   0   6   1   52.10    2.38
  -1  -6  -1    1.09    0.24
  -1  -6  -1    1.52    0.27
   1   6   1    1.11    0.41
  -2  -6  -1  194.07    7.03
  -2  -6  -1  195.92    6.98
   2   6   1  194.80    7.17
  -3  -6  -1   57.07    2.37
   3   6   1   58.01    2.30
   3   6   1   57.10    2.37
  -4  -6  -1    4.60    0.58
   4   6   1    4.35    0.50
   4   6   1    5.15    0.54
  -5  -6  -1   13.99    0.99
   5   6   1   16.32    0.96
   5   6   1   15.76    0.86
  -6  -6  -1   10.93    0.87
   6   6   1   11.16    0.62
   6   6   1   11.21    0.86
  -7  -6  -1   37.12    1.84
   7   6   1   37.86    1.88
  -8  -6  -1   90.27    3.77
   8   6   1   94.20    3.87
  -9  -6  -1    5.50    0.76
   9   6   1    5.14    0.79
 -10  -6  -1   31.93    1.79
  10   6   1   33.87    1.89
 -11  -6  -1    1.86    0.60
  11   6   1    4.38    0.80
 -12  -6  -1    0.90    0.54
  12   6   1    0.84    0.58
 -13  -6  -1    5.34    0.90
  13   6   1    4.62    0.92
 -14  -6  -1   -0.03    0.59
  14   6   1    0.38    0.62
   9  -7  -1    4.85    0.74
   8  -7  -1    0.47    0.43
  -8   7   1    0.67    0.91
   7  -7  -1    1.34    0.44
  -7   7   1    2.57    0.95
   6  -7  -1    1.30    0.42
  -6   7   1    1.96    0.86
   5  -7  -1   21.51    1.17
  -5   7   1   24.00    1.84
   4  -7  -1   17.60    0.99
  -4   7   1   22.16    1.69
   3  -7  -1   18.82    1.00
  -3   7   1   21.91    1.57
   2  -7  -1   28.35    1.25
   2  -7  -1   28.81    1.30
  -2   7   1   29.04    1.78
   1  -7  -1   31.01    1.36
   1  -7  -1   31.79    1.33
  -1   7   1   32.70    1.83
   0  -7  -1    1.43    0.30
   0  -7  -1    2.08    0.29
   0   7   1    1.49    0.57
  -1  -7  -1   16.27    0.87
  -1  -7  -1   16.15    0.82
   1   7   1   18.48    1.23
  -2  -7  -1   41.19    1.70
  -2  -7  -1   39.57    1.74
   2   7   1   41.64    1.93
  -3  -7  -1  129.35    5.07
   3   7   1  135.84    5.15
   3   7   1  140.15    5.00
  -4  -7  -1    2.21    0.47
   4   7   1    1.73    0.35
   4   7   1    1.07    0.35
  -5  -7  -1    8.94    0.83
   5   7   1   10.78    0.77
   5   7   1    9.16    0.71
  -6  -7  -1   13.04    0.99
   6   7   1   14.07    0.95
   6   7   1   13.54    0.79
  -7  -7  -1   83.24    3.46
   7   7   1   82.98    3.45
  -8  -7  -1   24.32    1.47
   8   7   1   26.00    1.50
  -9  -7  -1   16.45    1.23
   9   7   1   15.28    1.19
 -10  -7  -1    0.68    0.49
  10   7   1    1.12    0.53
 -11  -7  -1    2.17    0.64
  11   7   1    3.09    0.71
 -12  -7  -1    0.40    0.54
  12   7   1    0.98    0.61
  13   7   1   37.72    2.27
 -14  -7  -1    2.62    0.75
  14   7   1    3.49    0.83
   8  -8  -1    4.23    0.75
  -8   8   1    3.12    1.18
   7  -8  -1   -0.02    0.35
  -7   8   1   -0.61    0.81
   6  -8  -1    1.47    0.44
  -6   8   1    1.79    0.90
   5  -8  -1   27.59    1.41
  -5   8   1   28.05    2.10
   4  -8  -1    1.88    0.40
  -4   8   1    1.40    0.81
   3  -8  -1    0.01    0.26
  -3   8   1    0.07    0.60
   2  -8  -1    2.91    0.44
  -2   8   1    3.22    0.82
   1  -8  -1   25.72    1.24
   1  -8  -1   25.98    1.31
  -1   8   1   26.90    1.73
   0  -8  -1   16.26    0.84
   0  -8  -1   16.90    0.91
   0   8   1   15.54    1.31
  -1  -8  -1   51.63    2.14
  -1  -8  -1   52.26    2.06
   1   8   1   50.56    2.45
  -2  -8  -1    1.39    0.40
  -2  -8  -1    1.82    0.35
   2   8   1    1.15    0.52
  -3  -8  -1   61.40    2.65
   3   8   1   64.44    2.55
   3   8   1   64.57    2.76
  -4  -8  -1   10.08    0.84
   4   8   1   10.97    0.73
   4   8   1    9.52    0.84
  -5  -8  -1    5.08    0.67
   5   8   1    4.66    0.59
   5   8   1    4.43    0.57
  -6  -8  -1   68.66    2.91
   6   8   1   67.28    2.83
   6   8   1   65.80    2.71
  -7  -8  -1    5.68    0.79
   7   8   1    6.83    0.78
  -8  -8  -1   -0.11    0.43
   8   8   1    0.25    0.38
  -9  -8  -1    0.49    0.47
   9   8   1    0.61    0.45
 -10  -8  -1    5.93    0.87
  10   8   1    7.14    0.95
 -11  -8  -1    3.12    0.69
  11   8   1    4.19    0.83
 -12  -8  -1   12.56    1.26
  12   8   1   12.48    1.30
 -13  -8  -1   -0.45    0.46
  13   8   1    0.42    0.61
 -14  -8  -1    0.76    0.58
  14   8   1    1.63    0.73
  -7   9   1   -0.24    0.97
   6  -9  -1    2.61    0.56
  -6   9   1    3.80    1.17
   5  -9  -1    1.22    0.42
  -5   9   1    0.61    0.86
   4  -9  -1    7.40    0.77
  -4   9   1    9.33    1.39
   3  -9  -1    2.10    0.44
  -3   9   1    2.29    0.90
   2  -9  -1    3.84    0.53
  -2   9   1    4.87    1.00
   1  -9  -1   49.49    2.11
  -1   9   1   49.38    2.64
   0  -9  -1   84.07    3.32
   0   9   1   85.30    3.82
  -1  -9  -1   41.95    1.77
  -1  -9  -1   40.80    1.84
   1   9   1   43.05    2.25
  -2  -9  -1    1.02    0.38
  -2  -9  -1    1.31    0.35
   2   9   1    2.14    0.58
  -3  -9  -1    2.04    0.47
   3   9   1    2.06    0.54
   3   9   1    1.59    0.36
  -4  -9  -1    6.11    0.75
   4   9   1    6.29    0.78
   4   9   1    5.90    0.57
  -5  -9  -1    1.51    0.50
   5   9   1    1.78    0.41
   5   9   1    1.45    0.45
  -6  -9  -1   92.97    3.76
   6   9   1   88.45    3.56
   6   9   1   89.47    3.63
  -7  -9  -1    0.37    0.43
   7   9   1    0.52    0.37
  -8  -9  -1   24.53    1.54
   8   9   1   25.88    1.50
  -9  -9  -1    6.15    0.89
   9   9   1    5.56    0.81
 -10  -9  -1   87.48    3.88
  10   9   1   91.91    3.90
 -11  -9  -1    6.74    0.97
  11   9   1    5.80    0.90
 -12  -9  -1   16.43    1.38
  12   9   1   16.99    1.38
 -13  -9  -1    0.82    0.62
  13   9   1    0.50    0.63
 -14  -9  -1    1.34    0.66
  14   9   1    4.23    0.92
  -6  10   1   -0.17    0.93
   5 -10  -1    7.46    0.82
  -5  10   1    4.22    1.28
   4 -10  -1    0.59    0.40
  -4  10   1    0.27    0.83
   3 -10  -1    0.71    0.42
  -3  10   1    0.67    0.78
   2 -10  -1    0.48    0.38
  -2  10   1    0.34    0.69
   1 -10  -1    6.78    0.72
  -1  10   1    6.87    1.11
   0 -10  -1    2.31    0.47
   0  10   1    2.64    0.78
  -1 -10  -1    0.77    0.37
   1  10   1    1.19    0.62
  -2 -10  -1    0.68    0.40
   2  10   1   -0.16    0.49
  -3 -10  -1    3.11    0.59
   3  10   1    2.55    0.43
   3  10   1    2.05    0.61
  -4 -10  -1    1.47    0.47
   4  10   1    1.67    0.39
   4  10   1    2.34    0.56
  -5 -10  -1   23.50    1.43
   5  10   1   25.60    1.34
   5  10   1   25.77    1.46
  -6 -10  -1    1.47    0.49
   6  10   1    1.07    0.40
   6  10   1    1.33    0.47
  -7 -10  -1    0.70    0.47
   7  10   1    0.48    0.38
  -8 -10  -1    1.27    0.57
   8  10   1    1.75    0.52
  -9 -10  -1    1.03    0.54
   9  10   1    1.33    0.53
 -10 -10  -1   12.63    1.27
  10  10   1   13.14    1.20
 -11 -10  -1    4.12    0.82
  11  10   1    5.69    0.89
 -12 -10  -1    1.19    0.64
  12  10   1    1.69    0.67
 -13 -10  -1    8.48    1.13
  13  10   1   12.34    1.28
 -14 -10  -1    2.75    0.79
  14  10   1    1.71    0.73
  -5  11   1    0.54    1.01
  -4  11   1    7.28    1.46
   3 -11  -1    0.66    0.44
  -3  11   1    0.62    0.89
   2 -11  -1   10.70    0.94
  -2  11   1   10.68    1.53
   1 -11  -1   -0.24    0.36
  -1  11   1    0.12    0.70
   0 -11  -1    2.09    0.52
   0  11   1    1.32    0.73
  -1 -11  -1    4.36    0.66
   1  11   1    1.88    0.78
  -2 -11  -1    2.05    0.56
   2  11   1    2.37    0.74
  -3 -11  -1  160.38    5.96
   3  11   1  147.59    6.09
  -4 -11  -1   19.47    1.26
   4  11   1   18.69    1.38
   4  11   1   19.52    1.12
  -5 -11  -1   35.22    1.86
   5  11   1   34.29    1.86
   5  11   1   35.52    1.70
  -6 -11  -1   14.00    1.13
   6  11   1   12.53    0.95
   6  11   1   12.26    1.03
  -7 -11  -1   15.85    1.22
   7  11   1   16.27    1.14
  -8 -11  -1    4.21    0.78
   8  11   1    5.22    0.75
  -9 -11  -1    4.06    0.78
   9  11   1    3.84    0.72
 -10 -11  -1    8.00    1.05
  10  11   1    9.54    1.09
 -11 -11  -1    4.03    0.89
  11  11   1    3.25    0.74
 -12 -11  -1   10.76    1.26
  12  11   1   12.93    1.33
 -13 -11  -1    3.50    0.82
  13  11   1    4.33    0.87
  -4  12   1    0.69    1.00
  -3  12   1    2.78    1.14
   2 -12  -1    3.85    0.70
  -2  12   1    3.63    1.19
   1 -12  -1    0.46    0.47
  -1  12   1   -1.31    0.69
   0 -12  -1    1.44    0.56
   0  12   1    1.04    0.80
  -1 -12  -1    0.66    0.50
   1  12   1    0.67    0.74
  -2 -12  -1    0.66    0.48
   2  12   1    1.08    0.70
  -3 -12  -1    7.00    0.90
   3  12   1    7.48    1.09
  -4 -12  -1   13.06    1.10
   4  12   1    9.74    1.15
  -5 -12  -1    0.59    0.51
   5  12   1    0.85    0.54
  -6 -12  -1   21.38    1.37
   6  12   1   16.96    1.37
   6  12   1   19.29    1.22
  -7 -12  -1    0.24    0.49
   7  12   1    0.47    0.40
  -8 -12  -1    5.89    0.91
   8  12   1    4.57    0.72
  -9 -12  -1   13.05    1.32
   9  12   1   10.60    1.07
 -10 -12  -1    9.19    1.13
  10  12   1   11.53    1.13
 -11 -12  -1    4.48    0.89
  11  12   1    5.24    0.86
 -12 -12  -1    5.30    0.91
  12  12   1    5.61    0.93
 -13 -12  -1    0.83    0.63
  13  12   1    2.08    0.70
  -2  13   1    3.49    1.23
  -1  13   1    0.08    0.86
   0 -13  -1   10.12    1.09
   0  13   1    9.76    1.49
  -1 -13  -1    6.38    0.93
   1  13   1    5.07    1.12
  -2 -13  -1    3.57    0.79
   2  13   1    4.13    1.01
  -3 -13  -1    0.85    0.57
   3  13   1    0.99    0.69
  -4 -13  -1    1.36    0.63
   4  13   1    1.53    0.69
  -5 -13  -1   28.68    1.69
   5  13   1   29.04    1.85
  -6 -13  -1    5.45    0.86
  -7 -13  -1   44.10    2.28
  -8 -13  -1    5.11    0.84
   8  13   1    3.88    0.69
  -9 -13  -1    8.85    1.11
   9  13   1    8.06    0.95
 -10 -13  -1    1.22    0.62
 -11 -13  -1    2.40    0.76
  11  13   1    2.43    0.69
 -12 -13  -1    1.32    0.62
  12  13   1    0.94    0.57
   0  14   1   -0.07    0.84
   1  14   1    1.25    0.90
  -2 -14  -1    3.00    0.78
   2  14   1    2.78    1.00
  -3 -14  -1    8.56    1.06
   3  14   1    6.85    1.21
  -4 -14  -1    1.41    0.68
   4  14   1    1.15    0.78
  -5 -14  -1    6.56    0.99
   5  14   1    6.78    1.08
  -6 -14  -1   11.96    1.22
  -7 -14  -1    0.49    0.60
  -8 -14  -1    7.97    1.03
  -9 -14  -1    4.97    0.86
 -10 -14  -1    3.42    0.80
  10  14   1    5.12    0.91
 -11 -14  -1    0.28    0.61
  11  14   1    0.87    0.55
   2  15   1    2.30    1.07
   3  15   1   -1.29    0.66
  -4 -15  -1    2.51    0.77
   4  15   1    2.87    0.93
  -5 -15  -1    0.16    0.62
  -6 -15  -1    4.96    0.92
  -7 -15  -1    0.67    0.58
  -8 -15  -1   17.68    1.44
  -9 -15  -1    3.02    0.80
  -8 -15   2   -0.29    0.48
   4  15  -2    0.01    0.68
   3  15  -2    1.84    0.93
  10  14  -2   15.40    1.35
 -10 -14   2   10.03    1.20
   9  14  -2    1.47    0.59
  -9 -14   2    0.51    0.53
   8  14  -2    3.87    0.75
  -8 -14   2    5.35    0.85
  -7 -14   2    6.00    0.91
  -6 -14   2    9.95    1.10
  -5 -14   2   22.63    1.54
   4  14  -2    0.14    0.64
   3  14  -2    3.90    0.95
   2  14  -2    7.24    1.21
   1  14  -2   10.96    1.49
  11  13  -2    1.40    0.65
 -11 -13   2    1.33    0.62
  10  13  -2    3.84    0.78
 -10 -13   2    3.45    0.80
   9  13  -2    0.36    0.50
  -9 -13   2    0.43    0.51
   8  13  -2    0.65    0.49
  -8 -13   2    1.22    0.57
   7  13  -2    6.21    0.81
  -7 -13   2    5.14    0.84
   6  13  -2    4.03    0.69
  -6 -13   2    3.75    0.69
   5  13  -2   -0.01    0.50
  -5 -13   2    0.38    0.49
   4  13  -2   -0.26    0.56
  -4 -13   2    0.22    0.47
   3  13  -2    0.40    0.63
  -3 -13   2    0.52    0.51
   2  13  -2    6.72    1.20
   1  13  -2    1.04    0.79
   0  13  -2   -0.34    0.75
  -1  13  -2    7.75    1.45
  -2  13  -2    3.58    1.21
  12  12  -2    5.52    0.96
 -12 -12   2    4.55    0.84
  11  12  -2    4.77    0.87
 -11 -12   2    5.84    0.93
  10  12  -2    0.57    0.54
 -10 -12   2    1.20    0.62
   9  12  -2   -0.01    0.46
  -9 -12   2    0.74    0.55
   8  12  -2    7.37    0.91
  -8 -12   2    8.14    0.98
   7  12  -2   15.16    1.12
  -7 -12   2   10.99    1.12
   6  12  -2    8.74    0.86
  -6 -12   2    5.98    0.83
   5  12  -2    1.18    0.54
   5  12  -2    1.69    0.51
  -5 -12   2    1.95    0.57
   4  12  -2    2.27    0.67
   4  12  -2    2.36    0.54
  -4 -12   2    3.41    0.66
   3  12  -2   46.98    2.52
  -3 -12   2   49.14    2.27
   2  12  -2   19.07    1.54
  -2 -12   2   17.79    1.24
   1  12  -2   14.81    1.63
  -1 -12   2   16.04    1.21
   0  12  -2    1.51    0.86
  -1  12  -2    3.09    1.05
  -2  12  -2    0.26    0.89
  -3  12  -2    3.28    1.23
  -4  12  -2    1.90    1.16
  13  11  -2    1.11    0.61
 -13 -11   2    0.29    0.57
  12  11  -2    3.65    0.81
 -12 -11   2    1.29    0.67
  11  11  -2    3.90    0.79
 -11 -11   2    2.84    0.73
  10  11  -2    2.60    0.69
 -10 -11   2    1.65    0.62
   9  11  -2    1.95    0.59
  -9 -11   2    1.36    0.59
   8  11  -2    9.86    0.97
  -8 -11   2    9.22    1.03
   7  11  -2    1.11    0.46
  -7 -11   2    1.65    0.57
   6  11  -2    0.93    0.43
  -6 -11   2    1.63    0.52
   5  11  -2    7.28    0.90
   5  11  -2    8.18    0.85
  -5 -11   2    7.28    0.83
   4  11  -2    7.36    0.92
  -4 -11   2    5.88    0.78
  -4 -11   2    8.23    0.89
   3  11  -2    0.04    0.51
  -3 -11   2    0.02    0.41
  -3 -11   2   -0.23    0.36
   2  11  -2   52.19    2.68
  -2 -11   2   50.38    2.36
  -2 -11   2   54.84    2.38
   1  11  -2    8.86    1.19
  -1 -11   2    9.22    0.93
   0  11  -2    0.69    0.74
   0 -11   2    0.73    0.44
  -1  11  -2   15.17    1.64
  -2  11  -2    2.48    0.95
  -3  11  -2   -0.37    0.85
  -4  11  -2    0.34    1.03
  -5  11  -2    1.82    1.15
  13  10  -2    1.05    0.65
 -13 -10   2    0.98    0.62
  12  10  -2   -0.13    0.53
 -12 -10   2    0.29    0.56
  11  10  -2    6.81    0.99
 -11 -10   2    8.91    1.08
  10  10  -2   70.53    3.12
 -10 -10   2   60.45    2.98
   9  10  -2   30.77    1.79
  -9 -10   2   32.69    1.84
   8  10  -2   11.87    1.02
  -8 -10   2   11.92    1.18
   7  10  -2    1.33    0.44
  -7 -10   2    2.77    0.60
   6  10  -2    3.65    0.59
  -6 -10   2    3.52    0.63
   5  10  -2    1.61    0.45
   5  10  -2    1.30    0.45
  -5 -10   2    1.25    0.49
   4  10  -2    5.10    0.73
  -4 -10   2    4.95    0.68
  -4 -10   2    4.58    0.68
   3  10  -2   12.84    1.11
  -3 -10   2   14.63    1.00
  -3 -10   2   10.94    0.91
   2  10  -2   21.51    1.50
  -2 -10   2   21.39    1.25
  -2 -10   2   21.87    1.25
   1  10  -2    4.36    0.85
  -1 -10   2    5.80    0.68
  -1 -10   2    5.28    0.64
   0  10  -2   33.85    2.07
   0 -10   2   33.05    2.06
   0 -10   2   34.86    1.63
  -1  10  -2    8.31    1.20
   1 -10   2   10.66    0.82
  -2  10  -2   41.78    2.53
   2 -10   2   44.04    1.96
  -3  10  -2    4.73    1.11
  -4  10  -2   16.40    1.85
  -5  10  -2   -0.65    0.90
  -6  10  -2    4.03    1.29
  13   9  -2    3.07    0.84
 -13  -9   2    3.19    0.77
  12   9  -2    2.06    0.71
 -12  -9   2    0.90    0.61
  11   9  -2    7.21    1.04
 -11  -9   2    4.90    0.86
  10   9  -2    3.59    0.75
 -10  -9   2    3.87    0.73
   9   9  -2    8.46    0.99
  -9  -9   2    7.76    0.97
   8   9  -2    6.96    0.85
  -8  -9   2    6.60    0.85
   7   9  -2    2.79    0.55
  -7  -9   2    2.37    0.58
   6   9  -2   13.99    0.98
   6   9  -2   13.13    0.89
  -6  -9   2   14.26    1.04
   5   9  -2    4.64    0.61
   5   9  -2    4.77    0.63
  -5  -9   2    4.93    0.68
   4   9  -2    1.68    0.46
  -4  -9   2    2.18    0.49
  -4  -9   2    1.76    0.47
   3   9  -2    0.24    0.38
  -3  -9   2    0.68    0.38
  -3  -9   2    0.41    0.33
   2   9  -2    1.14    0.50
  -2  -9   2    2.02    0.42
  -2  -9   2    1.34    0.41
   1   9  -2   29.38    1.71
  -1  -9   2   28.22    1.42
  -1  -9   2   29.06    1.42
   0   9  -2   12.01    1.26
   0  -9   2   11.56    0.81
   0  -9   2   12.28    0.82
  -1   9  -2    5.20    0.91
   1  -9   2    6.09    0.64
   1  -9   2    6.40    0.62
  -2   9  -2   36.22    2.19
   2  -9   2   35.99    1.63
  -3   9  -2   12.57    1.47
   3  -9   2   12.30    0.86
  -4   9  -2    7.02    1.22
   4  -9   2    8.28    0.79
  -5   9  -2    4.15    1.07
  -6   9  -2    0.36    0.92
  -7   9  -2   -0.06    0.89
 -14  -8   2    0.65    0.61
  13   8  -2    2.14    0.75
 -13  -8   2    2.07    0.69
  12   8  -2    4.84    0.94
 -12  -8   2    4.93    0.85
  11   8  -2   -0.14    0.50
 -11  -8   2    0.30    0.51
  10   8  -2    1.26    0.60
 -10  -8   2    1.44    0.58
   9   8  -2    0.87    0.49
  -9  -8   2    1.41    0.51
   8   8  -2   43.06    2.15
  -8  -8   2   43.74    2.14
   7   8  -2   35.28    1.78
  -7  -8   2   34.32    1.79
   6   8  -2  108.48    4.06
   6   8  -2  109.08    4.27
  -6  -8   2  106.46    4.28
   5   8  -2   49.30    2.03
   5   8  -2   44.03    2.09
  -5  -8   2   46.84    2.13
   4   8  -2    1.14    0.37
  -4  -8   2    0.60    0.39
  -4  -8   2    0.10    0.34
   3   8  -2   18.68    1.16
  -3  -8   2   18.67    1.10
  -3  -8   2   19.04    1.09
   2   8  -2   16.81    1.15
  -2  -8   2   14.68    0.94
  -2  -8   2   15.73    0.95
   1   8  -2   47.81    2.31
  -1  -8   2   48.65    2.05
  -1  -8   2   48.99    2.06
   0   8  -2   12.22    1.08
   0  -8   2   12.06    0.76
   0  -8   2   11.54    0.78
  -1   8  -2  106.11    4.47
   1  -8   2  111.48    4.02
   1  -8   2  102.48    4.05
  -2   8  -2   33.53    2.00
   2  -8   2   36.26    1.53
   2  -8   2   33.13    1.57
  -3   8  -2   37.50    2.19
   3  -8   2   38.67    1.65
   3  -8   2   36.97    1.73
  -4   8  -2    4.16    0.98
   4  -8   2    3.05    0.45
  -5   8  -2    1.80    0.88
   5  -8   2    2.07    0.43
  -6   8  -2   12.05    1.58
  -7   8  -2    0.45    0.94
  -8   8  -2    1.12    1.03
  14   7  -2    0.73    0.68
 -14  -7   2    1.17    0.62
  13   7  -2    0.98    0.68
 -13  -7   2   -0.17    0.46
  12   7  -2    3.00    0.82
 -12  -7   2    3.00    0.69
  11   7  -2   -0.14    0.47
 -11  -7   2    0.40    0.46
  10   7  -2    5.06    0.87
 -10  -7   2    6.03    0.85
   9   7  -2    3.78    0.71
  -9  -7   2    3.69    0.65
   8   7  -2   14.86    1.09
  -8  -7   2   11.49    0.99
   7   7  -2    6.03    0.72
  -7  -7   2    5.50    0.75
   6   7  -2    9.10    0.59
   6   7  -2    9.16    0.77
  -6  -7   2    8.96    0.83
   5   7  -2   49.66    2.02
   5   7  -2   49.09    2.19
  -5  -7   2   49.66    2.20
   4   7  -2   62.65    2.51
  -4  -7   2   59.97    2.57
  -4  -7   2   61.22    2.61
   3   7  -2    9.53    0.76
  -3  -7   2   10.86    0.77
  -3  -7   2    9.86    0.76
   2   7  -2    1.93    0.46
  -2  -7   2    1.76    0.38
  -2  -7   2    1.58    0.37
   1   7  -2   57.77    2.55
  -1  -7   2   58.89    2.36
  -1  -7   2   58.48    2.34
   0   7  -2    1.82    0.52
   0  -7   2    1.78    0.32
   0  -7   2    1.54    0.34
  -1   7  -2   -0.31    0.38
   1  -7   2    0.05    0.19
   1  -7   2    1.06    0.33
  -2   7  -2   15.38    1.29
   2  -7   2   16.95    0.83
   2  -7   2   15.29    0.90
  -3   7  -2   12.55    1.32
   3  -7   2   13.20    0.74
   3  -7   2   12.15    0.82
  -4   7  -2    6.16    1.00
   4  -7   2    7.05    0.71
   4  -7   2    6.68    0.55
  -5   7  -2   29.51    1.97
   5  -7   2   24.31    1.42
   5  -7   2   26.87    1.27
  -6   7  -2    2.67    0.89
   6  -7   2    2.15    0.41
  -7   7  -2    1.18    0.90
   7  -7   2    0.50    0.39
  -8   7  -2    7.55    1.40
  -9   7  -2   -1.21    0.87
  14   6  -2    2.15    0.79
 -14  -6   2    1.61    0.68
  13   6  -2   26.26    1.80
  12   6  -2    2.21    0.74
 -12  -6   2    1.74    0.60
  11   6  -2    5.91    0.94
 -11  -6   2    6.34    0.88
  10   6  -2    1.01    0.54
 -10  -6   2    1.41    0.53
   9   6  -2    4.50    0.80
  -9  -6   2    7.76    0.88
   8   6  -2   13.83    1.09
  -8  -6   2   13.61    1.00
   7   6  -2    1.39    0.45
  -7  -6   2    2.40    0.50
   6   6  -2   62.27    2.22
   6   6  -2   57.41    2.58
  -6  -6   2   57.79    2.53
   5   6  -2   55.60    2.41
   5   6  -2   57.65    2.19
  -5  -6   2   56.11    2.40
   4   6  -2  153.46    5.54
  -4  -6   2  153.65    5.71
  -4  -6   2  148.80    5.65
   3   6  -2   22.05    1.15
  -3  -6   2   25.27    1.21
  -3  -6   2   22.88    1.18
   2   6  -2   51.86    2.21
  -2  -6   2   53.78    2.17
  -2  -6   2   52.89    2.16
   1   6  -2  136.25    5.17
  -1  -6   2  135.70    5.03
  -1  -6   2  138.98    5.01
   0   6  -2    0.82    0.42
   0  -6   2    1.83    0.27
   0  -6   2    1.77    0.32
  -1   6  -2    5.60    0.73
   1  -6   2    5.41    0.40
   1  -6   2    5.33    0.49
  -2   6  -2   42.76    2.13
   2  -6   2   42.21    1.81
   2  -6   2   44.69    1.71
  -3   6  -2   41.03    2.11
   3  -6   2   40.40    1.62
   3  -6   2   38.86    1.73
  -4   6  -2    9.57    1.10
   4  -6   2    9.71    0.72
   4  -6   2    9.03    0.59
  -5   6  -2   90.88    4.07
   5  -6   2   93.08    3.68
   5  -6   2   96.56    3.56
  -6   6  -2   28.18    1.94
   6  -6   2   28.96    1.51
   6  -6   2   31.50    1.40
  -7   6  -2    6.36    1.10
   7  -6   2    6.02    0.64
  -8   6  -2   -0.49    0.73
   8  -6   2    1.04    0.39
  -9   6  -2    0.49    0.87
  14   5  -2    0.83    0.66
 -14  -5   2   -0.23    0.55
  13   5  -2    0.88    0.69
 -13  -5   2    0.02    0.48
  12   5  -2    1.04    0.65
 -12  -5   2   -0.61    0.43
  11   5  -2    0.27    0.50
 -11  -5   2    0.13    0.44
  10   5  -2    1.29    0.57
 -10  -5   2    1.15    0.49
   9   5  -2   20.90    1.42
  -9  -5   2   19.46    1.24
   8   5  -2   11.87    1.01
  -8  -5   2   12.02    0.96
   7   5  -2    0.41    0.35
  -7  -5   2    0.31    0.34
   6   5  -2   91.07    3.76
  -6  -5   2   96.07    3.71
   5   5  -2   30.15    1.17
   5   5  -2   28.25    1.44
  -5  -5   2   28.34    1.41
   4   5  -2   18.26    0.84
  -4  -5   2   16.64    1.02
  -4  -5   2   17.44    0.98
   3   5  -2    0.12    0.20
  -3  -5   2    0.07    0.24
  -3  -5   2    0.23    0.24
   2   5  -2   91.14    3.52
  -2  -5   2   95.86    3.51
  -2  -5   2   91.54    3.51
   1   5  -2   35.54    1.63
  -1  -5   2   36.91    1.51
  -1  -5   2   37.64    1.55
   0   5  -2   33.66    1.59
   0  -5   2   34.27    1.37
   0  -5   2   35.25    1.46
  -1   5  -2   83.55    3.45
   1  -5   2   85.51    3.24
   1  -5   2   88.56    3.14
  -2   5  -2   45.95    2.17
   2  -5   2   48.19    1.93
   2  -5   2   47.94    1.81
  -3   5  -2    6.84    0.86
   3  -5   2    7.58    0.58
   3  -5   2    8.02    0.48
  -4   5  -2    1.13    0.50
   4  -5   2    1.13    0.23
   4  -5   2    0.44    0.30
  -5   5  -2    2.95    0.72
   5  -5   2    3.88    0.53
   5  -5   2    3.29    0.40
  -6   5  -2   -0.41    0.47
   6  -5   2    0.09    0.37
   6  -5   2   -0.14    0.22
  -7   5  -2    2.77    0.82
   7  -5   2    2.95    0.44
   7  -5   2    2.56    0.54
  -8   5  -2    3.68    0.94
   8  -5   2    3.17    0.65
   8  -5   2    4.49    0.55
  -9   5  -2    1.50    0.81
   9  -5   2    0.22    0.33
  14   4  -2    0.86    0.70
 -14  -4   2    0.74    0.58
  13   4  -2    1.73    0.74
 -13  -4   2    0.58    0.55
  12   4  -2   11.01    1.27
 -12  -4   2    7.02    0.95
  11   4  -2   22.76    1.59
 -11  -4   2   17.40    1.33
  10   4  -2   10.49    1.14
 -10  -4   2   10.03    0.93
   9   4  -2   16.92    1.25
  -9  -4   2   17.01    1.15
   8   4  -2   56.54    2.65
  -8  -4   2   56.54    2.46
   7   4  -2    0.46    0.36
  -7  -4   2    0.37    0.34
   6   4  -2    1.54    0.41
  -6  -4   2    0.93    0.32
   5   4  -2   42.15    1.93
  -5  -4   2   42.96    1.85
   4   4  -2  166.57    6.10
   4   4  -2  165.09    5.82
  -4  -4   2  162.81    6.01
   3   4  -2   39.43    1.56
  -3  -4   2   40.50    1.72
  -3  -4   2   39.57    1.66
   2   4  -2  361.49   12.64
  -2  -4   2  362.66   12.70
  -2  -4   2  354.77   12.66
   1   4  -2   48.63    2.01
  -1  -4   2   50.89    1.98
  -1  -4   2   51.28    1.96
   0   4  -2   81.42    3.13
   0  -4   2   81.29    3.02
   0  -4   2   80.03    2.93
  -1   4  -2    1.78    0.39
   1  -4   2    1.10    0.23
   1  -4   2    0.98    0.16
  -2   4  -2  148.69    5.66
   2  -4   2  154.65    5.37
   2  -4   2  150.28    5.46
  -3   4  -2   29.69    1.52
   3  -4   2   29.31    1.20
   3  -4   2   29.96    1.31
  -4   4  -2   13.04    1.02
   4  -4   2   15.57    0.73
   4  -4   2   14.25    0.85
  -5   4  -2   71.70    3.15
   5  -4   2   71.38    2.85
   5  -4   2   70.83    2.72
  -6   4  -2   11.36    0.76
  -6   4  -2   12.07    1.11
   6  -4   2   10.18    0.82
  -7   4  -2   10.82    1.19
  -7   4  -2    8.58    0.75
   7  -4   2    9.72    0.88
  -8   4  -2   66.27    2.88
  -8   4  -2   70.83    3.26
   8  -4   2   68.54    2.98
  -9   4  -2    7.73    1.12
   9  -4   2    6.80    0.90
  10  -4   2   12.78    0.97
  13   3  -2   19.36    1.69
 -13  -3   2   18.44    1.42
  12   3  -2    1.21    0.66
 -12  -3   2    0.51    0.48
  11   3  -2    1.18    0.66
 -11  -3   2    1.53    0.53
  10   3  -2    7.92    0.99
 -10  -3   2    5.47    0.74
   9   3  -2    5.02    0.83
  -9  -3   2    5.76    0.72
   8   3  -2    0.11    0.38
  -8  -3   2    0.12    0.31
   7   3  -2   22.19    1.35
  -7  -3   2   20.63    1.16
   6   3  -2    0.26    0.32
  -6  -3   2    0.64    0.30
  -5  -3   2   69.61    2.72
   4   3  -2   24.29    1.21
   4   3  -2   24.54    0.91
  -4  -3   2   24.54    1.14
   3   3  -2   17.73    0.72
  -3  -3   2   19.04    0.87
  -3  -3   2   15.45    0.89
   2   3  -2  154.04    5.45
  -2  -3   2  153.53    5.51
  -2  -3   2  153.44    5.55
   1   3  -2   12.86    0.64
  -1  -3   2   12.50    0.65
  -1  -3   2   12.44    0.62
   0   3  -2   72.80    2.79
   0  -3   2   73.08    2.65
   0  -3   2   75.37    2.74
   1  -3   2   57.22    2.09
   1  -3   2   52.44    1.97
  -2   3  -2   87.69    3.48
   2  -3   2   90.56    3.34
   2  -3   2   93.54    3.25
  -3   3  -2    1.88    0.25
  -3   3  -2    1.58    0.39
   3  -3   2    1.41    0.28
  -4   3  -2   68.72    2.86
  -4   3  -2   69.89    2.63
   4  -3   2   68.47    2.68
  -5   3  -2   57.56    2.55
  -5   3  -2   56.94    2.29
   5  -3   2   58.50    2.37
  -6   3  -2    0.79    0.52
  -6   3  -2    2.04    0.38
   6  -3   2    2.51    0.49
  -7   3  -2    0.70    0.33
  -7   3  -2    0.75    0.48
   7  -3   2    0.86    0.42
  -8   3  -2    3.05    0.52
  -8   3  -2    2.35    0.69
   8  -3   2    1.71    0.56
  -9   3  -2    0.03    0.35
  -9   3  -2   -0.80    0.48
   9  -3   2    0.01    0.48
 -10   3  -2    0.01    0.42
  10  -3   2    0.35    0.58
 -11   3  -2    0.43    0.52
  11  -3   2    0.62    0.71
  13   2  -2    0.47    0.71
 -13  -2   2    0.26    0.50
  12   2  -2    0.77    0.70
 -12  -2   2    0.57    0.51
  11   2  -2   10.46    1.28
 -11  -2   2   10.01    1.03
  10   2  -2   13.67    1.30
 -10  -2   2    9.59    0.98
   9   2  -2   10.28    1.13
  -9  -2   2    7.56    0.79
   8   2  -2    4.28    0.75
  -8  -2   2    2.85    0.51
   7   2  -2   28.74    1.56
  -7  -2   2   26.17    1.34
   6   2  -2   48.54    2.26
  -6  -2   2   49.71    2.06
   5   2  -2   92.08    3.62
  -5  -2   2   89.23    3.43
   4   2  -2   66.33    2.74
  -4  -2   2   70.04    2.63
   3   2  -2    1.91    0.15
   3   2  -2    2.55    0.35
  -3  -2   2    2.28    0.29
   2   2  -2  263.62    9.04
  -2  -2   2  254.93    9.17
   1   2  -2   93.51    3.41
  -1  -2   2   94.12    3.46
  -1  -2   2   98.38    3.42
   0   2  -2  110.20    3.99
   0  -2   2  111.23    3.98
   0  -2   2  111.27    3.90
  -1   2  -2  998.49   35.23
   1  -2   2 1000.00   34.72
   1  -2   2  993.44   35.03
  -2   2  -2    1.68    0.19
  -2   2  -2    0.43    0.22
   2  -2   2    0.88    0.20
  -3   2  -2  154.71    5.47
  -3   2  -2  146.31    5.61
   3  -2   2  159.30    5.54
  -4   2  -2    2.27    0.42
  -4   2  -2    2.19    0.30
   4  -2   2    2.17    0.35
  -5   2  -2   66.19    2.72
  -5   2  -2   65.13    2.52
   5  -2   2   63.08    2.59
  -6   2  -2   10.75    0.71
  -6   2  -2    9.57    0.86
   6  -2   2   10.99    0.83
  -7   2  -2    4.46    0.68
  -7   2  -2    4.93    0.58
   7  -2   2    4.81    0.66
  -8   2  -2    3.66    0.54
  -8   2  -2    3.53    0.70
   8  -2   2    3.13    0.65
  -9   2  -2    0.96    0.42
  -9   2  -2    0.86    0.56
   9  -2   2    0.52    0.55
 -10   2  -2    9.91    1.01
  10  -2   2    7.90    1.09
 -11   2  -2   10.08    1.10
  11  -2   2   11.19    1.37
 -12   2  -2    9.27    1.10
  12  -2   2    6.06    1.20
  13   1  -2    3.65    1.05
 -13  -1   2    2.55    0.70
  12   1  -2    0.56    0.76
 -12  -1   2    0.42    0.48
  11   1  -2    1.60    0.77
 -11  -1   2    0.63    0.47
  10   1  -2   10.22    1.23
 -10  -1   2    8.48    0.93
   9   1  -2   27.13    1.80
  -9  -1   2   27.68    1.47
   8   1  -2    2.41    0.66
  -8  -1   2    1.88    0.43
   7   1  -2    6.12    0.84
  -7  -1   2    7.50    0.74
   6   1  -2    0.39    0.39
  -6  -1   2    0.20    0.26
  -6  -1   2    0.57    0.27
   5   1  -2   21.75    1.26
  -5  -1   2   23.37    1.04
  -5  -1   2   22.38    1.08
   4   1  -2    0.15    0.25
  -4  -1   2    1.30    0.26
  -4  -1   2    0.59    0.20
   3   1  -2  281.97   10.27
  -3  -1   2  297.49   10.14
  -3  -1   2  286.93   10.16
  -2  -1   2  175.11    6.31
  -2  -1   2  172.55    6.25
  -2  -1   2  182.79    6.25
   1   1  -2   16.84    0.67
  -1  -1   2   17.08    0.73
   0   1  -2   86.81    3.16
   0  -1   2   92.68    3.10
   0  -1   2   86.35    3.17
  -1   1  -2   46.53    1.64
   1  -1   2   45.79    1.71
  -2   1  -2  134.18    4.94
  -2   1  -2  141.04    4.85
   2  -1   2  138.55    4.92
  -3   1  -2    0.80    0.23
  -3   1  -2    0.99    0.19
   3  -1   2    0.73    0.23
  -4   1  -2    5.42    0.48
  -4   1  -2    4.34    0.36
   4  -1   2    3.61    0.43
  -5   1  -2   63.72    2.45
  -5   1  -2   63.33    2.57
   5  -1   2   63.27    2.56
  -6   1  -2    4.73    0.49
  -6   1  -2    5.14    0.60
   6  -1   2    5.34    0.66
  -7   1  -2   39.97    1.78
  -7   1  -2   40.29    1.87
   7  -1   2   40.16    1.92
  -8   1  -2   15.76    1.01
  -8   1  -2   15.37    1.07
   8  -1   2   16.83    1.23
  -9   1  -2    8.55    0.79
   9  -1   2    8.85    1.06
 -10   1  -2   20.51    1.27
  10  -1   2   15.75    1.43
 -11   1  -2    3.37    0.67
  11  -1   2    5.31    1.05
 -12   1  -2    1.14    0.53
  12  -1   2    0.13    0.77
 -13   1  -2    0.11    0.52
  13  -1   2   -1.04    0.75
 -13   0   2    6.90    0.99
  12   0  -2    0.64    0.85
 -12   0   2   -0.20    0.44
  11   0  -2   11.95    1.42
 -11   0   2   11.26    1.10
  10   0  -2   -0.51    0.57
 -10   0   2    0.64    0.41
   9   0  -2    2.11    0.68
  -9   0   2    1.63    0.45
   8   0  -2    6.55    0.93
  -8   0   2    6.02    0.68
   7   0  -2   65.72    3.06
  -7   0   2   76.48    2.90
  -7   0   2   69.68    2.86
   6   0  -2   63.35    2.87
  -6   0   2   71.56    2.74
  -6   0   2   67.19    2.70
   5   0  -2   11.08    0.86
  -5   0   2   12.03    0.69
  -5   0   2   11.24    0.77
   4   0  -2   31.87    1.57
  -4   0   2   35.66    1.49
   3   0  -2   61.06    2.49
  -3   0   2   63.84    2.42
   2   0  -2  543.89   19.06
  -2   0   2  514.60   18.98
  -2   0   2  552.87   18.76
  -1   0   2   60.67    2.26
  -1   0   2   65.80    2.37
  -1   0   2   60.62    2.23
   0   0   2   26.26    0.94
   0   0   2   26.47    0.98
   0   0   2   25.65    1.09
  -1   0  -2   21.07    0.85
  -1   0  -2   24.14    0.82
   1   0   2   21.21    0.85
  -2   0  -2   54.07    1.98
  -2   0  -2   55.16    1.96
   2   0   2   52.56    2.03
  -3   0  -2  314.43   11.32
  -3   0  -2  330.51   11.31
   3   0   2  325.84   11.38
  -4   0  -2   43.54    1.66
  -4   0  -2   41.24    1.67
   4   0   2   41.88    1.76
  -5   0  -2  242.78    8.65
  -5   0  -2  249.16    8.63
   5   0   2  235.00    8.73
  -6   0  -2    0.21    0.28
  -6   0  -2    0.44    0.25
   6   0   2    0.97    0.38
  -7   0  -2   41.72    1.90
  -7   0  -2   46.64    1.92
   7   0   2   44.18    2.11
  -8   0  -2   10.55    0.82
  -8   0  -2   12.90    0.87
   8   0   2   10.19    1.00
  -9   0  -2    1.07    0.41
   9   0   2    0.06    0.54
 -10   0  -2    0.75    0.39
  10   0   2   -0.45    0.49
 -11   0  -2    1.40    0.52
  11   0   2    1.71    0.78
 -12   0  -2   12.48    1.13
  12   0   2   10.38    1.45
 -13   0  -2    1.66    0.61
  13   0   2    1.72    0.96
 -12   1   2    0.35    0.48
  11  -1  -2    0.16    0.70
 -11   1   2    0.34    0.44
  10  -1  -2   10.97    1.31
 -10   1   2    8.94    0.96
   9  -1  -2   -0.07    0.53
  -9   1   2    0.15    0.37
   8  -1  -2    1.07    0.54
  -8   1   2    0.84    0.46
  -8   1   2    0.92    0.38
   7  -1  -2   12.51    1.06
  -7   1   2   13.90    0.89
  -7   1   2   13.62    0.99
   6  -1  -2    0.21    0.36
  -6   1   2    1.69    0.49
  -6   1   2    0.02    0.24
   5  -1  -2   60.20    2.53
  -5   1   2   59.54    2.41
  -5   1   2   61.90    2.53
   4  -1  -2    8.75    0.65
  -4   1   2    8.58    0.56
  -4   1   2    9.53    0.71
   3  -1  -2    4.45    0.45
  -3   1   2    5.22    0.38
  -3   1   2    5.53    0.55
   2  -1  -2  361.64   13.22
  -2   1   2  371.97   13.19
  -2   1   2  399.75   13.32
   1  -1  -2   33.30    1.26
  -1   1   2   30.76    1.25
  -1   1   2   35.09    1.41
   0  -1  -2   61.12    2.19
   0  -1  -2   61.15    2.22
   0   1   2   62.77    2.19
   0   1   2   65.79    2.39
  -1  -1  -2  170.62    6.39
   1   1   2  194.04    6.55
   1   1   2  184.98    6.39
  -2  -1  -2    6.51    0.38
   2   1   2    6.18    0.43
   2   1   2    4.34    0.38
  -3  -1  -2  247.82    8.48
  -3  -1  -2  249.59    8.55
   3   1   2  230.73    8.59
  -4  -1  -2   89.29    3.19
  -4  -1  -2   85.24    3.10
   4   1   2   83.20    3.27
  -5  -1  -2   19.46    0.90
  -5  -1  -2   17.20    0.81
   5   1   2   16.49    0.99
  -6  -1  -2   10.82    0.66
  -6  -1  -2   12.78    0.74
   6   1   2   12.60    0.87
  -7  -1  -2   18.79    0.99
  -7  -1  -2   17.82    0.92
   7   1   2   17.21    1.16
  -8  -1  -2   14.91    0.84
  -8  -1  -2   14.90    0.94
   8   1   2   13.61    1.12
  -9  -1  -2   42.29    1.92
   9   1   2   38.53    2.13
 -10  -1  -2    0.52    0.41
  10   1   2    0.33    0.56
 -11  -1  -2    0.70    0.45
  11   1   2    1.35    0.74
 -12  -1  -2    4.80    0.80
  12   1   2    5.48    1.10
 -13  -1  -2    4.43    0.81
  13   1   2    4.68    1.12
 -12   2   2   -0.39    0.43
 -11   2   2    0.96    0.50
  10  -2  -2   15.16    1.44
 -10   2   2   13.78    1.10
   9  -2  -2   32.77    1.98
  -9   2   2   35.56    1.78
   8  -2  -2    4.41    0.80
  -8   2   2    5.37    0.77
  -8   2   2    5.54    0.72
   7  -2  -2    4.01    0.63
  -7   2   2    3.04    0.52
  -7   2   2    2.99    0.63
   6  -2  -2   12.88    0.93
  -6   2   2   11.43    0.99
  -6   2   2   13.03    0.83
   5  -2  -2    5.81    0.60
  -5   2   2    7.44    0.80
  -5   2   2    5.84    0.54
   4  -2  -2  117.84    4.34
  -4   2   2  115.35    4.51
  -4   2   2  119.77    4.36
   3  -2  -2    0.56    0.21
  -3   2   2    1.00    0.23
  -3   2   2    0.89    0.35
   2  -2  -2  204.68    7.25
  -2   2   2  207.74    7.32
  -2   2   2  206.57    7.46
   1  -2  -2  118.46    3.96
   1  -2  -2   98.10    3.89
  -1   2   2  118.00    4.13
   0  -2  -2  372.86   12.91
   0   2   2  367.31   13.02
  -1  -2  -2   18.51    0.79
   1   2   2   22.54    0.97
   1   2   2   19.42    0.78
  -2  -2  -2  389.31   14.15
   2   2   2  436.66   14.24
   2   2   2  388.90   14.13
  -3  -2  -2   18.31    0.89
   3   2   2   19.08    0.84
   3   2   2   18.04    0.89
  -4  -2  -2   97.03    3.56
  -4  -2  -2   99.17    3.38
   4   2   2   89.59    3.60
  -5  -2  -2   31.04    1.19
  -5  -2  -2   32.43    1.38
   5   2   2   30.59    1.47
  -6  -2  -2   28.94    1.34
  -6  -2  -2   28.27    1.14
   6   2   2   28.80    1.46
  -7  -2  -2    1.18    0.34
  -7  -2  -2    1.27    0.25
   7   2   2    0.39    0.41
  -8  -2  -2   52.23    2.27
   8   2   2   53.77    2.52
  -9  -2  -2   23.79    1.35
   9   2   2   25.84    1.59
 -10  -2  -2   35.46    1.78
  10   2   2   34.73    2.04
 -11  -2  -2    0.21    0.42
  11   2   2    0.50    0.59
 -12  -2  -2    2.25    0.59
  12   2   2    4.22    0.96
 -13  -2  -2    0.01    0.47
  13   2   2    0.49    0.75
 -14  -2  -2    0.93    0.57
  14   2   2    2.44    0.93
 -11   3   2    3.16    0.74
 -10   3   2    5.23    0.83
   9  -3  -2    1.62    0.64
  -9   3   2    2.08    0.54
   8  -3  -2    5.46    0.76
  -8   3   2    5.17    0.71
  -8   3   2    6.10    0.89
   7  -3  -2    0.78    0.43
  -7   3   2    0.47    0.35
  -7   3   2    0.87    0.53
   6  -3  -2    0.90    0.39
  -6   3   2    0.83    0.35
  -6   3   2    0.53    0.44
   5  -3  -2    0.31    0.29
  -5   3   2    0.52    0.26
  -5   3   2    0.90    0.48
   4  -3  -2   25.29    1.13
  -4   3   2   24.64    1.17
  -4   3   2   25.12    1.43
   3  -3  -2   10.88    0.59
  -3   3   2   11.11    0.86
  -3   3   2   10.94    0.66
   2  -3  -2  108.48    3.98
   2  -3  -2  116.44    3.95
  -2   3   2  105.52    4.22
   1  -3  -2   26.72    1.07
   1  -3  -2   26.37    1.00
  -1   3   2   27.14    1.30
   0  -3  -2   52.00    1.91
   0  -3  -2   52.49    1.83
   0   3   2   49.92    2.09
  -1  -3  -2  238.84    8.78
   1   3   2  253.85    8.93
   1   3   2  259.44    8.76
  -2  -3  -2  514.35   18.24
   2   3   2  550.91   18.30
   2   3   2  503.12   18.29
  -3  -3  -2    7.16    0.55
   3   3   2    7.35    0.53
   3   3   2    6.74    0.50
  -4  -3  -2    1.26    0.31
   4   3   2    1.85    0.36
   4   3   2    2.25    0.31
  -5  -3  -2  213.01    7.76
   5   3   2  216.02    7.83
  -6  -3  -2    8.82    0.70
   6   3   2    9.35    0.79
  -7  -3  -2   36.90    1.71
   7   3   2   38.21    1.85
  -8  -3  -2    6.72    0.73
   8   3   2    6.68    0.81
  -9  -3  -2    2.00    0.50
   9   3   2    2.17    0.63
 -10  -3  -2    0.78    0.41
  10   3   2    2.94    0.69
 -11  -3  -2    3.38    0.65
  11   3   2    4.22    0.88
 -12  -3  -2    1.24    0.56
  12   3   2    2.65    0.77
 -13  -3  -2    4.33    0.84
  13   3   2    7.48    1.16
 -14  -3  -2    1.55    0.64
  14   3   2    2.71    0.95
  11  -4  -2    0.62    0.49
  10  -4  -2    0.25    0.35
  -8   4   2    2.08    0.77
  -8   4   2    2.18    0.55
   7  -4  -2   19.31    1.17
  -7   4   2   19.55    1.46
  -7   4   2   20.96    1.22
   6  -4  -2   20.53    1.12
  -6   4   2   20.16    1.46
  -6   4   2   20.78    1.16
   5  -4  -2  102.77    3.87
  -5   4   2  102.31    3.96
  -5   4   2  103.93    4.26
   4  -4  -2    0.57    0.21
   4  -4  -2    0.55    0.27
  -4   4   2    0.89    0.48
   3  -4  -2   31.94    1.33
   3  -4  -2   31.03    1.28
  -3   4   2   30.43    1.67
   2  -4  -2   25.46    1.11
   2  -4  -2   25.99    1.05
  -2   4   2   27.01    1.43
   1  -4  -2   74.02    2.69
   1  -4  -2   73.65    2.61
  -1   4   2   69.45    2.95
   0  -4  -2    9.55    0.42
   0  -4  -2    9.97    0.50
   0   4   2    9.07    0.72
  -1  -4  -2   70.58    2.49
  -1  -4  -2   65.69    2.54
   1   4   2   69.15    2.72
  -2  -4  -2   56.45    2.26
   2   4   2   59.54    2.36
   2   4   2   61.25    2.24
  -3  -4  -2  235.21    8.51
   3   4   2  232.93    8.46
   3   4   2  244.88    8.50
  -4  -4  -2    3.57    0.47
   4   4   2    4.18    0.43
   4   4   2    5.04    0.47
  -5  -4  -2  115.49    4.29
   5   4   2  108.30    4.07
   5   4   2  114.22    4.30
  -6  -4  -2   14.19    0.94
   6   4   2   14.74    0.95
  -7  -4  -2   85.58    3.39
   7   4   2   81.04    3.44
  -8  -4  -2   13.35    0.97
   8   4   2   13.29    1.05
  -9  -4  -2   16.72    1.15
   9   4   2   17.62    1.27
 -10  -4  -2    1.22    0.47
  10   4   2    1.37    0.60
 -11  -4  -2    0.78    0.44
  11   4   2    0.59    0.54
 -12  -4  -2   14.60    1.24
  12   4   2   19.30    1.52
 -13  -4  -2   18.09    1.44
  13   4   2   21.35    1.71
 -14  -4  -2    2.15    0.71
  14   4   2    2.91    0.87
  10  -5  -2    1.14    0.47
   9  -5  -2    2.42    0.53
   8  -5  -2    3.09    0.54
  -8   5   2    1.65    0.78
   7  -5  -2    0.79    0.37
  -7   5   2    0.84    0.66
   6  -5  -2   23.96    1.23
  -6   5   2   22.64    1.68
   5  -5  -2   30.49    1.42
   5  -5  -2   32.16    1.43
  -5   5   2   30.58    1.88
   4  -5  -2    6.87    0.53
   4  -5  -2    5.65    0.50
  -4   5   2    5.58    0.89
   3  -5  -2    2.55    0.33
   3  -5  -2    2.09    0.31
  -3   5   2    1.63    0.59
   2  -5  -2   71.26    2.63
   2  -5  -2   71.41    2.70
  -2   5   2   71.50    3.11
   1  -5  -2  125.62    4.48
   1  -5  -2  128.22    4.57
  -1   5   2  124.37    4.91
   0  -5  -2  113.58    3.99
   0  -5  -2  109.93    4.07
   0   5   2  113.00    4.37
  -1  -5  -2   20.15    0.85
  -1  -5  -2   19.67    0.91
   1   5   2   20.45    1.14
  -2  -5  -2  186.83    6.77
   2   5   2  184.37    6.88
   2   5   2  194.46    6.73
  -3  -5  -2   48.20    2.01
   3   5   2   46.98    1.93
   3   5   2   49.01    2.01
  -4  -5  -2    0.42    0.30
   4   5   2    0.61    0.24
   4   5   2    0.73    0.27
  -5  -5  -2  137.87    5.15
   5   5   2  136.90    5.13
   5   5   2  134.19    4.95
  -6  -5  -2   26.17    1.41
   6   5   2   26.21    1.36
  -7  -5  -2    4.91    0.67
   7   5   2    5.39    0.68
  -8  -5  -2   27.04    1.52
   8   5   2   25.52    1.52
  -9  -5  -2    5.90    0.77
   9   5   2    7.59    0.89
 -10  -5  -2    3.94    0.70
  10   5   2    4.18    0.76
 -11  -5  -2    2.63    0.64
  11   5   2    2.21    0.66
 -12  -5  -2    0.46    0.52
  12   5   2    2.03    0.70
 -13  -5  -2    6.01    0.94
  13   5   2    7.97    1.15
 -14  -5  -2    1.12    0.61
  14   5   2    0.39    0.65
   9  -6  -2    7.29    0.85
   8  -6  -2    2.64    0.57
  -8   6   2    2.78    0.97
   7  -6  -2   -0.08    0.29
  -7   6   2    0.55    0.73
   6  -6  -2   -0.31    0.27
  -6   6   2    0.07    0.56
   5  -6  -2    5.99    0.63
  -5   6   2    7.44    1.09
   4  -6  -2   20.02    1.03
  -4   6   2   18.92    1.49
   3  -6  -2    2.79    0.38
   3  -6  -2    2.86    0.36
  -3   6   2    2.81    0.73
   2  -6  -2  115.78    4.12
   2  -6  -2  112.26    4.21
  -2   6   2  113.59    4.68
   1  -6  -2   65.76    2.60
   1  -6  -2   69.09    2.51
  -1   6   2   69.09    3.03
   0  -6  -2  162.59    5.96
   0  -6  -2  171.02    5.87
   0   6   2  162.88    6.31
  -1  -6  -2    3.16    0.31
  -1  -6  -2    2.94    0.36
   1   6   2    3.62    0.59
  -2  -6  -2    0.98    0.27
   2   6   2    1.59    0.42
   2   6   2    1.16    0.24
  -3  -6  -2    5.22    0.54
   3   6   2    6.53    0.63
   3   6   2    5.50    0.47
  -4  -6  -2    2.18    0.44
   4   6   2    2.76    0.39
   4   6   2    2.70    0.45
  -5  -6  -2  203.44    7.42
   5   6   2  194.35    7.23
   5   6   2  203.98    7.36
  -6  -6  -2   29.69    1.56
   6   6   2   31.09    1.33
   6   6   2   31.22    1.54
  -7  -6  -2   73.91    3.22
   7   6   2   80.24    3.25
  -8  -6  -2    6.96    0.82
   8   6   2    6.48    0.80
  -9  -6  -2   33.34    1.84
   9   6   2   40.15    1.99
 -10  -6  -2   32.73    1.88
  10   6   2   42.15    2.08
 -11  -6  -2    9.97    1.08
  11   6   2   11.02    1.16
 -12  -6  -2    2.09    0.65
  12   6   2    3.52    0.79
 -13  -6  -2    0.36    0.54
  13   6   2    1.11    0.70
 -14  -6  -2    3.79    0.88
  14   6   2    5.06    0.99
   9  -7  -2    0.14    0.42
   8  -7  -2    6.24    0.77
  -8   7   2    5.60    1.24
   7  -7  -2    4.66    0.64
  -7   7   2    3.24    0.98
   6  -7  -2    1.75    0.45
  -6   7   2    0.14    0.73
   5  -7  -2   21.14    1.16
  -5   7   2   20.20    1.77
   4  -7  -2   15.84    0.92
  -4   7   2   16.07    1.46
   3  -7  -2    0.29    0.24
  -3   7   2    0.78    0.61
   2  -7  -2   49.23    2.07
  -2   7   2   53.40    2.65
   1  -7  -2   -0.04    0.19
   1  -7  -2    0.37    0.19
  -1   7   2    0.56    0.51
   0  -7  -2    0.21    0.18
   0  -7  -2    0.15    0.21
   0   7   2    0.39    0.46
  -1  -7  -2   44.71    1.85
  -1  -7  -2   45.48    1.76
   1   7   2   43.73    2.17
  -2  -7  -2    2.73    0.42
   2   7   2    1.84    0.51
  -3  -7  -2    3.05    0.49
   3   7   2    2.03    0.48
   3   7   2    1.68    0.32
  -4  -7  -2    0.44    0.36
   4   7   2    0.97    0.30
   4   7   2    0.40    0.30
  -5  -7  -2   44.90    2.04
   5   7   2   42.74    1.94
   5   7   2   45.29    1.96
  -6  -7  -2   32.02    1.70
   6   7   2   34.03    1.53
   6   7   2   32.54    1.63
  -7  -7  -2    2.82    0.61
   7   7   2    3.18    0.57
  -8  -7  -2    4.05    0.70
   8   7   2    5.65    0.77
  -9  -7  -2    0.77    0.52
   9   7   2    1.19    0.51
 -10  -7  -2    3.01    0.67
  10   7   2    2.59    0.65
 -11  -7  -2    1.17    0.55
  11   7   2    1.23    0.57
 -12  -7  -2    7.57    1.04
  12   7   2    7.38    1.03
 -13  -7  -2    5.27    0.88
  13   7   2    6.20    1.04
 -14  -7  -2    0.80    0.62
  14   7   2    1.13    0.71
   8  -8  -2    8.13    0.89
  -8   8   2    6.44    1.37
   7  -8  -2    7.58    0.82
  -7   8   2    7.46    1.42
   6  -8  -2    0.34    0.38
  -6   8   2   -0.09    0.79
   5  -8  -2    1.38    0.42
  -5   8   2    2.11    0.90
   4  -8  -2    2.90    0.48
  -4   8   2    5.50    1.11
   3  -8  -2    0.30    0.30
  -3   8   2    1.20    0.69
   2  -8  -2   37.51    1.62
  -2   8   2   33.45    2.13
   1  -8  -2    0.84    0.29
  -1   8   2    0.79    0.59
   0  -8  -2  103.47    3.74
   0  -8  -2   96.70    3.82
   0   8   2  102.55    4.29
  -1  -8  -2   10.67    0.63
  -1  -8  -2    9.79    0.71
   1   8   2   11.57    1.09
  -2  -8  -2  273.74    9.96
   2   8   2  281.36   10.25
  -3  -8  -2   44.23    2.06
   3   8   2   49.36    1.96
   3   8   2   47.90    2.21
  -4  -8  -2  122.90    4.82
   4   8   2  122.72    4.84
   4   8   2  129.96    4.72
  -5  -8  -2   38.37    1.88
   5   8   2   38.73    1.77
   5   8   2   38.81    1.83
  -6  -8  -2    5.38    0.72
   6   8   2    6.82    0.72
   6   8   2    7.21    0.71
  -7  -8  -2    9.86    0.97
   7   8   2    8.51    0.84
  -8  -8  -2   22.54    1.42
   8   8   2   20.80    1.31
  -9  -8  -2   38.23    1.99
   9   8   2   34.45    1.87
 -10  -8  -2   19.02    1.43
  10   8   2   21.54    1.44
 -11  -8  -2   10.20    1.14
  11   8   2   11.83    1.21
 -12  -8  -2    4.31    0.87
  12   8   2    6.89    1.01
 -13  -8  -2    5.47    0.96
  13   8   2    7.37    1.07
 -14  -8  -2    8.38    1.15
  14   8   2   12.31    1.37
   7  -9  -2   -0.08    0.42
  -7   9   2   -1.91    0.84
   6  -9  -2   -0.37    0.38
  -6   9   2    0.87    0.91
   5  -9  -2    1.23    0.46
  -5   9   2    1.14    0.88
   4  -9  -2    2.09    0.49
  -4   9   2    0.59    0.80
   3  -9  -2    1.31    0.42
  -3   9   2    1.23    0.80
   2  -9  -2   16.58    1.01
  -2   9   2   19.84    1.66
   1  -9  -2    2.03    0.42
  -1   9   2    2.10    0.81
   0  -9  -2    0.32    0.31
   0   9   2    0.85    0.60
  -1  -9  -2    8.58    0.69
   1   9   2    9.81    1.13
  -2  -9  -2    3.15    0.50
   2   9   2    2.81    0.67
   2   9   2    3.23    0.40
  -3  -9  -2    4.00    0.59
   3   9   2    3.48    0.66
   3   9   2    3.90    0.48
  -4  -9  -2    2.28    0.53
   4   9   2    1.82    0.39
   4   9   2    1.74    0.52
  -5  -9  -2   27.66    1.52
   5   9   2   27.80    1.51
   5   9   2   27.91    1.39
  -6  -9  -2    1.34    0.48
   6   9   2    1.34    0.40
   6   9   2    1.12    0.41
  -7  -9  -2   15.71    1.16
   7   9   2   15.71    1.09
  -8  -9  -2   16.09    1.25
   8   9   2   17.11    1.21
  -9  -9  -2    0.27    0.46
   9   9   2    0.89    0.47
 -10  -9  -2    8.37    1.08
  10   9   2    7.86    0.97
 -11  -9  -2   -0.86    0.44
  11   9   2    0.54    0.53
 -12  -9  -2    4.89    0.86
  12   9   2    3.29    0.77
 -13  -9  -2    2.77    0.77
  13   9   2    1.45    0.64
 -14  -9  -2    0.68    0.64
  14   9   2    0.35    0.62
   6 -10  -2    0.40    0.48
  -6  10   2   -0.66    0.95
   5 -10  -2   30.97    1.63
  -5  10   2   28.86    2.36
   4 -10  -2    6.27    0.78
  -4  10   2    8.65    1.47
   3 -10  -2   23.18    1.30
  -3  10   2   22.40    1.99
   2 -10  -2   26.31    1.41
  -2  10   2   25.49    1.99
   1 -10  -2    2.76    0.51
  -1  10   2    3.67    0.90
   0 -10  -2    2.66    0.51
   0  10   2    4.15    0.90
  -1 -10  -2   37.71    1.75
   1  10   2   36.18    2.13
  -2 -10  -2    5.94    0.73
   2  10   2    7.06    0.98
  -3 -10  -2   17.84    1.16
   3  10   2   17.14    1.32
   3  10   2   16.36    0.94
  -4 -10  -2   28.90    1.57
   4  10   2   26.78    1.61
   4  10   2   28.04    1.37
  -5 -10  -2   49.14    2.26
   5  10   2   46.41    2.25
   5  10   2   46.07    2.07
  -6 -10  -2   34.74    1.89
   6  10   2   38.31    1.78
   6  10   2   36.70    1.83
  -7 -10  -2   49.75    2.44
   7  10   2   53.11    2.38
  -8 -10  -2   -0.32    0.41
   8  10   2    0.30    0.39
  -9 -10  -2   -0.37    0.48
   9  10   2    0.69    0.50
 -10 -10  -2    1.02    0.62
  10  10   2    1.34    0.56
 -11 -10  -2   18.84    1.49
  11  10   2   19.53    1.48
 -12 -10  -2    6.10    0.99
  12  10   2    7.11    1.00
 -13 -10  -2    6.96    1.04
  13  10   2    7.11    1.03
 -14 -10  -2    9.17    1.19
  14  10   2   10.79    1.27
  -5  11   2    0.99    1.06
   4 -11  -2    0.61    0.48
  -4  11   2    0.62    1.02
   3 -11  -2    0.83    0.48
  -3  11   2    0.98    0.91
   2 -11  -2    0.54    0.44
  -2  11   2    0.28    0.83
   1 -11  -2    1.52    0.51
  -1  11   2    0.71    0.78
   0 -11  -2    2.83    0.59
   0  11   2    2.14    0.84
  -1 -11  -2   21.06    1.30
   1  11   2   22.12    1.72
  -2 -11  -2   34.82    1.76
   2  11   2   32.65    2.04
  -3 -11  -2   14.96    1.14
   3  11   2   12.07    1.29
  -4 -11  -2   16.62    1.22
   4  11   2   15.81    1.29
  -5 -11  -2   17.99    1.27
   5  11   2   19.51    1.12
   5  11   2   14.98    1.21
  -6 -11  -2    0.67    0.50
   6  11   2    2.12    0.49
   6  11   2    1.03    0.49
  -7 -11  -2   10.09    1.05
   7  11   2    8.50    0.85
  -8 -11  -2    1.38    0.55
   8  11   2    1.44    0.52
  -9 -11  -2   19.76    1.44
   9  11   2   19.78    1.34
 -10 -11  -2    0.54    0.58
  10  11   2    1.56    0.58
 -11 -11  -2    0.29    0.56
  11  11   2    0.14    0.47
 -12 -11  -2    8.16    1.09
  12  11   2    8.00    1.00
 -13 -11  -2   -0.36    0.54
  13  11   2    0.49    0.60
  -4  12   2   -0.06    0.93
   3 -12  -2   10.79    1.07
  -3  12   2    7.19    1.50
   2 -12  -2   19.15    1.31
  -2  12   2   20.14    2.16
   1 -12  -2   16.67    1.24
  -1  12   2   17.58    1.94
   0 -12  -2   13.88    1.13
   0  12   2   14.71    1.63
  -1 -12  -2    0.54    0.49
   1  12   2    2.13    0.83
  -2 -12  -2    1.00    0.54
   2  12   2    0.83    0.69
  -3 -12  -2    0.03    0.51
   3  12   2    0.57    0.63
  -4 -12  -2   21.90    1.47
   4  12   2   22.17    1.58
  -5 -12  -2   19.78    1.39
   5  12   2   19.90    1.45
  -6 -12  -2    7.39    0.95
   6  12   2    7.21    0.93
   6  12   2    7.69    1.02
  -7 -12  -2   29.08    1.73
   7  12   2   28.40    1.59
  -8 -12  -2   15.58    1.34
   8  12   2   19.90    1.32
  -9 -12  -2   24.04    1.65
   9  12   2   25.09    1.55
 -10 -12  -2    1.38    0.61
  10  12   2    1.15    0.53
 -11 -12  -2    2.76    0.77
  11  12   2    3.39    0.75
 -12 -12  -2    1.53    0.70
  12  12   2    2.33    0.68
 -13 -12  -2    0.19    0.56
  13  12   2    0.89    0.58
  -2  13   2    7.28    1.45
   1 -13  -2    2.16    0.70
  -1  13   2    1.36    1.00
   0 -13  -2   11.03    1.12
   0  13   2    7.91    1.48
  -1 -13  -2    1.59    0.63
   1  13   2    0.31    0.82
  -2 -13  -2    0.85    0.56
   2  13   2    0.23    0.66
  -3 -13  -2    0.98    0.62
   3  13   2    1.13    0.73
  -4 -13  -2    1.84    0.64
   4  13   2    2.32    0.79
  -5 -13  -2    3.10    0.70
   5  13   2    2.56    0.78
  -6 -13  -2    4.93    0.84
  -7 -13  -2    8.77    1.06
  -8 -13  -2    0.46    0.55
  -9 -13  -2    1.57    0.69
   9  13   2    1.63    0.57
 -10 -13  -2    4.04    0.88
  10  13   2    3.87    0.73
 -11 -13  -2    0.22    0.58
  11  13   2    1.39    0.55
 -12 -13  -2    0.37    0.63
  12  13   2    0.59    0.50
   0  14   2    3.39    1.15
  -1 -14  -2    6.11    0.99
   1  14   2    4.70    1.24
  -2 -14  -2   40.69    2.22
   2  14   2   36.77    2.54
  -3 -14  -2    2.38    0.75
   3  14   2    1.45    0.80
  -4 -14  -2   18.36    1.42
   4  14   2   14.23    1.57
  -5 -14  -2    1.40    0.67
   5  14   2    1.03    0.67
  -6 -14  -2    7.88    1.07
  -7 -14  -2   -0.58    0.53
  -8 -14  -2    7.56    1.02
  -9 -14  -2   23.09    1.69
 -10 -14  -2    5.86    1.01
 -11 -14  -2   15.52    1.45
  11  14   2   17.33    1.42
   2  15   2    3.43    1.11
  -3 -15  -2    2.11    0.76
   3  15   2    2.30    0.92
  -4 -15  -2    1.55    0.71
   4  15   2   -0.10    0.69
  -5 -15  -2   -0.22    0.59
   5  15   2   -0.78    0.62
  -6 -15  -2    0.64    0.61
  -7 -15  -2    0.42    0.64
  -8 -15  -2    0.49    0.56
  -9 -15  -2    0.88    0.67
   3  15  -3   14.23    1.66
 -10 -14   3    0.45    0.51
   9  14  -3   -0.13    0.51
  -9 -14   3   -0.28    0.49
   8  14  -3    3.49    0.74
  -8 -14   3    4.52    0.81
   7  14  -3    6.65    1.17
  -7 -14   3    7.57    0.99
   4  14  -3    2.11    0.80
   3  14  -3   14.13    1.60
   2  14  -3    1.18    0.83
   1  14  -3   -0.57    0.73
   0  14  -3    1.71    1.04
  11  13  -3   13.64    1.29
 -11 -13   3    9.01    1.09
  10  13  -3   24.60    1.65
 -10 -13   3   19.93    1.50
   9  13  -3    2.51    0.66
  -9 -13   3    1.70    0.59
   8  13  -3    0.99    0.55
  -8 -13   3    0.20    0.50
   7  13  -3    2.68    0.66
  -7 -13   3    2.53    0.69
   6  13  -3    7.41    0.92
  -6 -13   3    7.50    0.93
   5  13  -3    3.22    0.68
  -5 -13   3    3.18    0.65
   4  13  -3   28.60    1.91
   3  13  -3   17.56    1.57
   2  13  -3    2.83    0.92
   1  13  -3    7.16    1.27
   0  13  -3    0.86    0.92
  -1  13  -3   17.84    2.00
  -2  13  -3   -1.84    0.77
  12  12  -3    0.79    0.64
 -12 -12   3    0.42    0.57
  11  12  -3    3.19    0.76
 -11 -12   3    2.30    0.65
  10  12  -3   10.02    1.14
 -10 -12   3   10.67    1.16
   9  12  -3    6.43    0.90
  -9 -12   3    5.51    0.86
   8  12  -3    0.59    0.48
  -8 -12   3    1.23    0.55
   7  12  -3    9.17    0.99
  -7 -12   3    7.47    0.92
   6  12  -3    2.00    0.55
  -6 -12   3    1.64    0.58
   5  12  -3    2.95    0.69
   5  12  -3    1.12    0.50
  -5 -12   3    1.12    0.50
   4  12  -3    2.68    0.68
  -4 -12   3    1.46    0.54
  -4 -12   3    2.79    0.67
   3  12  -3    2.24    0.72
  -3 -12   3    2.61    0.57
  -3 -12   3    1.82    0.72
   2  12  -3    0.48    0.64
   1  12  -3    6.64    1.16
   0  12  -3    3.30    0.99
  -1  12  -3    1.00    0.89
  -2  12  -3    1.30    0.99
  -3  12  -3    9.24    1.61
  -4  12  -3    0.66    1.07
  12  11  -3    3.52    0.85
 -12 -11   3    3.49    0.82
  11  11  -3    7.33    1.02
 -11 -11   3    8.18    1.02
  10  11  -3    5.79    0.89
 -10 -11   3    5.81    0.90
   9  11  -3    7.13    0.92
  -9 -11   3   10.13    1.11
   8  11  -3   22.61    1.43
  -8 -11   3   20.70    1.42
   7  11  -3   15.91    1.19
  -7 -11   3   12.77    1.13
   6  11  -3   68.62    3.00
  -6 -11   3   69.39    3.04
   5  11  -3   12.26    1.02
   5  11  -3   12.84    1.03
  -5 -11   3   10.34    0.95
   4  11  -3    4.70    0.76
  -4 -11   3    4.31    0.73
  -4 -11   3    3.62    0.62
   3  11  -3   14.46    1.28
  -3 -11   3   15.97    1.17
  -3 -11   3   14.32    1.04
   2  11  -3   55.80    2.82
  -2 -11   3   56.00    2.47
  -2 -11   3   56.79    2.53
   1  11  -3    1.42    0.71
  -1 -11   3    2.80    0.58
   0  11  -3   31.06    2.14
  -1  11  -3   23.01    1.94
  -2  11  -3    8.33    1.35
  -3  11  -3    3.00    1.11
  -4  11  -3    0.00    0.87
  -5  11  -3    3.36    1.31
  13  10  -3    0.90    0.65
 -13 -10   3   -0.23    0.54
  12  10  -3    0.53    0.59
 -12 -10   3    0.27    0.51
  11  10  -3    1.16    0.63
 -11 -10   3    0.69    0.54
  10  10  -3    3.17    0.72
 -10 -10   3    2.77    0.67
   9  10  -3    1.10    0.51
  -9 -10   3   -0.41    0.40
   8  10  -3    1.78    0.50
  -8 -10   3    1.20    0.53
   7  10  -3    4.65    0.72
  -7 -10   3    4.16    0.72
   6  10  -3    8.71    0.82
  -6 -10   3    5.98    0.80
   5  10  -3    1.36    0.43
   5  10  -3    1.54    0.47
  -5 -10   3    1.58    0.47
   4  10  -3   33.44    1.75
  -4 -10   3   33.56    1.74
  -4 -10   3   31.65    1.66
   3  10  -3    6.62    0.86
  -3 -10   3    4.55    0.63
  -3 -10   3    4.71    0.66
   2  10  -3    1.20    0.57
  -2 -10   3    2.31    0.49
  -2 -10   3    1.98    0.48
   1  10  -3    6.73    0.96
  -1 -10   3    6.17    0.72
  -1 -10   3    6.56    0.73
   0  10  -3    1.33    0.66
   0 -10   3    1.22    0.41
   0 -10   3    1.53    0.40
  -1  10  -3    4.09    0.91
   1 -10   3    4.87    0.62
  -2  10  -3    1.43    0.78
  -3  10  -3    2.38    0.93
  -4  10  -3    3.53    1.09
  -5  10  -3    0.20    0.89
  -6  10  -3    0.13    1.05
  13   9  -3    7.08    1.10
 -13  -9   3    6.71    0.99
  12   9  -3    2.23    0.75
 -12  -9   3    2.49    0.70
  11   9  -3    1.46    0.66
 -11  -9   3    2.42    0.69
  10   9  -3    5.81    0.90
 -10  -9   3    5.48    0.86
   9   9  -3   57.40    2.75
  -9  -9   3   59.60    2.73
   8   9  -3    0.73    0.40
  -8  -9   3    0.63    0.46
   7   9  -3   54.41    2.55
  -7  -9   3   58.21    2.58
   6   9  -3    5.17    0.68
  -6  -9   3    5.60    0.76
   5   9  -3   95.94    3.82
   5   9  -3   96.34    3.74
  -5  -9   3   92.24    3.80
   4   9  -3    5.54    0.71
  -4  -9   3    6.45    0.75
  -4  -9   3    7.55    0.81
   3   9  -3   12.19    1.01
  -3  -9   3   14.44    0.98
  -3  -9   3   11.62    0.87
   2   9  -3   16.69    1.20
  -2  -9   3   14.96    0.99
  -2  -9   3   13.52    0.93
   1   9  -3    3.56    0.71
  -1  -9   3    3.52    0.55
   0   9  -3    0.99    0.56
   0  -9   3    0.57    0.32
   0  -9   3    0.72    0.35
  -1   9  -3    5.12    0.93
   1  -9   3    4.58    0.54
   1  -9   3    5.11    0.63
  -2   9  -3    9.39    1.21
   2  -9   3    8.65    0.68
   2  -9   3    7.43    0.72
  -3   9  -3   31.38    2.05
   3  -9   3   27.27    1.80
  -4   9  -3   12.73    1.58
  -5   9  -3   41.40    2.67
  -6   9  -3    1.54    1.04
  -7   9  -3    0.42    0.98
  13   8  -3    1.39    0.67
 -13  -8   3    2.57    0.70
  12   8  -3    0.86    0.67
 -12  -8   3    0.24    0.55
  11   8  -3    2.94    0.79
 -11  -8   3    1.63    0.60
  10   8  -3   -0.56    0.43
 -10  -8   3    0.26    0.42
   9   8  -3    3.50    0.68
  -9  -8   3    2.31    0.59
   8   8  -3    0.56    0.41
  -8  -8   3   -0.08    0.38
   7   8  -3   10.47    0.91
  -7  -8   3   11.55    0.95
   6   8  -3   62.55    2.81
   6   8  -3   67.43    2.92
  -6  -8   3   71.18    2.89
   5   8  -3   20.90    1.21
   5   8  -3   21.87    1.15
  -5  -8   3   19.98    1.21
   4   8  -3    2.90    0.49
  -4  -8   3    1.85    0.47
  -4  -8   3    2.32    0.47
   3   8  -3  105.08    4.20
  -3  -8   3  106.54    4.17
  -3  -8   3  109.21    4.14
   2   8  -3    8.77    0.87
  -2  -8   3    9.08    0.75
  -2  -8   3    9.46    0.74
   1   8  -3   12.73    1.03
  -1  -8   3   12.96    0.88
  -1  -8   3   11.97    0.82
   0   8  -3   76.64    3.35
   0  -8   3   77.23    3.08
   0  -8   3   76.90    2.99
  -1   8  -3    0.31    0.50
   1  -8   3    0.35    0.30
   1  -8   3    0.37    0.27
  -2   8  -3    5.64    0.91
   2  -8   3    6.36    0.54
   2  -8   3    5.07    0.60
  -3   8  -3    1.04    0.66
   3  -8   3    1.24    0.32
   3  -8   3    0.43    0.34
  -4   8  -3   -0.02    0.62
   4  -8   3    0.25    0.26
   4  -8   3    0.30    0.38
  -5   8  -3    6.36    1.22
  -6   8  -3    5.01    1.15
  -7   8  -3    0.73    0.90
  -8   8  -3   -0.48    0.90
  13   7  -3    1.46    0.71
 -13  -7   3    0.50    0.59
  12   7  -3   26.10    1.86
 -12  -7   3   22.59    1.59
  11   7  -3    6.70    1.00
 -11  -7   3    6.62    0.88
  10   7  -3    9.41    1.10
 -10  -7   3    7.43    0.91
   9   7  -3    4.80    0.79
  -9  -7   3    3.15    0.61
   8   7  -3    3.84    0.68
  -8  -7   3    5.48    0.74
   7   7  -3    0.89    0.37
  -7  -7   3    0.02    0.39
   6   7  -3    4.14    0.61
   6   7  -3    4.81    0.47
  -6  -7   3    3.62    0.60
   5   7  -3   29.05    1.31
   5   7  -3   27.19    1.43
  -5  -7   3   28.93    1.47
   4   7  -3  100.21    3.84
  -4  -7   3  102.32    3.98
  -4  -7   3   98.51    3.89
   3   7  -3   62.99    2.57
  -3  -7   3   61.90    2.60
  -3  -7   3   61.11    2.55
   2   7  -3  116.29    4.57
  -2  -7   3  119.11    4.47
  -2  -7   3  121.53    4.53
   1   7  -3   27.09    1.45
  -1  -7   3   25.08    1.24
  -1  -7   3   26.64    1.30
   0   7  -3    0.79    0.43
   0  -7   3    0.20    0.23
   0  -7   3   -0.07    0.25
  -1   7  -3    0.27    0.41
   1  -7   3    0.36    0.22
   1  -7   3    0.44    0.29
  -2   7  -3   23.45    1.51
   2  -7   3   24.25    1.08
   2  -7   3   22.32    1.19
  -3   7  -3   36.28    2.03
   3  -7   3   35.02    1.65
   3  -7   3   36.34    1.51
  -4   7  -3    0.00    0.52
   4  -7   3    0.64    0.25
   4  -7   3   -0.03    0.29
  -5   7  -3    0.17    0.60
   5  -7   3    0.56    0.37
   5  -7   3    0.66    0.28
  -6   7  -3   13.12    1.58
   6  -7   3   12.32    0.92
  -7   7  -3   23.94    2.00
  -8   7  -3   20.43    2.03
  -9   7  -3    0.47    0.99
 -14  -6   3    3.46    1.13
  13   6  -3    9.25    1.21
 -13  -6   3    8.79    1.08
  12   6  -3    2.69    0.77
 -12  -6   3    1.89    0.63
  11   6  -3    0.92    0.61
 -11  -6   3    0.41    0.47
  10   6  -3   30.88    1.84
 -10  -6   3   27.18    1.60
   9   6  -3   13.42    1.15
  -9  -6   3   12.63    1.04
   8   6  -3   23.16    1.45
  -8  -6   3   23.37    1.36
   7   6  -3   59.52    2.61
  -7  -6   3   57.26    2.52
   6   6  -3   50.05    2.27
   6   6  -3   48.96    1.93
  -6  -6   3   51.94    2.22
   5   6  -3   13.52    0.70
   5   6  -3   10.78    0.84
  -5  -6   3   12.99    0.87
   4   6  -3   -0.12    0.22
  -4  -6   3    0.36    0.29
  -4  -6   3   -0.38    0.29
   3   6  -3  103.53    3.95
  -3  -6   3  103.22    3.96
  -3  -6   3  106.31    4.03
   2   6  -3   18.76    1.03
  -2  -6   3   19.94    1.02
  -2  -6   3   17.60    0.96
   1   6  -3   48.87    2.15
  -1  -6   3   49.09    2.00
  -1  -6   3   50.36    2.06
   0   6  -3   28.92    1.50
   0  -6   3   28.51    1.23
   0  -6   3   29.25    1.34
  -1   6  -3    6.10    0.78
   1  -6   3    6.55    0.44
   1  -6   3    6.76    0.57
  -2   6  -3    0.13    0.41
   2  -6   3    0.39    0.17
   2  -6   3    0.13    0.23
  -3   6  -3    1.55    0.55
   3  -6   3    1.69    0.38
   3  -6   3    1.79    0.28
  -4   6  -3    1.47    0.59
   4  -6   3    1.43    0.38
   4  -6   3    1.14    0.26
  -5   6  -3   19.59    1.52
   5  -6   3   20.60    1.18
   5  -6   3   21.39    1.03
  -6   6  -3    2.08    0.76
   6  -6   3    2.91    0.42
   6  -6   3    2.46    0.52
  -7   6  -3    1.43    0.81
   7  -6   3    0.88    0.33
   7  -6   3    0.59    0.42
  -8   6  -3    4.30    1.09
  -9   6  -3    0.73    0.91
 -14  -5   3    2.05    0.88
  13   5  -3    0.72    0.63
 -13  -5   3    0.66    0.52
  12   5  -3    8.05    1.09
 -12  -5   3    7.13    0.96
  11   5  -3    8.66    1.14
 -11  -5   3    8.15    1.00
  10   5  -3   11.05    1.10
 -10  -5   3    9.59    1.00
   9   5  -3   12.26    1.12
  -9  -5   3   11.85    0.94
   8   5  -3   25.44    1.53
  -8  -5   3   25.70    1.43
   7   5  -3    8.67    0.82
  -7  -5   3    7.71    0.80
   6   5  -3   25.52    1.41
  -6  -5   3   26.19    1.32
   5   5  -3   17.84    0.77
   5   5  -3   16.08    1.01
  -5  -5   3   15.99    0.96
   4   5  -3  137.10    4.99
  -4  -5   3  133.26    5.23
  -4  -5   3  144.96    5.16
   3   5  -3   73.58    2.81
  -3  -5   3   75.26    2.87
  -3  -5   3   72.34    2.93
   2   5  -3   57.01    2.33
  -2  -5   3   59.22    2.33
  -2  -5   3   59.64    2.37
   1   5  -3   11.01    0.74
  -1  -5   3   11.47    0.70
  -1  -5   3   10.95    0.64
   0   5  -3  599.98   21.03
   0  -5   3  591.81   20.79
   0  -5   3  600.08   20.92
   1  -5   3   31.72    1.38
   1  -5   3   30.99    1.24
  -2   5  -3   18.60    1.20
   2  -5   3   20.32    0.87
   2  -5   3   20.93    1.02
  -3   5  -3    2.79    0.61
   3  -5   3    2.48    0.28
   3  -5   3    2.60    0.40
  -4   5  -3    2.24    0.58
   4  -5   3    3.14    0.45
   4  -5   3    1.48    0.26
  -5   5  -3   20.53    1.41
   5  -5   3   18.68    1.13
   5  -5   3   21.75    0.99
  -6   5  -3    4.13    0.84
   6  -5   3    2.63    0.54
   6  -5   3    3.92    0.47
  -7   5  -3   25.28    1.78
   7  -5   3   23.05    1.16
   7  -5   3   22.17    1.36
  -8   5  -3    0.82    0.76
   8  -5   3   -0.24    0.43
   8  -5   3    0.97    0.32
  -9   5  -3    2.11    0.90
  13   4  -3    2.40    0.80
 -13  -4   3    0.82    0.55
  12   4  -3    7.65    1.08
 -12  -4   3    5.30    0.82
  11   4  -3    3.16    0.76
 -11  -4   3    1.90    0.59
  10   4  -3   48.12    2.45
 -10  -4   3   46.22    2.26
   9   4  -3    0.70    0.49
  -9  -4   3    0.23    0.40
   8   4  -3   19.82    1.35
  -8  -4   3   17.28    1.10
   7   4  -3   47.80    2.21
  -7  -4   3   43.85    2.03
   6   4  -3    5.71    0.69
  -6  -4   3    7.92    0.66
   5   4  -3    5.56    0.63
   5   4  -3    4.06    0.27
  -5  -4   3    3.74    0.48
   4   4  -3    3.52    0.28
  -4  -4   3    3.20    0.49
  -4  -4   3    3.42    0.44
   3   4  -3    5.23    0.38
  -3  -4   3    5.03    0.45
  -3  -4   3    5.33    0.57
   2   4  -3   67.73    2.57
  -2  -4   3   68.81    2.59
  -2  -4   3   66.43    2.64
   1   4  -3    8.67    0.57
  -1  -4   3    9.09    0.54
  -1  -4   3    8.56    0.60
   0   4  -3   16.04    0.88
   0  -4   3   16.60    0.83
   0  -4   3   16.61    0.73
  -1   4  -3    1.43    0.36
   1  -4   3    1.18    0.26
   1  -4   3    0.92    0.15
  -2   4  -3    7.96    0.69
   2  -4   3    7.91    0.40
   2  -4   3    7.64    0.54
  -3   4  -3   17.71    1.10
   3  -4   3   18.00    0.93
   3  -4   3   17.81    0.77
  -4   4  -3    9.07    0.87
   4  -4   3   10.13    0.73
   4  -4   3   11.06    0.55
  -5   4  -3    1.19    0.51
   5  -4   3    0.85    0.22
   5  -4   3    1.59    0.39
  -6   4  -3    2.04    0.61
   6  -4   3    1.03    0.41
  -7   4  -3   -0.16    0.26
  -7   4  -3    0.68    0.58
   7  -4   3    0.91    0.41
  -8   4  -3   15.48    1.49
   8  -4   3   14.74    1.14
  -9   4  -3    4.98    0.96
   9  -4   3    5.65    0.63
   9  -4   3    3.16    0.72
  10  -4   3    2.19    0.50
  10  -4   3    0.97    0.62
  13   3  -3    4.27    0.97
 -13  -3   3    5.50    0.90
  12   3  -3    3.46    0.87
 -12  -3   3    3.62    0.72
  11   3  -3   12.07    1.28
 -11  -3   3   11.21    1.15
  10   3  -3    1.41    0.63
 -10  -3   3    2.15    0.55
   9   3  -3   21.29    1.43
  -9  -3   3   18.14    1.20
   8   3  -3    2.26    0.59
  -8  -3   3    1.07    0.38
   7   3  -3  221.29    8.27
  -7  -3   3  219.62    8.05
   6   3  -3   12.90    0.90
  -6  -3   3   10.94    0.77
   5   3  -3   64.20    2.67
  -5  -3   3   62.90    2.52
   4   3  -3   15.49    0.64
   4   3  -3   15.99    0.92
  -4  -3   3   15.81    0.82
   3   3  -3  298.02   10.31
  -3  -3   3  288.12   10.52
  -3  -3   3  298.31   10.41
   2   3  -3   84.36    3.07
  -2  -3   3   86.03    3.11
  -2  -3   3   82.19    3.19
   1   3  -3   51.33    2.00
  -1  -3   3   54.11    1.98
  -1  -3   3   51.08    2.04
   0   3  -3   14.78    0.75
   0  -3   3   14.08    0.64
   0  -3   3   15.29    0.74
  -1   3  -3   17.31    0.91
   1  -3   3   18.10    0.71
   1  -3   3   18.82    0.86
  -2   3  -3   63.67    2.61
   2  -3   3   68.18    2.37
   2  -3   3   64.85    2.51
   3  -3   3  168.27    6.10
   3  -3   3  169.41    5.96
  -4   3  -3  166.13    5.82
  -4   3  -3  155.24    6.04
   4  -3   3  163.78    5.92
  -5   3  -3   35.54    1.47
  -5   3  -3   32.72    1.72
   5  -3   3   34.07    1.57
  -6   3  -3    8.59    0.94
  -6   3  -3    6.83    0.58
   6  -3   3    6.63    0.70
  -7   3  -3   28.66    1.67
  -7   3  -3   26.14    1.33
   7  -3   3   25.60    1.44
  -8   3  -3    0.06    0.29
  -8   3  -3   -0.19    0.48
   8  -3   3    0.13    0.43
  -9   3  -3   13.77    1.26
  -9   3  -3   14.21    1.04
   9  -3   3   14.92    1.22
 -10   3  -3    0.35    0.46
  10  -3   3    0.46    0.57
 -11   3  -3    8.71    1.05
  11  -3   3    8.91    1.21
  13   2  -3    0.07    0.66
 -13  -2   3    0.55    0.52
  12   2  -3    1.81    0.75
 -12  -2   3    1.12    0.55
  11   2  -3    6.23    1.04
 -11  -2   3    4.34    0.73
  10   2  -3    0.19    0.52
 -10  -2   3    0.59    0.41
   9   2  -3    5.40    0.85
  -9  -2   3    4.42    0.63
   8   2  -3   30.46    1.76
  -8  -2   3   30.30    1.53
   7   2  -3    5.11    0.76
  -7  -2   3    3.79    0.55
   6   2  -3   10.80    0.88
  -6  -2   3   11.57    0.57
  -6  -2   3   10.93    0.74
   5   2  -3    4.44    0.59
  -5  -2   3    4.91    0.52
  -5  -2   3    6.16    0.38
   4   2  -3    7.69    0.62
  -4  -2   3    8.52    0.47
  -4  -2   3    9.00    0.56
   3   2  -3  182.35    6.40
  -3  -2   3  184.70    6.51
  -3  -2   3  180.05    6.61
   2   2  -3    0.83    0.14
  -2  -2   3    1.13    0.18
  -2  -2   3    1.01    0.24
   1   2  -3   48.70    1.90
  -1  -2   3   54.44    1.88
  -1  -2   3   49.27    1.96
   0  -2   3  116.20    3.96
   0  -2   3  108.04    4.05
  -1   2  -3   23.89    1.05
   1  -2   3   24.01    1.01
   1  -2   3   24.60    0.88
  -2   2  -3  272.74    9.37
  -2   2  -3  267.64    9.54
   2  -2   3  265.88    9.47
  -3   2  -3    6.16    0.52
  -3   2  -3    5.90    0.37
   3  -2   3    6.33    0.48
  -4   2  -3   76.59    3.10
  -4   2  -3   78.76    2.93
   4  -2   3   81.74    3.06
  -5   2  -3    1.84    0.43
  -5   2  -3    1.32    0.28
   5  -2   3    2.40    0.41
  -6   2  -3    0.04    0.34
  -6   2  -3    0.11    0.23
   6  -2   3    0.61    0.36
  -7   2  -3    6.66    0.81
  -7   2  -3    6.25    0.64
   7  -2   3    6.77    0.77
  -8   2  -3   29.33    1.69
  -8   2  -3   33.07    1.56
   8  -2   3   32.33    1.73
  -9   2  -3    0.08    0.33
  -9   2  -3   -0.28    0.47
   9  -2   3    0.56    0.51
 -10   2  -3    0.29    0.39
  10  -2   3    0.25    0.59
 -11   2  -3    4.82    0.80
  11  -2   3    2.65    0.89
 -12   2  -3    5.19    0.88
  12  -2   3    2.79    0.94
  13   1  -3    0.47    0.76
 -13  -1   3    1.28    0.60
  12   1  -3    1.05    0.77
 -12  -1   3    2.26    0.64
  11   1  -3    0.92    0.75
 -11  -1   3   -0.08    0.39
  10   1  -3   71.35    3.35
 -10  -1   3   65.68    2.95
   9   1  -3   11.72    1.13
  -9  -1   3    9.31    0.86
   8   1  -3   10.75    1.05
  -8  -1   3   10.02    0.82
   7   1  -3    0.15    0.42
  -7  -1   3    1.08    0.30
  -7  -1   3    1.03    0.35
   6   1  -3    1.50    0.49
  -6  -1   3    0.90    0.31
  -6  -1   3    1.00    0.28
   5   1  -3   41.19    1.99
  -5  -1   3   44.71    1.83
  -5  -1   3   43.80    1.76
   4   1  -3  103.45    4.00
  -4  -1   3  104.11    3.82
   3   1  -3  167.51    6.21
  -3  -1   3  173.77    6.10
  -3  -1   3  171.80    6.14
  -2  -1   3    1.00    0.24
  -2  -1   3    0.65    0.21
  -2  -1   3    0.85    0.16
  -1  -1   3    5.76    0.40
  -1  -1   3    4.79    0.28
   0   1  -3  255.82    9.13
   0  -1   3  258.59    9.14
   0  -1   3  267.90    9.09
  -1   1  -3  348.33   12.13
   1  -1   3  345.02   12.27
  -2   1  -3  173.73    5.88
  -2   1  -3  166.75    6.00
   2  -1   3  163.73    5.97
  -3   1  -3    6.63    0.48
  -3   1  -3    7.03    0.39
   3  -1   3    7.03    0.49
  -4   1  -3   64.39    2.55
  -4   1  -3   66.38    2.45
   4  -1   3   65.19    2.56
  -5   1  -3   10.67    0.71
  -5   1  -3    9.76    0.59
   5  -1   3    9.12    0.72
  -6   1  -3   39.54    1.68
  -6   1  -3   41.80    1.84
   6  -1   3   38.22    1.82
  -7   1  -3   12.59    0.90
  -7   1  -3   11.75    0.80
   7  -1   3   12.12    0.99
  -8   1  -3   51.01    2.16
  -8   1  -3   45.66    2.19
   8  -1   3   49.44    2.33
  -9   1  -3    3.26    0.56
  -9   1  -3    3.64    0.81
   9  -1   3    3.31    0.72
 -10   1  -3    5.92    0.77
  10  -1   3    6.99    1.02
 -11   1  -3   -0.25    0.39
  11  -1   3    0.91    0.72
 -12   1  -3    5.56    0.87
  12  -1   3    4.62    1.08
 -13   1  -3   -0.13    0.49
  13  -1   3   -0.25    0.82
  12   0  -3    0.11    0.78
 -12   0   3    0.55    0.46
  11   0  -3   -0.12    0.63
 -11   0   3   -0.48    0.40
  10   0  -3    9.73    1.24
 -10   0   3   11.21    0.99
   9   0  -3    0.72    0.56
  -9   0   3    0.86    0.41
   8   0  -3    6.45    0.94
  -8   0   3    8.90    0.75
   7   0  -3   42.53    2.24
  -7   0   3   51.34    2.12
  -7   0   3   46.23    2.06
   6   0  -3   14.76    1.11
  -6   0   3   15.41    0.90
  -6   0   3   17.67    1.04
   5   0  -3  178.99    7.04
  -5   0   3  186.47    6.84
  -5   0   3  200.35    6.91
   4   0  -3   44.95    2.04
  -4   0   3   44.65    1.85
  -4   0   3   48.70    1.97
   3   0  -3   13.20    0.79
  -3   0   3   14.08    0.80
  -3   0   3   12.68    0.66
   2   0  -3   54.57    2.14
  -2   0   3   57.09    2.21
  -2   0   3   54.39    2.06
  -1   0   3   12.14    0.73
  -1   0   3   10.97    0.50
  -1   0   3   11.71    0.55
   0   0   3   29.95    1.13
   0   0   3   28.96    1.29
   0   0   3   29.98    1.08
  -1   0  -3  329.58   11.45
  -1   0  -3  320.20   11.24
   1   0   3  317.91   11.45
  -2   0  -3   18.07    0.77
  -2   0  -3   18.52    0.71
   2   0   3   15.37    0.75
  -3   0  -3   38.66    1.42
  -3   0  -3   35.68    1.45
   3   0   3   36.90    1.51
  -4   0  -3  255.20    9.26
  -4   0  -3  260.57    9.23
   4   0   3  270.79    9.36
  -5   0  -3   55.34    2.14
  -5   0  -3   54.72    2.18
   5   0   3   54.36    2.27
  -6   0  -3    0.43    0.23
  -6   0  -3    0.26    0.25
   6   0   3    0.93    0.39
  -7   0  -3    0.65    0.28
  -7   0  -3    0.66    0.33
   7   0   3    1.28    0.45
  -8   0  -3   47.23    2.04
  -8   0  -3   43.71    2.02
   8   0   3   48.93    2.32
  -9   0  -3    4.78    0.64
   9   0   3    5.03    0.83
 -10   0  -3    2.04    0.52
  10   0   3    2.54    0.77
 -11   0  -3    2.09    0.55
  11   0   3    2.14    0.80
 -12   0  -3    5.92    0.88
  12   0   3    7.45    1.24
 -13   0  -3    1.29    0.58
  13   0   3    0.23    0.86
 -12   1   3    2.48    0.64
  11  -1  -3    0.73    0.76
 -11   1   3    0.84    0.50
  10  -1  -3    3.54    0.89
 -10   1   3    5.64    0.79
   9  -1  -3    0.78    0.59
  -9   1   3    0.60    0.41
   8  -1  -3    9.83    1.10
  -8   1   3   11.10    0.85
   7  -1  -3   54.34    2.65
  -7   1   3   58.75    2.49
  -7   1   3   63.36    2.61
   6  -1  -3  162.61    6.48
  -6   1   3  167.82    6.32
  -6   1   3  186.08    6.49
   5  -1  -3   30.47    1.55
  -5   1   3   33.18    1.59
   4  -1  -3    1.06    0.35
  -4   1   3    1.38    0.39
  -4   1   3    1.05    0.27
   3  -1  -3    3.40    0.44
  -3   1   3    1.83    0.39
  -3   1   3    1.15    0.23
   2  -1  -3   84.27    3.15
  -2   1   3   82.38    3.08
  -2   1   3   86.09    3.26
   1  -1  -3    1.48    0.20
  -1   1   3    1.60    0.19
  -1   1   3    1.40    0.33
   0  -1  -3  187.99    6.71
   0   1   3  192.57    6.70
   0   1   3  197.04    6.97
  -1  -1  -3   19.64    0.78
   1   1   3   23.24    1.08
   1   1   3   20.07    0.79
  -2  -1  -3  221.00    7.98
   2   1   3  229.74    8.07
   2   1   3  229.24    7.97
  -3  -1  -3   14.93    0.66
  -3  -1  -3   15.29    0.72
   3   1   3   15.27    0.76
  -4  -1  -3   77.78    2.85
  -4  -1  -3   80.10    2.91
   4   1   3   75.91    2.98
  -5  -1  -3   90.60    3.27
  -5  -1  -3   90.40    3.33
   5   1   3   85.49    3.44
  -6  -1  -3    5.19    0.52
  -6  -1  -3    4.83    0.44
   6   1   3    4.70    0.59
  -7  -1  -3   32.38    1.48
  -7  -1  -3   36.53    1.58
   7   1   3   36.07    1.77
  -8  -1  -3    5.66    0.64
  -8  -1  -3    5.20    0.54
   8   1   3    5.21    0.79
  -9  -1  -3   29.07    1.50
   9   1   3   28.12    1.71
 -10  -1  -3    2.37    0.51
  10   1   3    0.76    0.61
 -11  -1  -3    8.04    0.90
  11   1   3    8.90    1.21
 -12  -1  -3   14.58    1.22
  12   1   3   15.76    1.66
 -13  -1  -3    7.69    0.98
  13   1   3    8.17    1.33
 -12   2   3    1.51    0.64
 -11   2   3   -0.01    0.43
  10  -2  -3    6.89    1.43
 -10   2   3    6.84    0.88
   9  -2  -3    4.39    0.87
  -9   2   3    6.25    0.79
   8  -2  -3    5.57    0.82
  -8   2   3    7.50    0.79
  -8   2   3    7.29    0.92
   7  -2  -3   13.52    1.05
  -7   2   3   15.69    1.15
  -7   2   3   16.58    1.01
   6  -2  -3   28.93    1.51
  -6   2   3   32.21    1.65
  -6   2   3   28.88    1.44
   5  -2  -3    1.01    0.34
  -5   2   3    1.00    0.30
  -5   2   3    0.80    0.45
   4  -2  -3   26.77    1.27
  -4   2   3   28.20    1.26
  -4   2   3   28.10    1.47
   3  -2  -3  178.69    6.47
  -3   2   3  189.08    6.71
  -3   2   3  175.08    6.49
   2  -2  -3    2.14    0.25
  -2   2   3    1.56    0.25
  -2   2   3    2.24    0.46
   1  -2  -3    2.28    0.20
   1  -2  -3    2.09    0.19
  -1   2   3    2.33    0.40
   0  -2  -3    3.96    0.25
   0   2   3    4.53    0.52
  -1  -2  -3   21.40    0.87
   1   2   3   24.51    1.16
   1   2   3   21.15    0.82
  -2  -2  -3   52.37    2.14
   2   2   3   61.72    2.35
   2   2   3   57.65    2.12
  -3  -2  -3   63.16    2.48
   3   2   3   65.70    2.47
   3   2   3   65.45    2.53
  -4  -2  -3    2.53    0.23
  -4  -2  -3    1.91    0.32
   4   2   3    2.77    0.38
  -5  -2  -3  192.12    6.55
  -5  -2  -3  185.29    6.71
   5   2   3  178.83    6.78
  -6  -2  -3   50.29    2.05
  -6  -2  -3   49.48    1.87
   6   2   3   47.49    2.16
  -7  -2  -3   43.40    1.77
  -7  -2  -3   48.06    1.98
   7   2   3   46.11    2.11
  -8  -2  -3   67.51    2.65
  -8  -2  -3   69.26    2.81
   8   2   3   69.22    3.02
  -9  -2  -3    7.10    0.77
   9   2   3    7.79    0.96
 -10  -2  -3    0.39    0.39
  10   2   3    0.58    0.55
 -11  -2  -3    3.09    0.62
  11   2   3    2.92    0.81
 -12  -2  -3   -0.27    0.42
  12   2   3   -0.10    0.67
 -13  -2  -3    4.47    0.82
  13   2   3    3.73    1.00
 -14  -2  -3    1.34    0.60
  14   2   3    0.39    0.80
 -11   3   3    0.48    0.52
 -10   3   3   -0.27    0.39
  -9   3   3   12.99    1.06
   8  -3  -3    0.22    0.48
  -8   3   3   -0.21    0.35
  -8   3   3    0.39    0.50
   7  -3  -3    6.53    0.74
  -7   3   3    5.60    0.67
  -7   3   3    4.85    0.80
   6  -3  -3    3.96    0.58
  -6   3   3    5.02    0.78
  -6   3   3    4.30    0.57
   5  -3  -3  133.17    4.91
  -5   3   3  133.65    4.96
  -5   3   3  130.01    5.20
   4  -3  -3    1.86    0.32
  -4   3   3    1.90    0.33
  -4   3   3    2.45    0.56
   3  -3  -3  264.19    9.32
  -3   3   3  262.77    9.65
  -3   3   3  267.65    9.44
   2  -3  -3   18.68    0.83
   2  -3  -3   18.17    0.77
  -2   3   3   19.20    1.13
   1  -3  -3  178.21    5.87
   1  -3  -3  166.26    5.98
  -1   3   3  160.13    6.21
   0  -3  -3    0.47    0.13
   0   3   3    0.57    0.30
   1   3   3    2.23    0.40
   1   3   3    2.07    0.17
  -2  -3  -3   37.81    1.55
   2   3   3   40.35    1.70
   2   3   3   40.10    1.52
  -3  -3  -3   16.14    0.85
   3   3   3   17.26    0.92
   3   3   3   15.79    0.80
  -4  -3  -3  159.20    5.78
   4   3   3  166.92    5.77
   4   3   3  147.80    5.74
  -5  -3  -3  145.86    5.46
  -5  -3  -3  154.39    5.22
   5   3   3  141.57    5.47
  -6  -3  -3  190.03    6.57
  -6  -3  -3  184.59    6.86
   6   3   3  186.60    6.94
  -7  -3  -3   15.49    0.98
   7   3   3   15.35    1.06
  -8  -3  -3    6.78    0.75
   8   3   3    8.25    0.89
  -9  -3  -3   49.03    2.34
   9   3   3   58.37    2.59
 -10  -3  -3    5.38    0.73
  10   3   3    4.73    0.83
 -11  -3  -3   27.22    1.60
  11   3   3   28.69    1.91
 -12  -3  -3    1.50    0.58
  12   3   3    2.27    0.81
 -13  -3  -3    6.99    0.98
  13   3   3    7.89    1.21
 -14  -3  -3   -0.47    0.46
  14   3   3    0.04    0.70
  11  -4  -3    0.42    0.46
  10  -4  -3    1.58    0.51
   9  -4  -3    3.04    0.58
  -8   4   3    0.20    0.56
  -8   4   3    0.19    0.38
  -7   4   3    0.37    0.55
  -7   4   3   -0.14    0.31
   6  -4  -3   19.28    1.08
  -6   4   3   18.29    1.11
  -6   4   3   18.84    1.43
   5  -4  -3    0.78    0.31
  -5   4   3    0.72    0.54
  -5   4   3    0.48    0.30
   4  -4  -3    3.88    0.41
   4  -4  -3    2.62    0.35
  -4   4   3    2.64    0.62
   3  -4  -3   41.13    1.73
   3  -4  -3   44.10    1.67
  -3   4   3   42.03    2.07
   2  -4  -3   26.86    1.03
   2  -4  -3   25.76    1.12
  -2   4   3   24.71    1.41
   1  -4  -3   24.92    0.94
   1  -4  -3   24.88    1.06
  -1   4   3   25.91    1.35
   0  -4  -3  181.08    6.32
   0   4   3  174.53    6.57
  -1  -4  -3   19.73    0.90
   1   4   3   21.55    0.82
   1   4   3   21.20    1.12
   2   4   3   19.76    0.85
   2   4   3   18.64    1.03
  -3  -4  -3   44.56    1.84
   3   4   3   44.77    1.88
   3   4   3   43.50    1.78
  -4  -4  -3    8.74    0.67
   4   4   3    8.81    0.63
   4   4   3    8.90    0.61
  -5  -4  -3    0.85    0.35
   5   4   3    1.11    0.29
   5   4   3    0.71    0.31
  -6  -4  -3   28.33    1.02
  -6  -4  -3   25.49    1.37
   6   4   3   23.66    1.33
  -7  -4  -3    0.89    0.39
   7   4   3    0.36    0.38
  -8  -4  -3    7.12    0.80
   8   4   3    9.31    0.96
  -9  -4  -3   13.68    1.04
   9   4   3   12.94    1.11
 -10  -4  -3    0.90    0.45
  10   4   3    1.47    0.55
 -11  -4  -3   19.45    1.36
  11   4   3   24.10    1.61
 -12  -4  -3    0.69    0.51
  12   4   3    0.57    0.62
 -13  -4  -3    1.15    0.60
  13   4   3    0.10    0.65
 -14  -4  -3    0.05    0.50
  14   4   3    1.80    0.80
  10  -5  -3   14.00    1.12
   9  -5  -3    1.96    0.53
   8  -5  -3   15.76    1.06
  -8   5   3   14.36    1.52
   7  -5  -3    2.24    0.48
  -7   5   3    1.51    0.71
   6  -5  -3    2.77    0.47
  -6   5   3    2.42    0.78
   5  -5  -3    0.88    0.30
   5  -5  -3    0.53    0.42
  -5   5   3    0.39    0.56
   4  -5  -3    1.95    0.35
   4  -5  -3    3.56    0.40
  -4   5   3    2.70    0.70
   3  -5  -3   29.42    1.21
   3  -5  -3   28.53    1.29
  -3   5   3   28.07    1.67
   2  -5  -3   56.90    2.10
   2  -5  -3   57.84    2.23
  -2   5   3   55.37    2.58
   1  -5  -3  212.56    7.68
   1  -5  -3  221.90    7.55
  -1   5   3  213.07    8.03
   0  -5  -3   15.25    0.75
   0  -5  -3   15.66    0.62
   0   5   3   15.56    1.03
  -1  -5  -3   41.71    1.70
   1   5   3   40.99    1.93
   1   5   3   45.31    1.61
  -2  -5  -3  157.38    5.76
   2   5   3  163.91    5.94
   2   5   3  157.40    5.68
  -3  -5  -3   33.31    1.45
   3   5   3   30.35    1.35
   3   5   3   32.47    1.52
  -4  -5  -3   25.26    1.26
   4   5   3   26.25    1.20
   4   5   3   23.60    1.21
  -5  -5  -3  112.03    4.24
   5   5   3  110.98    4.19
   5   5   3  106.20    4.09
  -6  -5  -3   51.21    2.27
   6   5   3   53.67    2.07
   6   5   3   51.38    2.25
  -7  -5  -3    3.35    0.59
   7   5   3    3.18    0.54
  -8  -5  -3  174.43    6.69
   8   5   3  180.29    6.73
  -9  -5  -3   34.89    1.86
   9   5   3   37.90    1.96
 -10  -5  -3   41.34    2.12
  10   5   3   44.92    2.23
 -11  -5  -3    0.56    0.48
  11   5   3    1.01    0.58
 -12  -5  -3    2.30    0.66
  12   5   3    3.13    0.77
 -13  -5  -3    2.18    0.71
  13   5   3    3.39    0.88
 -14  -5  -3    5.11    0.95
  14   5   3    9.13    1.24
   9  -6  -3   -0.08    0.42
   8  -6  -3    0.25    0.37
  -8   6   3   -0.72    0.68
   7  -6  -3    6.86    0.76
  -7   6   3    5.46    1.09
   6  -6  -3    4.51    0.60
  -6   6   3    3.35    0.90
   5  -6  -3    0.18    0.26
  -5   6   3   -0.48    0.55
   4  -6  -3   25.83    1.24
  -4   6   3   22.28    1.70
   3  -6  -3   71.21    2.80
  -3   6   3   72.09    3.30
   2  -6  -3    0.06    0.15
   2  -6  -3    0.03    0.18
  -2   6   3    0.66    0.52
   1  -6  -3    0.27    0.20
   1  -6  -3    0.29    0.14
  -1   6   3    0.21    0.44
   0  -6  -3   70.24    2.56
   0  -6  -3   71.76    2.71
   0   6   3   71.39    3.07
  -1  -6  -3    0.48    0.23
   1   6   3    0.72    0.38
  -2  -6  -3    3.25    0.42
   2   6   3    3.64    0.36
   2   6   3    3.26    0.55
  -3  -6  -3    0.83    0.30
   3   6   3    0.66    0.24
   3   6   3    0.12    0.34
  -4  -6  -3   48.68    2.10
   4   6   3   49.88    2.11
   4   6   3   46.18    1.99
  -5  -6  -3    1.35    0.41
   5   6   3    1.10    0.34
   5   6   3    1.39    0.37
  -6  -6  -3    1.55    0.46
   6   6   3    1.50    0.40
   6   6   3    1.31    0.32
  -7  -6  -3   11.17    0.95
   7   6   3   11.32    0.88
  -8  -6  -3    4.29    0.69
   8   6   3    3.17    0.60
  -9  -6  -3    1.39    0.54
   9   6   3    1.78    0.51
 -10  -6  -3   17.51    1.29
  10   6   3   19.93    1.39
 -11  -6  -3   16.92    1.31
  11   6   3   18.16    1.38
 -12  -6  -3   -0.34    0.46
  12   6   3    0.78    0.59
 -13  -6  -3    6.55    1.00
  13   6   3   11.25    1.28
 -14  -6  -3    4.52    0.90
  14   6   3    3.62    0.91
   9  -7  -3    1.16    0.50
   8  -7  -3   12.48    1.03
  -8   7   3   13.54    1.63
   7  -7  -3    3.66    0.61
  -7   7   3    1.80    0.93
   6  -7  -3   17.26    1.10
  -6   7   3   18.36    1.78
   5  -7  -3    8.85    0.75
  -5   7   3    6.10    1.13
   4  -7  -3   17.93    1.03
  -4   7   3   18.74    1.57
   3  -7  -3    4.63    0.53
  -3   7   3    2.73    0.79
   2  -7  -3   16.68    0.89
  -2   7   3   14.14    1.32
   1  -7  -3   13.15    0.77
  -1   7   3   11.99    1.15
   0  -7  -3   68.74    2.43
   0  -7  -3   65.17    2.58
   0   7   3   64.07    2.97
  -1  -7  -3  135.14    5.05
   1   7   3  140.93    5.42
  -2  -7  -3   62.09    2.56
   2   7   3   66.19    2.46
   2   7   3   64.69    2.81
  -3  -7  -3   59.12    2.52
   3   7   3   61.46    2.66
   3   7   3   65.08    2.43
  -4  -7  -3   12.73    0.89
   4   7   3   12.83    0.75
   4   7   3   11.48    0.89
  -5  -7  -3   28.46    1.52
   5   7   3   31.28    1.45
   5   7   3   30.15    1.48
  -6  -7  -3   33.53    1.68
   6   7   3   32.40    1.58
   6   7   3   30.42    1.50
  -7  -7  -3   14.36    1.06
   7   7   3   13.55    0.98
   7   7   3   13.91    1.00
  -8  -7  -3   18.98    1.30
   8   7   3   20.23    1.26
  -9  -7  -3    0.26    0.47
   9   7   3    0.27    0.41
 -10  -7  -3    8.39    1.04
  10   7   3    8.53    0.98
 -11  -7  -3   61.87    2.99
  11   7   3   69.41    3.06
 -12  -7  -3    8.92    1.09
  12   7   3   12.79    1.24
 -13  -7  -3   10.36    1.24
  13   7   3   15.45    1.43
 -14  -7  -3    2.31    0.73
  14   7   3    4.51    0.95
   8  -8  -3   -0.02    0.38
  -8   8   3    0.82    0.97
   7  -8  -3    9.87    0.91
  -7   8   3    9.51    1.48
   6  -8  -3    3.21    0.59
  -6   8   3    3.53    1.10
   5  -8  -3    0.26    0.36
  -5   8   3    0.62    0.77
   4  -8  -3   -0.05    0.29
  -4   8   3   -0.78    0.61
   3  -8  -3   -0.02    0.26
  -3   8   3    0.23    0.67
   2  -8  -3    3.26    0.47
  -2   8   3    3.11    0.83
   1  -8  -3    2.80    0.42
  -1   8   3    3.42    0.77
   0  -8  -3   10.16    0.72
   0   8   3   10.19    1.21
  -1  -8  -3   13.89    0.86
   1   8   3   15.33    1.21
  -2  -8  -3    0.21    0.28
   2   8   3    1.97    0.30
   2   8   3    1.03    0.50
  -3  -8  -3    7.57    0.74
   3   8   3    8.60    0.91
   3   8   3    7.18    0.55
  -4  -8  -3    7.10    0.75
   4   8   3    9.10    0.65
   4   8   3    8.78    0.90
  -5  -8  -3   11.41    0.93
   5   8   3   11.43    0.92
   5   8   3   12.03    0.82
  -6  -8  -3   17.08    1.16
   6   8   3   15.12    0.98
   6   8   3   15.10    1.01
  -7  -8  -3   48.25    2.35
   7   8   3   53.56    2.32
  -8  -8  -3   48.46    2.39
   8   8   3   50.62    2.32
  -9  -8  -3   -0.14    0.42
   9   8   3    0.00    0.40
 -10  -8  -3    8.34    1.03
  10   8   3    9.20    0.99
 -11  -8  -3   21.43    1.52
  11   8   3   25.05    1.58
 -12  -8  -3    0.70    0.61
  12   8   3    0.45    0.58
  13   8   3    0.53    0.61
 -14  -8  -3    2.11    0.69
  14   8   3    3.14    0.88
   7  -9  -3    9.95    1.02
  -7   9   3    6.75    1.51
   6  -9  -3    1.78    0.55
  -6   9   3    0.96    0.98
   5  -9  -3    4.59    0.70
  -5   9   3    3.24    1.14
   4  -9  -3    3.40    0.59
  -4   9   3    3.24    1.07
   3  -9  -3   43.03    1.92
  -3   9   3   39.65    2.53
   2  -9  -3    5.95    0.64
  -2   9   3    6.21    1.13
   1  -9  -3   34.14    1.61
  -1   9   3   34.10    2.15
   0  -9  -3    4.96    0.58
   0   9   3    5.86    1.01
  -1  -9  -3    1.67    0.41
   1   9   3    2.03    0.66
  -2  -9  -3    8.11    0.72
   2   9   3    9.54    0.66
   2   9   3    7.84    1.01
  -3  -9  -3   44.31    2.11
   3   9   3   45.82    2.28
   3   9   3   50.21    1.97
  -4  -9  -3  164.50    6.37
   4   9   3  169.26    6.49
   4   9   3  172.90    6.22
  -5  -9  -3   23.32    1.39
   5   9   3   24.67    1.25
   5   9   3   22.20    1.38
  -6  -9  -3   31.83    1.70
   6   9   3   32.18    1.59
   6   9   3   30.84    1.60
  -7  -9  -3   11.07    1.02
   7   9   3   10.75    0.92
  -8  -9  -3   29.68    1.66
   8   9   3   27.47    1.58
  -9  -9  -3    6.74    0.94
   9   9   3    5.04    0.78
 -10  -9  -3    0.37    0.51
  10   9   3    1.08    0.53
 -11  -9  -3    9.69    1.19
  11   9   3   10.28    1.14
 -12  -9  -3    0.87    0.62
  12   9   3    0.59    0.58
 -13  -9  -3   12.80    1.41
  13   9   3   15.90    1.40
 -14  -9  -3    2.70    0.79
  14   9   3    1.89    0.77
   6 -10  -3    4.97    0.74
  -6  10   3    3.68    1.29
   5 -10  -3    0.66    0.44
  -5  10   3    0.64    0.95
   4 -10  -3    0.99    0.45
  -4  10   3    0.23    0.87
   3 -10  -3    5.95    0.71
  -3  10   3    4.85    1.16
   2 -10  -3    1.10    0.44
  -2  10   3    0.94    0.83
   1 -10  -3    0.38    0.39
  -1  10   3    1.50    0.79
   0 -10  -3    9.05    0.79
   0  10   3    8.95    1.29
  -1 -10  -3    7.74    0.77
   1  10   3    7.03    1.06
  -2 -10  -3    0.42    0.37
   2  10   3    0.41    0.52
  -3 -10  -3    7.71    0.83
   3  10   3    8.17    1.01
  -4 -10  -3   24.56    1.47
   4  10   3   26.62    1.28
   4  10   3   23.95    1.56
  -5 -10  -3    0.90    0.49
   5  10   3    1.04    0.46
   5  10   3    1.18    0.35
  -6 -10  -3    3.58    0.69
   6  10   3    3.77    0.58
   6  10   3    3.52    0.62
  -7 -10  -3    4.36    0.76
   7  10   3    4.28    0.66
  -8 -10  -3    5.19    0.83
   8  10   3    5.37    0.75
  -9 -10  -3    3.04    0.73
   9  10   3    2.65    0.60
 -10 -10  -3    6.12    0.94
  10  10   3    6.27    0.88
 -11 -10  -3    2.13    0.72
  11  10   3    1.72    0.60
 -12 -10  -3    1.51    0.65
  12  10   3    0.76    0.59
 -13 -10  -3    3.27    0.81
  13  10   3    5.07    0.89
 -14 -10  -3    0.28    0.60
  14  10   3    1.38    0.70
   5 -11  -3    0.55    0.48
  -5  11   3   -1.36    0.90
   4 -11  -3   12.77    1.08
  -4  11   3   10.03    1.68
   3 -11  -3    9.91    1.00
  -3  11   3    9.38    1.60
   2 -11  -3    4.46    0.68
  -2  11   3    3.05    1.07
   1 -11  -3    3.74    0.64
  -1  11   3    3.36    1.00
   0 -11  -3    4.41    0.68
   0  11   3    4.13    1.00
  -1 -11  -3   56.42    2.53
   1  11   3   58.38    3.01
  -2 -11  -3    4.64    0.70
   2  11   3    6.52    1.01
  -3 -11  -3    1.74    0.57
   3  11   3    1.24    0.61
  -4 -11  -3    0.98    0.50
   4  11   3    1.76    0.62
  -5 -11  -3    1.90    0.60
   5  11   3    1.62    0.54
   5  11   3    1.28    0.43
  -6 -11  -3   35.96    1.93
   6  11   3   40.39    1.84
   6  11   3   34.08    1.88
  -7 -11  -3    2.43    0.67
   7  11   3    4.33    0.67
  -8 -11  -3  118.28    4.87
   8  11   3  118.78    4.74
  -9 -11  -3   -0.17    0.52
   9  11   3    1.19    0.51
 -10 -11  -3   36.03    2.10
  10  11   3   35.90    1.97
 -11 -11  -3    1.05    0.61
  11  11   3    0.26    0.47
 -12 -11  -3    5.72    1.01
  12  11   3    7.10    0.97
 -13 -11  -3    2.67    0.78
  13  11   3    1.71    0.66
 -14 -11  -3   -0.57    0.75
   4 -12  -3    0.54    0.77
   3 -12  -3    0.37    0.50
  -3  12   3   -0.51    0.95
   2 -12  -3   -0.18    0.45
  -2  12   3    0.35    0.93
   1 -12  -3    7.30    0.89
  -1  12   3    7.27    1.40
   0 -12  -3    1.52    0.55
   0  12   3    2.11    0.91
  -1 -12  -3    6.57    0.84
   1  12   3    6.47    1.21
  -2 -12  -3   19.37    1.34
   2  12   3   20.22    1.72
  -3 -12  -3    1.00    0.53
   3  12   3   -0.05    0.61
  -4 -12  -3    1.06    0.56
   4  12   3    0.58    0.57
  -5 -12  -3    1.09    0.60
   5  12   3    1.49    0.63
  -6 -12  -3    8.22    1.01
   6  12   3    8.05    0.97
  -7 -12  -3    2.32    0.69
   7  12   3    3.18    0.59
  -8 -12  -3    0.68    0.57
   8  12   3    0.73    0.44
  -9 -12  -3   -0.11    0.54
   9  12   3    1.05    0.50
 -10 -12  -3    4.50    0.91
  10  12   3    4.01    0.74
 -11 -12  -3    0.37    0.59
  11  12   3    0.38    0.51
 -12 -12  -3   11.26    1.33
  12  12   3   12.12    1.21
 -13 -12  -3   -0.28    0.58
  13  12   3    0.66    0.56
   2 -13  -3    4.15    0.80
  -2  13   3    3.35    1.22
   1 -13  -3    3.74    0.77
  -1  13   3    3.37    1.15
   0 -13  -3    3.99    0.77
   0  13   3    4.25    1.19
  -1 -13  -3   19.46    1.39
   1  13   3   20.00    1.94
  -2 -13  -3    2.24    0.69
   2  13   3    1.33    0.79
  -3 -13  -3   21.18    1.50
   3  13   3   18.22    1.69
  -4 -13  -3    0.40    0.55
   4  13   3   -0.02    0.54
  -5 -13  -3   25.86    1.63
   5  13   3   22.73    1.68
  -6 -13  -3    0.17    0.56
   6  13   3    0.13    0.49
  -7 -13  -3    3.15    0.78
  -8 -13  -3    3.22    0.80
  -9 -13  -3    8.62    1.10
   9  13   3    8.34    0.97
 -10 -13  -3    2.33    0.79
  10  13   3    1.79    0.60
 -11 -13  -3    9.34    1.19
  11  13   3    8.81    1.01
 -12 -13  -3   11.35    1.28
  12  13   3   12.15    1.19
   0 -14  -3    0.43    0.59
   0  14   3    0.39    0.88
  -1 -14  -3    3.28    0.84
   1  14   3    1.36    1.01
  -2 -14  -3    1.03    0.64
   2  14   3   -0.16    0.76
  -3 -14  -3    1.01    0.71
   3  14   3    1.49    0.86
  -4 -14  -3    2.76    0.78
   4  14   3    2.97    0.89
  -5 -14  -3   18.67    1.46
   5  14   3   16.07    1.51
  -6 -14  -3   -0.46    0.54
  -7 -14  -3    0.41    0.61
  -8 -14  -3   20.32    1.57
  -9 -14  -3    5.45    0.94
 -10 -14  -3    9.90    1.22
 -11 -14  -3    2.46    0.75
  -2 -15  -3    2.07    0.81
   2  15   3    0.46    0.84
  -3 -15  -3    2.15    0.81
   3  15   3    2.55    1.03
  -4 -15  -3    2.85    0.83
   4  15   3    1.89    0.86
  -5 -15  -3   16.92    1.45
   5  15   3   12.53    1.46
  -6 -15  -3   12.40    1.31
  -7 -15  -3    1.20    0.68
  -8 -15  -3   -0.21    0.59
  -9 -15  -3    0.88    0.67
 -10 -15  -3    4.41    0.93
   9  14  -4    2.10    0.68
  -9 -14   4    3.15    0.72
   8  14  -4    1.97    0.65
   7  14  -4   17.29    1.41
   4  14  -4   -0.20    0.65
   3  14  -4    4.76    1.04
   2  14  -4   23.23    1.98
   1  14  -4    4.13    1.13
   0  14  -4   22.71    2.20
  10  13  -4    1.69    0.64
 -10 -13   4    2.02    0.64
   9  13  -4    1.04    0.59
  -9 -13   4    0.61    0.55
   8  13  -4    2.64    0.64
  -8 -13   4    1.76    0.62
   7  13  -4    0.73    0.54
  -7 -13   4   -0.76    0.37
   6  13  -4    7.04    0.93
  -6 -13   4    4.86    0.79
   5  13  -4    4.80    0.80
   4  13  -4    5.28    0.94
   3  13  -4    0.63    0.66
   2  13  -4    1.55    0.78
   1  13  -4    4.54    1.12
   0  13  -4    0.79    0.89
  -1  13  -4   -0.52    0.89
  -2  13  -4    0.22    0.95
  11  12  -4    1.48    0.67
 -11 -12   4    0.70    0.55
  10  12  -4   23.59    1.64
 -10 -12   4   20.42    1.47
   9  12  -4   18.31    1.41
  -9 -12   4   16.57    1.28
   8  12  -4   17.10    1.31
  -8 -12   4   14.81    1.21
   7  12  -4   10.47    1.01
  -7 -12   4    8.78    1.00
   6  12  -4    4.58    0.74
  -6 -12   4    3.52    0.70
   5  12  -4   17.93    1.33
   5  12  -4   17.73    1.28
  -5 -12   4   14.68    1.18
   4  12  -4   -0.07    0.49
  -4 -12   4    0.08    0.40
  -4 -12   4    0.51    0.51
   3  12  -4   10.17    1.20
  -3 -12   4   10.87    1.05
   2  12  -4    0.43    0.66
   1  12  -4    2.78    0.92
   0  12  -4    0.69    0.80
  -1  12  -4   12.64    1.67
  -2  12  -4    9.33    1.53
  -3  12  -4    7.01    1.43
  12  11  -4    5.71    0.95
 -12 -11   4    4.69    0.85
  11  11  -4    0.98    0.57
 -11 -11   4    0.10    0.47
  10  11  -4    1.73    0.65
 -10 -11   4    1.67    0.57
   9  11  -4    1.06    0.55
  -9 -11   4    1.33    0.53
   8  11  -4    0.82    0.48
  -8 -11   4    0.89    0.47
   7  11  -4   10.12    1.05
  -7 -11   4    8.24    0.96
   6  11  -4    0.44    0.42
  -6 -11   4    0.93    0.49
   5  11  -4    0.35    0.44
   5  11  -4    0.34    0.43
  -5 -11   4   -0.71    0.34
   4  11  -4   14.55    1.19
  -4 -11   4   14.81    1.19
  -4 -11   4   14.74    1.06
   3  11  -4    4.31    0.80
  -3 -11   4    3.94    0.64
  -3 -11   4    3.57    0.67
   2  11  -4    2.26    0.65
  -2 -11   4    1.57    0.48
  -2 -11   4    1.46    0.51
   1  11  -4    5.06    0.92
  -1 -11   4    2.53    0.59
   0  11  -4   36.42    2.29
  -1  11  -4   14.32    1.67
  -2  11  -4    0.09    0.83
  -3  11  -4   12.28    1.66
  -4  11  -4    5.32    1.36
  -5  11  -4    2.64    1.19
 -13 -10   4    7.80    1.11
  12  10  -4    6.23    1.02
 -12 -10   4    4.32    0.83
  11  10  -4    7.21    1.06
 -11 -10   4    7.39    1.04
  10  10  -4    1.10    0.56
 -10 -10   4    0.80    0.53
   9  10  -4    3.60    0.73
  -9 -10   4    2.84    0.69
   8  10  -4    0.85    0.45
  -8 -10   4    0.22    0.45
   7  10  -4   12.83    1.05
  -7 -10   4   12.12    1.03
   6  10  -4   19.04    1.24
  -6 -10   4   17.87    1.22
   5  10  -4   63.15    2.76
  -5 -10   4   63.12    2.78
  -5 -10   4   66.21    2.94
   4  10  -4    8.99    0.93
  -4 -10   4   10.25    0.97
  -4 -10   4   10.03    0.87
   3  10  -4   16.79    1.22
  -3 -10   4   15.07    1.11
  -3 -10   4   12.90    0.98
   2  10  -4   16.22    1.28
  -2 -10   4   13.64    0.94
  -2 -10   4   12.02    1.02
   1  10  -4    0.93    0.60
  -1 -10   4    1.52    0.46
  -1 -10   4    1.53    0.42
   0  10  -4   -0.28    0.55
   0 -10   4    0.39    0.40
   0 -10   4    0.34    0.44
  -1  10  -4    1.51    0.75
   1 -10   4    0.09    0.37
  -2  10  -4   24.10    1.86
  -3  10  -4   10.13    1.51
  -4  10  -4    3.26    1.17
  -5  10  -4    6.70    1.33
  -6  10  -4    2.20    1.20
  13   9  -4    1.24    0.69
 -13  -9   4    0.32    0.53
  12   9  -4    2.00    0.73
 -12  -9   4    1.48    0.63
  11   9  -4   15.72    1.38
 -11  -9   4   13.16    1.17
  10   9  -4    0.61    0.54
 -10  -9   4    1.16    0.53
   9   9  -4    0.95    0.50
  -9  -9   4    0.66    0.47
   8   9  -4   23.49    1.46
  -8  -9   4   22.17    1.41
   7   9  -4   12.02    0.99
  -7  -9   4   11.31    1.00
   6   9  -4    2.86    0.55
  -6  -9   4    3.18    0.60
   5   9  -4    1.71    0.45
  -5  -9   4   -0.58    0.32
  -5  -9   4    0.09    0.40
   4   9  -4    3.77    0.59
  -4  -9   4    2.93    0.59
  -4  -9   4    3.18    0.55
   3   9  -4   51.67    2.35
  -3  -9   4   48.02    2.20
  -3  -9   4   53.00    2.33
   2   9  -4   23.53    1.48
  -2  -9   4   23.91    1.28
  -2  -9   4   26.04    1.41
   1   9  -4    9.05    1.02
  -1  -9   4    7.97    0.72
  -1  -9   4    9.35    0.80
   0   9  -4   28.05    1.73
   0  -9   4   28.08    1.46
   0  -9   4   29.36    1.39
  -1   9  -4    3.31    0.81
   1  -9   4    4.94    0.65
   1  -9   4    4.30    0.52
  -2   9  -4    0.36    0.64
   2  -9   4    1.33    0.40
  -3   9  -4    7.14    1.23
   3  -9   4    7.71    1.02
  -4   9  -4    1.00    0.84
  -5   9  -4   -1.41    0.72
  -6   9  -4    4.84    1.30
  -7   9  -4    0.57    1.00
  13   8  -4    1.58    0.72
 -13  -8   4    1.53    0.67
  12   8  -4   15.34    1.42
 -12  -8   4   13.30    1.20
  11   8  -4    0.54    0.56
 -11  -8   4    0.23    0.44
  10   8  -4   10.55    1.18
 -10  -8   4    9.97    1.08
   9   8  -4    8.86    1.05
  -9  -8   4    6.68    0.88
   8   8  -4   19.52    1.26
  -8  -8   4   16.88    1.21
   7   8  -4    4.76    0.67
  -7  -8   4    4.38    0.68
   6   8  -4    2.39    0.52
  -6  -8   4    3.58    0.58
   5   8  -4   52.92    2.18
  -5  -8   4   50.82    2.30
  -5  -8   4   50.56    2.39
   4   8  -4    4.45    0.58
  -4  -8   4    4.72    0.60
  -4  -8   4    4.06    0.64
   3   8  -4    9.72    0.84
  -3  -8   4    9.67    0.85
  -3  -8   4    9.62    0.76
   2   8  -4   21.84    1.28
  -2  -8   4   21.50    1.12
  -2  -8   4   19.81    1.18
   1   8  -4   57.54    2.64
  -1  -8   4   58.06    2.41
  -1  -8   4   60.52    2.49
   0   8  -4  119.48    5.01
   0  -8   4  126.63    4.79
   0  -8   4  128.31    4.67
  -1   8  -4    2.62    0.68
   1  -8   4    2.98    0.42
   1  -8   4    3.69    0.55
  -2   8  -4   24.16    1.67
   2  -8   4   24.24    1.32
   2  -8   4   26.30    1.18
  -3   8  -4   24.96    1.77
   3  -8   4   23.36    1.35
   3  -8   4   26.81    1.22
  -4   8  -4   27.69    1.90
   4  -8   4   22.12    1.33
  -5   8  -4   -0.65    0.68
  -6   8  -4   38.69    2.60
  -7   8  -4    2.42    1.08
  -8   8  -4    1.30    1.11
  13   7  -4    3.88    0.88
 -13  -7   4    3.15    0.74
  12   7  -4    0.37    0.61
 -12  -7   4   -0.48    0.42
  11   7  -4   13.70    1.41
 -11  -7   4    7.92    1.02
  10   7  -4    1.51    0.63
 -10  -7   4    2.32    0.58
   9   7  -4    9.26    1.04
  -9  -7   4    8.16    0.92
   8   7  -4   58.41    2.69
  -8  -7   4   57.75    2.59
   7   7  -4    9.27    0.85
  -7  -7   4    7.97    0.82
   6   7  -4    7.12    0.80
  -6  -7   4    6.35    0.73
   5   7  -4   26.94    1.29
  -5  -7   4   27.61    1.42
  -5  -7   4   29.01    1.57
   4   7  -4    5.55    0.58
  -4  -7   4    5.57    0.64
  -4  -7   4    4.35    0.63
   3   7  -4   16.00    1.00
  -3  -7   4   17.50    1.06
  -3  -7   4   16.62    0.97
   2   7  -4    2.08    0.47
  -2  -7   4    0.12    0.26
  -2  -7   4    0.34    0.32
   1   7  -4    1.54    0.46
  -1  -7   4    1.03    0.35
  -1  -7   4    1.34    0.33
   0   7  -4    0.09    0.38
   0  -7   4    0.33    0.29
   0  -7   4    0.52    0.26
  -1   7  -4    2.76    0.63
   1  -7   4    3.39    0.39
   1  -7   4    2.32    0.43
  -2   7  -4    3.21    0.70
   2  -7   4    4.03    0.54
   2  -7   4    3.57    0.39
  -3   7  -4   16.70    1.35
   3  -7   4   17.25    0.86
   3  -7   4   17.23    1.04
  -4   7  -4    1.09    0.65
   4  -7   4    0.41    0.24
   4  -7   4    0.85    0.38
  -5   7  -4    4.77    0.93
   5  -7   4    2.99    0.58
  -6   7  -4   -0.42    0.66
   6  -7   4    0.36    0.42
  -7   7  -4    4.55    1.15
  -8   7  -4   -0.19    0.86
  -9   7  -4    1.70    1.12
  13   6  -4    1.94    0.72
 -13  -6   4    1.92    0.66
  12   6  -4    9.70    1.26
 -12  -6   4    7.69    1.00
  11   6  -4    0.96    0.60
 -11  -6   4    0.42    0.46
  10   6  -4    7.36    1.03
 -10  -6   4    7.25    0.88
   9   6  -4    0.70    0.47
  -9  -6   4    0.73    0.42
   8   6  -4   76.07    3.24
  -8  -6   4   69.73    3.04
   7   6  -4   25.26    1.46
  -7  -6   4   24.98    1.35
   6   6  -4    3.68    0.57
  -6  -6   4    1.37    0.41
   5   6  -4   13.68    0.93
   5   6  -4   14.25    0.75
  -5  -6   4   14.04    1.07
  -5  -6   4   14.30    0.90
   4   6  -4    1.67    0.32
  -4  -6   4    0.83    0.40
  -4  -6   4    0.95    0.34
   3   6  -4  164.54    6.11
  -3  -6   4  167.45    6.22
  -3  -6   4  169.17    6.12
   2   6  -4    0.78    0.31
  -2  -6   4    0.58    0.28
  -2  -6   4    0.77    0.33
   1   6  -4  166.31    6.22
  -1  -6   4  164.86    6.06
  -1  -6   4  170.43    6.17
   0   6  -4   15.28    1.01
   0  -6   4   15.45    0.78
   0  -6   4   14.72    0.90
  -1   6  -4   19.74    1.19
   1  -6   4   17.98    0.98
   1  -6   4   16.95    0.82
  -2   6  -4    9.62    0.95
   2  -6   4   11.08    0.75
   2  -6   4   12.01    0.60
  -3   6  -4  137.95    5.44
   3  -6   4  130.76    5.12
   3  -6   4  141.56    4.94
  -4   6  -4   37.59    2.06
   4  -6   4   39.19    1.56
   4  -6   4   36.91    1.74
  -5   6  -4    0.98    0.62
   5  -6   4    0.74    0.37
   5  -6   4    0.71    0.24
  -6   6  -4    1.81    0.77
   6  -6   4    2.20    0.36
   6  -6   4    2.67    0.55
  -7   6  -4    4.38    0.99
   7  -6   4    3.30    0.65
  -8   6  -4    3.53    1.06
  -9   6  -4    7.11    1.37
  13   5  -4    0.87    0.63
 -13  -5   4   -0.16    0.51
  12   5  -4    8.07    1.14
 -12  -5   4    6.59    0.92
  11   5  -4    2.57    0.72
 -11  -5   4    1.95    0.62
  10   5  -4    7.25    1.02
 -10  -5   4    6.20    0.82
   9   5  -4    0.23    0.47
  -9  -5   4    1.49    0.46
   8   5  -4   18.81    1.28
  -8  -5   4   15.29    1.06
   7   5  -4    2.19    0.48
  -7  -5   4    2.35    0.48
   6   5  -4    5.16    0.70
  -6  -5   4    4.78    0.58
   5   5  -4   40.98    1.58
   5   5  -4   39.94    1.88
  -5  -5   4   40.03    1.77
   4   5  -4   80.78    3.02
  -4  -5   4   79.18    3.12
  -4  -5   4   82.69    3.28
   3   5  -4    2.49    0.35
  -3  -5   4    2.46    0.44
  -3  -5   4    1.67    0.33
   2   5  -4   39.33    1.70
  -2  -5   4   39.99    1.77
  -2  -5   4   41.86    1.69
   1   5  -4   21.12    1.12
  -1  -5   4   22.58    1.02
  -1  -5   4   22.14    1.11
   0   5  -4   33.43    1.56
   0  -5   4   32.43    1.48
   0  -5   4   33.07    1.35
  -1   5  -4    0.16    0.32
   1  -5   4    0.15    0.21
   1  -5   4    0.15    0.13
  -2   5  -4   55.37    2.48
   2  -5   4   54.62    2.27
   2  -5   4   58.48    2.10
  -3   5  -4  125.75    4.94
   3  -5   4  125.04    4.48
   3  -5   4  124.68    4.69
  -4   5  -4   -0.09    0.41
   4  -5   4    0.28    0.18
   4  -5   4    0.33    0.31
  -5   5  -4   40.51    2.18
   5  -5   4   42.14    1.69
   5  -5   4   41.99    1.91
  -6   5  -4   35.06    2.07
   6  -5   4   35.17    1.76
   6  -5   4   37.56    1.55
  -7   5  -4    8.17    1.16
   7  -5   4    8.06    0.86
   7  -5   4    7.09    0.59
  -8   5  -4    2.95    0.90
   8  -5   4    2.07    0.59
  -9   5  -4    0.12    0.75
   9  -5   4    0.35    0.51
 -13  -4   4    5.95    0.95
  12   4  -4   -0.57    0.51
 -12  -4   4    0.74    0.55
  11   4  -4   27.59    1.75
 -11  -4   4   24.69    1.55
  10   4  -4   18.65    1.43
 -10  -4   4   15.98    1.18
   9   4  -4   10.02    1.13
  -9  -4   4    8.71    0.89
   8   4  -4    5.04    0.76
  -8  -4   4    4.22    0.63
   7   4  -4    1.96    0.51
  -7  -4   4    2.27    0.47
   6   4  -4    4.72    0.62
  -6  -4   4    3.61    0.49
   5   4  -4   39.92    1.86
   5   4  -4   40.95    1.52
  -5  -4   4   39.27    1.73
   4   4  -4  216.09    7.53
  -4  -4   4  213.39    7.84
  -4  -4   4  210.23    7.66
   3   4  -4   72.46    2.69
  -3  -4   4   72.29    2.74
  -3  -4   4   70.52    2.87
   2   4  -4   11.16    0.63
  -2  -4   4   10.62    0.72
  -2  -4   4   11.68    0.63
   1   4  -4    7.46    0.54
  -1  -4   4    7.73    0.58
  -1  -4   4    8.19    0.51
   0   4  -4   97.10    3.64
   0  -4   4   93.86    3.46
   0  -4   4   95.45    3.59
  -1   4  -4  133.18    5.01
   1  -4   4  134.32    4.92
   1  -4   4  134.80    4.75
  -2   4  -4   12.80    0.87
   2  -4   4   12.32    0.74
   2  -4   4   13.40    0.57
  -3   4  -4    3.45    0.55
   3  -4   4    2.23    0.37
   3  -4   4    2.47    0.24
  -4   4  -4    6.54    0.79
   4  -4   4    5.97    0.59
   4  -4   4    6.40    0.41
  -5   4  -4   13.82    1.10
   5  -4   4   14.40    0.72
   5  -4   4   14.04    0.91
  -6   4  -4   23.21    1.52
   6  -4   4   23.37    1.30
   6  -4   4   23.05    1.06
  -7   4  -4   32.45    1.99
   7  -4   4   34.16    1.73
   7  -4   4   34.48    1.49
  -8   4  -4    7.05    1.07
   8  -4   4    6.45    0.58
   8  -4   4    5.77    0.81
  -9   4  -4    3.34    0.90
   9  -4   4    2.42    0.46
   9  -4   4    2.36    0.66
  10  -4   4    0.48    0.57
  13   3  -4    1.43    0.72
 -13  -3   4    0.04    0.53
  12   3  -4    3.76    0.89
 -12  -3   4    3.92    0.79
  11   3  -4    5.51    0.95
 -11  -3   4    3.49    0.68
  10   3  -4    2.74    0.73
 -10  -3   4    2.47    0.57
   9   3  -4    3.37    0.72
  -9  -3   4    2.78    0.56
   8   3  -4   22.74    1.50
  -8  -3   4   25.20    1.36
   7   3  -4    1.93    0.51
  -7  -3   4    2.89    0.49
   6   3  -4   14.78    1.02
  -6  -3   4   15.31    0.91
   5   3  -4   24.83    1.36
   5   3  -4   27.57    1.03
  -5  -3   4   26.40    1.25
   4   3  -4   52.15    1.90
   4   3  -4   50.00    2.17
  -4  -3   4   50.08    2.04
   3   3  -4    3.92    0.30
  -3  -3   4    4.02    0.37
  -3  -3   4    4.33    0.49
   2   3  -4  138.10    4.96
  -2  -3   4  144.45    4.96
  -2  -3   4  131.15    5.06
   1   3  -4  138.41    5.14
  -1  -3   4  149.12    5.08
  -1  -3   4  140.06    5.20
   0   3  -4  238.61    8.36
   0  -3   4  239.90    8.22
   0  -3   4  224.73    8.34
  -1   3  -4   36.96    1.55
   1  -3   4   36.16    1.50
   1  -3   4   35.15    1.32
  -2   3  -4    1.80    0.36
   2  -3   4    2.02    0.16
   2  -3   4    2.02    0.31
  -3   3  -4  172.02    6.51
   3  -3   4  178.56    6.40
   3  -3   4  178.57    6.21
  -4   3  -4    7.23    0.70
  -4   3  -4    5.64    0.42
   4  -3   4    4.80    0.53
  -5   3  -4    1.35    0.45
  -5   3  -4    1.07    0.26
   5  -3   4    1.34    0.39
  -6   3  -4   18.86    1.23
  -6   3  -4   16.59    0.89
   6  -3   4   15.83    1.05
  -7   3  -4   35.28    1.65
  -7   3  -4   36.98    1.98
   7  -3   4   37.82    1.82
  -8   3  -4    9.68    0.80
  -8   3  -4   11.81    1.16
   8  -3   4   10.24    1.04
  -9   3  -4    3.19    0.57
  -9   3  -4    3.72    0.85
   9  -3   4    2.70    0.67
 -10   3  -4    3.41    0.66
  10  -3   4    2.17    0.74
  11  -3   4   -0.22    0.61
  13   2  -4    0.97    0.76
 -13  -2   4   -0.51    0.49
  12   2  -4    5.85    1.07
 -12  -2   4    5.07    0.81
  11   2  -4    2.31    0.78
 -11  -2   4    2.93    0.65
  10   2  -4   14.58    1.30
 -10  -2   4   14.92    1.10
   9   2  -4    0.48    0.51
  -9  -2   4    0.12    0.36
   8   2  -4   44.56    2.19
  -8  -2   4   41.09    1.96
   7   2  -4   62.44    2.91
  -7  -2   4   68.65    2.74
   6   2  -4  116.32    4.74
  -6  -2   4  120.99    4.57
  -6  -2   4  124.53    4.38
   5   2  -4   14.75    0.93
  -5  -2   4   12.50    0.67
  -5  -2   4   13.33    0.77
   4   2  -4   23.30    1.20
  -4  -2   4   24.21    1.10
  -4  -2   4   24.12    1.05
   3   2  -4    6.21    0.37
  -3  -2   4    7.32    0.46
  -3  -2   4    6.42    0.57
   2   2  -4   68.40    2.61
  -2  -2   4   71.25    2.75
  -2  -2   4   74.12    2.63
   1   2  -4  118.86    4.39
  -1  -2   4  128.58    4.33
  -1  -2   4  117.92    4.45
   0   2  -4  236.13    8.69
   0  -2   4  255.14    8.55
  -1   2  -4   46.42    1.81
   1  -2   4   44.89    1.60
   1  -2   4   44.72    1.77
  -2   2  -4  118.06    4.35
   2  -2   4  119.33    4.12
   2  -2   4  115.55    4.29
  -3   2  -4    2.65    0.25
  -3   2  -4    2.81    0.39
   3  -2   4    3.75    0.41
  -4   2  -4  259.09    9.04
  -4   2  -4  255.96    9.25
   4  -2   4  255.29    9.18
  -5   2  -4    3.25    0.38
  -5   2  -4    4.32    0.58
   5  -2   4    3.84    0.50
  -6   2  -4   50.53    2.25
  -6   2  -4   48.97    2.02
   6  -2   4   49.47    2.17
  -7   2  -4    5.94    0.61
  -7   2  -4    6.33    0.80
   7  -2   4    5.93    0.73
  -8   2  -4   51.37    2.50
  -8   2  -4   54.55    2.29
   8  -2   4   53.81    2.46
  -9   2  -4    1.40    0.59
  -9   2  -4    1.45    0.44
   9  -2   4    0.70    0.56
 -10   2  -4    6.30    0.81
  10  -2   4    4.43    0.88
 -11   2  -4    4.63    0.81
  11  -2   4    2.90    0.90
  12  -2   4    6.19    1.17
  13   1  -4    2.97    1.05
 -13  -1   4    2.56    0.70
  12   1  -4    0.34    0.69
 -12  -1   4    0.11    0.48
  11   1  -4    4.36    0.95
 -11  -1   4    2.38    0.61
  10   1  -4    5.18    0.97
 -10  -1   4    3.61    0.65
   9   1  -4    1.06    0.55
  -9  -1   4    0.76    0.38
   8   1  -4    0.26    0.43
  -8  -1   4    0.57    0.32
   7   1  -4   14.66    1.16
  -7  -1   4   14.23    0.83
  -7  -1   4   15.12    0.95
   6   1  -4    1.40    0.49
  -6  -1   4    0.92    0.31
  -6  -1   4    1.23    0.31
   5   1  -4    1.37    0.39
  -5  -1   4    1.57    0.32
  -5  -1   4    2.31    0.36
   4   1  -4  153.67    5.87
  -4  -1   4  156.32    5.76
  -4  -1   4  165.32    5.76
   3   1  -4    5.80    0.50
  -3  -1   4    6.62    0.53
  -3  -1   4    4.66    0.40
  -2  -1   4   22.87    0.95
  -2  -1   4   22.10    1.06
  -2  -1   4   22.02    1.03
  -1  -1   4   55.55    2.12
  -1  -1   4   56.07    2.03
  -1  -1   4   55.20    2.20
   0   1  -4  223.91    8.04
   0  -1   4  226.62    8.04
   0  -1   4  233.00    7.95
  -1   1  -4    2.07    0.27
   1  -1   4    1.57    0.22
  -2   1  -4    1.54    0.13
  -2   1  -4    1.73    0.26
   2  -1   4    1.00    0.22
  -3   1  -4   15.02    0.77
  -3   1  -4   14.62    0.62
   3  -1   4   13.93    0.75
  -4   1  -4   26.88    1.23
  -4   1  -4   26.60    1.10
   4  -1   4   27.02    1.24
  -5   1  -4    4.26    0.41
  -5   1  -4    4.37    0.51
   5  -1   4    4.69    0.54
  -6   1  -4   41.23    1.91
  -6   1  -4   43.79    1.79
   6  -1   4   43.11    1.95
  -7   1  -4   58.09    2.56
  -7   1  -4   59.14    2.42
   7  -1   4   60.29    2.60
  -8   1  -4    1.77    0.51
  -8   1  -4    0.78    0.33
   8  -1   4    0.23    0.45
  -9   1  -4    8.45    0.88
  -9   1  -4    8.43    0.83
   9  -1   4    9.49    1.08
 -10   1  -4   13.04    1.06
  10  -1   4   13.07    1.30
 -11   1  -4    0.36    0.44
  11  -1   4    0.25    0.68
 -12   1  -4   -0.03    0.46
  12  -1   4   -0.13    0.70
  13  -1   4    0.39    0.84
  12   0  -4    1.78    1.44
 -12   0   4    1.74    0.62
  11   0  -4    1.58    0.76
 -11   0   4    1.65    0.58
  10   0  -4    3.38    0.87
 -10   0   4    3.29    0.66
   9   0  -4    9.59    1.17
  -9   0   4    8.61    0.92
   8   0  -4   16.34    1.32
  -8   0   4   17.77    1.08
   7   0  -4    3.38    0.68
  -7   0   4    5.81    0.67
  -7   0   4    4.33    0.57
   6   0  -4   53.54    2.58
  -6   0   4   60.60    2.41
  -6   0   4   53.90    2.32
   5   0  -4   63.99    2.84
  -5   0   4   71.20    2.74
  -5   0   4   64.42    2.62
   4   0  -4   73.05    3.03
  -4   0   4   80.82    3.01
  -4   0   4   72.16    2.86
   3   0  -4  276.82    9.82
  -3   0   4  262.23    9.68
  -3   0   4  284.39    9.84
  -2   0   4   10.07    0.52
  -2   0   4   10.13    0.61
  -2   0   4    9.61    0.73
  -1   0   4   38.97    1.68
  -1   0   4   36.62    1.41
  -1   0   4   36.82    1.46
   0   0   4  389.51   13.80
   0   0   4  390.26   13.65
   0   0   4  389.54   13.58
  -1   0  -4  646.50   22.47
   1   0   4  652.80   22.80
   1   0   4  638.64   22.57
  -2   0  -4   12.25    0.61
  -2   0  -4   12.63    0.52
   2   0   4   11.42    0.59
  -3   0  -4  227.54    7.74
  -3   0  -4  223.28    7.82
   3   0   4  210.31    7.83
  -4   0  -4   25.04    1.05
  -4   0  -4   25.55    1.12
   4   0   4   24.86    1.18
  -5   0  -4  225.35    7.90
  -5   0  -4  219.20    7.94
   5   0   4  221.18    8.03
  -6   0  -4   33.39    1.45
  -6   0  -4   33.08    1.48
   6   0   4   31.18    1.58
  -7   0  -4    2.57    0.46
  -7   0  -4    1.79    0.38
   7   0   4    2.21    0.54
  -8   0  -4    2.78    0.49
  -8   0  -4    1.82    0.40
   8   0   4    2.19    0.56
  -9   0  -4    8.84    0.87
   9   0   4    9.08    1.05
 -10   0  -4    7.87    0.86
  10   0   4    9.29    1.13
 -11   0  -4    6.40    0.79
  11   0   4    4.77    1.01
 -12   0  -4    1.50    0.56
  12   0   4    1.32    0.85
 -13   0  -4    3.73    0.80
  13   0   4    3.59    1.08
 -12   1   4    0.57    0.50
 -11   1   4    0.76    0.51
  10  -1  -4   -0.02    0.66
 -10   1   4    0.50    0.44
   9  -1  -4    5.07    0.90
  -9   1   4    4.02    0.66
   8  -1  -4    0.54    0.51
  -8   1   4    0.09    0.34
   7  -1  -4    0.22    0.47
  -7   1   4    0.36    0.48
  -7   1   4    0.62    0.34
   6  -1  -4    6.38    0.78
  -6   1   4    6.79    0.67
  -6   1   4    8.13    0.86
   5  -1  -4    7.31    0.81
  -5   1   4    7.34    0.59
  -5   1   4    8.47    0.81
   4  -1  -4    0.74    0.34
  -4   1   4    0.22    0.21
  -4   1   4    0.23    0.34
   3  -1  -4   68.44    2.75
  -3   1   4   71.77    2.85
  -3   1   4   67.47    2.63
   2  -1  -4    0.40    0.20
  -2   1   4    0.05    0.14
  -2   1   4    0.52    0.34
  -1   1   4  141.61    5.30
  -1   1   4  144.08    5.06
  -1   1   4  140.40    5.03
   0  -1  -4  345.21   12.13
   0   1   4  349.04   12.37
   0   1   4  345.10   12.05
  -1  -1  -4   22.22    0.88
   1   1   4   23.43    0.91
   1   1   4   24.71    1.26
  -2  -1  -4  166.68    5.98
   2   1   4  172.60    5.98
   2   1   4  167.37    6.17
  -3  -1  -4  140.18    5.10
  -3  -1  -4  143.63    5.09
   3   1   4  143.12    5.13
  -4  -1  -4   53.95    2.11
  -4  -1  -4   58.21    2.14
   4   1   4   54.30    2.22
  -5  -1  -4   41.60    1.63
  -5  -1  -4   40.66    1.64
   5   1   4   38.38    1.76
  -6  -1  -4   64.69    2.52
  -6  -1  -4   64.80    2.47
   6   1   4   60.89    2.64
  -7  -1  -4   28.48    1.30
  -7  -1  -4   28.19    1.34
   7   1   4   27.73    1.50
  -8  -1  -4   27.02    1.32
  -8  -1  -4   24.74    1.24
   8   1   4   25.90    1.53
  -9  -1  -4    6.55    0.74
   9   1   4    6.85    0.98
 -10  -1  -4   20.57    1.25
  10   1   4   18.96    1.50
 -11  -1  -4    0.78    0.47
  11   1   4    1.76    0.75
 -12  -1  -4    1.28    0.56
  12   1   4    1.34    0.77
 -13  -1  -4    1.96    0.63
  13   1   4    1.17    0.88
 -14  -1  -4    0.53    0.56
 -12   2   4    2.71    0.68
 -11   2   4   19.15    1.39
 -10   2   4    1.94    0.58
   9  -2  -4    2.45    0.73
  -9   2   4    1.21    0.45
   8  -2  -4    2.42    0.67
  -8   2   4    2.83    1.01
  -8   2   4    1.77    0.49
   7  -2  -4    3.34    0.64
  -7   2   4    3.53    0.70
  -7   2   4    4.31    0.58
   6  -2  -4   31.46    1.64
  -6   2   4   33.60    1.57
  -6   2   4   34.38    1.80
   5  -2  -4    7.07    0.71
  -5   2   4    8.27    0.83
  -5   2   4    7.99    0.63
   4  -2  -4   89.42    3.41
  -4   2   4   89.35    3.61
  -4   2   4   87.22    3.38
   3  -2  -4   14.08    0.77
  -3   2   4   15.77    1.03
  -3   2   4   14.32    0.77
   2  -2  -4  285.17   10.05
  -2   2   4  283.15   10.07
  -2   2   4  287.36   10.31
   1  -2  -4   95.28    3.53
   1  -2  -4   96.39    3.54
  -1   2   4  104.37    3.85
   0  -2  -4    3.90    0.25
   0   2   4    3.61    0.55
   0   2   4    3.53    0.20
  -1  -2  -4   12.00    0.54
   1   2   4   14.27    0.89
   1   2   4   12.05    0.51
  -2  -2  -4    2.14    0.25
   2   2   4    2.11    0.45
   2   2   4    2.18    0.24
  -3  -2  -4   55.09    2.13
   3   2   4   53.08    2.26
   3   2   4   54.25    2.09
  -4  -2  -4   20.99    1.00
  -4  -2  -4   21.67    0.92
   4   2   4   19.89    1.01
  -5  -2  -4   40.32    1.56
  -5  -2  -4   39.74    1.68
   5   2   4   38.39    1.73
  -6  -2  -4   48.39    2.05
  -6  -2  -4   52.05    1.93
   6   2   4   47.60    2.15
  -7  -2  -4   94.06    3.45
  -7  -2  -4   93.10    3.62
   7   2   4   91.96    3.75
  -8  -2  -4   93.40    3.57
  -8  -2  -4   97.56    3.77
   8   2   4   97.86    3.98
  -9  -2  -4   26.94    1.44
   9   2   4   27.30    1.65
 -10  -2  -4    1.48    0.47
  10   2   4    1.76    0.65
 -11  -2  -4    2.85    0.62
  11   2   4    2.55    0.83
 -12  -2  -4    0.61    0.51
  12   2   4    0.88    0.75
 -13  -2  -4    8.00    1.04
  13   2   4    9.56    1.39
 -14  -2  -4    3.77    0.80
  14   2   4    4.11    1.09
 -11   3   4   -0.10    0.48
 -10   3   4    1.62    0.58
  -9   3   4    0.26    0.42
  -8   3   4    4.60    0.68
  -8   3   4    3.99    0.83
   7  -3  -4    4.68    0.68
  -7   3   4    4.10    0.61
  -7   3   4    4.94    0.81
   6  -3  -4    1.60    0.44
  -6   3   4    1.90    0.41
  -6   3   4    2.28    0.59
   5  -3  -4   21.31    1.10
  -5   3   4   21.91    1.14
  -5   3   4   18.97    1.35
   4  -3  -4    0.66    0.24
  -4   3   4    0.62    0.28
  -4   3   4    0.45    0.44
   3  -3  -4   76.16    2.96
  -3   3   4   81.28    3.09
  -3   3   4   85.40    3.39
   2  -3  -4   11.70    0.54
   2  -3  -4   12.17    0.61
  -2   3   4   12.03    0.93
   1  -3  -4    3.07    0.31
  -1   3   4    2.96    0.52
   0  -3  -4  221.72    7.81
   0   3   4  222.06    8.10
  -1  -3  -4  132.23    4.76
   1   3   4  140.66    5.08
   1   3   4  129.36    4.66
  -2  -3  -4   97.54    3.66
   2   3   4   99.36    3.61
   2   3   4  106.28    3.95
  -3  -3  -4  273.58    9.90
   3   3   4  289.17   10.08
   3   3   4  275.26    9.84
  -4  -3  -4   14.91    0.87
   4   3   4   14.61    0.79
   4   3   4   14.22    0.91
  -5  -3  -4    0.70    0.18
  -5  -3  -4    0.32    0.30
   5   3   4    0.99    0.32
  -6  -3  -4  102.74    3.56
  -6  -3  -4   95.20    3.79
   6   3   4   95.39    3.83
  -7  -3  -4    0.54    0.33
   7   3   4    0.25    0.36
  -8  -3  -4    4.94    0.66
   8   3   4    5.94    0.80
  -9  -3  -4    4.89    0.66
   9   3   4    4.60    0.76
 -10  -3  -4    1.62    0.48
  10   3   4    1.05    0.57
 -11  -3  -4    5.06    0.77
  11   3   4    5.06    0.95
 -12  -3  -4    3.11    0.71
  12   3   4    3.84    0.91
 -13  -3  -4    0.31    0.49
  13   3   4   -0.16    0.71
 -14  -3  -4    1.46    0.64
  14   3   4    1.96    0.89
  10  -4  -4    1.80    0.52
   9  -4  -4   12.24    0.96
  -8   4   4   15.26    1.39
  -8   4   4   16.59    1.15
  -7   4   4    1.73    0.70
  -7   4   4    3.76    0.59
   6  -4  -4    5.49    0.60
  -6   4   4    3.61    0.79
  -6   4   4    5.80    0.66
   5  -4  -4    0.23    0.27
  -5   4   4   -0.19    0.26
  -5   4   4    0.34    0.51
   4  -4  -4    7.53    0.55
   4  -4  -4    7.71    0.54
  -4   4   4    7.18    0.93
   3  -4  -4   23.13    1.08
   3  -4  -4   23.08    0.99
  -3   4   4   23.87    1.45
   2  -4  -4   38.59    1.42
   2  -4  -4   37.00    1.55
  -2   4   4   37.50    1.89
   1  -4  -4   85.68    3.15
  -1   4   4   84.18    3.47
   0  -4  -4  350.08   12.38
   0   4   4  356.73   12.70
  -1  -4  -4  115.86    4.21
   1   4   4  116.52    4.48
  -2  -4  -4  180.47    6.50
   2   4   4  184.40    6.72
   2   4   4  180.98    6.41
  -3  -4  -4    6.54    0.53
   3   4   4    6.50    0.45
   3   4   4    8.10    0.68
  -4  -4  -4    3.25    0.47
   4   4   4    3.03    0.39
   4   4   4    3.79    0.53
  -5  -4  -4    3.18    0.50
   5   4   4    5.73    0.60
   5   4   4    3.22    0.45
  -6  -4  -4  219.07    7.14
  -6  -4  -4  187.37    7.39
   6   4   4  195.03    7.38
  -7  -4  -4    3.49    0.56
  -7  -4  -4    3.81    0.28
   7   4   4    3.22    0.55
  -8  -4  -4    9.89    0.86
   8   4   4   10.73    0.94
  -9  -4  -4    0.86    0.43
   9   4   4    0.59    0.45
 -10  -4  -4  113.30    4.76
  10   4   4  125.25    4.90
 -11  -4  -4   28.99    1.74
  11   4   4   33.73    1.94
 -12  -4  -4   12.48    1.25
  12   4   4   15.45    1.43
 -13  -4  -4    1.35    0.64
  13   4   4    1.68    0.80
 -14  -4  -4    0.65    0.59
  14   4   4    1.60    0.85
  10  -5  -4    1.43    0.54
   9  -5  -4    1.12    0.46
   8  -5  -4    8.08    0.83
  -8   5   4    7.04    1.12
   7  -5  -4    6.79    0.75
  -7   5   4    5.24    0.97
   6  -5  -4    3.73    0.55
  -6   5   4    2.33    0.76
   5  -5  -4    2.27    0.39
  -5   5   4    1.84    0.73
   4  -5  -4   20.67    1.05
   4  -5  -4   20.65    1.02
  -4   5   4   18.41    1.43
   3  -5  -4   26.49    1.09
   3  -5  -4   26.25    1.21
  -3   5   4   26.55    1.63
   2  -5  -4    8.67    0.41
   2  -5  -4    7.84    0.53
  -2   5   4    7.24    0.91
   1  -5  -4   22.37    1.00
  -1   5   4   21.46    1.34
   0  -5  -4   19.15    0.90
  -1  -5  -4   20.12    0.92
   1   5   4   20.27    1.19
  -2  -5  -4   22.69    1.05
   2   5   4   21.65    1.25
   2   5   4   23.78    0.96
  -3  -5  -4    8.39    0.61
   3   5   4    9.06    0.74
   3   5   4    8.90    0.54
   4   5   4   16.51    1.00
   4   5   4   16.53    0.87
  -5  -5  -4   39.87    1.82
   5   5   4   39.73    1.74
   5   5   4   39.29    1.75
  -6  -5  -4   11.30    0.88
   6   5   4   11.70    0.76
   6   5   4   10.85    0.80
  -7  -5  -4    1.47    0.47
   7   5   4    0.64    0.37
  -8  -5  -4    3.32    0.61
   8   5   4    2.87    0.56
  -9  -5  -4    2.44    0.59
   9   5   4    2.45    0.58
 -10  -5  -4    0.90    0.51
  10   5   4    1.01    0.53
 -11  -5  -4    6.43    0.92
  11   5   4    6.83    0.95
 -12  -5  -4    0.26    0.51
  12   5   4    1.83    0.68
 -13  -5  -4    0.31    0.52
  13   5   4    0.85    0.66
 -14  -5  -4    2.17    0.74
  14   5   4    2.95    0.84
   9  -6  -4    1.89    0.56
   8  -6  -4    6.17    0.79
  -8   6   4    4.88    1.06
   7  -6  -4   16.96    1.10
  -7   6   4   15.78    1.57
   6  -6  -4    8.43    0.81
  -6   6   4    7.55    1.19
   5  -6  -4    9.40    0.77
  -5   6   4   10.43    1.34
   4  -6  -4    7.45    0.63
  -4   6   4    8.85    1.17
   3  -6  -4    8.50    0.61
  -3   6   4    7.13    1.01
   2  -6  -4    4.37    0.45
  -2   6   4    4.80    0.80
   1  -6  -4   54.26    2.14
  -1   6   4   53.42    2.56
   0  -6  -4   32.06    1.38
   0   6   4   32.37    1.73
  -1  -6  -4   30.15    1.30
   1   6   4   28.92    1.59
  -2  -6  -4    4.16    0.45
   2   6   4    5.06    0.36
   2   6   4    5.48    0.68
  -3  -6  -4  763.57   26.85
   3   6   4  772.59   26.74
   3   6   4  767.50   27.00
  -4  -6  -4   62.47    2.58
   4   6   4   64.02    2.64
   4   6   4   60.51    2.45
  -5  -6  -4  111.65    4.28
   5   6   4  110.26    4.18
   5   6   4  109.22    4.24
  -6  -6  -4   15.71    1.07
   6   6   4   17.16    0.98
   6   6   4   15.57    0.96
  -7  -6  -4    6.74    0.79
   7   6   4    5.78    0.52
   7   6   4    6.07    0.70
  -8  -6  -4    0.96    0.46
   8   6   4    1.76    0.49
  -9  -6  -4    2.66    0.64
   9   6   4    3.59    0.66
 -10  -6  -4   17.97    1.33
  10   6   4   19.61    1.34
 -11  -6  -4    3.93    0.77
  11   6   4    4.27    0.80
 -12  -6  -4    4.02    0.82
  12   6   4    4.22    0.86
 -13  -6  -4   10.82    1.21
  13   6   4   14.55    1.42
 -14  -6  -4    9.85    1.24
  14   6   4   14.08    1.44
   8  -7  -4    1.26    0.47
  -8   7   4    1.27    0.85
   7  -7  -4    5.41    0.72
  -7   7   4    4.77    1.11
   6  -7  -4    3.37    0.58
  -6   7   4    2.45    0.96
   5  -7  -4    5.54    0.68
  -5   7   4    4.79    1.11
   4  -7  -4    7.43    0.68
  -4   7   4    6.27    1.12
   3  -7  -4   18.56    1.02
  -3   7   4   18.86    1.59
   2  -7  -4   18.10    0.98
  -2   7   4   18.95    1.47
   1  -7  -4   19.85    1.00
  -1   7   4   18.43    1.44
   0  -7  -4    7.03    0.57
   0   7   4    9.41    1.07
  -1  -7  -4    1.84    0.36
   1   7   4    1.64    0.53
   1   7   4    2.02    0.21
  -2  -7  -4   41.28    1.76
   2   7   4   39.44    2.03
   2   7   4   41.32    1.60
  -3  -7  -4    7.74    0.64
   3   7   4    7.37    0.85
   3   7   4    7.20    0.51
  -4  -7  -4    2.35    0.47
   4   7   4    0.71    0.40
   4   7   4    0.85    0.29
  -5  -7  -4    1.14    0.45
   5   7   4    1.26    0.45
   5   7   4    1.27    0.33
  -6  -7  -4   12.89    0.99
   6   7   4   10.90    0.83
   6   7   4   11.48    0.81
  -7  -7  -4   13.58    1.04
   7   7   4   11.93    0.89
   7   7   4   12.53    0.83
  -8  -7  -4    6.62    0.83
   8   7   4    4.54    0.67
  -9  -7  -4    6.81    0.90
   9   7   4    9.66    0.92
 -10  -7  -4    1.00    0.54
  10   7   4    2.06    0.60
 -11  -7  -4    0.75    0.55
  11   7   4    0.67    0.56
 -12  -7  -4   11.47    1.25
  12   7   4   15.43    1.35
 -13  -7  -4    0.33    0.57
  13   7   4    2.11    0.72
 -14  -7  -4    2.03    0.72
  14   7   4    3.36    0.85
   8  -8  -4   -0.36    0.37
  -8   8   4   -1.03    0.81
   7  -8  -4   -0.06    0.37
  -7   8   4    0.07    0.85
   6  -8  -4   -0.02    0.37
  -6   8   4    0.55    0.89
   5  -8  -4    2.60    0.53
  -5   8   4    3.23    1.04
   4  -8  -4   74.38    3.08
  -4   8   4   76.69    3.82
   3  -8  -4    8.19    0.72
  -3   8   4    8.82    1.28
   2  -8  -4   23.55    1.22
  -2   8   4   24.47    1.82
   1  -8  -4   12.73    0.82
  -1   8   4   15.62    1.36
   0  -8  -4   59.66    2.42
   0   8   4   59.04    2.88
  -1  -8  -4   11.49    0.76
   1   8   4    9.38    1.10
  -2  -8  -4    6.83    0.67
   2   8   4    7.52    0.47
   2   8   4    6.27    0.90
  -3  -8  -4    7.44    0.74
   3   8   4    6.86    0.86
   3   8   4    8.38    0.56
  -4  -8  -4    3.28    0.57
   4   8   4    3.43    0.45
   4   8   4    1.93    0.53
  -5  -8  -4   63.83    2.84
   5   8   4   71.02    2.75
   5   8   4   66.35    2.86
  -6  -8  -4   17.86    1.20
   6   8   4   17.60    1.08
   6   8   4   19.93    1.17
  -7  -8  -4  184.21    6.73
   7   8   4  168.93    6.48
   7   8   4  175.39    6.58
  -8  -8  -4   25.28    1.51
   8   8   4   25.47    1.44
  -9  -8  -4    0.33    0.47
   9   8   4    0.73    0.44
 -10  -8  -4    1.76    0.62
  10   8   4    1.63    0.56
 -11  -8  -4    1.32    0.61
  11   8   4    1.79    0.59
 -12  -8  -4    4.66    0.86
  12   8   4    7.31    1.01
 -13  -8  -4    0.49    0.58
  13   8   4    0.48    0.62
 -14  -8  -4    8.68    1.19
  14   8   4   14.25    1.39
   7  -9  -4   -0.12    0.42
  -7   9   4   -0.66    0.89
   6  -9  -4    0.36    0.43
  -6   9   4    0.28    0.91
   5  -9  -4    6.25    0.80
  -5   9   4    6.42    1.31
   4  -9  -4    0.10    0.38
  -4   9   4    0.03    0.77
   3  -9  -4    0.35    0.38
  -3   9   4    0.40    0.78
   2  -9  -4    0.50    0.36
  -2   9   4   -0.20    0.64
   1  -9  -4    1.20    0.37
  -1   9   4    0.31    0.64
   0  -9  -4   31.29    1.52
   0   9   4   33.58    2.08
  -1  -9  -4    1.47    0.42
   1   9   4   -0.05    0.51
  -2  -9  -4   24.97    1.32
   2   9   4   26.84    1.66
  -3  -9  -4   43.45    2.06
   3   9   4   44.97    2.30
   3   9   4   49.39    1.91
  -4  -9  -4    4.09    0.65
   4   9   4    4.46    0.53
   4   9   4    5.19    0.79
  -5  -9  -4   87.34    3.62
   5   9   4   91.02    3.48
   5   9   4   85.26    3.64
  -6  -9  -4   11.08    1.05
   6   9   4    9.95    0.77
   6   9   4    8.83    0.88
  -7  -9  -4    0.75    0.48
   7   9   4    0.93    0.40
   7   9   4    1.45    0.45
  -8  -9  -4   21.87    1.47
   8   9   4   22.41    1.35
  -9  -9  -4    3.87    0.74
   9   9   4    3.40    0.66
 -10  -9  -4    6.24    0.92
  10   9   4    6.68    0.87
 -11  -9  -4    8.02    1.02
  11   9   4    8.30    1.01
 -12  -9  -4    0.87    0.56
  12   9   4    2.20    0.68
 -13  -9  -4    0.36    0.61
  13   9   4    0.69    0.61
 -14  -9  -4    2.50    0.80
  14   9   4    3.28    0.82
   6 -10  -4    4.13    0.72
  -6  10   4    2.80    1.18
   5 -10  -4    0.19    0.43
  -5  10   4    0.27    0.89
   4 -10  -4    0.36    0.44
  -4  10   4    0.37    0.90
   3 -10  -4    0.19    0.40
  -3  10   4   -0.33    0.79
   2 -10  -4   16.98    1.09
  -2  10   4   18.57    1.80
   1 -10  -4    5.03    0.67
  -1  10   4    4.05    0.95
   0 -10  -4   72.81    3.02
   0  10   4   74.08    3.63
  -1 -10  -4    0.68    0.38
   1  10   4    0.89    0.60
  -2 -10  -4   14.61    1.03
   2  10   4   15.38    1.35
  -3 -10  -4    0.29    0.42
   3  10   4    0.43    0.51
  -4 -10  -4   45.89    2.18
   4  10   4   45.18    2.29
  -5 -10  -4    5.64    0.79
   5  10   4    6.56    0.67
   5  10   4    5.59    0.82
  -6 -10  -4    3.68    0.69
   6  10   4    4.57    0.62
   6  10   4    5.24    0.74
  -7 -10  -4    4.74    0.80
   7  10   4    6.81    0.76
  -8 -10  -4   43.62    2.22
   8  10   4   43.78    2.09
  -9 -10  -4   18.43    1.37
   9  10   4   17.33    1.24
 -10 -10  -4   17.18    1.41
  10  10   4   14.14    1.14
 -11 -10  -4    5.94    0.95
  11  10   4    8.71    1.03
 -12 -10  -4   15.69    1.37
  12  10   4   14.77    1.29
 -13 -10  -4    0.51    0.59
  13  10   4    0.42    0.59
 -14 -10  -4   -0.22    0.55
  14  10   4    0.07    0.60
   5 -11  -4    0.22    0.45
  -5  11   4   -0.55    0.87
   4 -11  -4    5.31    0.77
  -4  11   4    3.47    1.26
   3 -11  -4    0.33    0.48
  -3  11   4    0.86    0.98
   2 -11  -4   10.71    0.98
  -2  11   4    9.03    1.55
   1 -11  -4    4.68    0.72
  -1  11   4    3.09    1.02
   0 -11  -4    3.29    0.61
   0  11   4    4.36    1.01
  -1 -11  -4   11.87    0.99
   1  11   4    9.87    1.36
  -2 -11  -4    2.51    0.55
   2  11   4    2.33    0.80
  -3 -11  -4    0.48    0.50
   3  11   4   -0.15    0.56
  -4 -11  -4   33.58    1.82
   4  11   4   31.16    1.86
  -5 -11  -4    8.06    0.95
   5  11   4    6.91    0.94
  -6 -11  -4    1.97    0.59
   6  11   4    3.08    0.52
   6  11   4    2.84    0.64
  -7 -11  -4   57.16    2.76
   7  11   4   58.71    2.57
  -8 -11  -4    2.85    0.71
   8  11   4    2.56    0.57
  -9 -11  -4    2.66    0.68
   9  11   4    3.32    0.63
  10  11   4    0.99    0.53
 -11 -11  -4    2.89    0.76
  11  11   4    3.86    0.73
 -12 -11  -4   -0.83    0.54
  12  11   4   -0.72    0.45
 -13 -11  -4    1.71    0.68
  13  11   4    2.06    0.70
 -14 -11  -4    2.98    0.94
  -3  12   4   14.92    1.97
   2 -12  -4    3.28    0.65
  -2  12   4    1.60    1.00
   1 -12  -4    2.63    0.61
  -1  12   4    1.67    1.00
   0 -12  -4    0.74    0.52
   0  12   4    1.31    0.87
  -1 -12  -4   18.60    1.30
   1  12   4   18.92    1.77
  -2 -12  -4    3.31    0.68
   2  12   4    2.01    0.86
  -3 -12  -4   29.64    1.70
   3  12   4   28.77    1.99
  -4 -12  -4   -0.02    0.52
   4  12   4    0.60    0.59
  -5 -12  -4   51.26    2.46
   5  12   4   48.11    2.54
  -6 -12  -4    0.44    0.51
   6  12   4    0.25    0.46
  -7 -12  -4   11.67    1.21
  -8 -12  -4    1.29    0.63
   8  12   4    0.72    0.46
  -9 -12  -4   11.08    1.20
   9  12   4   10.97    1.01
 -10 -12  -4    8.41    1.14
  10  12   4    7.85    0.94
 -11 -12  -4    7.30    1.06
  11  12   4    7.58    0.95
 -12 -12  -4   17.63    1.54
  12  12   4   17.32    1.41
 -13 -12  -4    2.02    0.74
  13  12   4    2.95    0.75
   2 -13  -4    1.32    0.61
  -2  13   4    2.16    1.08
   1 -13  -4    0.46    0.55
  -1  13   4   -1.87    0.76
   0 -13  -4   22.15    1.50
   0  13   4   20.92    2.04
  -1 -13  -4    1.44    0.62
   1  13   4    1.26    0.92
  -2 -13  -4    3.27    0.75
   2  13   4    2.20    0.91
  -3 -13  -4    8.50    1.07
   3  13   4    7.98    1.22
  -4 -13  -4    2.37    0.72
   4  13   4    2.48    0.83
  -5 -13  -4    3.20    0.79
   5  13   4    3.95    0.85
  -6 -13  -4    0.14    0.55
   6  13   4    0.13    0.52
  -7 -13  -4    0.57    0.60
  -8 -13  -4    4.18    0.85
  -9 -13  -4    0.37    0.61
 -10 -13  -4    5.35    0.97
  10  13   4    5.64    0.80
 -11 -13  -4    8.39    1.12
  11  13   4    7.27    0.92
 -12 -13  -4    2.36    0.74
  12  13   4    1.57    0.63
   0 -14  -4    9.13    1.11
   0  14   4    6.30    1.43
  -1 -14  -4    0.72    0.65
   1  14   4   -0.50    0.82
  -2 -14  -4   19.57    1.55
   2  14   4   18.99    1.85
  -3 -14  -4    0.69    0.66
   3  14   4    0.68    0.75
  -4 -14  -4    0.98    0.65
   4  14   4    0.45    0.74
  -5 -14  -4    6.94    1.05
   5  14   4    5.44    1.02
  -6 -14  -4    0.89    0.62
  -7 -14  -4   17.99    1.53
  -8 -14  -4    2.05    0.75
  -9 -14  -4   25.86    1.78
 -10 -14  -4    1.60    0.73
 -11 -14  -4   -0.43    0.57
  -2 -15  -4   -0.28    0.66
   2  15   4   -0.04    0.81
  -3 -15  -4    4.78    0.97
   3  15   4    2.73    1.01
  -4 -15  -4    1.95    0.80
   4  15   4    1.32    0.82
  -5 -15  -4    2.50    0.79
   5  15   4    1.52    0.79
  -6 -15  -4    5.99    0.98
  -7 -15  -4    0.11    0.63
  -8 -15  -4    3.26    0.82
  -9 -15  -4    0.49    0.62
 -10 -15  -4    0.83    0.73
   8  14  -5    4.25    0.83
   7  14  -5    4.85    0.86
   6  14  -5    0.76    0.60
   4  14  -5    0.15    0.76
   3  14  -5    0.13    0.70
   2  14  -5   -0.53    0.72
   1  14  -5    7.03    1.32
  10  13  -5    0.96    0.61
 -10 -13   5    0.22    0.48
   9  13  -5    3.41    0.74
  -9 -13   5    2.06    0.61
   8  13  -5    1.52    0.61
  -8 -13   5    0.16    0.46
   7  13  -5   20.45    1.51
   6  13  -5   17.91    1.42
   5  13  -5   33.27    1.98
   4  13  -5    1.73    0.73
  -4 -13   5    1.97    0.73
   3  13  -5   13.47    1.53
   2  13  -5    0.78    0.77
   1  13  -5   13.53    1.67
   0  13  -5    0.55    0.90
  -1  13  -5   13.18    1.78
  -2  13  -5    3.95    1.39
  11  12  -5    0.71    0.60
 -11 -12   5    0.13    0.46
  10  12  -5    2.02    0.65
 -10 -12   5    0.09    0.51
   9  12  -5    1.21    0.60
  -9 -12   5    1.53    0.58
   8  12  -5   18.22    1.40
  -8 -12   5   16.81    1.30
   7  12  -5    2.16    0.63
  -7 -12   5    1.08    0.51
   6  12  -5    0.32    0.49
  -6 -12   5   -0.30    0.35
   5  12  -5   20.50    1.43
  -5 -12   5   16.20    1.38
   4  12  -5    9.10    1.13
  -4 -12   5    8.89    1.09
   3  12  -5    0.92    0.62
  -3 -12   5    1.07    0.56
   2  12  -5    0.33    0.59
  -2 -12   5   -0.08    0.46
   1  12  -5    3.50    0.90
   0  12  -5    0.85    0.83
  -1  12  -5   -0.13    0.85
  -2  12  -5    7.17    1.39
  -3  12  -5    0.93    1.07
  12  11  -5    5.45    0.96
 -12 -11   5    4.03    0.79
  11  11  -5    0.44    0.56
 -11 -11   5   -0.30    0.42
  10  11  -5    7.07    1.02
 -10 -11   5    9.87    1.09
   9  11  -5    2.83    0.69
  -9 -11   5    2.58    0.64
   8  11  -5   24.73    1.58
  -8 -11   5   22.67    1.44
   7  11  -5    1.93    0.57
  -7 -11   5    2.35    0.58
   6  11  -5   24.59    1.58
  -6 -11   5   26.33    1.50
   5  11  -5    2.24    0.57
  -5 -11   5    1.82    0.55
  -5 -11   5    2.34    0.70
   4  11  -5   13.50    1.15
  -4 -11   5   14.01    1.20
  -4 -11   5   12.74    0.99
   3  11  -5    6.35    0.96
  -3 -11   5    6.39    0.88
  -3 -11   5    5.69    1.03
   2  11  -5   13.32    1.35
  -2 -11   5   12.99    1.09
   1  11  -5   34.39    2.11
  -1 -11   5   30.03    1.72
   0  11  -5    0.25    0.69
   0 -11   5   -0.16    0.41
  -1  11  -5    8.92    1.28
  -2  11  -5   -0.15    0.74
  -3  11  -5    0.94    1.01
  -4  11  -5    4.16    1.30
  -5  11  -5    7.25    1.52
  12  10  -5    1.77    0.71
 -12 -10   5    1.07    0.57
  11  10  -5    2.03    0.69
 -11 -10   5    2.87    0.70
  10  10  -5    2.34    0.67
 -10 -10   5    1.83    0.63
   9  10  -5    3.43    0.76
  -9 -10   5    3.42    0.67
   8  10  -5   17.77    1.27
  -8 -10   5   16.65    1.22
   7  10  -5   12.03    1.06
  -7 -10   5   11.76    1.01
   6  10  -5   13.48    1.07
  -6 -10   5   13.08    1.02
   5  10  -5   44.98    2.13
  -5 -10   5   44.89    2.30
  -5 -10   5   43.85    2.11
   4  10  -5    2.96    0.62
  -4 -10   5    2.66    0.64
  -4 -10   5    2.93    0.56
   3  10  -5    1.86    0.57
  -3 -10   5    1.27    0.50
  -3 -10   5    1.70    0.46
   2  10  -5   48.24    2.44
  -2 -10   5   49.51    2.32
  -2 -10   5   49.13    2.18
   1  10  -5    1.88    0.67
  -1 -10   5    1.13    0.46
   0  10  -5    5.42    0.97
   0 -10   5    5.82    0.75
  -1  10  -5    7.49    1.19
   1 -10   5    8.51    0.89
  -2  10  -5    9.74    1.36
  -3  10  -5    2.08    0.92
  -4  10  -5    2.09    1.04
  -5  10  -5    1.31    1.08
  -6  10  -5   -0.90    0.96
 -13  -9   5    1.67    0.64
  12   9  -5    1.63    0.76
 -12  -9   5    0.90    0.59
  11   9  -5    6.33    1.01
 -11  -9   5    5.35    0.86
  10   9  -5    2.73    0.71
 -10  -9   5    2.34    0.63
   9   9  -5    9.23    1.05
  -9  -9   5    7.48    0.91
   8   9  -5   31.15    1.74
  -8  -9   5   29.42    1.66
   7   9  -5    0.27    0.37
  -7  -9   5    0.26    0.43
   6   9  -5   25.06    1.48
  -6  -9   5   26.54    1.45
   5   9  -5    0.50    0.37
  -5  -9   5    1.52    0.45
  -5  -9   5    1.42    0.53
   4   9  -5   51.21    2.34
  -4  -9   5   52.10    2.44
  -4  -9   5   53.71    2.33
   3   9  -5    0.82    0.44
  -3  -9   5    0.66    0.35
  -3  -9   5    0.70    0.44
   2   9  -5   63.62    2.87
  -2  -9   5   64.90    2.77
  -2  -9   5   61.21    2.62
   1   9  -5   11.35    1.08
  -1  -9   5    8.23    0.72
  -1  -9   5    9.92    0.89
   0   9  -5    4.26    0.79
   0  -9   5    6.00    0.62
   0  -9   5    4.85    0.66
  -1   9  -5    2.29    0.77
   1  -9   5    3.73    0.61
  -2   9  -5   28.47    1.93
   2  -9   5   26.10    1.45
  -3   9  -5   30.78    2.12
   3  -9   5   29.33    1.60
  -4   9  -5    7.14    1.30
  -5   9  -5    0.66    0.84
  -6   9  -5    1.28    1.03
  -7   9  -5    1.06    1.12
 -13  -8   5    6.03    0.97
  12   8  -5    3.57    0.90
 -12  -8   5    3.22    0.73
  11   8  -5    0.33    0.59
 -11  -8   5    0.57    0.50
  10   8  -5    0.09    0.46
 -10  -8   5    0.36    0.45
   9   8  -5    5.50    0.88
  -9  -8   5    6.42    0.85
   8   8  -5    4.44    0.71
  -8  -8   5    4.04    0.68
   7   8  -5   17.90    1.17
  -7  -8   5   14.97    1.08
   6   8  -5    5.30    0.71
  -6  -8   5    4.66    0.66
   5   8  -5   75.55    3.08
  -5  -8   5   77.60    3.36
  -5  -8   5   78.56    3.17
   4   8  -5    3.74    0.55
  -4  -8   5    2.79    0.58
  -4  -8   5    3.89    0.57
   3   8  -5   22.11    1.28
  -3  -8   5   21.83    1.19
  -3  -8   5   24.16    1.39
   2   8  -5   56.27    2.44
  -2  -8   5   51.15    2.35
  -2  -8   5   52.73    2.24
   1   8  -5    7.38    0.88
  -1  -8   5    7.32    0.65
  -1  -8   5    8.47    0.78
   0   8  -5   15.00    1.24
   0  -8   5   14.79    0.89
   0  -8   5   15.95    1.04
  -1   8  -5    1.29    0.58
   1  -8   5    0.81    0.37
   1  -8   5    1.34    0.33
  -2   8  -5   27.67    1.81
   2  -8   5   26.84    1.42
  -3   8  -5    3.34    0.84
   3  -8   5    4.13    0.62
  -4   8  -5    1.47    0.80
   4  -8   5    1.11    0.46
  -5   8  -5    2.11    0.90
   5  -8   5    1.51    0.49
  -6   8  -5    5.65    1.21
  -7   8  -5    0.79    0.94
  -8   8  -5    4.30    1.27
  13   7  -5    9.05    1.20
 -13  -7   5    6.88    1.01
  12   7  -5    2.74    0.83
 -12  -7   5    1.78    0.64
  11   7  -5   23.81    1.69
 -11  -7   5   22.17    1.49
  10   7  -5    0.82    0.55
 -10  -7   5   -0.22    0.41
   9   7  -5   14.62    1.20
  -9  -7   5   15.04    1.10
   8   7  -5    1.69    0.49
  -8  -7   5    1.14    0.44
   7   7  -5   18.08    1.22
  -7  -7   5   19.44    1.16
   6   7  -5    0.56    0.35
  -6  -7   5    0.94    0.37
   5   7  -5  117.62    4.37
  -5  -7   5  118.27    4.71
  -5  -7   5  114.30    4.48
   4   7  -5   60.18    2.47
  -4  -7   5   62.10    2.67
  -4  -7   5   59.32    2.50
   3   7  -5   47.61    2.07
  -3  -7   5   47.45    2.02
  -3  -7   5   46.23    2.17
   2   7  -5   27.00    1.43
  -2  -7   5   26.67    1.43
  -2  -7   5   27.07    1.30
   1   7  -5   47.13    2.16
  -1  -7   5   46.24    1.95
  -1  -7   5   47.40    2.09
   0   7  -5   16.38    1.15
   0  -7   5   15.86    0.88
   0  -7   5   17.56    1.03
  -1   7  -5  103.29    4.15
   1  -7   5   96.13    3.86
   1  -7   5   97.92    3.66
  -2   7  -5    0.15    0.47
   2  -7   5    0.40    0.21
   2  -7   5    0.47    0.34
  -3   7  -5   18.37    1.40
   3  -7   5   16.00    0.83
   3  -7   5   16.76    1.05
  -4   7  -5    1.03    0.64
   4  -7   5    0.58    0.38
  -5   7  -5   15.06    1.49
   5  -7   5   14.08    1.08
  -6   7  -5   18.91    1.77
   6  -7   5   19.16    1.27
  -7   7  -5   10.51    1.47
  -8   7  -5    1.44    1.01
  -9   7  -5   -0.52    0.95
  13   6  -5    3.09    0.81
 -13  -6   5    0.32    0.51
  12   6  -5    4.87    0.94
 -12  -6   5    4.70    0.82
  11   6  -5    1.72    0.71
 -11  -6   5    1.02    0.52
  10   6  -5    6.96    1.03
 -10  -6   5    6.74    0.85
   9   6  -5   29.02    1.77
  -9  -6   5   26.43    1.52
   8   6  -5    0.03    0.35
  -8  -6   5    0.29    0.38
   7   6  -5   13.15    1.03
  -7  -6   5   12.83    0.94
   6   6  -5    5.40    0.70
  -6  -6   5    6.28    0.66
   5   6  -5   34.16    1.41
  -5  -6   5   30.47    1.51
   4   6  -5    4.62    0.49
  -4  -6   5    4.76    0.67
  -4  -6   5    4.80    0.55
   3   6  -5  106.46    4.12
  -3  -6   5  108.43    4.27
  -3  -6   5  111.74    4.11
   2   6  -5   46.43    2.04
  -2  -6   5   50.22    1.96
  -2  -6   5   44.95    2.07
   1   6  -5    4.84    0.61
  -1  -6   5    5.10    0.50
  -1  -6   5    5.05    0.59
   0   6  -5   13.79    0.99
   0  -6   5   14.22    0.74
   0  -6   5   13.07    0.87
  -1   6  -5    5.22    0.71
   1  -6   5    6.91    0.61
   1  -6   5    6.15    0.45
  -2   6  -5   11.79    1.01
   2  -6   5   11.36    0.82
   2  -6   5   12.26    0.62
  -3   6  -5    5.47    0.82
   3  -6   5    5.42    0.41
   3  -6   5    5.34    0.63
  -4   6  -5    4.48    0.81
   4  -6   5    2.63    0.49
   4  -6   5    3.66    0.37
  -5   6  -5    0.79    0.60
   5  -6   5    0.92    0.30
   5  -6   5    0.65    0.40
  -6   6  -5   13.74    1.42
   6  -6   5   13.87    1.04
  -7   6  -5    5.68    1.11
   7  -6   5    4.24    0.69
  -8   6  -5    0.53    0.85
   8  -6   5    1.56    0.59
  -9   6  -5    7.20    1.37
  13   5  -5    0.74    0.66
 -13  -5   5    0.44    0.53
  12   5  -5   15.76    1.38
 -12  -5   5    9.23    1.10
  11   5  -5   18.92    1.54
 -11  -5   5   14.81    1.24
  10   5  -5   11.88    1.27
 -10  -5   5   10.45    0.98
   9   5  -5    0.44    0.49
  -9  -5   5    0.39    0.40
   8   5  -5   47.98    2.30
  -8  -5   5   44.68    2.12
   7   5  -5   17.38    1.17
  -7  -5   5   17.55    1.09
   6   5  -5   36.50    1.80
  -6  -5   5   35.35    1.66
   5   5  -5   66.33    2.44
   5   5  -5   63.06    2.74
  -5  -5   5   64.35    2.84
  -5  -5   5   64.49    2.61
   4   5  -5   18.62    0.90
  -4  -5   5   18.53    1.16
  -4  -5   5   19.75    1.01
   3   5  -5    5.88    0.49
  -3  -5   5    5.06    0.62
  -3  -5   5    6.13    0.50
   2   5  -5  237.97    8.63
  -2  -5   5  239.62    8.73
  -2  -5   5  243.42    8.56
   1   5  -5  127.53    4.94
  -1  -5   5  128.85    4.95
  -1  -5   5  139.91    4.82
   0   5  -5   66.50    2.70
   0  -5   5   65.95    2.49
   0  -5   5   65.85    2.66
  -1   5  -5    9.64    0.79
   1  -5   5   10.03    0.51
   1  -5   5    8.72    0.66
  -2   5  -5   15.32    1.07
   2  -5   5   14.87    0.90
   2  -5   5   16.19    0.69
  -3   5  -5   52.75    2.52
   3  -5   5   57.79    2.08
   3  -5   5   54.54    2.30
  -4   5  -5   26.01    1.60
   4  -5   5   26.74    1.11
   4  -5   5   26.35    1.35
  -5   5  -5   10.51    1.08
   5  -5   5   10.42    0.85
   5  -5   5   11.23    0.61
  -6   5  -5    3.34    0.80
   6  -5   5    2.82    0.36
   6  -5   5    2.67    0.54
  -7   5  -5    0.99    0.68
   7  -5   5    1.93    0.54
  -8   5  -5   27.96    1.97
   8  -5   5   25.21    1.58
  -9   5  -5   -0.86    0.71
   9  -5   5    0.28    0.52
  13   4  -5    2.74    0.82
 -13  -4   5    2.48    0.69
  12   4  -5    0.74    0.61
 -12  -4   5    0.24    0.51
  11   4  -5   -0.02    0.55
 -11  -4   5    0.39    0.45
  10   4  -5   23.16    1.57
 -10  -4   5   20.81    1.36
   9   4  -5    9.09    1.07
  -9  -4   5    8.66    0.91
   8   4  -5    5.42    0.79
  -8  -4   5    4.98    0.64
   7   4  -5   26.95    1.53
  -7  -4   5   25.76    1.37
   6   4  -5    3.72    0.61
   6   4  -5    3.88    0.29
  -6  -4   5    2.91    0.45
   5   4  -5   83.96    3.04
   5   4  -5   82.61    3.40
  -5  -4   5   83.82    3.24
   4   4  -5    1.59    0.25
  -4  -4   5    1.82    0.32
  -4  -4   5    1.91    0.45
   3   4  -5    0.56    0.19
  -3  -4   5    0.13    0.28
  -3  -4   5    0.27    0.19
   2   4  -5   50.84    2.07
  -2  -4   5   54.09    2.02
  -2  -4   5   51.42    2.18
   1   4  -5    6.05    0.50
  -1  -4   5    6.18    0.41
  -1  -4   5    6.79    0.58
   0   4  -5   52.40    2.19
   0  -4   5   51.05    2.16
   0  -4   5   56.66    2.02
  -1   4  -5   23.49    1.21
   1  -4   5   24.40    1.14
   1  -4   5   22.79    0.93
  -2   4  -5   19.82    1.10
   2  -4   5   19.19    0.78
   2  -4   5   20.52    1.01
   3  -4   5   53.13    2.23
   3  -4   5   55.63    2.01
  -4   4  -5   27.38    1.52
   4  -4   5   27.22    1.11
   4  -4   5   28.53    1.38
  -5   4  -5    1.05    0.50
   5  -4   5    2.45    0.28
   5  -4   5    1.49    0.39
  -6   4  -5    4.06    0.78
   6  -4   5    4.56    0.43
   6  -4   5    4.39    0.63
  -7   4  -5    5.21    0.92
   7  -4   5    5.24    0.49
   7  -4   5    4.08    0.66
  -8   4  -5    4.77    1.00
   8  -4   5    5.60    0.79
   8  -4   5    4.82    0.52
  -9   4  -5    7.00    1.13
   9  -4   5    6.54    0.92
  10  -4   5    3.54    0.83
  11  -4   5   -0.39    0.71
  13   3  -5    0.57    0.67
 -13  -3   5    0.11    0.49
  12   3  -5    6.03    1.04
 -12  -3   5    6.94    0.93
  11   3  -5    1.53    0.67
 -11  -3   5    0.37    0.43
  10   3  -5   10.37    1.25
 -10  -3   5   10.55    1.06
   9   3  -5   51.41    2.66
  -9  -3   5   56.17    2.45
   8   3  -5   25.85    1.65
  -8  -3   5   29.08    1.49
   7   3  -5   22.52    1.38
  -7  -3   5   21.87    1.22
   6   3  -5   31.86    1.18
   6   3  -5   28.14    1.58
  -6  -3   5   30.37    1.45
   5   3  -5    0.85    0.16
   5   3  -5    0.39    0.29
  -5  -3   5    1.09    0.29
   4   3  -5  186.42    6.52
  -4  -3   5  181.65    6.82
  -4  -3   5  183.33    6.64
   3   3  -5    1.23    0.21
  -3  -3   5    0.86    0.23
  -3  -3   5    1.33    0.35
   2   3  -5   53.25    2.07
  -2  -3   5   54.96    2.04
  -2  -3   5   52.81    2.20
   1   3  -5  201.14    7.23
  -1  -3   5  191.99    7.28
  -1  -3   5  212.12    7.11
   0   3  -5  122.93    4.59
   0  -3   5  117.33    4.57
   0  -3   5  132.06    4.39
  -1   3  -5  177.01    6.26
   1  -3   5  168.11    6.00
   1  -3   5  169.85    6.20
  -2   3  -5  210.56    7.53
   2  -3   5  201.03    7.42
   2  -3   5  209.15    7.21
  -3   3  -5   95.33    3.72
   3  -3   5   91.98    3.60
   3  -3   5   97.80    3.38
  -4   3  -5   13.73    0.93
   4  -3   5   13.25    0.83
  -5   3  -5   50.24    2.35
  -5   3  -5   51.77    2.03
   5  -3   5   53.84    2.26
  -6   3  -5    2.67    0.58
  -6   3  -5    3.10    0.40
   6  -3   5    2.08    0.49
  -7   3  -5    7.45    0.62
  -7   3  -5    8.72    1.00
   7  -3   5    7.29    0.81
  -8   3  -5    5.57    0.90
  -8   3  -5    4.17    0.56
   8  -3   5    3.60    0.69
  -9   3  -5   10.16    0.90
  -9   3  -5   11.22    1.25
   9  -3   5   12.17    1.16
  10  -3   5    6.74    1.01
  11  -3   5    4.81    0.95
  12  -3   5    2.39    0.92
  13   2  -5    1.05    0.77
 -13  -2   5    0.16    0.55
  12   2  -5    1.54    0.76
 -12  -2   5    1.95    0.66
  11   2  -5    0.57    0.62
 -11  -2   5   -0.45    0.40
  10   2  -5    0.50    0.57
 -10  -2   5   -0.10    0.39
   9   2  -5    1.03    0.54
  -9  -2   5    0.88    0.41
   8   2  -5    3.73    0.74
  -8  -2   5    4.51    0.61
   7   2  -5    9.75    0.92
  -7  -2   5    9.83    0.80
   6   2  -5   11.77    0.94
  -6  -2   5   11.08    0.78
  -6  -2   5   11.61    0.67
   5   2  -5    3.45    0.54
  -5  -2   5    4.09    0.42
  -5  -2   5    3.25    0.44
   4   2  -5   36.14    1.67
  -4  -2   5   35.89    1.51
  -4  -2   5   35.52    1.51
   3   2  -5   82.38    3.06
  -3  -2   5   84.74    3.25
  -3  -2   5   82.08    3.09
   2   2  -5   53.15    2.05
  -2  -2   5   52.71    2.16
  -2  -2   5   54.69    2.02
   1   2  -5   34.17    1.42
  -1  -2   5   35.92    1.33
  -1  -2   5   35.21    1.50
   0   2  -5   32.14    1.41
   0  -2   5   34.26    1.44
   0  -2   5   36.23    1.25
  -1   2  -5  101.72    3.70
   1  -2   5   96.60    3.66
  -2   2  -5  188.17    6.74
   2  -2   5  183.12    6.68
   2  -2   5  187.82    6.47
  -3   2  -5    0.69    0.13
  -3   2  -5    0.24    0.23
   3  -2   5    0.31    0.21
  -4   2  -5    1.05    0.20
  -4   2  -5    0.51    0.32
   4  -2   5    1.21    0.33
  -5   2  -5   42.64    1.95
  -5   2  -5   42.64    1.71
   5  -2   5   43.73    1.90
  -6   2  -5    8.11    0.77
  -6   2  -5    8.76    0.60
   6  -2   5    8.14    0.79
  -7   2  -5    0.97    0.47
  -7   2  -5    0.79    0.28
   7  -2   5    0.32    0.41
  -8   2  -5    0.36    0.49
  -8   2  -5    0.75    0.32
   8  -2   5    0.40    0.44
  -9   2  -5    2.22    0.49
  -9   2  -5    1.55    0.62
   9  -2   5    2.88    0.69
 -10   2  -5   16.74    1.22
  10  -2   5   18.29    1.43
  11  -2   5    4.42    0.97
  12  -2   5    0.59    0.82
  12   1  -5    3.42    0.95
 -12  -1   5    3.14    0.71
  11   1  -5    9.56    1.28
 -11  -1   5    9.03    1.03
  10   1  -5    1.27    0.67
 -10  -1   5    1.12    0.49
   9   1  -5    2.85    0.74
  -9  -1   5    2.26    0.54
   8   1  -5   51.11    2.48
  -8  -1   5   46.65    2.19
   7   1  -5   74.80    3.33
  -7  -1   5   77.70    3.33
  -7  -1   5   75.02    3.07
   6   1  -5   50.61    2.36
  -6  -1   5   51.62    2.17
  -6  -1   5   50.42    2.09
   5   1  -5  262.06    9.67
  -5  -1   5  263.82    9.48
  -5  -1   5  269.62    9.50
   4   1  -5    6.71    0.60
  -4  -1   5    6.05    0.60
  -4  -1   5    5.97    0.49
  -3  -1   5  117.04    4.25
  -3  -1   5  117.46    4.39
  -3  -1   5  114.99    4.36
  -2  -1   5   67.74    2.73
  -2  -1   5   71.18    2.55
  -2  -1   5   67.34    2.66
  -1  -1   5   35.93    1.35
  -1  -1   5   36.29    1.60
  -1  -1   5   35.43    1.48
   0   1  -5    3.92    0.35
   0  -1   5    4.43    0.22
   0  -1   5    3.73    0.35
  -1   1  -5   26.12    1.12
   1  -1   5   26.26    1.11
  -2   1  -5   23.25    1.06
  -2   1  -5   23.75    0.85
   2  -1   5   23.00    1.04
  -3   1  -5   62.02    2.19
  -3   1  -5   59.66    2.37
   3  -1   5   59.50    2.36
  -4   1  -5   17.06    0.76
  -4   1  -5   17.38    0.92
   4  -1   5   17.43    0.92
  -5   1  -5  175.47    6.20
  -5   1  -5  170.11    6.36
   5  -1   5  173.07    6.37
  -6   1  -5   26.83    1.35
  -6   1  -5   26.13    1.18
   6  -1   5   24.72    1.36
  -7   1  -5   54.03    2.31
  -7   1  -5   51.15    2.13
   7  -1   5   49.64    2.32
  -8   1  -5   12.83    1.02
  -8   1  -5   12.27    0.85
   8  -1   5   12.63    1.07
  -9   1  -5    7.94    0.90
  -9   1  -5    6.99    0.76
   9  -1   5    9.42    1.06
 -10   1  -5    4.02    0.65
  10  -1   5    2.42    0.75
 -11   1  -5    0.01    0.41
  11  -1   5    0.85    0.69
  12  -1   5    4.43    1.10
  13  -1   5   10.89    1.53
 -12   0   5    0.38    0.48
  11   0  -5   -0.45    0.64
 -11   0   5   -0.38    0.42
  10   0  -5    1.15    0.73
 -10   0   5    2.64    0.61
   9   0  -5    2.32    0.77
  -9   0   5    1.61    0.51
   8   0  -5    4.27    0.80
  -8   0   5    2.79    0.54
   7   0  -5    8.18    1.01
  -7   0   5    6.71    0.70
  -7   0   5    8.33    0.77
   6   0  -5   17.33    1.26
  -6   0   5   21.64    1.15
  -6   0   5   18.99    1.06
   5   0  -5   29.44    1.58
  -5   0   5   30.93    1.48
   4   0  -5   55.54    2.45
  -4   0   5   61.87    2.46
   3   0  -5    1.09    0.28
  -3   0   5    1.01    0.33
  -3   0   5    1.53    0.24
  -2   0   5   62.43    2.42
  -2   0   5   62.51    2.58
  -2   0   5   62.80    2.35
  -1   0   5  219.58    7.66
  -1   0   5  218.23    7.73
  -1   0   5  215.80    7.98
   0   0   5   31.55    1.29
   0   0   5   32.19    1.21
   0   0   5   33.95    1.56
  -1   0  -5   13.31    0.51
   1   0   5   14.25    0.84
   1   0   5   12.61    0.62
  -2   0  -5   89.89    3.07
  -2   0  -5   83.55    3.20
   2   0   5   84.60    3.16
  -3   0  -5   78.89    2.78
  -3   0  -5   74.37    2.90
   3   0   5   77.08    2.90
  -4   0  -5   13.27    0.66
  -4   0  -5   13.68    0.75
   4   0   5   14.70    0.82
  -5   0  -5   18.94    0.99
  -5   0  -5   21.29    0.93
   5   0   5   19.06    1.07
  -6   0  -5   89.20    3.27
  -6   0  -5   82.61    3.31
   6   0   5   85.50    3.42
  -7   0  -5   58.73    2.30
  -7   0  -5   54.96    2.34
   7   0   5   51.58    2.42
  -8   0  -5    1.72    0.44
  -8   0  -5    0.80    0.35
   8   0   5    1.52    0.56
  -9   0  -5    5.94    0.70
  -9   0  -5    6.75    0.76
   9   0   5    6.08    0.89
 -10   0  -5    0.66    0.41
  10   0   5   -0.04    0.57
 -11   0  -5    1.88    0.53
  11   0   5    2.93    0.87
 -12   0  -5    0.58    0.49
  12   0   5   -0.92    0.60
 -13   0  -5    0.27    0.68
  13   0   5   -0.70    0.75
 -12   1   5    8.14    1.03
 -11   1   5   -0.18    0.43
  10  -1  -5   13.08    1.38
 -10   1   5   11.83    1.07
   9  -1  -5    8.11    1.13
  -9   1   5    8.51    0.90
   8  -1  -5   14.82    1.28
  -8   1   5   14.96    1.03
   7  -1  -5    2.11    0.58
  -7   1   5    2.16    0.58
  -7   1   5    3.09    0.53
   6  -1  -5    2.61    0.59
  -6   1   5    2.29    0.44
  -6   1   5    3.69    0.65
   5  -1  -5    0.82    0.41
  -5   1   5    0.21    0.25
  -5   1   5    1.63    0.49
   4  -1  -5   34.31    1.70
  -4   1   5   37.05    1.76
  -4   1   5   34.99    1.52
   3  -1  -5   18.35    1.00
  -3   1   5   19.09    0.90
  -3   1   5   18.19    1.14
   2  -1  -5  343.29   12.14
  -2   1   5  342.95   12.35
  -2   1   5  346.98   12.10
  -1   1   5  102.89    3.97
  -1   1   5  101.28    3.65
  -1   1   5   98.70    3.65
   0  -1  -5  262.51    9.35
   0   1   5  269.05    9.38
   0   1   5  272.53    9.77
  -1  -1  -5   39.52    1.47
   1   1   5   39.36    1.52
   1   1   5   42.45    1.91
  -2  -1  -5    8.28    0.44
   2   1   5    7.26    0.67
   2   1   5    7.73    0.45
  -3  -1  -5   21.39    0.96
  -3  -1  -5   19.76    0.92
   3   1   5   20.08    0.94
  -4  -1  -5   14.62    0.73
  -4  -1  -5   15.63    0.74
   4   1   5   13.10    0.79
  -5  -1  -5   97.46    3.59
  -5  -1  -5   97.21    3.60
   5   1   5   93.98    3.69
  -6  -1  -5  119.06    4.55
  -6  -1  -5  124.65    4.55
   6   1   5  125.74    4.73
  -7  -1  -5   29.73    1.39
  -7  -1  -5   29.76    1.37
   7   1   5   29.82    1.59
  -8  -1  -5   16.49    0.99
  -8  -1  -5   15.78    0.93
  -9  -1  -5    9.61    0.85
   9   1   5   11.61    1.20
 -10  -1  -5   61.39    2.66
  10   1   5   58.39    2.90
 -11  -1  -5    0.18    0.40
  11   1   5   -0.24    0.57
 -12  -1  -5   12.41    1.14
  12   1   5   12.83    1.49
 -13  -1  -5    3.99    0.76
  13   1   5    4.35    1.08
 -11   2   5    3.28    0.73
 -10   2   5   -0.07    0.38
  -9   2   5   -0.19    0.36
   8  -2  -5   38.99    2.10
  -8   2   5   41.83    1.98
   7  -2  -5    9.21    0.97
  -7   2   5   10.06    1.08
  -7   2   5    9.51    0.81
   6  -2  -5    7.54    0.83
  -6   2   5    9.30    0.73
  -6   2   5   10.08    1.04
   5  -2  -5   79.44    3.33
  -5   2   5   88.65    3.55
  -5   2   5   82.47    3.26
   4  -2  -5    2.82    0.46
  -4   2   5    2.66    0.57
  -4   2   5    3.31    0.42
   3  -2  -5   22.65    1.17
  -3   2   5   25.47    1.14
  -3   2   5   25.80    1.41
   2  -2  -5   81.35    3.26
  -2   2   5   89.74    3.27
  -2   2   5   90.65    3.57
   1  -2  -5    1.40    0.19
   1  -2  -5    0.36    0.14
  -1   2   5    0.50    0.40
   0  -2  -5  102.05    3.81
   0   2   5  107.97    4.20
   0   2   5  109.36    3.77
  -1  -2  -5   21.96    0.89
   1   2   5   21.81    0.87
   1   2   5   23.38    1.34
  -2  -2  -5   41.48    1.60
   2   2   5   42.61    1.98
   2   2   5   41.28    1.58
  -3  -2  -5   65.01    2.50
   3   2   5   67.15    2.47
   3   2   5   62.95    2.73
  -4  -2  -5    3.18    0.42
  -4  -2  -5    3.26    0.36
   4   2   5    2.38    0.36
  -5  -2  -5   49.33    1.99
  -5  -2  -5   48.69    1.89
   5   2   5   46.01    2.02
  -6  -2  -5    3.11    0.45
  -6  -2  -5    2.63    0.34
   6   2   5    3.11    0.49
  -7  -2  -5    6.00    0.49
  -7  -2  -5    5.33    0.59
   7   2   5    4.41    0.64
  -8  -2  -5    2.30    0.47
  -8  -2  -5    1.94    0.34
   8   2   5    1.40    0.50
  -9  -2  -5    0.09    0.33
   9   2   5    0.19    0.45
 -10  -2  -5    6.18    0.79
  10   2   5    5.89    0.97
 -11  -2  -5    3.41    0.64
  11   2   5    2.58    0.78
 -12  -2  -5    0.10    0.43
  12   2   5    0.39    0.66
 -13  -2  -5    1.42    0.60
  13   2   5    1.62    0.86
 -14  -2  -5    0.17    0.57
  14   2   5    0.36    0.82
 -11   3   5    1.40    0.62
 -10   3   5    2.79    0.70
  -9   3   5   13.11    1.08
  -8   3   5    9.50    0.97
  -8   3   5    9.61    1.62
   7  -3  -5   13.54    1.06
  -7   3   5   15.02    1.02
  -7   3   5   13.00    1.25
   6  -3  -5    3.87    0.58
  -6   3   5    3.58    0.53
  -6   3   5    3.86    0.75
   5  -3  -5   10.17    0.76
  -5   3   5   11.19    0.79
  -5   3   5   12.79    1.14
   4  -3  -5    1.93    0.34
  -4   3   5    2.74    0.63
  -4   3   5    2.19    0.39
   3  -3  -5    8.64    0.54
  -3   3   5    9.65    0.89
  -3   3   5    9.41    0.65
   2  -3  -5   95.68    3.58
   2  -3  -5  100.15    3.68
  -2   3   5  106.15    4.08
   1  -3  -5   19.41    0.76
   1  -3  -5   19.66    0.88
  -1   3   5   22.35    1.28
   0  -3  -5  154.42    5.54
   0   3   5  156.79    5.92
  -1  -3  -5    2.72    0.28
   1   3   5    2.10    0.18
   1   3   5    2.08    0.51
  -2  -3  -5  414.86   15.11
   2   3   5  426.28   15.05
   2   3   5  458.54   15.48
  -3  -3  -5  313.54   11.70
   3   3   5  351.55   12.04
   3   3   5  332.13   11.65
  -4  -3  -5   50.13    2.04
   4   3   5   45.85    2.18
   4   3   5   50.54    1.98
  -5  -3  -5    3.00    0.47
   5   3   5    2.83    0.41
  -6  -3  -5   64.77    2.70
  -6  -3  -5   71.82    2.53
   6   3   5   61.53    2.71
  -7  -3  -5   29.10    1.50
  -7  -3  -5   31.08    1.26
   7   3   5   28.58    1.54
  -8  -3  -5    0.54    0.22
  -8  -3  -5   -0.01    0.34
   8   3   5    0.48    0.42
  -9  -3  -5  106.83    4.27
   9   3   5  107.95    4.39
 -10  -3  -5   20.26    1.30
  10   3   5   21.79    1.54
 -11  -3  -5   13.25    1.14
  11   3   5   16.05    1.46
 -12  -3  -5    2.98    0.71
  12   3   5    3.15    0.89
 -13  -3  -5    8.86    1.09
  13   3   5   12.87    1.47
 -14  -3  -5    5.58    0.91
  14   3   5    7.63    1.25
  10  -4  -5    2.29    0.57
   9  -4  -5    0.60    0.41
   8  -4  -5    6.53    0.76
  -8   4   5    6.73    1.05
  -7   4   5    1.86    0.51
  -7   4   5    1.87    0.67
  -6   4   5    0.23    0.32
  -6   4   5   -0.47    0.47
   5  -4  -5   46.77    1.97
   5  -4  -5   44.23    1.90
  -5   4   5   48.41    2.41
   4  -4  -5   23.16    1.06
   4  -4  -5   24.91    1.16
  -4   4   5   23.98    1.58
   3  -4  -5    0.45    0.22
   3  -4  -5    0.50    0.19
  -3   4   5    0.12    0.45
   2  -4  -5   69.10    2.45
   2  -4  -5   67.91    2.62
  -2   4   5   66.96    2.99
   1  -4  -5    0.30    0.16
  -1   4   5   -0.18    0.33
   0  -4  -5   19.27    0.84
   0   4   5   17.03    1.14
  -1  -4  -5    3.85    0.33
   1   4   5    4.28    0.65
  -2  -4  -5   11.48    0.63
   2   4   5   13.79    0.98
   2   4   5   11.01    0.52
  -3  -4  -5   23.40    1.06
   3   4   5   21.79    0.97
   3   4   5   22.81    1.27
  -4  -4  -5    0.31    0.28
   4   4   5    0.21    0.33
   4   4   5    0.42    0.23
  -5  -4  -5    1.20    0.36
   5   4   5    1.12    0.31
   5   4   5    0.72    0.37
  -6  -4  -5    2.98    0.53
   6   4   5    2.66    0.46
  -7  -4  -5    1.54    0.45
  -7  -4  -5    1.00    0.22
   7   4   5    1.19    0.41
  -8  -4  -5    5.35    0.75
   8   4   5    4.03    0.68
  -9  -4  -5    1.85    0.55
   9   4   5    1.86    0.56
 -10  -4  -5    4.40    0.71
  10   4   5    3.95    0.77
 -11  -4  -5    1.32    0.55
  11   4   5    2.53    0.70
 -12  -4  -5   16.36    1.32
  12   4   5   22.34    1.60
 -13  -4  -5    4.75    0.89
  13   4   5    6.56    1.12
 -14  -4  -5    0.56    0.63
  14   4   5    0.50    0.71
  10  -5  -5   -0.24    0.39
   9  -5  -5    3.99    0.69
   8  -5  -5    0.60    0.40
  -8   5   5    1.34    0.74
   7  -5  -5   15.46    1.02
  -7   5   5   16.53    1.48
   6  -5  -5    2.42    0.46
  -6   5   5    2.45    0.73
   5  -5  -5  111.88    4.31
  -5   5   5  113.64    4.81
   4  -5  -5   16.63    0.94
  -4   5   5   17.79    1.40
   3  -5  -5   59.73    2.38
  -3   5   5   59.57    2.84
   2  -5  -5   33.21    1.44
  -2   5   5   34.60    1.87
   1  -5  -5    8.71    0.55
  -1   5   5    8.32    0.96
   0  -5  -5   39.91    1.63
   0   5   5   40.06    1.96
  -1  -5  -5   26.23    1.13
   1   5   5   23.78    1.41
  -2  -5  -5  120.01    4.37
   2   5   5  120.59    4.23
   2   5   5  116.38    4.64
  -3  -5  -5   15.97    0.84
   3   5   5   15.88    1.08
   3   5   5   14.36    0.72
  -4  -5  -5   61.75    2.53
   4   5   5   62.09    2.41
   4   5   5   62.17    2.61
  -5  -5  -5   36.78    1.75
   5   5   5   39.39    1.79
   5   5   5   37.79    1.66
  -6  -5  -5  142.63    5.40
   6   5   5  142.42    5.31
   6   5   5  140.98    5.33
  -7  -5  -5  144.63    4.80
  -7  -5  -5  129.99    5.13
   7   5   5  121.01    5.03
  -8  -5  -5    3.89    0.64
   8   5   5    2.50    0.55
  -9  -5  -5    1.58    0.55
   9   5   5    1.78    0.55
 -10  -5  -5    1.09    0.55
  10   5   5    1.72    0.55
 -11  -5  -5   23.07    1.57
  11   5   5   26.72    1.68
 -12  -5  -5    4.11    0.81
  12   5   5    6.68    1.01
 -13  -5  -5    9.02    1.14
  13   5   5    9.98    1.22
 -14  -5  -5    5.61    1.00
  14   5   5   10.06    1.32
   9  -6  -5    1.89    0.57
   8  -6  -5    0.17    0.38
  -8   6   5   -0.76    0.67
   7  -6  -5    0.08    0.36
  -7   6   5   -0.14    0.70
   6  -6  -5    0.92    0.40
  -6   6   5    1.02    0.73
   5  -6  -5    7.85    0.73
  -5   6   5    7.28    1.12
   4  -6  -5    1.12    0.34
  -4   6   5    0.09    0.62
   3  -6  -5    5.77    0.56
  -3   6   5    4.89    0.94
   2  -6  -5    0.78    0.25
  -2   6   5    1.57    0.64
   1  -6  -5   46.97    1.90
  -1   6   5   45.27    2.33
   0  -6  -5    0.19    0.19
   0   6   5    0.21    0.44
  -1  -6  -5    4.31    0.45
   1   6   5    4.86    0.70
  -2  -6  -5   76.49    2.98
   2   6   5   79.58    2.79
   2   6   5   75.33    3.25
  -3  -6  -5    0.37    0.27
   3   6   5    0.40    0.38
   3   6   5    0.23    0.19
  -4  -6  -5   21.63    1.17
   4   6   5   23.07    1.04
   4   6   5   18.81    1.23
  -5  -6  -5   24.58    1.34
   5   6   5   24.86    1.33
   5   6   5   26.70    1.22
  -6  -6  -5   30.74    1.59
   6   6   5   31.59    1.51
   6   6   5   28.69    1.43
  -7  -6  -5    8.23    0.87
   7   6   5    6.11    0.60
   7   6   5    6.99    0.72
  -8  -6  -5   56.43    2.58
   8   6   5   54.89    2.42
  -9  -6  -5   57.08    2.69
   9   6   5   60.50    2.66
 -10  -6  -5    2.49    0.63
  10   6   5    2.39    0.62
 -11  -6  -5    2.36    0.64
  11   6   5    3.65    0.77
 -12  -6  -5    2.36    0.73
  12   6   5    2.20    0.74
 -13  -6  -5    1.14    0.61
  13   6   5    3.14    0.82
 -14  -6  -5    0.37    0.61
  14   6   5    1.74    0.77
 -15  -6  -5    0.95    0.69
   8  -7  -5    7.12    0.87
  -8   7   5    6.07    1.23
   7  -7  -5    2.57    0.57
  -7   7   5    2.74    0.95
   6  -7  -5    9.18    0.82
  -6   7   5    7.60    1.32
   5  -7  -5    0.33    0.33
  -5   7   5    0.92    0.77
   4  -7  -5    1.35    0.40
  -4   7   5    1.28    0.73
   3  -7  -5    9.79    0.72
  -3   7   5    8.61    1.23
   2  -7  -5   36.10    1.59
  -2   7   5   33.70    2.08
   1  -7  -5   64.41    2.52
  -1   7   5   60.37    2.98
   0  -7  -5   80.75    3.09
   0   7   5   79.10    3.53
  -1  -7  -5    3.73    0.46
   1   7   5    3.20    0.68
  -2  -7  -5    0.20    0.27
   2   7   5    1.19    0.19
   2   7   5    0.55    0.44
  -3  -7  -5    3.35    0.50
   3   7   5    4.26    0.70
   3   7   5    2.51    0.31
  -4  -7  -5  148.09    5.65
   4   7   5  154.42    5.48
   4   7   5  148.10    5.77
  -5  -7  -5   13.23    0.95
   5   7   5   12.43    0.77
   5   7   5   11.91    0.94
  -6  -7  -5   20.21    1.23
   6   7   5   18.66    1.15
   6   7   5   21.09    1.12
  -7  -7  -5   10.96    0.96
   7   7   5    9.21    0.77
   7   7   5   10.66    0.81
  -8  -7  -5   59.92    2.67
   8   7   5   57.30    2.53
  -9  -7  -5   16.10    1.20
   9   7   5   16.87    1.15
 -10  -7  -5   17.79    1.36
  10   7   5   17.51    1.26
 -11  -7  -5    0.41    0.53
  11   7   5    1.66    0.60
 -12  -7  -5    6.72    1.01
  12   7   5    9.41    1.09
 -13  -7  -5    1.18    0.66
  13   7   5    1.43    0.69
 -14  -7  -5    9.39    1.19
  14   7   5    9.14    1.21
 -15  -7  -5    0.10    0.61
   7  -8  -5   -0.16    0.38
  -7   8   5    0.29    0.87
   6  -8  -5    1.01    0.44
  -6   8   5    1.02    0.93
   5  -8  -5   17.85    1.18
  -5   8   5   21.39    1.97
   4  -8  -5    2.28    0.50
  -4   8   5    2.90    0.98
   3  -8  -5   21.18    1.17
  -3   8   5   20.56    1.77
   2  -8  -5    1.78    0.39
  -2   8   5    1.40    0.77
   1  -8  -5    2.84    0.44
  -1   8   5    3.26    0.83
   0  -8  -5   34.01    1.52
   0   8   5   31.06    1.95
  -1  -8  -5   17.56    0.99
   1   8   5   17.42    1.37
  -2  -8  -5   16.31    0.96
   2   8   5   14.64    1.20
  -3  -8  -5    7.87    0.76
   3   8   5    7.59    0.91
   3   8   5    8.63    0.53
  -4  -8  -5    1.83    0.46
   4   8   5    0.45    0.22
   4   8   5    0.50    0.42
  -5  -8  -5    6.33    0.76
   5   8   5    4.46    0.72
   5   8   5    3.90    0.50
  -6  -8  -5   57.02    2.56
   6   8   5   55.77    2.52
   6   8   5   59.53    2.42
  -7  -8  -5   26.72    1.51
   7   8   5   24.72    1.35
   7   8   5   24.86    1.34
  -8  -8  -5    1.64    0.55
   8   8   5    1.08    0.40
  -9  -8  -5   -0.05    0.43
   9   8   5    0.28    0.42
 -10  -8  -5   27.60    1.69
  10   8   5   28.96    1.62
 -11  -8  -5    1.34    0.66
  11   8   5    1.95    0.63
 -12  -8  -5    2.74    0.73
  12   8   5    3.65    0.80
 -13  -8  -5   10.34    1.27
  13   8   5   12.95    1.35
 -14  -8  -5   -0.03    0.55
  14   8   5    0.78    0.63
   7  -9  -5    1.38    0.55
  -7   9   5    1.48    1.05
   6  -9  -5    0.63    0.44
  -6   9   5   -0.63    0.85
   5  -9  -5    1.22    0.50
  -5   9   5    2.64    1.06
   4  -9  -5    9.94    0.96
  -4   9   5    9.36    1.45
   3  -9  -5   26.17    1.44
  -3   9   5   27.04    2.18
   2  -9  -5    2.30    0.50
  -2   9   5    2.50    0.88
   1  -9  -5    2.95    0.50
  -1   9   5    3.96    0.99
   0  -9  -5    7.41    0.68
   0   9   5    8.51    1.23
  -1  -9  -5   21.12    1.17
   1   9   5   21.27    1.59
  -2  -9  -5   60.58    2.52
   2   9   5   58.81    2.88
  -3  -9  -5    5.90    0.68
   3   9   5    7.58    0.98
  -4  -9  -5   33.59    1.69
   4   9   5   33.57    1.46
   4   9   5   30.22    1.76
  -5  -9  -5   12.75    1.05
   5   9   5   13.15    0.83
   5   9   5   12.74    1.10
  -6  -9  -5    0.88    0.50
   6   9   5    0.86    0.35
   6   9   5    0.60    0.41
  -7  -9  -5   41.17    2.10
   7   9   5   39.64    1.93
   7   9   5   42.96    1.93
  -8  -9  -5    4.71    0.79
   8   9   5    4.84    0.69
  -9  -9  -5   60.17    2.85
   9   9   5   61.50    2.72
 -10  -9  -5    0.47    0.55
  10   9   5    0.88    0.50
 -11  -9  -5   45.68    2.49
  11   9   5   52.42    2.50
 -12  -9  -5    2.10    0.70
  12   9   5    1.64    0.63
 -13  -9  -5    2.95    0.77
  13   9   5    4.39    0.86
 -14  -9  -5   -0.21    0.56
  14   9   5    0.20    0.63
   6 -10  -5   -0.50    0.43
  -6  10   5   -0.11    0.90
   5 -10  -5    0.49    0.45
  -5  10   5    3.06    1.18
   4 -10  -5   -0.34    0.43
  -4  10   5   -1.07    0.77
   3 -10  -5    1.10    0.47
  -3  10   5    0.81    0.87
   2 -10  -5    0.06    0.36
  -2  10   5    0.13    0.82
   1 -10  -5   22.95    1.35
  -1  10   5   26.41    1.99
   0 -10  -5   14.53    0.98
   0  10   5   13.49    1.55
  -1 -10  -5    1.51    0.43
   1  10   5    1.98    0.77
  -2 -10  -5    6.87    0.77
   2  10   5    7.96    1.12
  -3 -10  -5   23.82    1.38
   3  10   5   23.17    1.62
  -4 -10  -5    1.44    0.50
   4  10   5    0.09    0.50
  -5 -10  -5   11.63    1.06
   5  10   5   12.13    0.80
   5  10   5   10.17    1.04
  -6 -10  -5    9.82    1.04
   6  10   5    9.94    1.01
   6  10   5   10.04    0.79
  -7 -10  -5    2.77    0.68
   7  10   5    3.60    0.57
   7  10   5    3.73    0.65
  -8 -10  -5    0.95    0.54
   8  10   5    1.12    0.45
  -9 -10  -5    0.80    0.56
   9  10   5    0.65    0.44
  10  10   5   29.63    1.69
 -11 -10  -5    0.83    0.60
  11  10   5    0.68    0.49
 -12 -10  -5    1.08    0.64
  12  10   5    1.51    0.63
 -13 -10  -5   12.02    1.33
  13  10   5   14.66    1.31
 -14 -10  -5    0.67    0.63
  14  10   5    0.36    0.59
   5 -11  -5   10.00    1.04
   4 -11  -5    0.21    0.48
  -4  11   5    2.26    1.01
   3 -11  -5   16.12    1.22
  -3  11   5   17.10    2.01
   2 -11  -5    0.56    0.48
  -2  11   5    0.75    0.92
   1 -11  -5   22.74    1.36
  -1  11   5   21.58    2.00
   0 -11  -5    3.51    0.65
   0  11   5    2.32    0.90
  -1 -11  -5   16.44    1.14
   1  11   5   16.74    1.66
  -2 -11  -5   11.08    0.98
   2  11   5    9.27    1.21
  -3 -11  -5    0.51    0.43
   3  11   5    1.10    0.64
  -4 -11  -5   35.21    1.89
   4  11   5   35.91    2.08
  -5 -11  -5    3.60    0.70
   5  11   5    2.57    0.68
  -6 -11  -5   34.52    1.86
   6  11   5   32.44    1.85
  -7 -11  -5    2.62    0.70
   7  11   5    3.76    0.57
  -8 -11  -5   30.33    1.82
   8  11   5   30.72    1.64
  -9 -11  -5   23.40    1.59
   9  11   5   24.18    1.42
 -10 -11  -5    0.85    0.57
  10  11   5    1.08    0.47
 -11 -11  -5    5.20    0.92
  11  11   5    3.42    0.73
 -12 -11  -5    1.31    0.69
  12  11   5    2.46    0.66
 -13 -11  -5   22.51    1.69
  13  11   5   25.67    1.72
 -14 -11  -5    2.52    0.77
  14  11   5    2.85    0.79
   3 -12  -5    0.31    0.52
  -3  12   5   -1.27    0.80
   2 -12  -5    2.49    0.64
  -2  12   5    1.26    1.02
   1 -12  -5    1.27    0.58
  -1  12   5   -0.05    0.81
   0 -12  -5    2.30    0.63
   0  12   5    3.92    1.12
  -1 -12  -5    0.49    0.49
   1  12   5    1.09    0.81
  -2 -12  -5    5.51    0.80
   2  12   5    4.64    1.04
  -3 -12  -5   17.00    1.33
   3  12   5   16.92    1.60
  -4 -12  -5    4.71    0.83
   4  12   5    3.43    0.83
  -5 -12  -5   17.90    1.36
   5  12   5   13.46    1.31
  -6 -12  -5   17.38    1.28
   6  12   5   11.15    1.18
  -7 -12  -5   -0.47    0.48
  -8 -12  -5    2.30    0.71
  -9 -12  -5    3.15    0.79
   9  12   5    2.29    0.55
 -10 -12  -5    3.67    0.86
  10  12   5    6.07    0.82
 -11 -12  -5   16.33    1.40
  11  12   5   15.48    1.28
 -12 -12  -5    1.45    0.69
  12  12   5    1.38    0.63
 -13 -12  -5    5.87    1.00
  13  12   5    7.29    1.02
   2 -13  -5    3.39    0.76
  -2  13   5    3.94    1.25
   1 -13  -5   10.27    1.11
  -1  13   5    8.26    1.48
   0 -13  -5    2.91    0.74
   0  13   5    1.47    1.01
  -1 -13  -5   16.08    1.33
   1  13   5   16.97    1.96
  -2 -13  -5    8.71    1.00
   2  13   5    9.05    1.42
  -3 -13  -5    2.49    0.72
   3  13   5    1.92    0.87
  -4 -13  -5    3.29    0.81
   4  13   5    1.26    0.71
  -5 -13  -5    1.16    0.62
   5  13   5    0.82    0.64
  -6 -13  -5   36.20    2.02
   6  13   5   30.93    1.96
  -7 -13  -5   -0.47    0.56
  -8 -13  -5    8.41    1.10
  -9 -13  -5    1.42    0.66
 -10 -13  -5   23.73    1.70
 -11 -13  -5    5.69    1.06
  11  13   5    5.08    0.79
 -12 -13  -5   10.03    1.27
  12  13   5   13.98    1.23
   0 -14  -5    0.32    0.61
   0  14   5    0.49    0.96
  -1 -14  -5    2.33    0.71
   1  14   5    0.78    0.92
  -2 -14  -5    2.38    0.77
   2  14   5    1.99    0.97
  -3 -14  -5    3.92    0.90
   3  14   5    3.35    1.02
  -4 -14  -5    2.81    0.84
   4  14   5    1.27    0.80
  -5 -14  -5    1.20    0.67
   5  14   5    0.03    0.60
  -6 -14  -5   11.70    1.24
   6  14   5    7.13    1.15
  -7 -14  -5    0.87    0.69
  -8 -14  -5    1.37    0.73
  -9 -14  -5    7.35    1.11
 -10 -14  -5    2.96    0.81
 -11 -14  -5    0.26    0.66
  -2 -15  -5    4.16    0.90
   2  15   5    2.90    1.10
  -3 -15  -5   18.69    1.63
   3  15   5   19.35    1.87
  -4 -15  -5   10.14    1.27
   4  15   5    6.79    1.19
  -5 -15  -5    5.50    0.98
   5  15   5    5.28    1.09
  -6 -15  -5    1.82    0.79
  -7 -15  -5    1.73    0.76
  -8 -15  -5   -0.94    0.61
  -9 -15  -5   10.96    1.28
 -10 -15  -5    1.39    0.71
   7  14  -6    7.79    1.13
   6  14  -6    3.38    0.83
   3  14  -6    2.47    0.92
   2  14  -6   13.06    1.62
   1  14  -6   -0.05    0.81
 -10 -13   6    0.14    0.50
   9  13  -6    0.86    0.61
   8  13  -6    0.21    0.53
   7  13  -6    4.30    0.85
   6  13  -6    9.64    1.17
   5  13  -6    0.88    0.64
   4  13  -6    0.35    0.61
  -4 -13   6    0.47    0.60
   3  13  -6   14.75    1.51
   2  13  -6    5.26    1.15
   1  13  -6   -0.49    0.71
   0  13  -6    3.12    1.05
  -1  13  -6    4.24    1.27
 -11 -12   6    2.83    0.70
  10  12  -6    9.22    1.13
 -10 -12   6    8.37    0.98
   9  12  -6    8.02    1.05
  -9 -12   6    6.38    0.90
   8  12  -6    3.07    0.73
  -8 -12   6    2.13    0.62
   7  12  -6    2.11    0.68
  -7 -12   6    2.26    0.64
   6  12  -6    5.88    0.92
  -5 -12   6    8.72    1.15
   4  12  -6   10.81    1.20
  -4 -12   6    8.86    1.11
   3  12  -6    2.92    0.82
  -3 -12   6    2.05    0.65
   2  12  -6   21.19    1.72
  -2 -12   6   25.03    1.58
   1  12  -6    0.72    0.74
   0  12  -6    6.12    1.23
  -1  12  -6    1.29    0.94
  -2  12  -6   15.78    2.00
  -3  12  -6    2.59    1.18
  11  11  -6    0.28    0.58
 -11 -11   6   -0.23    0.46
  10  11  -6   14.64    1.28
 -10 -11   6   13.26    1.19
   9  11  -6    1.69    0.60
  -9 -11   6    1.22    0.53
   8  11  -6    3.39    0.73
  -8 -11   6    3.62    0.69
   7  11  -6   11.59    1.09
  -7 -11   6   11.50    1.12
   6  11  -6    1.88    0.60
  -6 -11   6    1.75    0.52
   5  11  -6    1.20    0.78
  -5 -11   6    0.24    0.39
  -5 -11   6    0.56    0.57
   4  11  -6    9.91    1.09
  -4 -11   6    8.56    1.05
   3  11  -6    6.50    0.98
  -3 -11   6    6.79    0.91
   2  11  -6   18.27    1.50
  -2 -11   6   15.92    1.28
   1  11  -6   14.64    1.53
  -1 -11   6   14.64    1.16
   0  11  -6    2.27    0.87
   0 -11   6    1.26    0.54
  -1  11  -6    9.30    1.36
  -2  11  -6   -0.02    0.80
  -3  11  -6    1.12    0.95
  -4  11  -6    0.26    1.05
  -5  11  -6    3.43    1.36
  12  10  -6    4.91    0.92
 -12 -10   6    3.96    0.78
  11  10  -6    1.05    0.64
 -11 -10   6   -0.34    0.44
  10  10  -6    0.36    0.53
 -10 -10   6   -0.14    0.45
   9  10  -6    3.97    0.76
  -9 -10   6    3.79    0.73
   8  10  -6    7.37    0.98
  -8 -10   6    5.45    0.78
   7  10  -6    8.05    0.93
  -7 -10   6   10.31    0.91
   6  10  -6   17.57    1.27
  -6 -10   6   16.66    1.15
   5  10  -6   35.73    1.81
  -5 -10   6   33.99    1.75
  -5 -10   6   35.25    2.00
   4  10  -6   19.58    1.33
  -4 -10   6   18.77    1.35
  -4 -10   6   18.77    1.19
   3  10  -6    1.66    0.55
  -3 -10   6    0.37    0.36
  -3 -10   6    0.53    0.46
   2  10  -6    1.35    0.62
  -2 -10   6    0.74    0.48
   1  10  -6   15.28    1.31
  -1 -10   6   12.92    1.09
   0  10  -6   17.05    1.50
   0 -10   6   18.72    1.24
  -1  10  -6   27.90    1.96
   1 -10   6   25.46    1.52
  -2  10  -6    1.02    0.81
   2 -10   6    0.98    0.50
  -3  10  -6   12.38    1.65
  -4  10  -6    1.51    0.93
  -5  10  -6   15.48    1.95
  -6  10  -6    2.86    1.26
  12   9  -6    2.52    0.74
 -12  -9   6    1.66    0.59
  11   9  -6   -0.02    0.57
 -11  -9   6    0.39    0.50
  10   9  -6   24.20    1.65
 -10  -9   6   23.43    1.53
   9   9  -6    1.15    0.54
  -9  -9   6    1.02    0.50
   8   9  -6   14.61    1.21
  -8  -9   6   12.66    1.07
   7   9  -6    5.22    0.76
  -7  -9   6    5.92    0.77
   6   9  -6    4.34    0.68
  -6  -9   6    5.96    0.76
   5   9  -6    1.94    0.46
  -5  -9   6    1.08    0.54
  -5  -9   6    1.32    0.42
   4   9  -6    0.45    0.38
  -4  -9   6   -0.18    0.40
  -4  -9   6   -0.47    0.28
   3   9  -6    0.18    0.41
  -3  -9   6    0.17    0.45
  -3  -9   6   -0.28    0.27
   2   9  -6   10.41    1.03
  -2  -9   6   11.06    0.95
  -2  -9   6   11.21    0.79
   1   9  -6    4.25    0.77
  -1  -9   6    3.06    0.63
   0   9  -6   22.78    1.56
   0  -9   6   21.01    1.31
  -1   9  -6    0.02    0.57
   1  -9   6    1.07    0.45
  -2   9  -6    5.17    1.01
   2  -9   6    3.43    0.63
  -3   9  -6   18.87    1.65
   3  -9   6   17.29    1.24
  -4   9  -6   -0.45    0.71
   4  -9   6    0.27    0.45
  -5   9  -6    1.25    1.01
  -6   9  -6   -0.89    0.89
  -7   9  -6    0.55    0.96
 -13  -8   6    5.18    0.91
 -12  -8   6    6.15    0.93
  11   8  -6   17.85    1.52
 -11  -8   6   17.19    1.31
  10   8  -6    1.22    0.60
 -10  -8   6    0.35    0.49
   9   8  -6    9.08    1.08
  -9  -8   6    8.13    0.92
   8   8  -6    1.53    0.51
  -8  -8   6    0.45    0.37
   7   8  -6   37.43    1.94
  -7  -8   6   38.13    1.83
   6   8  -6    0.55    0.37
  -6  -8   6    0.72    0.37
   5   8  -6    9.25    0.73
  -5  -8   6    8.58    0.98
  -5  -8   6    8.27    0.74
   4   8  -6   11.91    0.88
  -4  -8   6   10.63    1.03
  -4  -8   6   12.24    0.86
   3   8  -6   36.42    1.82
  -3  -8   6   38.33    1.72
  -3  -8   6   37.40    1.92
   2   8  -6  127.79    5.17
  -2  -8   6  135.31    5.17
  -2  -8   6  135.56    4.98
   1   8  -6   18.25    1.29
  -1  -8   6   20.79    1.05
  -1  -8   6   16.79    1.16
   0   8  -6   31.54    1.82
   0  -8   6   30.95    1.63
   0  -8   6   33.06    1.47
  -1   8  -6   28.01    1.70
   1  -8   6   24.08    1.39
  -2   8  -6    4.19    0.84
   2  -8   6    5.18    0.68
  -3   8  -6   24.08    1.73
   3  -8   6   20.98    1.32
  -4   8  -6   27.83    2.02
   4  -8   6   26.32    1.53
  -5   8  -6   12.34    1.55
   5  -8   6   13.05    1.08
  -6   8  -6    0.96    0.93
  -7   8  -6   11.58    1.69
  -8   8  -6   -0.86    0.94
  13   7  -6    2.04    0.80
 -13  -7   6    0.15    0.48
  12   7  -6    1.79    0.72
 -12  -7   6    1.30    0.56
  11   7  -6    3.25    0.81
 -11  -7   6    1.75    0.58
  10   7  -6    0.63    0.56
 -10  -7   6    0.87    0.47
   9   7  -6    0.36    0.45
  -9  -7   6    0.54    0.41
   8   7  -6    1.89    0.56
  -8  -7   6    1.65    0.48
   7   7  -6   12.33    1.02
  -7  -7   6   11.74    0.90
   6   7  -6    2.83    0.56
  -6  -7   6    3.88    0.55
   5   7  -6    0.61    0.28
  -5  -7   6    0.35    0.30
  -5  -7   6    0.90    0.49
   4   7  -6   42.32    1.83
  -4  -7   6   38.44    2.02
  -4  -7   6   41.42    1.82
   3   7  -6    2.52    0.48
  -3  -7   6    2.46    0.42
  -3  -7   6    2.22    0.55
   2   7  -6    3.62    0.58
  -2  -7   6    4.57    0.62
  -2  -7   6    4.17    0.49
   1   7  -6    1.64    0.48
  -1  -7   6    0.43    0.28
  -1  -7   6    0.81    0.38
   0   7  -6    0.72    0.46
   0  -7   6    0.27    0.35
   0  -7   6    0.93    0.30
  -1   7  -6   27.28    1.63
   1  -7   6   28.21    1.42
   1  -7   6   24.88    1.19
  -2   7  -6    5.34    0.86
   2  -7   6    7.16    0.76
  -3   7  -6    4.19    0.83
   3  -7   6    4.14    0.60
  -4   7  -6   17.67    1.55
   4  -7   6   19.37    1.20
  -5   7  -6    7.40    1.16
   5  -7   6    5.58    0.77
  -6   7  -6    4.45    1.10
   6  -7   6    3.35    0.67
  -7   7  -6    1.83    0.95
   7  -7   6    3.00    0.67
  -8   7  -6    4.76    1.28
  -9   7  -6   -1.49    0.91
  13   6  -6    3.20    0.81
 -13  -6   6    2.05    0.68
  12   6  -6    5.99    1.03
 -12  -6   6    4.60    0.83
  11   6  -6    0.87    0.67
 -11  -6   6    2.21    0.59
  10   6  -6   55.11    2.76
 -10  -6   6   50.03    2.46
   9   6  -6   24.39    1.62
  -9  -6   6   25.12    1.45
   8   6  -6   25.39    1.48
  -8  -6   6   21.12    1.27
   7   6  -6    8.94    0.96
  -7  -6   6    9.65    0.82
   6   6  -6    9.86    0.86
  -6  -6   6   10.41    0.78
   5   6  -6    8.75    0.60
  -5  -6   6    9.80    0.96
  -5  -6   6    8.46    0.68
   4   6  -6   29.41    1.35
  -4  -6   6   30.06    1.41
  -4  -6   6   30.19    1.63
   3   6  -6   50.26    2.12
  -3  -6   6   51.27    2.06
  -3  -6   6   48.89    2.27
   2   6  -6    1.96    0.41
  -2  -6   6    2.41    0.37
  -2  -6   6    1.41    0.44
   1   6  -6    0.63    0.35
  -1  -6   6    1.14    0.29
  -1  -6   6    0.44    0.32
   0   6  -6  178.00    6.63
   0  -6   6  174.19    6.53
   0  -6   6  175.97    6.32
  -1   6  -6   41.99    2.04
   1  -6   6   43.45    1.70
   1  -6   6   41.52    1.89
  -2   6  -6  140.73    5.44
   2  -6   6  137.27    4.93
   2  -6   6  134.96    5.19
  -3   6  -6    4.92    0.78
   3  -6   6    4.09    0.34
   3  -6   6    3.17    0.52
  -4   6  -6   19.95    1.46
   4  -6   6   18.66    1.16
  -5   6  -6   11.01    1.27
   5  -6   6   10.38    0.90
  -6   6  -6    8.61    1.19
   6  -6   6    7.69    0.89
  -7   6  -6    5.58    1.15
   7  -6   6    6.33    0.83
  -8   6  -6   18.60    1.81
   8  -6   6   15.41    1.25
  -9   6  -6    2.60    1.11
  13   5  -6    0.81    0.67
 -13  -5   6    1.31    0.64
  12   5  -6    0.62    0.64
 -12  -5   6   -0.31    0.45
  11   5  -6    0.87    0.61
 -11  -5   6    0.18    0.47
  10   5  -6    1.98    0.69
 -10  -5   6    1.31    0.51
   9   5  -6   11.33    1.11
  -9  -5   6   10.08    0.92
   8   5  -6    2.32    0.58
  -8  -5   6    2.18    0.49
   7   5  -6    1.04    0.44
  -7  -5   6    1.63    0.42
   6   5  -6    7.61    0.76
  -6  -5   6    7.39    0.71
   5   5  -6   27.38    1.15
  -5  -5   6   25.54    1.52
  -5  -5   6   24.27    1.26
   4   5  -6    0.34    0.21
  -4  -5   6    0.26    0.36
  -4  -5   6    0.52    0.24
   3   5  -6    4.89    0.49
  -3  -5   6    4.32    0.62
  -3  -5   6    5.37    0.50
   2   5  -6   19.91    1.04
  -2  -5   6   19.19    1.16
  -2  -5   6   20.24    0.94
   1   5  -6    0.10    0.27
  -1  -5   6    0.34    0.30
  -1  -5   6    0.55    0.20
   0   5  -6    6.62    0.65
   0  -5   6    6.02    0.60
   0  -5   6    6.47    0.45
  -1   5  -6  106.86    4.16
   1  -5   6  107.26    3.83
   1  -5   6  102.84    4.03
  -2   5  -6    1.02    0.43
   2  -5   6    0.49    0.31
   2  -5   6    0.87    0.18
  -3   5  -6    0.19    0.41
   3  -5   6    0.58    0.15
   3  -5   6    0.15    0.31
  -4   5  -6   32.73    1.82
   4  -5   6   33.33    1.30
   4  -5   6   30.76    1.58
  -5   5  -6   17.80    1.38
   5  -5   6   17.82    1.13
   5  -5   6   18.57    0.86
  -6   5  -6    1.14    0.63
   6  -5   6   -0.15    0.38
  -7   5  -6    1.34    0.72
   7  -5   6    0.41    0.44
  -8   5  -6   15.23    1.66
   8  -5   6   13.89    1.19
  -9   5  -6    4.67    1.11
   9  -5   6    2.91    0.74
  10  -5   6   -0.04    0.59
  13   4  -6    1.60    0.73
 -13  -4   6   -0.07    0.51
  12   4  -6    3.01    0.80
 -12  -4   6    0.98    0.57
  11   4  -6    1.69    0.70
 -11  -4   6    0.64    0.49
  10   4  -6    3.12    0.79
 -10  -4   6    4.03    0.66
   9   4  -6    1.21    0.59
  -9  -4   6    1.11    0.46
   8   4  -6    5.77    0.87
  -8  -4   6    6.67    0.77
   7   4  -6  114.25    4.67
  -7  -4   6  119.04    4.51
   6   4  -6  141.11    4.82
   6   4  -6  123.83    5.11
  -6  -4   6  128.49    4.94
   5   4  -6   87.03    3.63
   5   4  -6   95.11    3.31
  -5  -4   6   86.48    3.44
   4   4  -6   13.76    0.70
  -4  -4   6   14.00    1.00
  -4  -4   6   13.30    0.77
   3   4  -6   13.11    0.72
  -3  -4   6   15.13    0.74
  -3  -4   6   12.41    0.92
   2   4  -6    6.56    0.49
  -2  -4   6    6.57    0.44
  -2  -4   6    6.78    0.65
   1   4  -6   34.66    1.53
  -1  -4   6   32.23    1.56
  -1  -4   6   36.31    1.37
   0   4  -6    8.10    0.63
   0  -4   6    9.32    0.45
   0  -4   6    8.52    0.64
  -1   4  -6   77.43    3.04
   1  -4   6   68.45    2.93
   1  -4   6   79.98    2.74
  -2   4  -6    7.34    0.70
   2  -4   6    7.75    0.37
   2  -4   6    7.30    0.60
  -3   4  -6   96.57    3.88
   3  -4   6   99.39    3.46
   3  -4   6   94.55    3.73
  -4   4  -6   43.21    2.10
   4  -4   6   45.77    1.65
   4  -4   6   40.78    1.91
  -5   4  -6   88.61    3.83
   5  -4   6   94.40    3.34
   5  -4   6   90.53    3.64
  -6   4  -6    0.86    0.56
   6  -4   6    0.89    0.41
   6  -4   6    1.23    0.24
  -7   4  -6   16.86    1.43
   7  -4   6   17.77    1.13
   7  -4   6   16.33    1.17
  -8   4  -6   -0.05    0.64
   8  -4   6   -0.26    0.43
  -9   4  -6    5.80    1.12
   9  -4   6    8.90    1.05
  10  -4   6    0.14    0.63
  11  -4   6    6.39    1.10
  13   3  -6    4.70    0.96
 -13  -3   6    3.62    0.82
  12   3  -6    5.26    0.95
 -12  -3   6    3.89    0.75
  11   3  -6    2.24    0.73
 -11  -3   6    1.62    0.59
  10   3  -6    4.21    0.85
 -10  -3   6    3.46    0.67
   9   3  -6    0.67    0.54
  -9  -3   6    0.27    0.36
   8   3  -6   17.41    1.29
  -8  -3   6   18.54    1.16
   7   3  -6    0.49    0.38
  -7  -3   6    0.26    0.29
   6   3  -6   31.71    1.19
   6   3  -6   27.90    1.57
  -6  -3   6   26.58    1.40
   5   3  -6    4.87    0.65
   5   3  -6    4.07    0.33
  -5  -3   6    4.24    0.50
   4   3  -6    0.78    0.19
  -4  -3   6    0.49    0.24
  -4  -3   6    0.36    0.35
   3   3  -6   30.03    1.31
  -3  -3   6   32.95    1.34
  -3  -3   6   32.99    1.54
   2   3  -6    0.66    0.20
  -2  -3   6    1.23    0.33
  -2  -3   6    0.97    0.21
   1   3  -6   13.20    0.74
  -1  -3   6   14.70    0.85
  -1  -3   6   14.33    0.62
   0   3  -6    0.26    0.20
   0  -3   6    0.76    0.27
   0  -3   6    0.39    0.11
  -1   3  -6   53.72    2.20
   1  -3   6   53.39    2.16
  -2   3  -6  189.10    6.72
   2  -3   6  177.56    6.35
   2  -3   6  181.38    6.61
  -3   3  -6   13.00    0.90
   3  -3   6   13.42    0.54
   3  -3   6   13.03    0.79
  -4   3  -6    1.95    0.45
   4  -3   6    1.51    0.36
   4  -3   6    1.91    0.20
  -5   3  -6  152.38    5.88
  -5   3  -6  154.37    5.51
   5  -3   6  153.20    5.75
  -6   3  -6   12.01    1.01
  -6   3  -6   10.42    0.66
   6  -3   6   11.49    0.92
  -7   3  -6    5.98    0.87
  -7   3  -6    4.51    0.53
   7  -3   6    5.39    0.75
  -8   3  -6   14.70    0.97
  -8   3  -6   17.47    1.42
   8  -3   6   16.90    1.25
  -9   3  -6    0.99    0.70
   9  -3   6    0.29    0.54
  10  -3   6   -0.10    0.56
  11  -3   6   -0.11    0.66
  12  -3   6   -0.62    0.64
  12   2  -6    1.40    0.74
 -12  -2   6    0.60    0.54
  11   2  -6    0.13    0.55
 -11  -2   6    0.28    0.45
  10   2  -6    0.52    0.53
 -10  -2   6    0.46    0.45
   9   2  -6   12.25    1.22
  -9  -2   6   11.48    0.97
   8   2  -6    1.23    0.50
  -8  -2   6    1.96    0.48
   7   2  -6    2.00    0.52
  -7  -2   6    1.41    0.39
   6   2  -6    1.43    0.43
  -6  -2   6    1.33    0.35
   5   2  -6   48.90    2.19
  -5  -2   6   48.83    1.98
  -5  -2   6   48.16    2.03
  -4  -2   6   59.97    2.55
  -4  -2   6   59.14    2.40
  -4  -2   6   60.97    2.37
   3   2  -6  274.54    9.81
  -3  -2   6  274.55    9.97
  -3  -2   6  282.12    9.80
   2   2  -6  210.19    7.48
  -2  -2   6  204.06    7.56
  -2  -2   6  213.61    7.40
   1   2  -6    2.66    0.33
  -1  -2   6    2.39    0.35
  -1  -2   6    2.68    0.24
   0   2  -6   19.03    0.93
   0  -2   6   19.78    0.74
   0  -2   6   19.89    0.97
  -1   2  -6   11.53    0.67
   1  -2   6   11.26    0.67
  -2   2  -6   81.09    3.15
   2  -2   6   81.78    3.09
  -3   2  -6   18.64    1.02
   3  -2   6   18.99    0.97
  -4   2  -6   80.92    2.94
  -4   2  -6   79.90    3.23
   4  -2   6   82.74    3.17
  -5   2  -6   90.75    3.33
  -5   2  -6   89.40    3.63
   5  -2   6   92.42    3.57
  -6   2  -6   76.88    2.88
  -6   2  -6   76.41    3.18
   6  -2   6   73.29    3.10
  -7   2  -6   24.34    1.19
  -7   2  -6   25.41    1.48
   7  -2   6   24.97    1.44
  -8   2  -6    0.55    0.30
  -8   2  -6    0.58    0.51
   8  -2   6    0.95    0.51
  -9   2  -6   20.18    1.20
  -9   2  -6   19.30    1.48
   9  -2   6   19.38    1.40
  10  -2   6   -0.06    0.59
  11  -2   6    4.65    1.00
  12  -2   6   -0.93    0.64
  12   1  -6    0.55    0.69
 -12  -1   6   -0.24    0.44
  11   1  -6    0.69    0.68
 -11  -1   6    0.52    0.50
  10   1  -6    0.48    0.59
 -10  -1   6    0.32    0.47
   9   1  -6   11.98    1.18
  -9  -1   6    9.34    0.87
   8   1  -6    1.04    0.51
  -8  -1   6    0.55    0.39
   7   1  -6    0.01    0.38
  -7  -1   6    0.80    0.35
   6   1  -6   10.78    0.95
  -6  -1   6   12.22    0.81
  -6  -1   6   11.40    0.78
   5   1  -6   48.19    2.17
  -5  -1   6   47.88    2.05
  -5  -1   6   48.52    2.02
   4   1  -6    0.44    0.27
  -4  -1   6    0.50    0.23
  -4  -1   6    0.85    0.32
  -3  -1   6   -0.09    0.31
  -3  -1   6    0.30    0.19
  -3  -1   6    0.03    0.27
  -2  -1   6  319.81   10.97
  -2  -1   6  301.91   10.82
  -2  -1   6  303.26   11.04
  -1  -1   6   62.68    2.44
  -1  -1   6   64.33    2.31
  -1  -1   6   61.41    2.58
   0   1  -6    1.76    0.30
   0  -1   6    1.70    0.16
   0  -1   6    3.04    0.35
   1  -1   6   55.32    2.15
  -2   1  -6  123.31    4.51
   2  -1   6  120.50    4.45
  -3   1  -6    0.43    0.22
  -3   1  -6    0.10    0.09
   3  -1   6   -0.03    0.19
  -4   1  -6    0.37    0.24
  -4   1  -6    0.05    0.12
   4  -1   6    0.10    0.24
  -5   1  -6   42.14    1.66
  -5   1  -6   42.71    1.87
   5  -1   6   41.59    1.87
  -6   1  -6    0.77    0.38
  -6   1  -6    1.38    0.28
   6  -1   6    0.54    0.37
  -7   1  -6    8.96    0.65
  -7   1  -6    8.29    0.84
   7  -1   6    9.29    0.89
  -8   1  -6   19.66    1.32
  -8   1  -6   21.47    1.15
   8  -1   6   22.49    1.39
  -9   1  -6    0.10    0.31
  -9   1  -6    1.06    0.53
   9  -1   6    0.30    0.54
 -10   1  -6    1.27    0.44
  10  -1   6    0.83    0.67
 -11   1  -6   11.30    1.19
  11  -1   6    8.87    1.26
  12  -1   6    0.62    0.74
  13  -1   6   -0.35    0.81
 -12   0   6    7.32    0.98
 -11   0   6    1.81    0.59
  10   0  -6   31.55    2.11
 -10   0   6   33.40    1.81
   9   0  -6    4.02    0.88
  -9   0   6    4.63    0.72
   8   0  -6    9.32    1.13
  -8   0   6    9.43    0.84
   7   0  -6    0.92    0.53
  -7   0   6    1.00    0.40
  -7   0   6    0.43    0.35
   6   0  -6   12.41    1.03
  -6   0   6   11.28    0.79
  -6   0   6   11.53    0.88
   5   0  -6   24.35    1.38
  -5   0   6   25.45    1.22
  -5   0   6   24.04    1.30
   4   0  -6    0.86    0.31
  -4   0   6    0.52    0.23
  -4   0   6    0.78    0.36
   3   0  -6   43.19    1.83
  -3   0   6   41.03    1.92
  -2   0   6   84.96    3.11
  -2   0   6   84.63    3.19
  -2   0   6   82.74    3.40
  -1   0   6  222.74    8.26
  -1   0   6  226.14    7.96
  -1   0   6  222.58    7.88
   0   0   6   51.84    2.03
   0   0   6   54.33    2.35
  -1   0  -6   24.72    0.93
   1   0   6   25.58    1.07
   1   0   6   23.93    1.32
  -2   0  -6  303.65   10.72
  -2   0  -6  314.25   10.92
   2   0   6  304.78   10.83
  -3   0  -6    8.14    0.55
  -3   0  -6    9.83    0.46
   3   0   6    7.70    0.55
  -4   0  -6   75.99    2.98
  -4   0  -6   78.58    2.84
   4   0   6   77.14    3.00
  -5   0  -6   93.18    3.63
  -5   0  -6   96.11    3.51
   5   0   6   95.60    3.68
  -6   0  -6   44.74    1.95
  -6   0  -6   45.16    1.85
   6   0   6   45.67    2.05
  -7   0  -6    0.64    0.30
  -7   0  -6    1.31    0.38
   7   0   6    0.97    0.43
  -8   0  -6  121.98    4.71
  -8   0  -6  118.55    4.62
   8   0   6  125.43    4.89
  -9   0  -6   55.33    2.41
  -9   0  -6   56.75    2.49
   9   0   6   54.36    2.68
 -10   0  -6   15.55    1.12
  10   0   6   19.05    1.48
 -11   0  -6    0.54    0.43
  11   0   6    0.84    0.70
 -12   0  -6    1.19    0.56
  12   0   6    0.09    0.72
  13   0   6    3.22    1.09
 -12   1   6    0.13    0.62
 -11   1   6    0.64    0.51
 -10   1   6    0.70    0.47
   9  -1  -6    1.28    0.69
  -9   1   6    1.36    0.49
   8  -1  -6    0.25    0.53
  -8   1   6    0.03    0.37
   7  -1  -6    0.72    0.46
  -7   1   6    1.19    0.39
  -7   1   6    1.03    0.51
   6  -1  -6    8.30    0.94
  -6   1   6    8.49    0.70
  -6   1   6    8.65    0.91
   5  -1  -6   48.91    2.36
  -5   1   6   54.93    2.36
  -5   1   6   50.50    2.15
   4  -1  -6    0.97    0.38
  -4   1   6    1.15    0.30
  -4   1   6    0.75    0.40
   3  -1  -6   95.77    3.71
  -3   1   6   97.11    3.63
  -3   1   6   98.00    3.87
  -2   1   6  129.11    4.63
  -2   1   6  128.54    4.93
  -2   1   6  124.03    4.64
  -1   1   6    0.48    0.17
  -1   1   6    0.51    0.37
  -1   1   6    0.14    0.17
   0  -1  -6    0.37    0.11
   0   1   6    0.69    0.18
   0   1   6    0.36    0.41
  -1  -1  -6   53.59    1.94
   1   1   6   53.26    2.00
   1   1   6   51.64    2.43
  -2  -1  -6    1.42    0.20
   2   1   6    1.31    0.23
   2   1   6    1.45    0.44
  -3  -1  -6   34.35    1.46
  -3  -1  -6   32.63    1.38
   3   1   6   33.23    1.39
  -4  -1  -6   46.10    1.77
  -4  -1  -6   42.84    1.81
   4   1   6   42.83    1.82
  -5  -1  -6   18.96    0.96
  -5  -1  -6   19.63    0.92
   5   1   6   18.24    1.03
  -6  -1  -6    0.46    0.25
  -6  -1  -6    0.15    0.25
   6   1   6    1.21    0.40
  -7  -1  -6    3.09    0.45
  -7  -1  -6    2.79    0.45
   7   1   6    3.18    0.59
  -8  -1  -6    5.95    0.64
  -8  -1  -6    5.75    0.65
   8   1   6    5.49    0.76
  -9  -1  -6    2.73    0.50
  -9  -1  -6    2.53    0.51
   9   1   6    2.18    0.66
 -10  -1  -6    8.38    0.89
  10   1   6    6.85    1.02
 -11  -1  -6    2.07    0.57
  11   1   6    2.55    0.80
 -12  -1  -6   -0.08    0.45
  12   1   6   -0.50    0.68
 -13  -1  -6    0.16    0.50
  13   1   6    0.47    0.78
 -11   2   6    0.29    0.49
 -10   2   6    0.94    0.48
  -9   2   6    2.78    0.61
   8  -2  -6   20.00    1.45
  -8   2   6   20.74    1.31
   7  -2  -6    4.36    0.73
  -7   2   6    3.92    0.61
  -7   2   6    4.81    0.83
   6  -2  -6   12.39    1.04
  -6   2   6   14.46    0.93
  -6   2   6   17.20    1.23
   5  -2  -6   49.60    2.33
  -5   2   6   59.21    2.62
  -5   2   6   52.98    2.26
   4  -2  -6    6.76    0.74
  -4   2   6    8.12    0.60
  -4   2   6    7.61    0.92
   3  -2  -6   13.77    0.88
  -3   2   6   16.49    1.17
  -3   2   6   14.69    0.81
   2  -2  -6   82.46    3.23
  -2   2   6   87.01    3.58
  -2   2   6   87.34    3.22
   1  -2  -6  167.03    5.85
  -1   2   6  160.19    5.82
  -1   2   6  165.26    6.25
   0  -2  -6    1.65    0.20
   0   2   6    1.88    0.22
   0   2   6    2.07    0.51
  -1  -2  -6  476.95   16.71
   1   2   6  479.11   16.73
   1   2   6  478.67   17.17
  -2  -2  -6   27.81    1.11
   2   2   6   26.79    1.58
   2   2   6   26.98    1.10
  -3  -2  -6  188.15    6.54
   3   2   6  172.02    6.83
   3   2   6  185.01    6.50
  -4  -2  -6   12.37    0.77
   4   2   6   11.46    0.86
   4   2   6   12.40    0.72
  -5  -2  -6   80.63    3.09
  -5  -2  -6   84.97    3.15
   5   2   6   77.26    3.15
  -6  -2  -6   71.36    2.72
  -6  -2  -6   68.28    2.77
   6   2   6   70.16    2.89
  -7  -2  -6   39.14    1.81
  -7  -2  -6   42.88    1.75
   7   2   6   40.81    1.98
  -8  -2  -6   19.17    1.00
  -8  -2  -6   17.66    1.11
   8   2   6   18.48    1.28
  -9  -2  -6   -0.09    0.30
   9   2   6    0.32    0.48
 -10  -2  -6    6.67    0.81
  10   2   6    6.04    0.98
 -11  -2  -6   48.62    2.39
  11   2   6   52.90    2.73
 -12  -2  -6    9.29    1.01
  12   2   6    8.99    1.23
 -13  -2  -6   10.90    1.22
  13   2   6   17.30    1.65
 -14  -2  -6    0.86    0.62
  14   2   6    0.71    0.86
  11  -3  -6   -0.45    0.39
 -10   3   6   16.84    1.33
  -9   3   6    1.64    0.54
  -8   3   6    3.21    0.64
  -7   3   6    6.14    0.76
  -7   3   6    3.72    0.84
   6  -3  -6    1.17    0.42
  -6   3   6    0.44    0.34
  -6   3   6    0.10    0.53
   5  -3  -6    0.58    0.33
  -5   3   6    0.22    0.29
  -5   3   6    0.88    0.58
   4  -3  -6    9.65    0.68
  -4   3   6   10.03    0.73
  -4   3   6   10.17    1.09
   3  -3  -6    0.65    0.25
  -3   3   6    0.38    0.45
  -3   3   6    0.31    0.23
   2  -3  -6   61.15    2.35
   2  -3  -6   58.22    2.29
  -2   3   6   65.25    2.81
   1  -3  -6    0.15    0.15
   1  -3  -6    0.47    0.16
  -1   3   6    0.19    0.45
   0  -3  -6   18.31    0.84
   0   3   6   19.19    0.75
   0   3   6   21.08    1.31
  -1  -3  -6  110.29    4.07
   1   3   6  112.50    4.48
   1   3   6  114.91    3.98
  -2  -3  -6   63.78    2.42
   2   3   6   61.32    2.35
   2   3   6   69.92    2.91
  -3  -3  -6   91.30    3.39
   3   3   6   89.02    3.32
   3   3   6   91.61    3.77
  -4  -3  -6   31.78    1.46
   4   3   6   34.78    1.42
   4   3   6   29.53    1.67
  -5  -3  -6   93.73    3.63
   5   3   6   92.23    3.71
   5   3   6   95.72    3.61
  -6  -3  -6    4.33    0.60
  -6  -3  -6    4.24    0.43
   6   3   6    4.50    0.57
  -7  -3  -6  115.81    4.46
  -7  -3  -6  119.48    4.26
   7   3   6  110.56    4.49
  -8  -3  -6   30.24    1.56
  -8  -3  -6   31.93    1.34
   8   3   6   27.73    1.62
  -9  -3  -6    0.50    0.39
   9   3   6    0.36    0.44
 -10  -3  -6    9.06    0.96
  10   3   6   12.46    1.19
 -11  -3  -6   -0.05    0.40
  11   3   6   -0.03    0.57
 -12  -3  -6    0.43    0.51
  12   3   6    0.44    0.66
 -13  -3  -6    1.45    0.63
  13   3   6    0.23    0.71
 -14  -3  -6   -0.42    0.49
  14   3   6    0.59    0.80
  10  -4  -6    0.40    0.45
   9  -4  -6    0.68    0.43
   8  -4  -6    7.91    0.85
   7  -4  -6    5.14    0.63
  -7   4   6    3.33    0.89
   6  -4  -6    9.54    0.77
  -6   4   6    9.09    1.12
   5  -4  -6    0.80    0.28
  -5   4   6    0.98    0.58
   4  -4  -6   17.72    0.86
  -4   4   6   15.79    1.32
   3  -4  -6    7.59    0.55
   3  -4  -6    7.65    0.47
  -3   4   6    9.09    1.03
   2  -4  -6   51.92    1.91
   2  -4  -6   54.15    2.10
  -2   4   6   51.91    2.51
   1  -4  -6  112.46    4.18
  -1   4   6  116.28    4.60
   0  -4  -6   44.10    1.77
   0   4   6   45.80    2.17
  -1  -4  -6   36.05    1.46
   1   4   6   35.80    1.87
  -2  -4  -6    0.30    0.19
   2   4   6    0.72    0.15
   2   4   6    0.32    0.36
  -3  -4  -6   68.48    2.66
   3   4   6   69.87    2.96
   3   4   6   68.76    2.57
  -4  -4  -6  366.72   12.81
   4   4   6  362.02   13.03
   4   4   6  352.94   12.70
  -5  -4  -6   20.87    1.11
   5   4   6   19.05    1.20
   5   4   6   18.56    0.99
  -6  -4  -6   41.19    1.85
   6   4   6   37.30    1.77
   6   4   6   39.95    1.78
  -7  -4  -6    7.17    0.82
  -7  -4  -6    6.69    0.51
   7   4   6    7.90    0.82
  -8  -4  -6   20.28    1.29
  -8  -4  -6   22.53    0.99
   8   4   6   20.48    1.29
  -9  -4  -6   11.96    1.03
   9   4   6   14.80    1.13
 -10  -4  -6    9.83    1.02
  10   4   6   10.09    1.08
 -11  -4  -6    7.74    0.95
  11   4   6    6.14    0.95
 -12  -4  -6    0.44    0.51
  12   4   6    0.76    0.67
 -13  -4  -6    3.83    0.80
  13   4   6    4.93    1.00
 -14  -4  -6    5.39    0.95
  14   4   6    7.12    1.18
   9  -5  -6    1.90    0.54
   8  -5  -6    0.16    0.37
  -8   5   6    0.12    0.93
   7  -5  -6    2.05    0.45
  -7   5   6    1.97    0.81
   6  -5  -6   25.48    1.32
  -6   5   6   23.09    1.76
   5  -5  -6    3.99    0.55
  -5   5   6    3.09    0.84
   4  -5  -6    5.32    0.58
  -4   5   6    5.92    0.91
   3  -5  -6    0.34    0.24
  -3   5   6   -0.35    0.45
   2  -5  -6   27.43    1.23
  -2   5   6   26.62    1.65
   1  -5  -6    6.67    0.48
  -1   5   6    6.18    0.83
   0  -5  -6  234.43    8.30
   0   5   6  231.58    8.70
  -1  -5  -6   60.88    2.32
   1   5   6   58.62    2.68
  -2  -5  -6   13.13    0.74
   2   5   6   14.76    1.15
   2   5   6   14.26    0.59
  -3  -5  -6  104.44    3.93
   3   5   6  102.81    3.78
   3   5   6  106.76    4.23
  -4  -5  -6   20.29    1.10
   4   5   6   20.16    0.97
   4   5   6   21.45    1.25
  -5  -5  -6   45.93    2.02
   5   5   6   45.20    2.11
   5   5   6   45.24    1.90
  -6  -5  -6    3.53    0.58
   6   5   6    3.21    0.48
   6   5   6    3.63    0.59
  -7  -5  -6    0.43    0.38
   7   5   6    0.25    0.30
  -8  -5  -6    9.89    1.00
  -8  -5  -6   12.79    0.73
   8   5   6   10.81    0.91
  -9  -5  -6   10.73    0.99
   9   5   6   10.92    0.98
 -10  -5  -6   16.57    1.30
  10   5   6   22.34    1.41
 -11  -5  -6    0.31    0.48
  11   5   6    1.11    0.56
 -12  -5  -6    3.83    0.80
  12   5   6    7.04    1.06
 -13  -5  -6   17.42    1.44
  13   5   6   19.82    1.62
 -14  -5  -6    0.31    0.61
  14   5   6    0.53    0.69
   9  -6  -6    1.28    0.51
   8  -6  -6   11.17    1.05
  -8   6   6    7.89    1.93
   7  -6  -6    1.07    0.46
  -7   6   6    0.71    0.78
   6  -6  -6    1.88    0.48
  -6   6   6    1.56    0.73
   5  -6  -6    0.47    0.33
  -5   6   6    0.75    0.68
   4  -6  -6   32.87    1.55
  -4   6   6   31.02    2.03
   3  -6  -6   33.35    1.52
  -3   6   6   32.20    1.98
   2  -6  -6    0.23    0.23
  -2   6   6    0.09    0.53
   1  -6  -6    1.40    0.32
  -1   6   6    1.29    0.55
   0  -6  -6    8.06    0.56
   0   6   6    7.08    0.90
  -1  -6  -6  111.58    4.07
   1   6   6  106.38    4.42
  -2  -6  -6   78.99    2.95
   2   6   6   70.70    3.23
   2   6   6   77.19    2.70
  -3  -6  -6   11.46    0.75
   3   6   6   11.73    0.59
   3   6   6   10.74    1.03
  -4  -6  -6   53.45    2.31
   4   6   6   56.64    2.16
   4   6   6   53.56    2.48
  -5  -6  -6   28.71    1.44
   5   6   6   26.59    1.29
   5   6   6   28.98    1.52
  -6  -6  -6   97.40    4.02
   6   6   6  105.19    4.05
   6   6   6  102.64    3.92
  -7  -6  -6    1.96    0.54
   7   6   6    3.60    0.54
   7   6   6    3.21    0.52
  -8  -6  -6  122.14    4.93
   8   6   6  126.02    4.84
  -9  -6  -6    1.03    0.50
   9   6   6    1.30    0.47
 -10  -6  -6   21.87    1.46
  10   6   6   20.24    1.35
 -11  -6  -6    7.27    0.99
  11   6   6   10.15    1.09
 -12  -6  -6    3.42    0.79
  12   6   6    4.29    0.82
 -13  -6  -6    1.64    0.67
  13   6   6    0.92    0.72
 -14  -6  -6    0.80    0.62
  14   6   6    1.43    0.76
 -15  -6  -6    4.22    0.95
   8  -7  -6    0.15    0.41
   7  -7  -6    6.29    0.80
  -7   7   6    6.43    1.22
   6  -7  -6    0.79    0.42
  -6   7   6    0.27    0.75
   5  -7  -6   -0.17    0.30
  -5   7   6    0.30    0.72
   4  -7  -6    6.74    0.71
  -4   7   6    7.68    1.22
   3  -7  -6    1.97    0.41
  -3   7   6    2.07    0.81
   2  -7  -6   28.85    1.37
  -2   7   6   26.74    1.87
   1  -7  -6    5.05    0.55
  -1   7   6    5.84    0.94
   0  -7  -6   -0.09    0.22
   0   7   6    0.04    0.48
  -1  -7  -6   46.44    1.92
   1   7   6   43.17    2.25
  -2  -7  -6   30.08    1.39
   2   7   6   30.08    1.70
  -3  -7  -6   23.87    1.22
   3   7   6   24.91    1.02
   3   7   6   22.86    1.49
  -4  -7  -6    2.01    0.45
   4   7   6    0.76    0.48
   4   7   6    1.00    0.27
  -5  -7  -6   13.96    0.99
   5   7   6   14.19    0.81
   5   7   6   11.98    1.00
  -6  -7  -6   66.34    2.80
   6   7   6   61.74    2.74
   6   7   6   65.53    2.63
  -7  -7  -6    2.13    0.53
   7   7   6    3.05    0.55
   7   7   6    2.27    0.44
  -8  -7  -6    0.60    0.47
   8   7   6    0.59    0.37
  -9  -7  -6    3.12    0.69
   9   7   6    2.23    0.53
 -10  -7  -6    7.98    1.00
  10   7   6    8.00    0.91
 -11  -7  -6    2.32    0.68
  11   7   6    4.09    0.75
 -12  -7  -6   15.54    1.33
  12   7   6   17.40    1.44
 -13  -7  -6    2.14    0.76
  13   7   6    2.93    0.77
 -14  -7  -6    0.31    0.60
  14   7   6   -0.04    0.57
 -15  -7  -6    1.93    0.71
   7  -8  -6    3.09    0.62
  -7   8   6    1.70    0.99
   6  -8  -6   17.96    1.17
  -6   8   6   14.09    1.73
   5  -8  -6    6.14    0.76
  -5   8   6    5.51    1.24
   4  -8  -6    4.02    0.61
  -4   8   6    4.72    1.11
   3  -8  -6   10.28    0.79
  -3   8   6    9.05    1.35
   2  -8  -6    0.46    0.32
  -2   8   6    0.14    0.69
   1  -8  -6   35.23    1.63
  -1   8   6   36.41    2.17
   0  -8  -6    0.83    0.34
   0   8   6    1.09    0.63
  -1  -8  -6   85.14    3.33
   1   8   6   83.99    3.76
  -2  -8  -6   49.51    2.13
   2   8   6   49.53    2.46
  -3  -8  -6   68.71    2.85
   3   8   6   64.54    3.10
   3   8   6   74.21    2.60
  -4  -8  -6    2.67    0.51
   4   8   6    3.23    0.38
   4   8   6    2.30    0.62
  -5  -8  -6  144.22    5.56
   5   8   6  140.01    5.66
   5   8   6  149.13    5.33
  -6  -8  -6    1.45    0.47
   6   8   6    1.32    0.35
   6   8   6    1.50    0.47
  -7  -8  -6   16.22    1.20
   7   8   6   16.43    0.99
   7   8   6   15.51    1.08
  -8  -8  -6   28.10    1.66
   8   8   6   28.37    1.48
  -9  -8  -6   11.00    1.17
   9   8   6   12.63    0.99
 -10  -8  -6    2.42    0.67
  10   8   6    3.14    0.64
 -11  -8  -6    6.05    0.97
  11   8   6    6.49    0.88
 -12  -8  -6    8.72    1.11
  12   8   6   10.04    1.11
 -13  -8  -6   11.81    1.33
  13   8   6   16.51    1.43
 -14  -8  -6    1.03    0.70
  14   8   6    2.11    0.74
   6  -9  -6    0.97    0.52
  -6   9   6    0.31    0.94
   5  -9  -6    3.11    0.63
  -5   9   6    3.55    1.12
   4  -9  -6   -0.56    0.36
  -4   9   6    0.00    0.75
   3  -9  -6    0.61    0.41
  -3   9   6    0.42    0.76
   2  -9  -6    0.16    0.35
  -2   9   6    0.66    0.77
   1  -9  -6    3.30    0.52
  -1   9   6    1.65    0.81
   0  -9  -6    0.20    0.32
   0   9   6    0.65    0.61
  -1  -9  -6    1.24    0.37
   1   9   6    0.71    0.65
  -2  -9  -6   11.59    0.86
   2   9   6    9.42    1.16
  -3  -9  -6    9.91    0.81
   3   9   6    6.86    0.95
  -4  -9  -6    5.62    0.73
   4   9   6    6.29    0.53
   4   9   6    6.13    0.88
  -5  -9  -6  127.06    5.06
   5   9   6  127.08    5.20
   5   9   6  131.58    4.78
  -6  -9  -6    2.11    0.60
   6   9   6    1.99    0.40
   6   9   6    2.23    0.59
  -7  -9  -6    5.99    0.81
   7   9   6    6.51    0.69
   7   9   6    6.88    0.81
  -8  -9  -6   49.16    2.42
   8   9   6   48.86    2.21
  -9  -9  -6    1.97    0.60
   9   9   6    2.01    0.51
 -10  -9  -6   14.19    1.28
  10   9   6   15.77    1.16
 -11  -9  -6    2.10    0.67
  11   9   6    2.00    0.63
 -12  -9  -6    0.30    0.56
  12   9   6    0.52    0.53
 -13  -9  -6    0.43    0.60
  13   9   6    0.84    0.65
 -14  -9  -6    1.58    0.70
  14   9   6    1.89    0.74
   5 -10  -6    3.34    0.69
  -5  10   6    2.56    1.15
   4 -10  -6    5.46    0.80
  -4  10   6    5.38    1.32
   3 -10  -6    4.12    0.67
  -3  10   6    1.29    0.98
   2 -10  -6   52.66    2.41
  -2  10   6   55.04    3.21
   1 -10  -6    0.65    0.44
  -1  10   6    1.89    0.86
   0 -10  -6   14.88    1.07
   0  10   6   16.05    1.73
  -1 -10  -6   10.82    0.89
   1  10   6   12.01    1.44
  -2 -10  -6   12.51    0.95
   2  10   6   11.94    1.37
  -3 -10  -6    1.00    0.47
   3  10   6    1.38    0.64
  -4 -10  -6    1.86    0.54
   4  10   6    1.12    0.56
  -5 -10  -6   17.83    1.26
   5  10   6   17.25    1.33
  -6 -10  -6   19.44    1.38
   6  10   6   18.28    1.36
   6  10   6   20.09    1.07
  -7 -10  -6    7.72    0.96
   7  10   6    7.23    0.72
   7  10   6    6.74    0.85
  -8 -10  -6   20.62    1.45
   8  10   6   20.03    1.21
  -9 -10  -6   14.28    1.26
   9  10   6   14.63    1.10
 -10 -10  -6   16.33    1.42
  10  10   6   20.75    1.33
 -11 -10  -6    6.57    1.00
  11  10   6    7.74    0.95
 -12 -10  -6    9.44    1.16
  12  10   6    9.84    1.10
 -13 -10  -6    1.25    0.66
  13  10   6    1.09    0.62
 -14 -10  -6    0.10    0.56
  14  10   6    0.18    0.58
   4 -11  -6    2.20    0.60
  -4  11   6    0.99    1.02
   3 -11  -6    3.35    0.67
  -3  11   6    2.89    1.14
   2 -11  -6   14.23    1.15
  -2  11   6   15.20    1.89
   1 -11  -6    0.33    0.46
  -1  11   6    0.58    0.79
   0 -11  -6    0.76    0.46
   0  11   6    0.90    0.83
  -1 -11  -6   18.02    1.19
   1  11   6   15.61    1.60
  -2 -11  -6   31.75    1.67
   2  11   6   30.27    2.09
  -3 -11  -6   19.92    1.35
   3  11   6   21.67    1.65
  -4 -11  -6   16.71    1.23
   4  11   6   14.52    1.37
  -5 -11  -6   26.29    1.60
   5  11   6   21.43    1.57
  -6 -11  -6    5.37    0.86
   6  11   6    5.79    0.91
  -7 -11  -6    1.58    0.61
   7  11   6    1.61    0.46
   7  11   6    1.50    0.54
  -8 -11  -6   14.19    1.27
   8  11   6   16.34    1.09
  -9 -11  -6   15.83    1.42
   9  11   6   17.92    1.23
 -10 -11  -6    1.20    0.62
  10  11   6    0.03    0.41
 -11 -11  -6    3.57    0.83
  11  11   6    2.81    0.68
 -12 -11  -6    3.34    0.83
  12  11   6    3.58    0.76
 -13 -11  -6    0.49    0.61
  13  11   6    1.20    0.64
 -14 -11  -6    0.23    0.59
  14  11   6    2.14    0.72
   3 -12  -6    1.06    0.57
  -3  12   6   -0.30    0.91
   2 -12  -6    3.81    0.73
  -2  12   6    2.51    1.05
   1 -12  -6    2.99    0.66
  -1  12   6    0.88    0.97
   0 -12  -6    4.42    0.73
   0  12   6    1.90    1.00
  -1 -12  -6   12.40    1.07
   1  12   6    9.99    1.49
  -2 -12  -6   28.28    1.61
   2  12   6   23.15    1.91
  -3 -12  -6   25.72    1.54
   3  12   6   21.10    1.78
  -4 -12  -6    7.72    0.98
   4  12   6    6.61    1.07
  -5 -12  -6    0.91    0.62
   5  12   6    1.81    0.71
  -6 -12  -6    1.88    0.67
   6  12   6    2.20    0.72
  -7 -12  -6    3.09    0.77
  -8 -12  -6   18.23    1.47
  -9 -12  -6    7.78    1.08
   9  12   6    7.30    0.90
 -10 -12  -6   27.34    1.81
  10  12   6   27.88    1.57
 -11 -12  -6    0.28    0.66
  11  12   6    0.62    0.51
 -12 -12  -6    6.55    1.07
  12  12   6    8.08    0.98
 -13 -12  -6    9.10    1.21
  13  12   6   13.05    1.24
   2 -13  -6    6.14    0.92
  -2  13   6    6.77    1.55
   1 -13  -6    2.15    0.69
  -1  13   6    1.89    1.09
   0 -13  -6    2.82    0.72
   0  13   6    2.26    1.09
  -1 -13  -6    9.11    1.06
   1  13   6    7.64    1.40
  -2 -13  -6    1.77    0.64
   2  13   6    2.22    0.94
  -3 -13  -6   -0.33    0.54
   3  13   6   -0.40    0.63
  -4 -13  -6    1.37    0.72
   4  13   6    0.54    0.67
  -5 -13  -6    0.52    0.66
   5  13   6   -0.33    0.57
  -6 -13  -6    4.81    0.89
   6  13   6    2.56    0.81
  -7 -13  -6    1.75    0.71
  -8 -13  -6    1.76    0.72
  -9 -13  -6    0.19    0.62
 -10 -13  -6    1.79    0.72
 -11 -13  -6    0.52    0.67
 -12 -13  -6    0.89    0.72
  12  13   6    1.21    0.58
   0 -14  -6    0.41    0.62
   0  14   6   -0.86    0.82
  -1 -14  -6    6.57    0.99
   1  14   6    6.33    1.34
  -2 -14  -6   -0.35    0.64
   2  14   6    1.15    0.89
  -3 -14  -6   27.28    1.77
   3  14   6   19.55    1.88
  -4 -14  -6    4.44    0.94
   4  14   6    1.41    0.81
  -5 -14  -6   41.87    2.24
   5  14   6   30.51    2.18
  -6 -14  -6    7.19    1.11
   6  14   6    5.54    1.05
  -7 -14  -6   32.16    2.02
  -8 -14  -6    0.21    0.64
  -9 -14  -6    0.95    0.72
 -10 -14  -6    1.82    0.75
 -11 -14  -6    0.82    0.72
  -2 -15  -6    0.61    0.72
  -3 -15  -6    1.56    0.80
   3  15   6    0.60    0.83
  -4 -15  -6    0.61    0.74
   4  15   6    0.32    0.77
  -5 -15  -6   -0.11    0.62
   5  15   6    0.31    0.74
  -6 -15  -6   -0.10    0.60
  -7 -15  -6    3.00    0.87
  -8 -15  -6    1.78    0.76
  -9 -15  -6   -0.17    0.63
 -10 -15  -6    1.31    0.74
   6  14  -7    9.45    1.22
   5  14  -7    3.01    0.86
   3  14  -7   13.88    1.64
   2  14  -7    6.94    1.29
   9  13  -7    7.18    1.04
   8  13  -7    8.55    1.14
   7  13  -7    7.40    1.07
   6  13  -7    4.98    0.95
   5  13  -7    9.70    1.23
   4  13  -7    0.55    0.78
  -4 -13   7    0.90    0.66
   3  13  -7    0.82    0.73
  -3 -13   7    0.94    0.63
   2  13  -7    7.30    1.20
   1  13  -7    1.85    0.94
   0  13  -7   19.62    2.13
  -1  13  -7    0.38    0.97
  10  12  -7    8.45    1.10
 -10 -12   7    6.75    0.90
   9  12  -7    8.01    1.06
  -9 -12   7    6.90    0.90
   8  12  -7    2.80    0.76
   7  12  -7    9.25    1.12
   6  12  -7    3.21    0.79
  -5 -12   7    1.47    0.71
   4  12  -7    7.23    1.09
  -4 -12   7    8.78    1.12
   3  12  -7    1.56    0.73
  -3 -12   7    1.18    0.63
   2  12  -7    0.33    0.67
  -2 -12   7    0.35    0.52
   1  12  -7   -0.29    0.68
  -1 -12   7    0.07    0.51
   0  12  -7    1.50    0.88
  -1  12  -7    0.15    0.81
  -2  12  -7    0.86    0.95
  -3  12  -7    5.96    1.53
  11  11  -7    0.01    0.55
 -11 -11   7    0.32    0.49
  10  11  -7   -0.03    0.50
 -10 -11   7    0.68    0.51
   9  11  -7    1.25    0.61
  -9 -11   7    1.44    0.54
   8  11  -7    3.20    0.72
  -8 -11   7    3.05    0.63
   7  11  -7   17.78    1.31
  -7 -11   7   12.69    1.08
   6  11  -7    0.27    0.48
  -6 -11   7    0.39    0.51
  -5 -11   7   52.95    2.74
   4  11  -7    0.38    0.51
  -4 -11   7    0.25    0.56
   3  11  -7   49.11    2.54
  -3 -11   7   52.02    2.56
   2  11  -7   -0.02    0.53
  -2 -11   7    0.15    0.48
   1  11  -7   35.86    2.21
  -1 -11   7   35.12    1.94
   0  11  -7    6.63    1.17
   0 -11   7    5.98    0.86
  -1  11  -7    0.26    0.82
   1 -11   7   -0.59    0.39
  -2  11  -7    5.16    1.28
  -3  11  -7   19.74    1.98
  -4  11  -7   11.20    1.74
  11  10  -7    0.06    0.53
 -11 -10   7   -0.12    0.43
  10  10  -7    0.49    0.54
 -10 -10   7    0.70    0.46
   9  10  -7   -0.29    0.44
  -9 -10   7    0.15    0.43
   8  10  -7    1.92    0.62
  -8 -10   7    2.82    0.61
   7  10  -7    3.32    0.70
  -7 -10   7    3.55    0.64
   6  10  -7    0.93    0.52
  -6 -10   7    0.56    0.39
   5  10  -7    9.87    0.99
  -5 -10   7    8.39    1.05
  -5 -10   7   10.07    0.86
   4  10  -7   15.70    1.20
  -4 -10   7   15.70    1.32
  -4 -10   7   15.32    1.63
   3  10  -7    0.21    0.46
  -3 -10   7   -0.67    0.39
   2  10  -7    6.47    0.99
  -2 -10   7    7.55    0.93
   1  10  -7    0.68    0.60
  -1 -10   7    0.49    0.46
   0  10  -7    5.82    1.03
   0 -10   7    5.67    0.80
  -1  10  -7    0.03    0.65
   1 -10   7   -0.11    0.40
  -2  10  -7    4.12    1.07
   2 -10   7    4.16    0.77
  -3  10  -7   12.43    1.66
  -4  10  -7    0.05    0.93
  -5  10  -7    0.61    0.98
  -6  10  -7   -0.54    1.01
  12   9  -7    9.33    1.21
  11   9  -7    6.98    1.07
 -11  -9   7    6.50    0.93
  10   9  -7   27.89    1.79
 -10  -9   7   26.80    1.64
   9   9  -7    0.30    0.47
  -9  -9   7    0.18    0.42
   8   9  -7   19.67    1.42
  -8  -9   7   17.94    1.24
   7   9  -7   15.26    1.20
  -7  -9   7   16.62    1.12
   6   9  -7    4.90    0.75
  -6  -9   7    4.91    0.69
   5   9  -7    3.27    0.58
  -5  -9   7    3.27    0.56
  -5  -9   7    2.93    0.73
   4   9  -7   76.70    3.26
  -4  -9   7   77.47    3.44
  -4  -9   7   79.54    3.17
   3   9  -7   20.00    1.32
  -3  -9   7   19.75    1.38
  -3  -9   7   19.97    1.15
   2   9  -7    2.78    0.66
  -2  -9   7    3.34    0.64
   1   9  -7   18.30    1.35
  -1  -9   7   18.78    1.28
   0   9  -7   27.36    1.78
   0  -9   7   23.79    1.45
  -1   9  -7   24.62    1.73
   1  -9   7   20.84    1.37
  -2   9  -7    8.77    1.22
   2  -9   7    6.45    0.83
  -3   9  -7   -0.23    0.67
   3  -9   7    0.24    0.42
  -4   9  -7    0.92    0.81
   4  -9   7   -0.04    0.43
  -5   9  -7    0.81    0.95
  -6   9  -7   14.32    1.82
  -7   9  -7    9.26    1.70
  12   8  -7    1.04    0.70
 -12  -8   7    1.29    0.57
  11   8  -7    1.27    0.67
 -11  -8   7    0.81    0.54
  10   8  -7    1.41    0.64
 -10  -8   7    1.02    0.51
   9   8  -7    2.12    0.62
  -9  -8   7    3.33    0.62
   8   8  -7    2.02    0.58
  -8  -8   7    1.10    0.45
   7   8  -7    0.83    0.42
  -7  -8   7    0.74    0.37
   6   8  -7    2.86    0.62
  -6  -8   7    1.95    0.46
   5   8  -7   28.47    1.42
  -5  -8   7   27.05    1.69
  -5  -8   7   28.10    1.42
   4   8  -7   29.60    1.53
  -4  -8   7   28.27    1.69
  -4  -8   7   30.74    1.46
   3   8  -7   27.96    1.50
  -3  -8   7   27.39    1.34
  -3  -8   7   25.38    1.55
   2   8  -7   28.77    1.59
  -2  -8   7   29.53    1.36
  -2  -8   7   25.43    1.53
   1   8  -7   20.69    1.34
  -1  -8   7   17.43    1.19
   0   8  -7   49.89    2.46
   0  -8   7   50.65    2.31
  -1   8  -7    5.87    0.92
   1  -8   7    4.87    0.67
  -2   8  -7    1.57    0.67
   2  -8   7    0.86    0.43
  -3   8  -7    4.63    0.93
   3  -8   7    2.75    0.58
  -4   8  -7    4.30    1.03
   4  -8   7    4.71    0.71
  -5   8  -7    2.20    0.93
   5  -8   7    1.60    0.55
  -6   8  -7    0.54    0.90
   6  -8   7   -0.15    0.44
  -7   8  -7    7.65    1.40
  -8   8  -7    0.38    1.06
  12   7  -7    2.00    0.78
 -12  -7   7    0.50    0.50
  11   7  -7   10.61    1.31
 -11  -7   7    9.45    1.05
  10   7  -7    5.75    0.95
 -10  -7   7    6.90    0.87
   9   7  -7    2.24    0.65
  -9  -7   7    3.59    0.64
   8   7  -7   28.33    1.70
  -8  -7   7   27.39    1.50
   7   7  -7   55.34    2.56
  -7  -7   7   54.37    2.42
   6   7  -7   50.21    2.40
  -6  -7   7   52.79    2.26
   5   7  -7    2.01    0.39
  -5  -7   7    1.57    0.40
  -5  -7   7    2.38    0.61
   4   7  -7    6.58    0.68
  -4  -7   7    6.10    0.61
  -4  -7   7    4.66    0.73
   3   7  -7    1.63    0.43
  -3  -7   7    1.90    0.37
  -3  -7   7    1.90    0.53
   2   7  -7   10.77    0.89
  -2  -7   7   10.59    0.91
  -2  -7   7   10.93    0.71
   1   7  -7   56.88    2.56
  -1  -7   7   53.91    2.50
  -1  -7   7   60.99    2.29
   0   7  -7  105.00    4.34
   0  -7   7  113.29    4.00
   0  -7   7  101.15    4.19
  -1   7  -7   13.62    1.13
   1  -7   7   11.58    0.90
  -2   7  -7   12.32    1.16
   2  -7   7   11.30    0.93
  -3   7  -7    5.21    0.89
   3  -7   7    4.63    0.66
  -4   7  -7   48.53    2.61
   4  -7   7   44.68    2.17
  -5   7  -7    0.59    0.71
   5  -7   7    0.07    0.44
  -6   7  -7   -0.17    0.73
   6  -7   7    1.12    0.52
  -7   7  -7    1.53    0.94
   7  -7   7    0.49    0.49
  -8   7  -7    2.55    1.06
  -9   7  -7    2.59    1.23
  12   6  -7    4.36    0.94
 -12  -6   7    2.93    0.73
  11   6  -7    0.11    0.60
 -11  -6   7    0.54    0.49
  10   6  -7    5.45    0.95
 -10  -6   7    5.38    0.81
   9   6  -7    3.70    0.76
  -9  -6   7    3.98    0.66
   8   6  -7   17.82    1.29
  -8  -6   7   15.39    1.09
   7   6  -7   29.05    1.66
  -7  -6   7   30.67    1.52
   6   6  -7   11.01    0.95
  -6  -6   7   11.95    0.86
   5   6  -7   19.10    0.97
  -5  -6   7   20.45    1.35
  -5  -6   7   18.20    1.04
   4   6  -7   17.96    0.96
  -4  -6   7   16.53    0.94
  -4  -6   7   17.62    1.21
   3   6  -7    1.40    0.37
  -3  -6   7    1.14    0.46
  -3  -6   7    1.25    0.31
   2   6  -7    2.63    0.48
  -2  -6   7    1.52    0.45
  -2  -6   7    2.53    0.37
   1   6  -7    0.30    0.34
  -1  -6   7    0.52    0.24
  -1  -6   7    0.86    0.37
   0   6  -7   17.93    1.17
   0  -6   7   16.93    1.12
   0  -6   7   21.55    0.92
  -1   6  -7    2.93    0.64
   1  -6   7    2.71    0.50
   1  -6   7    3.34    0.37
  -2   6  -7   12.19    1.07
   2  -6   7   10.65    0.85
  -3   6  -7    0.52    0.52
   3  -6   7    0.40    0.34
  -4   6  -7    7.43    1.03
   4  -6   7    9.11    0.84
  -5   6  -7   14.44    1.39
   5  -6   7   12.18    0.99
  -6   6  -7   12.37    1.43
   6  -6   7    9.48    0.99
  -7   6  -7    2.22    0.88
   7  -6   7    0.66    0.50
  -8   6  -7    6.32    1.31
   8  -6   7    5.63    0.87
  -9   6  -7    0.83    0.97
   9  -6   7    3.05    0.75
  12   5  -7    2.77    0.80
 -12  -5   7    0.54    0.52
  11   5  -7    0.82    0.63
 -11  -5   7    0.34    0.48
  10   5  -7    0.58    0.58
 -10  -5   7    1.22    0.50
   9   5  -7   12.08    1.22
  -9  -5   7   12.03    1.01
   8   5  -7   13.22    1.11
  -8  -5   7   11.10    0.91
   7   5  -7   31.96    1.77
  -7  -5   7   32.18    1.58
   6   5  -7    3.66    0.59
  -6  -5   7    4.23    0.54
   5   5  -7   60.19    2.32
  -5  -5   7   58.48    2.72
  -5  -5   7   59.03    2.42
   4   5  -7   19.76    0.99
  -4  -5   7   22.97    1.34
  -4  -5   7   19.02    1.01
   3   5  -7  295.40   10.35
  -3  -5   7  285.54   10.57
  -3  -5   7  288.56   10.27
   2   5  -7   21.24    1.14
  -2  -5   7   23.27    1.02
  -2  -5   7   22.86    1.28
   1   5  -7   10.20    0.76
  -1  -5   7   10.95    0.58
  -1  -5   7   10.62    0.82
   0   5  -7   93.04    3.80
   0  -5   7   91.41    3.74
   0  -5   7  103.37    3.49
  -1   5  -7  114.24    4.61
   1  -5   7  128.61    4.24
   1  -5   7  110.43    4.50
  -2   5  -7    4.59    0.68
   2  -5   7    2.84    0.29
   2  -5   7    3.37    0.51
  -3   5  -7   65.80    2.86
   3  -5   7   60.85    2.63
  -4   5  -7   54.51    2.63
   4  -5   7   56.43    2.42
  -5   5  -7   29.29    1.78
   5  -5   7   29.38    1.56
  -6   5  -7   14.62    1.33
   6  -5   7   13.26    1.07
  -7   5  -7    0.35    0.65
   7  -5   7    0.15    0.42
  -8   5  -7    4.03    1.00
   8  -5   7    3.87    0.74
  -9   5  -7    2.10    0.98
   9  -5   7    0.97    0.59
  10  -5   7    0.10    0.58
  12   4  -7    1.78    0.76
 -12  -4   7    2.07    0.63
  11   4  -7    0.27    0.55
 -11  -4   7   -0.32    0.40
  10   4  -7    4.54    0.88
 -10  -4   7    3.14    0.68
   9   4  -7    1.24    0.59
  -9  -4   7    0.11    0.39
   8   4  -7    5.79    0.85
  -8  -4   7    5.35    0.67
   7   4  -7    1.67    0.50
  -7  -4   7    2.02    0.45
   6   4  -7   18.28    1.17
  -6  -4   7   16.98    1.01
   5   4  -7    2.63    0.32
  -5  -4   7    2.76    0.43
  -5  -4   7    2.55    0.63
   4   4  -7    3.64    0.39
  -4  -4   7    2.69    0.55
  -4  -4   7    4.98    0.49
   3   4  -7  104.79    3.95
  -3  -4   7  107.32    3.92
   2   4  -7   17.50    0.93
  -2  -4   7   16.44    1.06
  -2  -4   7   19.59    0.84
   1   4  -7   14.11    0.86
  -1  -4   7   14.80    0.95
  -1  -4   7   17.02    0.70
   0   4  -7   47.84    2.12
   0  -4   7   45.74    2.09
   0  -4   7   54.84    1.84
  -1   4  -7    0.50    0.30
   1  -4   7    0.41    0.28
  -2   4  -7   10.53    0.82
   2  -4   7    9.97    0.72
  -3   4  -7    1.34    0.45
   3  -4   7    2.26    0.18
   3  -4   7    1.83    0.40
  -4   4  -7    4.19    0.69
   4  -4   7    3.49    0.52
   4  -4   7    3.61    0.26
  -5   4  -7    0.48    0.45
   5  -4   7    0.27    0.15
   5  -4   7    0.88    0.41
  -6   4  -7    6.45    0.93
   6  -4   7    5.52    0.72
  -7   4  -7    6.42    0.99
   7  -4   7    5.08    0.76
  -8   4  -7    7.94    1.17
   8  -4   7    6.67    0.91
  -9   4  -7    1.40    0.81
   9  -4   7   -0.53    0.47
  10  -4   7    1.95    0.72
  11  -4   7    6.21    1.08
  12   3  -7    6.44    1.06
 -12  -3   7    4.22    0.79
  11   3  -7   11.05    1.29
 -11  -3   7    9.89    1.09
  10   3  -7   26.03    1.76
 -10  -3   7   21.25    1.41
   9   3  -7    1.60    0.62
  -9  -3   7    0.96    0.44
   8   3  -7    0.91    0.50
  -8  -3   7    1.75    0.45
   7   3  -7   20.19    1.35
  -7  -3   7   23.49    1.25
   6   3  -7  120.70    4.80
   6   3  -7  125.71    4.40
  -6  -3   7  116.74    4.60
   5   3  -7    0.67    0.35
   5   3  -7    0.48    0.18
  -5  -3   7    0.95    0.30
   4   3  -7  123.11    4.45
  -4  -3   7  120.20    4.72
  -4  -3   7  121.10    4.49
   3   3  -7    4.50    0.40
  -3  -3   7    5.26    0.42
  -3  -3   7    5.24    0.61
   2   3  -7  182.27    6.74
  -2  -3   7  183.93    6.87
  -2  -3   7  193.76    6.64
   1   3  -7   52.35    2.20
  -1  -3   7   53.66    2.29
  -1  -3   7   58.54    2.04
   0   3  -7   11.57    0.71
   0  -3   7   12.09    0.76
   0  -3   7   12.21    0.49
  -1   3  -7   47.23    1.97
   1  -3   7   45.24    1.93
  -2   3  -7    1.39    0.37
   2  -3   7    1.51    0.33
  -3   3  -7   11.95    0.88
   3  -3   7   11.05    0.77
   3  -3   7   11.47    0.45
  -4   3  -7    4.21    0.63
   4  -3   7    3.69    0.53
   4  -3   7    3.65    0.24
  -5   3  -7   14.24    1.08
   5  -3   7   13.98    0.62
   5  -3   7   12.87    0.94
  -6   3  -7   36.97    1.94
  -6   3  -7   37.48    1.54
   6  -3   7   36.67    1.81
  -7   3  -7    9.75    1.09
   7  -3   7    8.45    0.91
  -8   3  -7   87.39    3.77
   8  -3   7   77.24    3.47
  -9   3  -7    5.85    1.03
   9  -3   7    6.28    0.93
  10  -3   7    2.97    0.77
  11  -3   7    3.43    0.91
  12  -3   7    0.76    0.80
  12   2  -7    1.33    0.69
 -12  -2   7    0.22    0.51
  11   2  -7    0.68    0.63
 -11  -2   7    0.44    0.51
  10   2  -7   10.19    1.22
 -10  -2   7    8.57    0.94
   9   2  -7    1.20    0.59
  -9  -2   7    0.77    0.45
   8   2  -7    0.43    0.47
  -8  -2   7    0.20    0.35
   7   2  -7    8.58    0.96
  -7  -2   7    6.77    0.72
   6   2  -7   15.78    1.08
  -6  -2   7   17.36    0.94
  -6  -2   7   14.81    0.97
   5   2  -7    0.73    0.35
  -5  -2   7    0.62    0.28
  -5  -2   7    0.27    0.29
  -4  -2   7    3.49    0.56
  -4  -2   7    2.61    0.38
  -4  -2   7    3.93    0.51
   3   2  -7  186.79    6.82
  -3  -2   7  192.26    6.78
  -3  -2   7  188.92    6.98
   2   2  -7    3.25    0.39
  -2  -2   7    4.08    0.52
  -2  -2   7    3.41    0.31
   1   2  -7    8.92    0.57
  -1  -2   7    8.34    0.42
  -1  -2   7    7.58    0.62
   0   2  -7  284.57   10.44
   0  -2   7  299.23   10.20
   0  -2   7  297.33   10.46
  -1   2  -7    6.34    0.50
   1  -2   7    5.51    0.50
  -2   2  -7   61.88    2.50
   2  -2   7   62.35    2.46
  -3   2  -7  126.36    4.69
   3  -2   7  121.19    4.61
  -4   2  -7    4.41    0.57
  -4   2  -7    4.95    0.29
   4  -2   7    3.04    0.46
  -5   2  -7    3.29    0.32
  -5   2  -7    3.29    0.57
   5  -2   7    3.40    0.52
  -6   2  -7    0.80    0.44
  -6   2  -7    0.99    0.26
   6  -2   7    1.73    0.47
  -7   2  -7    1.97    0.34
  -7   2  -7    1.72    0.57
   7  -2   7    1.70    0.53
  -8   2  -7    9.98    1.09
  -8   2  -7    9.45    0.74
   8  -2   7   10.11    1.05
  -9   2  -7    4.71    0.87
   9  -2   7    3.40    0.76
  10  -2   7    0.46    0.64
  11  -2   7    0.25    0.66
  12  -2   7   -0.28    0.69
 -12  -1   7    0.89    0.55
  11   1  -7    1.00    0.69
 -11  -1   7    1.19    0.54
  10   1  -7    0.18    0.56
 -10  -1   7    0.37    0.45
   9   1  -7   28.83    1.85
  -9  -1   7   26.36    1.56
   8   1  -7   11.81    1.16
  -8  -1   7   13.97    1.00
   7   1  -7    9.16    1.05
  -7  -1   7    8.41    0.75
   6   1  -7   21.89    1.33
  -6  -1   7   21.72    1.20
  -6  -1   7   23.30    1.21
   5   1  -7    2.43    0.48
  -5  -1   7    2.16    0.46
  -5  -1   7    1.34    0.33
   4   1  -7   24.19    1.34
  -4  -1   7   26.55    1.35
  -4  -1   7   27.21    1.21
  -3  -1   7    2.34    0.45
  -3  -1   7    1.43    0.25
  -3  -1   7    1.27    0.37
  -2  -1   7  105.40    4.12
  -2  -1   7  103.41    3.83
  -2  -1   7  107.92    4.01
  -1  -1   7   35.35    1.38
  -1  -1   7   36.56    1.55
  -1  -1   7   34.79    1.70
   0  -1   7  132.59    4.64
   0  -1   7  130.94    4.82
  -1   1  -7  143.99    5.30
   1  -1   7  143.97    5.24
   2  -1   7  103.38    3.84
  -3   1  -7    1.85    0.15
  -3   1  -7    1.55    0.33
   3  -1   7    1.64    0.32
  -4   1  -7   13.31    0.84
  -4   1  -7   14.64    0.62
   4  -1   7   13.81    0.86
  -5   1  -7   26.94    1.42
  -5   1  -7   30.11    1.21
   5  -1   7   30.49    1.46
  -6   1  -7   49.74    1.95
  -6   1  -7   48.31    2.19
   6  -1   7   49.43    2.21
  -7   1  -7    8.19    0.62
  -7   1  -7    8.50    0.83
   7  -1   7    9.20    0.93
  -8   1  -7    0.86    0.34
  -8   1  -7    0.03    0.42
   8  -1   7   -0.37    0.41
  -9   1  -7   11.19    1.07
  -9   1  -7   10.48    0.84
   9  -1   7   10.15    1.11
 -10   1  -7   17.54    1.22
  10  -1   7   16.92    1.45
  11  -1   7   21.52    1.71
  12  -1   7    4.17    1.01
  13  -1   7    2.42    1.01
 -12   0   7    0.70    0.52
 -11   0   7    6.60    0.92
  10   0  -7   17.96    1.64
 -10   0   7   20.09    1.34
   9   0  -7    0.73    0.60
  -9   0   7   -0.17    0.38
   8   0  -7    1.63    0.60
  -8   0   7    1.09    0.43
   7   0  -7   58.91    2.74
  -7   0   7   58.56    2.68
  -7   0   7   55.38    2.48
   6   0  -7    3.93    0.70
  -6   0   7    3.20    0.56
  -6   0   7    3.86    0.55
   5   0  -7   45.99    2.25
  -5   0   7   52.77    2.14
  -5   0   7   52.98    2.26
   4   0  -7   80.59    3.27
  -4   0   7   81.28    3.30
  -4   0   7   81.35    3.12
  -3   0   7   34.90    1.70
  -3   0   7   33.13    1.55
  -3   0   7   34.34    1.45
  -2   0   7   10.13    0.67
  -2   0   7    9.00    0.85
  -2   0   7   10.76    0.58
  -1   0   7    1.15    0.21
  -1   0   7    1.18    0.28
  -1   0   7    1.36    0.48
   0   0  -7  132.81    4.73
   0   0   7  132.43    4.87
   0   0   7  137.69    5.23
  -1   0  -7  143.57    4.93
   1   0   7  138.46    5.08
   1   0   7  139.04    5.40
  -2   0  -7   37.87    1.67
  -2   0  -7   39.53    1.46
   2   0   7   37.58    1.57
  -3   0  -7   55.92    1.94
  -3   0  -7   50.22    2.14
   3   0   7   50.13    2.08
  -4   0  -7   61.35    2.23
  -4   0  -7   60.57    2.42
   4   0   7   57.05    2.38
  -5   0  -7    1.74    0.28
  -5   0  -7    0.78    0.32
   5   0   7    1.05    0.35
  -6   0  -7    0.96    0.33
  -6   0  -7   -0.17    0.21
   6   0   7    0.31    0.35
  -7   0  -7    0.53    0.34
  -7   0  -7    0.23    0.26
   7   0   7    0.79    0.42
  -8   0  -7   35.64    1.70
  -8   0  -7   38.92    1.86
   8   0   7   38.19    1.95
  -9   0  -7    2.39    0.48
  -9   0  -7    1.48    0.50
   9   0   7    0.58    0.53
 -10   0  -7    6.79    0.80
  10   0   7    7.03    1.03
 -11   0  -7    5.02    0.75
  11   0   7    2.87    0.89
  12   0   7    3.15    0.95
  13   0   7    3.53    1.10
 -11   1   7    7.02    0.95
 -10   1   7    0.71    0.50
   9  -1  -7   10.78    1.32
  -9   1   7   11.54    1.02
   8  -1  -7    0.73    0.58
  -8   1   7    1.06    0.46
   7  -1  -7   14.00    1.20
  -7   1   7   16.56    1.18
  -7   1   7   15.90    1.04
   6  -1  -7    1.43    0.52
  -6   1   7    1.07    0.36
  -6   1   7    1.19    0.50
   5  -1  -7   40.19    2.08
  -5   1   7   42.65    1.88
  -5   1   7   45.82    2.11
   4  -1  -7    3.56    0.54
  -4   1   7    3.22    0.45
  -4   1   7    2.34    0.57
   3  -1  -7   24.76    1.22
  -3   1   7   25.16    1.15
  -3   1   7   23.75    1.40
  -2   1   7   18.37    1.20
  -2   1   7   18.05    0.92
  -2   1   7   17.52    0.87
  -1   1   7  221.86    7.77
  -1   1   7  218.88    7.80
  -1   1   7  216.78    8.20
   0  -1  -7   20.45    0.85
   0   1   7   20.10    0.92
   0   1   7   22.01    1.42
  -1  -1  -7   27.50    1.07
   1   1   7   29.47    1.65
   1   1   7   26.18    1.14
  -2  -1  -7    3.26    0.27
   2   1   7    2.57    0.57
   2   1   7    3.00    0.33
  -3  -1  -7  422.70   14.92
  -3  -1  -7  421.20   14.77
   3   1   7  421.28   14.80
  -4  -1  -7   83.82    3.01
  -4  -1  -7   79.68    3.10
   4   1   7   75.38    3.05
  -5  -1  -7   56.88    2.21
  -5  -1  -7   56.52    2.30
   5   1   7   54.15    2.31
  -6  -1  -7    4.50    0.49
  -6  -1  -7    3.60    0.48
   6   1   7    3.89    0.58
  -7  -1  -7    0.47    0.32
  -7  -1  -7    1.29    0.33
   7   1   7   -0.02    0.38
  -8  -1  -7    9.49    0.77
  -8  -1  -7    9.85    0.81
   8   1   7   10.38    0.98
  -9  -1  -7   14.09    0.98
  -9  -1  -7   12.42    0.93
   9   1   7   11.71    1.21
 -10  -1  -7   27.31    1.48
  10   1   7   25.36    1.73
 -11  -1  -7    1.29    0.52
  11   1   7   -0.93    0.58
 -12  -1  -7    0.94    0.55
  12   1   7    0.60    0.73
  13   1   7    9.59    1.40
 -11   2   7   -0.24    0.50
 -10   2   7    1.92    0.65
  -9   2   7    1.12    0.51
  -8   2   7    0.55    0.41
   7  -2  -7   38.78    2.10
  -7   2   7   44.43    2.21
  -7   2   7   40.80    1.97
   6  -2  -7   19.59    1.28
  -6   2   7   19.83    1.14
  -6   2   7   18.71    1.36
   5  -2  -7   19.00    1.23
  -5   2   7   18.18    1.08
  -5   2   7   19.89    1.38
   4  -2  -7   22.91    1.33
  -4   2   7   26.50    1.56
  -4   2   7   24.42    1.21
   3  -2  -7   62.75    2.61
  -3   2   7   63.68    2.84
  -3   2   7   63.75    2.52
   2  -2  -7   14.53    0.79
  -2   2   7   14.58    0.79
  -2   2   7   15.21    1.12
   1  -2  -7   42.26    1.70
  -1   2   7   44.91    1.72
  -1   2   7   43.92    2.14
   0  -2  -7   20.09    0.87
   0   2   7   20.73    0.88
   0   2   7   20.71    1.35
  -1  -2  -7   26.84    1.08
   1   2   7   26.43    1.09
   1   2   7   26.60    1.63
  -2  -2  -7   17.88    0.78
   2   2   7   17.74    0.80
   2   2   7   16.63    1.29
  -3  -2  -7   30.84    1.34
   3   2   7   30.61    1.75
   3   2   7   32.72    1.32
  -4  -2  -7    2.09    0.39
   4   2   7    1.99    0.34
   4   2   7    3.03    0.56
  -5  -2  -7    7.35    0.57
  -5  -2  -7    7.26    0.62
   5   2   7    4.94    0.54
  -6  -2  -7   53.22    2.22
  -6  -2  -7   54.58    2.20
   6   2   7   51.15    2.27
  -7  -2  -7    5.80    0.64
  -7  -2  -7    5.18    0.54
   7   2   7    5.90    0.71
  -8  -2  -7    5.96    0.59
  -8  -2  -7    5.46    0.66
   8   2   7    5.10    0.75
  -9  -2  -7    0.63    0.36
  -9  -2  -7    0.55    0.33
   9   2   7    0.80    0.50
 -10  -2  -7    2.49    0.54
  10   2   7    4.03    0.79
 -11  -2  -7    8.18    0.93
  11   2   7    7.73    1.11
 -12  -2  -7    9.49    1.03
  12   2   7   11.91    1.40
 -13  -2  -7    2.13    0.66
  13   2   7    2.66    0.93
  14   2   7    3.83    1.10
 -10   3   7    3.46    0.74
  -9   3   7    2.49    0.63
  -8   3   7   15.88    1.19
  -7   3   7   -0.23    0.33
  -7   3   7   -0.31    0.54
  -6   3   7    5.62    0.93
  -6   3   7    6.88    0.74
   5  -3  -7    2.30    0.47
  -5   3   7    1.54    0.63
  -5   3   7    2.09    0.45
   4  -3  -7  156.40    5.93
  -4   3   7  167.07    6.41
  -4   3   7  162.62    6.00
   3  -3  -7    0.93    0.22
   3  -3  -7    1.23    0.31
  -3   3   7    0.41    0.26
  -3   3   7    0.82    0.53
   2  -3  -7   35.81    1.51
   2  -3  -7   36.61    1.51
  -2   3   7   35.87    1.94
   1  -3  -7   13.05    0.65
   1  -3  -7   11.26    0.63
  -1   3   7   12.84    1.11
   0  -3  -7  134.41    4.87
   0   3   7  133.05    5.32
   0   3   7  137.94    4.79
  -1  -3  -7  118.80    4.41
   1   3   7  121.47    4.89
   1   3   7  125.55    4.34
  -2  -3  -7   70.01    2.66
   2   3   7   74.50    3.24
   2   3   7   70.47    2.62
  -3  -3  -7   87.64    3.30
   3   3   7   89.14    3.24
   3   3   7   87.24    3.78
  -4  -3  -7   19.56    1.00
   4   3   7   18.36    0.93
   4   3   7   18.21    1.29
  -5  -3  -7   15.56    0.95
   5   3   7   13.89    1.05
   5   3   7   15.90    0.88
  -6  -3  -7   50.72    2.00
  -6  -3  -7   43.01    2.06
   6   3   7   45.54    2.06
  -7  -3  -7  127.55    4.47
  -7  -3  -7  115.77    4.59
   7   3   7  113.39    4.63
  -8  -3  -7   49.16    2.31
  -8  -3  -7   57.06    2.16
   8   3   7   49.21    2.41
  -9  -3  -7    6.50    0.79
 -10  -3  -7   29.03    1.60
  10   3   7   25.79    1.69
 -11  -3  -7    0.57    0.45
  11   3   7    0.58    0.59
 -12  -3  -7   19.50    1.44
  12   3   7   22.78    1.73
 -13  -3  -7    0.32    0.53
  13   3   7    0.58    0.74
 -14  -3  -7    7.05    1.07
  14   3   7   12.16    1.56
  10  -4  -7    0.35    0.47
   9  -4  -7    1.89    0.60
   8  -4  -7    4.98    0.72
   7  -4  -7   -0.07    0.32
  -7   4   7    0.41    0.60
   6  -4  -7    0.74    0.34
  -6   4   7    0.82    0.64
   5  -4  -7   30.95    1.50
  -5   4   7   31.54    1.98
   4  -4  -7    0.07    0.23
  -4   4   7    1.32    0.64
   3  -4  -7   10.57    0.58
   3  -4  -7   11.50    0.69
  -3   4   7   13.91    1.19
   2  -4  -7    2.52    0.23
   2  -4  -7    2.56    0.34
  -2   4   7    2.71    0.67
   1  -4  -7    5.23    0.42
  -1   4   7    5.68    0.86
   0  -4  -7   87.30    3.22
   0   4   7   85.38    3.70
  -1  -4  -7    5.70    0.42
   1   4   7    4.25    0.73
   1   4   7    6.01    0.30
  -2  -4  -7   32.51    1.36
   2   4   7   31.53    1.24
   2   4   7   33.29    1.77
  -3  -4  -7   11.36    0.69
   3   4   7   11.53    0.60
   3   4   7   13.67    1.10
  -4  -4  -7    4.53    0.52
   4   4   7    3.76    0.71
   4   4   7    3.39    0.40
  -5  -4  -7  161.60    5.93
   5   4   7  160.76    5.83
   5   4   7  154.63    6.12
  -6  -4  -7    4.06    0.61
   6   4   7    6.43    0.61
   6   4   7    4.96    0.68
  -7  -4  -7   14.55    1.07
  -7  -4  -7   14.79    0.83
   7   4   7   14.98    1.03
  -8  -4  -7   12.97    1.07
  -8  -4  -7   16.68    0.85
   8   4   7   13.71    1.06
  -9  -4  -7    0.00    0.41
   9   4   7    2.17    0.58
 -10  -4  -7    1.88    0.57
  10   4   7    2.83    0.72
 -11  -4  -7    9.20    1.06
  11   4   7   10.19    1.21
 -12  -4  -7   -0.55    0.44
  12   4   7    1.19    0.65
 -13  -4  -7    0.06    0.55
  13   4   7    0.66    0.73
 -14  -4  -7    1.41    0.65
  14   4   7    2.11    0.86
   9  -5  -7    0.67    0.47
   8  -5  -7    0.12    0.39
   7  -5  -7   32.79    1.70
  -7   5   7   33.19    2.15
   6  -5  -7   18.93    1.15
  -6   5   7   19.29    1.65
   5  -5  -7   14.88    0.95
  -5   5   7   14.74    1.38
   4  -5  -7    5.54    0.60
  -4   5   7    5.86    0.98
   3  -5  -7    2.77    0.42
  -3   5   7    4.09    0.87
   2  -5  -7   15.21    0.83
  -2   5   7   16.17    1.32
   1  -5  -7    7.95    0.54
  -1   5   7    7.30    0.96
   0  -5  -7  151.40    5.33
   0   5   7  140.90    5.77
  -1  -5  -7    0.56    0.22
   1   5   7   -0.08    0.44
  -2  -5  -7    2.18    0.34
   2   5   7    2.36    0.59
   2   5   7    2.07    0.20
  -3  -5  -7   51.65    2.11
   3   5   7   52.86    1.96
   3   5   7   50.31    2.43
  -4  -5  -7  102.43    3.96
   4   5   7  104.51    4.20
   4   5   7  103.50    3.81
  -5  -5  -7  153.39    5.61
   5   5   7  147.48    5.46
   5   5   7  146.99    5.79
  -6  -5  -7    0.93    0.40
   6   5   7    1.53    0.48
   6   5   7    1.26    0.36
  -7  -5  -7   44.35    2.07
   7   5   7   42.81    1.95
   7   5   7   43.35    1.96
  -8  -5  -7    0.65    0.47
  -8  -5  -7    0.86    0.26
   8   5   7   -0.29    0.33
  -9  -5  -7   18.89    1.34
   9   5   7   22.18    1.36
 -10  -5  -7    4.31    0.76
  10   5   7    5.74    0.82
 -11  -5  -7   21.78    1.52
  11   5   7   22.64    1.54
 -12  -5  -7    4.25    0.86
  12   5   7    6.79    1.06
 -13  -5  -7    3.19    0.79
  13   5   7    4.27    0.94
 -14  -5  -7    1.44    0.68
  14   5   7    1.14    0.77
   9  -6  -7    0.00    0.45
   8  -6  -7    0.06    0.42
   7  -6  -7    7.21    0.84
  -7   6   7    5.21    1.15
   6  -6  -7   -0.23    0.31
  -6   6   7   -0.30    0.65
   5  -6  -7    4.09    0.58
  -5   6   7    2.52    0.89
   4  -6  -7    7.99    0.69
  -4   6   7    5.35    1.00
   3  -6  -7    9.23    0.67
  -3   6   7    6.86    1.08
   2  -6  -7   52.20    2.13
  -2   6   7   50.36    2.64
   1  -6  -7    0.72    0.28
  -1   6   7    1.48    0.57
   0  -6  -7    1.16    0.28
   0   6   7    0.63    0.52
  -1  -6  -7   21.53    1.05
   1   6   7   20.95    1.41
  -2  -6  -7    4.62    0.51
   2   6   7    3.61    0.73
  -3  -6  -7    0.13    0.25
   3   6   7   -0.06    0.42
   3   6   7    0.07    0.16
  -4  -6  -7   80.38    3.25
   4   6   7   83.13    3.07
   4   6   7   81.29    3.47
  -5  -6  -7   12.82    0.91
   5   6   7   11.62    0.97
   5   6   7   12.36    0.76
  -6  -6  -7   -0.25    0.34
   6   6   7    0.45    0.30
   6   6   7   -0.06    0.35
  -7  -6  -7   55.24    2.47
   7   6   7   54.00    2.31
   7   6   7   52.53    2.36
  -8  -6  -7   42.63    1.70
  -8  -6  -7   39.12    2.02
   8   6   7   37.55    1.88
  -9  -6  -7    2.76    0.66
   9   6   7    2.76    0.58
 -10  -6  -7    3.42    0.72
  10   6   7    4.23    0.72
 -11  -6  -7   31.27    1.95
  11   6   7   36.97    1.96
 -12  -6  -7    1.23    0.64
  12   6   7    1.30    0.66
 -13  -6  -7    3.70    0.83
  13   6   7    4.06    0.86
 -14  -6  -7    2.25    0.77
  14   6   7    3.78    0.92
 -15  -6  -7    3.95    0.88
   8  -7  -7   -0.58    0.37
   7  -7  -7    6.44    0.82
  -7   7   7    3.60    1.12
   6  -7  -7    1.27    0.46
  -6   7   7    1.11    0.78
   5  -7  -7    6.22    0.73
  -5   7   7    5.39    1.13
   4  -7  -7    4.53    0.61
  -4   7   7    5.75    1.12
   3  -7  -7   92.76    3.64
  -3   7   7   93.64    4.28
   2  -7  -7   26.67    1.31
  -2   7   7   25.63    1.80
   1  -7  -7    2.70    0.44
  -1   7   7    3.48    0.78
   0  -7  -7    0.94    0.32
   0   7   7    1.11    0.54
  -1  -7  -7   12.34    0.76
   1   7   7   10.83    1.08
  -2  -7  -7    3.04    0.47
   2   7   7    3.30    0.71
  -3  -7  -7   10.60    0.78
   3   7   7   11.34    0.55
   3   7   7   10.49    1.09
  -4  -7  -7   14.89    1.00
   4   7   7   16.79    0.81
   4   7   7   16.79    1.27
  -5  -7  -7   49.69    2.22
   5   7   7   49.56    2.00
   5   7   7   46.26    2.28
  -6  -7  -7   19.16    1.20
   6   7   7   18.52    1.23
   6   7   7   18.53    1.02
  -7  -7  -7   37.10    1.93
   7   7   7   41.22    1.83
   7   7   7   40.59    1.96
  -8  -7  -7   37.57    1.90
   8   7   7   35.45    1.73
  -9  -7  -7   11.21    1.11
   9   7   7   10.52    0.91
 -10  -7  -7    7.64    1.01
  10   7   7    9.36    1.00
 -11  -7  -7    6.83    0.99
  11   7   7    6.00    0.85
 -12  -7  -7   10.95    1.23
  12   7   7   12.14    1.16
 -13  -7  -7    0.66    0.62
  13   7   7    0.12    0.61
 -14  -7  -7    1.14    0.68
  14   7   7    0.76    0.71
 -15  -7  -7    5.00    0.93
   7  -8  -7    1.69    0.52
  -7   8   7    1.49    1.00
   6  -8  -7    1.38    0.49
  -6   8   7   -0.42    0.81
   5  -8  -7    2.52    0.56
  -5   8   7    2.12    1.01
   4  -8  -7    1.14    0.43
  -4   8   7    0.38    0.73
   3  -8  -7   12.82    0.89
  -3   8   7   11.38    1.49
   2  -8  -7    1.52    0.41
  -2   8   7    1.31    0.75
   1  -8  -7    0.54    0.34
  -1   8   7    0.74    0.64
   0  -8  -7   59.64    2.44
   0   8   7   56.61    2.90
  -1  -8  -7    1.51    0.40
   1   8   7    0.70    0.55
  -2  -8  -7    4.92    0.60
   2   8   7    4.58    0.82
  -3  -8  -7    4.24    0.58
   3   8   7    2.91    0.70
  -4  -8  -7    7.52    0.78
   4   8   7    5.13    0.88
   4   8   7    7.80    0.51
  -5  -8  -7    5.83    0.77
   5   8   7    7.66    0.59
   5   8   7    6.54    0.90
  -6  -8  -7    7.19    0.86
   6   8   7    7.84    0.88
   6   8   7    8.31    0.67
  -7  -8  -7    1.74    0.56
   7   8   7    2.19    0.44
   7   8   7    1.12    0.46
  -8  -8  -7   67.18    3.08
   8   8   7   73.56    2.96
  -9  -8  -7    5.92    0.83
   9   8   7    6.16    0.77
 -10  -8  -7    3.45    0.75
  10   8   7    3.06    0.62
 -11  -8  -7   29.51    1.84
  11   8   7   31.11    1.78
 -12  -8  -7   -0.17    0.48
  12   8   7    1.37    0.58
 -13  -8  -7    1.10    0.62
  13   8   7    0.42    0.57
  14   8   7    1.16    0.71
   6  -9  -7    4.11    0.73
  -6   9   7    3.21    1.17
   5  -9  -7    0.70    0.47
  -5   9   7   -0.21    0.88
   4  -9  -7    1.77    0.53
  -4   9   7    0.26    0.86
   3  -9  -7    1.25    0.48
  -3   9   7   -0.35    0.71
   2  -9  -7   27.30    1.43
  -2   9   7   25.99    2.02
   1  -9  -7    2.42    0.50
  -1   9   7    3.49    0.90
   0  -9  -7   62.92    2.60
   0   9   7   58.63    3.10
  -1  -9  -7   17.06    1.06
   1   9   7   15.97    1.42
  -2  -9  -7   46.48    2.05
   2   9   7   43.12    2.40
  -3  -9  -7    0.58    0.41
   3   9   7    0.70    0.56
  -4  -9  -7    1.02    0.46
   4   9   7    1.92    0.66
  -5  -9  -7   17.07    1.21
   5   9   7   14.08    1.26
   5   9   7   16.58    0.89
  -6  -9  -7    1.58    0.55
   6   9   7    1.15    0.37
   6   9   7    1.47    0.52
  -7  -9  -7   12.61    1.08
   7   9   7   12.76    0.87
   7   9   7   10.45    1.00
  -8  -9  -7   39.58    2.09
   8   9   7   39.83    1.88
  -9  -9  -7   57.28    2.74
   9   9   7   60.37    2.62
 -10  -9  -7   28.67    1.74
  10   9   7   26.35    1.54
 -11  -9  -7    0.59    0.56
  11   9   7    0.99    0.52
 -12  -9  -7   18.93    1.55
  12   9   7   18.10    1.39
 -13  -9  -7    0.32    0.59
  13   9   7    0.22    0.59
 -14  -9  -7   13.53    1.45
  14   9   7   12.62    1.36
   5 -10  -7    0.26    0.50
  -5  10   7   -0.12    0.99
   4 -10  -7    1.45    0.53
  -4  10   7    1.73    1.02
   3 -10  -7    8.57    0.94
  -3  10   7    8.91    1.54
   2 -10  -7    0.08    0.41
  -2  10   7    0.07    0.82
   1 -10  -7    0.38    0.39
  -1  10   7    0.36    0.75
   0 -10  -7    3.41    0.59
   0  10   7    3.97    0.99
  -1 -10  -7   18.90    1.15
   1  10   7   18.01    1.58
  -2 -10  -7    0.05    0.34
   2  10   7   -0.44    0.50
  -3 -10  -7    7.15    0.83
   3  10   7    6.23    0.99
  -4 -10  -7   19.42    1.30
   4  10   7   20.79    1.54
  -5 -10  -7    4.53    0.76
   5  10   7    3.24    0.75
  -6 -10  -7    7.79    0.97
   6  10   7    8.65    1.04
   6  10   7    9.34    0.79
  -7 -10  -7    0.95    0.54
   7  10   7    0.48    0.43
   7  10   7    1.01    0.39
  -8 -10  -7   -0.17    0.48
   8  10   7    0.52    0.37
  -9 -10  -7    1.15    0.58
   9  10   7    1.23    0.47
 -10 -10  -7    1.25    0.63
  10  10   7    1.92    0.57
 -11 -10  -7    0.06    0.51
  11  10   7    0.17    0.49
 -12 -10  -7    0.54    0.62
  12  10   7    0.65    0.55
 -13 -10  -7    0.63    0.60
  13  10   7    1.08    0.63
 -14 -10  -7    2.78    0.78
  14  10   7    3.87    0.83
   4 -11  -7    1.14    0.58
  -4  11   7    0.78    1.05
   3 -11  -7    0.37    0.46
  -3  11   7    0.59    0.96
   2 -11  -7    2.09    0.58
  -2  11   7    0.42    0.89
   1 -11  -7    0.94    0.49
  -1  11   7   -0.32    0.79
   0 -11  -7    7.81    0.91
   0  11   7    9.55    1.47
  -1 -11  -7    3.53    0.64
   1  11   7    3.52    0.93
  -2 -11  -7   69.13    2.92
   2  11   7   62.60    3.31
  -3 -11  -7    7.75    0.87
   3  11   7    6.55    1.07
  -4 -11  -7   11.92    1.09
   4  11   7   11.42    1.33
  -5 -11  -7   22.09    1.47
   5  11   7   19.47    1.58
  -6 -11  -7    6.66    0.91
   6  11   7    7.13    0.99
  -7 -11  -7   22.02    1.51
   7  11   7   20.59    1.44
  -8 -11  -7   17.39    1.46
   8  11   7   19.24    1.19
  -9 -11  -7   13.64    1.36
   9  11   7   16.03    1.14
 -10 -11  -7    1.44    0.65
  10  11   7    1.30    0.53
 -11 -11  -7   40.80    2.30
  11  11   7   39.87    2.10
 -12 -11  -7    9.99    1.23
  12  11   7   12.53    1.17
 -13 -11  -7   23.32    1.76
  13  11   7   23.21    1.63
 -14 -11  -7    1.47    0.71
  14  11   7    1.00    0.67
   3 -12  -7    0.44    0.56
  -3  12   7    0.73    0.93
   2 -12  -7    0.24    0.50
  -2  12   7   -1.10    0.84
   1 -12  -7    4.90    0.79
  -1  12   7    3.53    1.16
   0 -12  -7    6.71    0.88
   0  12   7    4.33    1.16
  -1 -12  -7    1.04    0.55
   1  12   7    0.94    0.83
  -2 -12  -7    0.96    0.56
   2  12   7    2.66    0.95
  -3 -12  -7    6.32    0.87
   3  12   7    8.13    1.21
  -4 -12  -7    0.11    0.54
   4  12   7    0.66    0.65
  -5 -12  -7    0.08    0.55
   5  12   7    0.14    0.60
  -6 -12  -7    0.73    0.61
   6  12   7   -0.33    0.49
  -7 -12  -7    3.01    0.79
   7  12   7    2.04    0.69
  -8 -12  -7    1.02    0.64
  -9 -12  -7    0.70    0.64
 -10 -12  -7    0.38    0.61
  10  12   7    0.00    0.43
 -11 -12  -7    0.87    0.64
  11  12   7    0.07    0.48
 -12 -12  -7    0.39    0.62
  12  12   7    1.71    0.62
 -13 -12  -7    6.39    1.05
  13  12   7    6.69    0.96
   1 -13  -7   12.83    1.25
  -1  13   7    7.93    1.52
   0 -13  -7   -0.57    0.48
   0  13   7   -0.52    0.79
  -1 -13  -7    1.35    0.64
   1  13   7    2.16    0.96
  -2 -13  -7    1.93    0.68
   2  13   7    1.98    0.90
  -3 -13  -7    3.75    0.81
   3  13   7    3.32    0.99
  -4 -13  -7   31.17    1.83
   4  13   7   23.18    1.90
  -5 -13  -7    9.74    1.19
   5  13   7    6.23    1.11
  -6 -13  -7   25.62    1.69
   6  13   7   21.26    1.68
  -7 -13  -7    5.07    0.94
  -8 -13  -7    3.80    0.90
  -9 -13  -7    9.47    1.22
 -10 -13  -7    4.14    0.91
 -11 -13  -7    0.12    0.63
 -12 -13  -7    1.05    0.68
   0 -14  -7   -0.03    0.60
   0  14   7   -0.62    0.87
  -1 -14  -7    1.64    0.70
   1  14   7    0.42    0.92
  -2 -14  -7    0.49    0.60
   2  14   7    1.15    0.93
  -3 -14  -7    1.21    0.70
   3  14   7    1.20    0.88
  -4 -14  -7    3.21    0.94
   4  14   7    1.93    0.83
  -5 -14  -7    0.90    0.75
   5  14   7    1.18    0.76
  -6 -14  -7    1.23    0.74
   6  14   7    2.49    0.82
  -7 -14  -7    1.35    0.77
  -8 -14  -7    3.90    0.93
  -9 -14  -7    5.19    1.04
 -10 -14  -7   12.23    1.37
 -11 -14  -7    5.31    1.02
  -3 -15  -7    2.32    0.81
   3  15   7    0.97    0.89
  -4 -15  -7    0.77    0.79
   4  15   7    0.08    0.74
  -5 -15  -7    1.24    0.80
   5  15   7    1.64    0.86
  -6 -15  -7    3.98    0.94
  -7 -15  -7   18.05    1.61
  -8 -15  -7   10.40    1.32
  -9 -15  -7    6.08    1.09
 -10 -15  -7    4.40    1.00
   5  14  -8    3.07    0.90
   8  13  -8    3.57    0.86
   7  13  -8    1.70    0.68
   6  13  -8    0.77    0.65
  -5 -13   8   11.60    1.39
  -4 -13   8   -0.30    0.56
   3  13  -8    3.62    0.92
   2  13  -8    3.77    1.00
   1  13  -8    2.22    0.94
   0  13  -8   -0.49    0.79
   9  12  -8    4.85    0.93
   8  12  -8   -0.06    0.54
   7  12  -8    1.31    0.66
   6  12  -8    4.05    0.86
  -5 -12   8   23.72    1.79
   4  12  -8   35.19    2.12
  -4 -12   8   33.20    2.09
   3  12  -8    3.49    0.89
  -3 -12   8    3.99    0.87
   2  12  -8    0.61    0.74
  -2 -12   8    1.92    0.66
   1  12  -8    3.44    1.02
  -1 -12   8    3.93    0.80
   0  12  -8    5.08    1.16
  -1  12  -8    5.10    1.31
  -2  12  -8    2.26    1.10
  10  11  -8    2.08    0.72
 -10 -11   8    0.96    0.57
   9  11  -8    3.95    0.81
  -9 -11   8    3.07    0.66
   8  11  -8    0.09    0.51
  -8 -11   8   -0.46    0.38
   7  11  -8    2.87    0.75
   6  11  -8    4.83    0.90
  -5 -11   8    1.88    0.73
   4  11  -8    5.38    0.91
  -4 -11   8    4.49    0.88
   3  11  -8    1.71    0.67
  -3 -11   8    1.80    0.66
   2  11  -8   -0.12    0.53
  -2 -11   8    0.34    0.54
   1  11  -8    0.19    0.66
  -1 -11   8    0.55    0.50
   0  11  -8    5.17    1.09
   0 -11   8    4.07    0.77
  -1  11  -8   13.36    1.63
   1 -11   8   10.10    1.10
  -2  11  -8    0.52    0.92
  -3  11  -8    7.36    1.45
  -4  11  -8    1.70    1.03
  11  10  -8    5.72    0.99
 -11 -10   8    4.36    0.78
  10  10  -8    7.22    1.05
 -10 -10   8    8.00    0.96
   9  10  -8    1.03    0.60
  -9 -10   8    0.57    0.47
   8  10  -8   16.90    1.40
  -8 -10   8   17.81    1.26
   7  10  -8    3.51    0.75
  -7 -10   8    4.13    0.67
  -6 -10   8    7.77    1.13
  -6 -10   8    7.90    0.87
  -5 -10   8    3.94    0.85
   4  10  -8    4.55    0.75
  -4 -10   8    3.19    0.74
   3  10  -8    0.49    0.50
  -3 -10   8    2.27    0.65
   2  10  -8   40.00    2.23
  -2 -10   8   41.40    2.16
   1  10  -8   57.20    2.87
  -1 -10   8   55.18    2.66
   0  10  -8   31.21    2.03
   0 -10   8   26.78    1.64
  -1  10  -8    2.04    0.80
   1 -10   8    1.96    0.64
  -2  10  -8    0.13    0.72
   2 -10   8    0.52    0.50
  -3  10  -8    3.00    1.02
   3 -10   8    5.82    0.87
  -4  10  -8   11.10    1.69
  -5  10  -8    0.35    1.02
 -12  -9   8    1.26    0.60
  11   9  -8    6.87    1.03
 -11  -9   8    5.38    0.85
  10   9  -8    3.69    0.81
 -10  -9   8    2.95    0.65
   9   9  -8    1.14    0.60
  -9  -9   8    1.69    0.57
   8   9  -8   13.20    1.17
  -8  -9   8   10.20    1.01
   7   9  -8    1.27    0.56
  -7  -9   8    1.41    0.47
  -6  -9   8    0.72    0.38
  -6  -9   8    0.23    0.61
   5   9  -8    1.22    0.45
  -5  -9   8    1.45    0.61
  -5  -9   8    1.24    0.42
   4   9  -8    0.40    0.42
  -4  -9   8    0.19    0.32
  -4  -9   8    0.78    0.54
   3   9  -8    3.00    0.64
  -3  -9   8    3.80    0.76
   2   9  -8   10.56    1.05
  -2  -9   8    9.34    1.00
   1   9  -8    3.16    0.75
  -1  -9   8    3.36    0.67
   0   9  -8    0.78    0.60
   0  -9   8    0.26    0.44
  -1   9  -8   -0.61    0.52
   1  -9   8   -0.05    0.42
  -2   9  -8    1.49    0.77
   2  -9   8    1.89    0.57
  -3   9  -8   -0.05    0.73
   3  -9   8    0.24    0.43
  -4   9  -8    4.65    1.14
   4  -9   8    3.86    0.73
  -5   9  -8   -0.73    0.82
   5  -9   8    0.90    0.60
  -6   9  -8    2.19    1.16
  -7   9  -8    1.56    1.13
  12   8  -8    2.70    0.80
 -12  -8   8    1.96    0.61
  11   8  -8    2.48    0.77
 -11  -8   8    1.08    0.57
  10   8  -8    3.21    0.78
 -10  -8   8    2.01    0.61
   9   8  -8   24.51    1.57
  -9  -8   8   21.51    1.39
   8   8  -8   25.01    1.60
  -8  -8   8   24.91    1.43
   7   8  -8   17.02    1.29
  -7  -8   8   17.16    1.12
  -6  -8   8    7.37    1.09
  -6  -8   8    6.86    0.75
   5   8  -8    0.77    0.35
  -5  -8   8    0.74    0.33
  -5  -8   8    0.58    0.53
   4   8  -8   52.65    2.35
  -4  -8   8   52.46    2.57
  -4  -8   8   52.63    2.23
   3   8  -8    8.46    0.87
  -3  -8   8   11.45    0.75
  -3  -8   8    9.77    1.03
   2   8  -8    1.85    0.55
  -2  -8   8    1.28    0.49
   1   8  -8    3.09    0.67
  -1  -8   8    2.60    0.60
   0   8  -8    3.38    0.74
   0  -8   8    1.71    0.53
  -1   8  -8   88.65    3.91
   1  -8   8   89.28    3.67
  -2   8  -8   12.12    1.39
   2  -8   8   10.82    0.99
  -3   8  -8   71.73    3.51
   3  -8   8   74.40    3.18
  -4   8  -8    0.88    0.77
   4  -8   8   -0.51    0.39
  -5   8  -8   15.32    1.74
   5  -8   8   14.28    1.19
  -6   8  -8    2.57    1.05
   6  -8   8    2.84    0.69
  -7   8  -8    5.21    1.32
  -8   8  -8    2.05    1.13
  12   7  -8   -0.39    0.54
 -12  -7   8    1.01    0.56
  11   7  -8    2.10    0.78
 -11  -7   8    2.73    0.64
  10   7  -8    3.30    0.79
 -10  -7   8    2.81    0.65
   9   7  -8    3.32    0.74
  -9  -7   8    4.60    0.68
   8   7  -8   10.89    1.15
  -8  -7   8    9.69    0.89
   7   7  -8    1.10    0.46
  -7  -7   8    1.29    0.43
  -6  -7   8    1.43    0.63
  -6  -7   8    1.71    0.44
   5   7  -8    3.40    0.50
  -5  -7   8    1.80    0.65
  -5  -7   8    2.68    0.47
   4   7  -8    3.51    0.54
  -4  -7   8    3.25    0.47
  -4  -7   8    4.34    0.72
   3   7  -8   38.17    1.82
  -3  -7   8   40.43    1.69
  -3  -7   8   37.68    2.02
   2   7  -8    5.23    0.69
  -2  -7   8    5.73    0.52
  -2  -7   8    5.94    0.76
   1   7  -8   14.20    1.08
  -1  -7   8   14.38    1.04
   0   7  -8   18.26    1.24
   0  -7   8   14.92    1.10
  -1   7  -8    0.90    0.50
   1  -7   8    1.73    0.49
  -2   7  -8    1.85    0.62
   2  -7   8    3.22    0.57
  -3   7  -8    0.53    0.57
   3  -7   8    1.71    0.48
  -4   7  -8    0.18    0.61
   4  -7   8    0.40    0.42
  -5   7  -8    1.03    0.79
   5  -7   8    0.63    0.47
  -6   7  -8    3.35    1.01
   6  -7   8    3.75    0.73
  -7   7  -8    5.56    1.22
   7  -7   8    5.68    0.88
  -8   7  -8   -0.68    0.86
   8  -7   8    0.11    0.55
  -9   7  -8   -0.44    1.00
  12   6  -8    2.12    0.75
 -12  -6   8    1.17    0.54
  11   6  -8   19.64    1.62
 -11  -6   8   17.51    1.32
  10   6  -8    1.73    0.65
 -10  -6   8    0.26    0.44
   9   6  -8    2.89    0.72
  -9  -6   8    3.45    0.65
   8   6  -8   15.50    1.24
  -8  -6   8   15.76    1.06
   7   6  -8   44.49    2.23
  -7  -6   8   44.54    2.03
   6   6  -8   45.94    2.21
  -6  -6   8   45.28    2.00
   5   6  -8   55.48    2.22
  -5  -6   8   50.28    2.24
  -5  -6   8   56.76    2.64
   4   6  -8   36.10    1.59
  -4  -6   8   34.56    1.86
  -4  -6   8   32.63    1.52
   3   6  -8    4.18    0.55
  -3  -6   8    4.46    0.71
  -3  -6   8    4.64    0.47
   2   6  -8   49.46    2.21
  -2  -6   8   53.66    2.02
  -2  -6   8   47.25    2.30
   1   6  -8    0.60    0.37
  -1  -6   8    1.98    0.30
  -1  -6   8    1.02    0.40
   0   6  -8   45.95    2.08
   0  -6   8   44.17    2.01
   0  -6   8   40.12    1.82
  -1   6  -8    1.53    0.50
   1  -6   8    1.66    0.46
  -2   6  -8    6.06    0.82
   2  -6   8    4.52    0.60
  -3   6  -8    2.58    0.66
   3  -6   8    2.22    0.49
  -4   6  -8   24.27    1.68
   4  -6   8   24.13    1.42
  -5   6  -8   42.04    2.41
   5  -6   8   42.72    2.10
  -6   6  -8    8.32    1.27
   6  -6   8    7.47    0.89
  -7   6  -8   12.46    1.52
   7  -6   8   10.66    1.11
  -8   6  -8    7.68    1.38
   8  -6   8    8.69    1.06
  -9   6  -8    2.31    1.15
   9  -6   8    0.66    0.57
  12   5  -8    0.51    0.66
 -12  -5   8    0.15    0.52
  11   5  -8   -0.10    0.51
 -11  -5   8    0.04    0.44
  10   5  -8   14.28    1.40
 -10  -5   8   11.29    1.02
   9   5  -8    0.34    0.50
  -9  -5   8    1.69    0.51
   8   5  -8    3.33    0.68
  -8  -5   8    4.22    0.66
   7   5  -8   14.24    1.13
  -7  -5   8   13.99    0.98
   6   5  -8    1.49    0.45
  -6  -5   8    0.13    0.29
   5   5  -8    0.74    0.24
  -5  -5   8    0.57    0.30
  -5  -5   8    1.71    0.56
   4   5  -8   24.78    1.20
  -4  -5   8   25.39    1.51
  -4  -5   8   26.91    1.22
   3   5  -8    0.26    0.24
  -3  -5   8    0.24    0.39
  -3  -5   8    0.03    0.22
   2   5  -8    0.29    0.27
  -2  -5   8    0.81    0.41
  -2  -5   8    0.84    0.24
   1   5  -8   19.40    1.14
  -1  -5   8   22.39    0.91
   0   5  -8   52.89    2.41
   0  -5   8   51.82    2.37
   0  -5   8   60.07    2.04
  -1   5  -8    1.39    0.45
   1  -5   8    1.10    0.38
  -2   5  -8    0.87    0.43
   2  -5   8    0.60    0.33
  -3   5  -8  156.62    6.04
   3  -5   8  154.28    5.86
  -4   5  -8    9.02    1.02
   4  -5   8    7.79    0.78
  -5   5  -8    3.34    0.77
   5  -5   8    2.15    0.53
  -6   5  -8   37.76    2.19
   6  -5   8   36.93    1.92
  -7   5  -8   13.89    1.54
   7  -5   8   11.89    1.06
  -8   5  -8    2.12    0.94
   8  -5   8    1.84    0.63
  -9   5  -8    0.82    0.93
   9  -5   8    0.33    0.59
 -10   5  -8    0.91    0.96
  10  -5   8   -0.34    0.60
  12   4  -8    6.80    1.05
 -12  -4   8    6.43    0.90
  11   4  -8    0.35    0.61
 -11  -4   8    1.34    0.58
  10   4  -8    8.81    1.16
 -10  -4   8    8.93    1.00
   9   4  -8    9.29    1.13
  -9  -4   8    9.24    0.94
   8   4  -8   18.12    1.37
  -8  -4   8   16.37    1.10
   7   4  -8   10.15    0.95
  -7  -4   8    9.41    0.78
   6   4  -8    3.27    0.61
  -6  -4   8    3.38    0.51
   5   4  -8    0.82    0.24
  -5  -4   8    0.86    0.32
  -5  -4   8    0.31    0.46
   4   4  -8    6.85    0.51
  -4  -4   8    6.74    0.54
  -4  -4   8    6.11    0.80
   3   4  -8   46.35    1.97
  -3  -4   8   48.49    1.91
  -3  -4   8   47.74    2.19
   2   4  -8  156.95    5.75
  -2  -4   8  156.85    5.91
  -2  -4   8  155.09    5.59
   1   4  -8   13.13    0.84
  -1  -4   8   13.93    0.93
  -1  -4   8   14.65    0.64
   0   4  -8   60.87    2.59
   0  -4   8   66.24    2.25
   0  -4   8   60.51    2.60
  -1   4  -8   19.09    1.11
   1  -4   8   19.19    1.05
  -2   4  -8   35.88    1.72
   2  -4   8   33.38    1.61
  -3   4  -8    1.88    0.50
   3  -4   8    2.47    0.46
  -4   4  -8    7.27    0.88
   4  -4   8    5.95    0.69
  -5   4  -8   20.76    1.44
   5  -4   8   23.31    1.32
  -6   4  -8   43.35    2.33
   6  -4   8   43.91    2.11
  -7   4  -8    4.19    0.92
   7  -4   8    3.95    0.70
  -8   4  -8   14.72    1.57
   8  -4   8   12.72    1.15
  -9   4  -8    4.46    1.08
   9  -4   8    2.21    0.70
 -10   4  -8   15.25    1.77
  10  -4   8   14.22    1.42
  11  -4   8    0.55    0.68
  12   3  -8    2.57    0.82
 -12  -3   8    0.77    0.56
  11   3  -8    8.79    1.22
 -11  -3   8    7.97    0.96
  10   3  -8    0.14    0.49
 -10  -3   8    0.41    0.46
   9   3  -8    0.67    0.53
  -9  -3   8   -0.32    0.37
   8   3  -8   41.08    2.14
  -8  -3   8   36.93    1.86
   7   3  -8    0.98    0.42
  -7  -3   8    0.55    0.35
   6   3  -8   16.18    1.14
   6   3  -8   18.66    0.89
  -6  -3   8   16.50    1.00
   5   3  -8   42.56    2.01
   5   3  -8   42.00    1.72
  -5  -3   8   42.24    1.83
   4   3  -8   66.05    2.49
  -4  -3   8   62.30    2.49
  -4  -3   8   60.79    2.76
   3   3  -8    0.22    0.19
  -3  -3   8    0.37    0.20
  -3  -3   8    0.65    0.39
   2   3  -8    0.86    0.25
  -2  -3   8    0.43    0.17
  -2  -3   8    0.33    0.31
   1   3  -8   25.72    1.23
  -1  -3   8   25.93    1.02
  -1  -3   8   25.24    1.31
   0   3  -8  132.69    5.14
   0  -3   8  141.54    4.84
   0  -3   8  140.05    5.16
  -1   3  -8   39.53    1.78
   1  -3   8   40.19    1.75
  -2   3  -8   12.56    0.85
   2  -3   8   13.29    0.83
  -3   3  -8   84.24    3.43
   3  -3   8   85.87    3.35
  -4   3  -8    0.15    0.33
   4  -3   8    0.17    0.08
   4  -3   8   -0.22    0.27
  -5   3  -8    4.26    0.71
   5  -3   8    5.01    0.65
   5  -3   8    4.32    0.40
  -6   3  -8   12.15    1.11
   6  -3   8   10.50    0.97
  -7   3  -8   24.50    1.64
   7  -3   8   23.06    1.44
  -8   3  -8    0.21    0.62
   8  -3   8    0.45    0.48
  -9   3  -8    0.49    0.72
   9  -3   8    0.50    0.54
 -10   3  -8    0.63    0.81
  10  -3   8    1.47    0.70
  11  -3   8    0.31    0.67
  12  -3   8   -0.53    0.71
  12   2  -8    0.54    0.64
 -12  -2   8    1.19    0.61
  11   2  -8    3.26    0.82
 -11  -2   8    3.20    0.72
  10   2  -8    3.48    0.83
 -10  -2   8    1.83    0.58
   9   2  -8   18.69    1.47
  -9  -2   8   15.62    1.14
   8   2  -8    0.16    0.45
  -8  -2   8    0.21    0.36
   7   2  -8    6.27    0.84
  -7  -2   8    6.40    0.69
   6   2  -8   11.54    0.96
  -6  -2   8   11.37    0.81
  -6  -2   8   11.87    0.82
   5   2  -8   65.45    2.85
  -5  -2   8   67.31    2.72
  -5  -2   8   66.15    2.66
  -4  -2   8    7.13    0.70
  -4  -2   8    8.35    0.83
  -4  -2   8    7.83    0.57
   3   2  -8   12.13    0.72
  -3  -2   8   11.90    0.90
  -3  -2   8   12.85    0.68
   2   2  -8   88.48    3.38
  -2  -2   8   87.84    3.23
  -2  -2   8   87.55    3.46
   1   2  -8   57.09    2.37
  -1  -2   8   60.13    2.42
  -1  -2   8   58.84    2.16
   0   2  -8    3.51    0.45
   0  -2   8    3.98    0.46
   0  -2   8    3.93    0.23
  -1   2  -8   23.84    1.17
   1  -2   8   22.93    1.14
  -2   2  -8   45.79    1.95
   2  -2   8   44.10    1.88
  -3   2  -8  231.35    8.38
   3  -2   8  227.82    8.29
  -4   2  -8    0.47    0.33
   4  -2   8   -0.15    0.27
  -5   2  -8   74.13    3.17
  -5   2  -8   75.87    2.77
   5  -2   8   77.16    3.10
  -6   2  -8   25.41    1.10
  -6   2  -8   25.71    1.49
   6  -2   8   25.18    1.43
  -7   2  -8   21.16    1.42
  -7   2  -8   20.77    1.09
   7  -2   8   21.28    1.37
  -8   2  -8    1.42    0.61
   8  -2   8   -0.01    0.45
  -9   2  -8   61.53    3.01
   9  -2   8   62.51    2.95
  10  -2   8    6.55    1.03
  11  -2   8    1.14    0.76
  12  -2   8   -0.58    0.64
 -12  -1   8    2.63    0.72
  11   1  -8    0.30    0.68
 -11  -1   8   -0.55    0.40
  10   1  -8    4.89    0.93
 -10  -1   8    3.95    0.76
   9   1  -8    0.02    0.52
  -9  -1   8    0.46    0.44
   8   1  -8    8.75    1.09
  -8  -1   8    9.02    0.90
   7   1  -8   11.33    1.08
  -7  -1   8   12.49    0.91
   6   1  -8    5.67    0.79
  -6  -1   8    6.23    0.67
  -6  -1   8    6.39    0.68
   5   1  -8   64.74    2.80
  -5  -1   8   63.05    2.60
  -5  -1   8   66.44    2.72
   4   1  -8   86.52    3.40
  -4  -1   8   82.69    3.38
  -4  -1   8   82.17    3.21
  -3  -1   8    1.43    0.27
  -3  -1   8    1.92    0.43
  -3  -1   8    0.92    0.39
  -2  -1   8   41.97    1.97
  -2  -1   8   42.97    1.66
  -2  -1   8   41.04    1.83
  -1  -1   8   16.13    0.89
  -1  -1   8   16.80    1.11
  -1  -1   8   15.90    0.72
   0   1  -8   90.42    3.55
   0  -1   8   93.27    3.49
   0  -1   8   92.00    3.27
  -1   1  -8    3.12    0.17
  -1   1  -8    2.50    0.39
   1  -1   8    2.73    0.38
  -2   1  -8   16.06    0.91
   2  -1   8   14.89    0.83
  -3   1  -8   11.99    0.78
   3  -1   8   12.08    0.74
  -4   1  -8    6.04    0.60
  -4   1  -8    7.33    0.36
   4  -1   8    6.45    0.60
  -5   1  -8   32.73    1.62
  -5   1  -8   35.16    1.35
   5  -1   8   33.96    1.65
  -6   1  -8   12.99    0.93
  -6   1  -8   11.66    0.66
   6  -1   8   12.44    0.96
  -7   1  -8    3.51    0.44
  -7   1  -8    3.62    0.63
   7  -1   8    4.02    0.66
  -8   1  -8   15.61    0.92
  -8   1  -8   16.09    1.19
   8  -1   8   13.93    1.20
  -9   1  -8    0.59    0.54
   9  -1   8    0.14    0.51
  10  -1   8    3.17    0.81
  11  -1   8   -0.28    0.67
  12  -1   8    4.42    1.09
  13  -1   8    0.68    0.85
 -11   0   8    4.32    0.77
 -10   0   8    1.39    0.55
   9   0  -8   14.39    1.36
  -9   0   8   13.91    1.12
   8   0  -8    1.94    0.65
  -8   0   8    0.50    0.41
   7   0  -8    8.80    1.08
  -7   0   8    7.61    0.81
   6   0  -8    3.84    0.71
  -6   0   8    2.67    0.55
  -6   0   8    3.01    0.50
   5   0  -8   49.41    2.36
  -5   0   8   51.75    2.20
  -5   0   8   56.11    2.39
   4   0  -8   44.14    1.98
  -4   0   8   43.73    2.07
  -4   0   8   42.82    1.83
  -3   0   8   13.39    0.74
  -3   0   8   13.89    0.90
  -3   0   8   13.73    1.02
  -2   0   8   38.95    1.94
  -2   0   8   38.78    1.56
  -2   0   8   37.88    1.68
  -1   0   8    0.95    0.27
  -1   0   8    1.32    0.49
  -1   0   8    1.52    0.23
   0   0  -8  212.87    7.37
   0   0   8  206.23    7.51
   0   0   8  210.90    7.91
  -1   0  -8    1.14    0.15
   1   0   8    1.19    0.26
   1   0   8    1.60    0.47
  -2   0  -8  348.87   12.06
  -2   0  -8  337.70   12.34
   2   0   8  351.05   12.21
  -3   0  -8    5.87    0.54
  -3   0  -8    6.94    0.40
   3   0   8    5.77    0.51
  -4   0  -8    3.25    0.46
  -4   0  -8    3.74    0.32
   4   0   8    4.36    0.53
  -5   0  -8    1.57    0.38
  -5   0  -8    1.84    0.28
   5   0   8    1.78    0.43
  -6   0  -8  103.72    4.16
  -6   0  -8  110.89    3.97
   6   0   8  106.96    4.21
  -7   0  -8  113.24    4.32
  -7   0  -8  116.94    4.53
   7   0   8  116.72    4.60
  -8   0  -8    1.45    0.38
  -8   0  -8    1.02    0.45
   8   0   8    1.94    0.58
  -9   0  -8    0.95    0.50
  -9   0  -8    1.64    0.44
   9   0   8    2.59    0.71
 -10   0  -8    1.39    0.52
  10   0   8    1.99    0.72
  11   0   8    7.65    1.18
  12   0   8    5.38    1.10
  13   0   8    2.73    1.01
 -11   1   8    1.01    0.57
 -10   1   8    0.97    0.51
  -9   1   8    5.39    0.81
   8  -1  -8    0.97    0.61
  -8   1   8    0.37    0.39
   7  -1  -8    3.52    0.74
  -7   1   8    2.94    0.56
  -7   1   8    2.15    0.60
   6  -1  -8    2.53    0.65
  -6   1   8    0.20    0.31
  -6   1   8    0.83    0.46
   5  -1  -8   16.71    1.21
  -5   1   8   20.01    1.28
  -5   1   8   18.13    1.04
   4  -1  -8    0.09    0.29
  -4   1   8    0.81    0.48
  -4   1   8    0.26    0.25
   3  -1  -8    2.05    0.39
  -3   1   8    2.38    0.36
  -3   1   8    2.39    0.56
  -2   1   8   48.62    2.34
  -2   1   8   49.55    1.98
  -2   1   8   50.25    2.04
  -1   1   8   87.77    3.18
  -1   1   8   82.72    3.64
  -1   1   8   85.88    3.23
   0  -1  -8   15.35    0.68
   0   1   8   16.24    1.25
   0   1   8   14.78    0.76
  -1  -1  -8   90.70    3.29
   1   1   8   92.60    3.95
   1   1   8   91.70    3.40
  -2  -1  -8   15.63    0.68
   2   1   8   15.68    1.19
   2   1   8   15.32    0.77
  -3  -1  -8   32.19    1.35
  -3  -1  -8   32.25    1.52
   3   1   8   32.08    1.38
  -4  -1  -8    1.29    0.33
  -4  -1  -8    1.53    0.31
   4   1   8    0.82    0.28
  -5  -1  -8  115.02    4.43
  -5  -1  -8  120.40    4.29
   5   1   8  112.36    4.40
  -6  -1  -8   87.59    3.29
  -6  -1  -8   83.82    3.39
   6   1   8   88.28    3.48
  -7  -1  -8    1.00    0.33
  -7  -1  -8    0.70    0.34
   7   1   8   -0.16    0.34
  -8  -1  -8   61.39    2.55
  -8  -1  -8   56.22    2.43
   8   1   8   58.71    2.68
  -9  -1  -8   18.18    1.14
  -9  -1  -8   21.82    1.28
   9   1   8   19.25    1.39
 -10  -1  -8    4.90    0.71
  10   1   8    5.38    0.92
 -11  -1  -8    4.57    0.74
  11   1   8    3.61    0.88
  12   1   8   -0.05    0.69
  13   1   8    1.16    0.86
 -11   2   8   -0.86    0.49
 -10   2   8    7.55    0.97
  -9   2   8   -0.10    0.42
  -8   2   8   21.57    1.37
   7  -2  -8   22.77    2.14
  -7   2   8   22.34    1.56
  -7   2   8   22.19    1.32
   6  -2  -8   10.91    1.03
  -6   2   8   13.49    1.15
  -6   2   8   11.75    0.88
   5  -2  -8   14.76    1.11
  -5   2   8   16.58    1.26
  -5   2   8   13.73    0.92
   4  -2  -8    6.06    0.77
  -4   2   8    5.16    0.81
  -4   2   8    5.83    0.59
   3  -2  -8    0.24    0.29
  -3   2   8    0.34    0.43
  -3   2   8    0.61    0.25
   2  -2  -8    2.34    0.36
  -2   2   8    2.45    0.35
  -2   2   8    2.77    0.60
   1  -2  -8  141.80    5.24
  -1   2   8  148.40    5.28
  -1   2   8  148.34    5.76
   0  -2  -8  202.79    7.24
   0   2   8  202.68    7.26
   0   2   8  209.45    7.87
  -1  -2  -8    0.63    0.16
   1   2   8    0.63    0.54
   1   2   8    0.36    0.19
  -2  -2  -8   30.60    1.28
   2   2   8   32.99    1.33
   2   2   8   33.82    1.93
  -3  -2  -8   19.62    0.91
   3   2   8   18.41    0.89
   3   2   8   18.35    1.34
  -4  -2  -8  292.37   10.15
   4   2   8  272.85   10.48
   4   2   8  288.10   10.13
  -5  -2  -8    5.78    0.56
  -5  -2  -8    5.47    0.59
   5   2   8    5.11    0.55
  -6  -2  -8   31.46    1.47
  -6  -2  -8   32.00    1.47
   6   2   8   29.35    1.52
  -7  -2  -8    0.42    0.29
  -7  -2  -8    1.11    0.38
   7   2   8    0.37    0.39
  -8  -2  -8   12.33    0.83
  -8  -2  -8   10.94    0.86
   8   2   8   11.63    1.00
  -9  -2  -8   12.19    0.87
  -9  -2  -8   10.01    0.87
   9   2   8   11.38    1.07
 -10  -2  -8   31.28    1.65
 -11  -2  -8   10.63    1.07
  11   2   8   10.82    1.31
 -12  -2  -8    4.02    0.74
  12   2   8    5.62    1.06
  13   2   8    0.22    0.79
  14   2   8    4.04    1.12
  10  -3  -8   -0.23    0.41
  -9   3   8    1.66    0.57
  -8   3   8    6.75    0.87
  -7   3   8   -0.39    0.51
  -7   3   8    0.10    0.39
  -6   3   8    0.48    0.35
  -6   3   8    0.84    0.61
   5  -3  -8   15.01    1.04
  -5   3   8   15.14    1.30
  -5   3   8   13.66    0.95
   4  -3  -8    0.61    0.35
  -4   3   8    1.07    0.64
  -4   3   8    1.36    0.39
   3  -3  -8    4.82    0.44
   3  -3  -8    6.45    0.59
  -3   3   8    4.02    0.79
   2  -3  -8   24.38    1.10
   2  -3  -8   23.18    1.14
  -2   3   8   24.75    1.56
   1  -3  -8   15.08    0.75
   1  -3  -8   15.03    0.75
  -1   3   8   15.73    1.21
   0  -3  -8    0.88    0.20
   0   3   8    0.89    0.50
   0   3   8    1.17    0.21
  -1  -3  -8  122.14    4.53
   1   3   8  125.83    5.10
   1   3   8  127.99    4.49
  -2  -3  -8   66.41    2.53
   2   3   8   64.92    3.14
   2   3   8   68.73    2.50
  -3  -3  -8   92.20    3.37
   3   3   8   88.09    3.93
   3   3   8   90.30    3.33
  -4  -3  -8   12.71    0.76
   4   3   8   10.74    0.67
   4   3   8   10.35    1.08
  -5  -3  -8    3.58    0.55
   5   3   8    2.45    0.40
   5   3   8    2.15    0.60
  -6  -3  -8   54.38    2.40
  -6  -3  -8   57.85    2.35
   6   3   8   55.19    2.36
  -7  -3  -8   19.87    1.20
  -7  -3  -8   20.82    1.10
   7   3   8   18.53    1.20
  -8  -3  -8    3.69    0.60
  -8  -3  -8    3.41    0.48
   8   3   8    2.79    0.60
  -9  -3  -8    0.87    0.37
  -9  -3  -8    0.33    0.39
   9   3   8    0.45    0.48
 -10  -3  -8   33.43    1.84
  10   3   8   39.45    2.06
 -11  -3  -8    6.84    0.87
  11   3   8    9.50    1.15
 -12  -3  -8    0.95    0.53
  12   3   8   -0.04    0.58
 -13  -3  -8    3.75    0.81
  13   3   8    3.60    1.01
  14   3   8    2.29    0.91
  10  -4  -8    0.10    0.44
   9  -4  -8    0.81    0.51
   8  -4  -8    6.69    0.84
   7  -4  -8   10.87    0.92
  -7   4   8   10.57    1.28
   6  -4  -8    1.26    0.40
  -6   4   8    1.01    0.66
   5  -4  -8   18.16    1.07
  -5   4   8   16.24    1.47
   4  -4  -8   43.20    1.86
  -4   4   8   41.88    2.36
   3  -4  -8  129.43    4.94
  -3   4   8  138.26    5.51
   2  -4  -8    0.82    0.24
   2  -4  -8    1.09    0.18
  -2   4   8    1.29    0.61
   1  -4  -8    0.16    0.18
  -1   4   8    0.69    0.54
   0  -4  -8    8.54    0.54
   0   4   8    9.44    1.06
  -1  -4  -8   44.89    1.85
   1   4   8   49.52    2.38
   1   4   8   46.78    1.72
  -2  -4  -8   21.91    1.02
   2   4   8   20.89    1.50
   2   4   8   22.78    0.93
  -3  -4  -8  184.25    6.77
   3   4   8  184.71    6.67
   3   4   8  196.73    7.32
  -4  -4  -8   35.61    1.61
   4   4   8   36.78    1.51
   4   4   8   35.76    2.01
  -5  -4  -8   81.65    3.23
   5   4   8   81.69    3.14
   5   4   8   79.85    3.52
  -6  -4  -8   -0.03    0.35
   6   4   8    0.12    0.29
   6   4   8    0.25    0.39
  -7  -4  -8  176.61    6.27
  -7  -4  -8  167.82    6.42
   7   4   8  163.65    6.36
  -8  -4  -8    1.33    0.50
  -8  -4  -8    1.28    0.33
   8   4   8    0.78    0.47
  -9  -4  -8   15.69    1.16
   9   4   8   15.85    1.20
 -10  -4  -8    2.84    0.67
  10   4   8    5.73    0.85
 -11  -4  -8   28.73    1.74
  11   4   8   32.38    1.93
 -12  -4  -8   -0.14    0.44
  12   4   8    2.41    0.81
 -13  -4  -8    2.88    0.74
  13   4   8    4.03    0.97
 -14  -4  -8    1.13    0.65
  14   4   8    3.47    0.99
   9  -5  -8    0.44    0.47
   8  -5  -8    4.08    0.70
   7  -5  -8    1.77    0.50
  -7   5   8    1.49    0.78
   6  -5  -8    0.44    0.34
  -6   5   8    0.09    0.65
   5  -5  -8    1.25    0.39
  -5   5   8    0.64    0.72
   4  -5  -8    7.84    0.66
  -4   5   8    6.35    1.07
   3  -5  -8    0.44    0.27
  -3   5   8   -0.20    0.55
   2  -5  -8    5.15    0.52
  -2   5   8    5.70    0.96
   1  -5  -8   47.24    1.89
  -1   5   8   43.35    2.42
   0  -5  -8    9.88    0.60
   0   5   8    7.75    1.04
  -1  -5  -8    0.47    0.22
   1   5   8    0.82    0.51
  -2  -5  -8    0.55    0.25
   2   5   8    0.40    0.43
   2   5   8    0.15    0.13
  -3  -5  -8   94.12    3.52
   3   5   8   89.08    3.88
   3   5   8   92.50    3.35
  -4  -5  -8    0.04    0.28
   4   5   8   -0.05    0.38
   4   5   8    0.11    0.20
  -5  -5  -8   11.00    0.83
   5   5   8   11.77    1.06
   5   5   8   10.21    0.70
  -6  -5  -8   62.33    2.64
   6   5   8   61.92    2.78
   6   5   8   59.68    2.50
  -7  -5  -8   16.26    1.14
   7   5   8   15.06    0.97
   7   5   8   16.08    1.10
  -8  -5  -8    1.72    0.35
  -8  -5  -8    1.37    0.53
   8   5   8    1.66    0.47
  -9  -5  -8    2.69    0.62
   9   5   8    1.11    0.51
 -10  -5  -8   34.76    1.97
  10   5   8   38.53    2.00
 -11  -5  -8    3.94    0.81
  11   5   8    4.77    0.92
 -12  -5  -8    0.58    0.55
  12   5   8    1.96    0.72
 -13  -5  -8    3.13    0.78
  13   5   8    5.71    1.02
 -14  -5  -8    0.31    0.59
  14   5   8    0.39    0.71
   8  -6  -8    1.41    0.52
   7  -6  -8    0.16    0.41
  -7   6   8   -0.16    0.72
   6  -6  -8    4.47    0.66
  -6   6   8    5.34    1.10
   5  -6  -8    9.95    0.83
  -5   6   8    7.77    1.26
   4  -6  -8    4.75    0.60
  -4   6   8    5.77    1.06
   3  -6  -8   20.58    1.09
  -3   6   8   19.37    1.66
   2  -6  -8   23.82    1.19
  -2   6   8   24.37    1.71
   1  -6  -8   30.47    1.38
  -1   6   8   29.45    1.86
   0  -6  -8  108.64    4.03
   0   6   8  104.60    4.53
  -1  -6  -8    1.81    0.33
   1   6   8    1.65    0.65
  -2  -6  -8   19.20    0.99
   2   6   8   16.22    1.35
  -3  -6  -8   86.11    3.32
   3   6   8   82.89    3.68
   3   6   8   86.82    3.10
  -4  -6  -8  105.27    3.93
   4   6   8   97.33    3.71
   4   6   8  101.13    4.20
  -5  -6  -8    1.74    0.47
   5   6   8    2.17    0.59
   5   6   8    2.40    0.37
  -6  -6  -8   58.63    2.58
   6   6   8   60.55    2.45
   6   6   8   60.64    2.74
  -7  -6  -8   19.72    1.27
   7   6   8   19.03    1.24
   7   6   8   18.08    1.06
  -8  -6  -8   69.71    3.00
   8   6   8   67.95    2.87
  -9  -6  -8   50.10    2.45
   9   6   8   50.27    2.32
 -10  -6  -8    0.28    0.48
  10   6   8    0.29    0.48
 -11  -6  -8    2.66    0.72
  11   6   8    5.74    0.86
 -12  -6  -8    1.36    0.64
  12   6   8    1.83    0.64
 -13  -6  -8    2.12    0.70
  13   6   8    4.88    0.95
 -14  -6  -8    3.42    0.84
  14   6   8    4.40    0.97
 -15  -6  -8    1.40    0.73
   8  -7  -8    0.21    0.44
   7  -7  -8    0.51    0.41
  -7   7   8   -0.24    0.71
   6  -7  -8    0.18    0.42
  -6   7   8    0.59    0.83
   5  -7  -8    0.69    0.36
  -5   7   8    0.02    0.73
   4  -7  -8    0.22    0.33
  -4   7   8   -0.38    0.63
   3  -7  -8    3.73    0.55
  -3   7   8    5.10    1.05
   2  -7  -8    2.81    0.45
  -2   7   8    2.02    0.77
   1  -7  -8   12.48    0.80
  -1   7   8   10.84    1.25
   0  -7  -8   44.22    1.86
   0   7   8   41.80    2.31
  -1  -7  -8    0.33    0.27
   1   7   8    0.06    0.49
  -2  -7  -8   -0.02    0.24
   2   7   8   -0.20    0.49
  -3  -7  -8  109.06    4.05
   3   7   8  106.53    3.73
   3   7   8   96.62    4.37
  -4  -7  -8    0.05    0.35
   4   7   8    0.28    0.44
   4   7   8    0.37    0.20
  -5  -7  -8    7.79    0.84
   5   7   8    7.36    0.56
   5   7   8    6.02    0.87
  -6  -7  -8   36.41    1.82
   6   7   8   37.73    1.64
   6   7   8   34.00    1.86
  -7  -7  -8    5.10    0.77
   7   7   8    5.96    0.65
   7   7   8    5.55    0.78
  -8  -7  -8    9.36    0.98
   8   7   8    8.94    0.81
   8   7   8    9.11    0.85
  -9  -7  -8   14.15    1.21
   9   7   8   13.53    1.06
 -10  -7  -8    4.26    0.78
  10   7   8    4.26    0.73
 -11  -7  -8    2.62    0.69
  11   7   8    2.61    0.68
 -12  -7  -8    3.75    0.84
  12   7   8    3.96    0.81
 -13  -7  -8    6.35    1.04
  13   7   8    7.89    1.12
 -14  -7  -8    1.30    0.70
  14   7   8    0.75    0.70
 -15  -7  -8    0.59    0.65
   7  -8  -8    1.39    0.52
  -7   8   8    1.70    0.95
   6  -8  -8    3.47    0.64
  -6   8   8    2.19    1.08
   5  -8  -8    0.10    0.37
  -5   8   8   -0.06    0.88
   4  -8  -8    4.01    0.62
  -4   8   8    1.66    0.89
   3  -8  -8   11.55    0.86
  -3   8   8   11.42    1.52
   2  -8  -8    3.63    0.53
  -2   8   8    3.18    0.93
   1  -8  -8   31.38    1.52
  -1   8   8   30.98    2.04
   0  -8  -8    2.82    0.47
   0   8   8    4.44    0.92
  -1  -8  -8   75.88    2.91
   1   8   8   64.77    3.28
  -2  -8  -8   57.16    2.36
   2   8   8   52.60    2.74
  -3  -8  -8    1.89    0.42
   3   8   8    2.25    0.68
  -4  -8  -8   24.18    1.35
   4   8   8   21.95    1.59
   4   8   8   24.50    1.05
  -5  -8  -8    2.62    0.60
   5   8   8    2.86    0.39
   5   8   8    2.35    0.62
  -6  -8  -8   53.96    2.49
   6   8   8   51.46    2.54
   6   8   8   57.28    2.27
  -7  -8  -8    9.04    0.95
   7   8   8    9.14    0.97
   7   8   8    9.53    0.75
  -8  -8  -8   32.96    1.86
   8   8   8   33.05    1.95
   8   8   8   34.78    1.67
  -9  -8  -8    8.06    0.96
   9   8   8    8.18    0.81
 -10  -8  -8   33.15    1.90
  10   8   8   31.23    1.70
 -11  -8  -8   32.93    1.97
  11   8   8   33.56    1.84
 -12  -8  -8   24.23    1.70
  12   8   8   26.55    1.64
 -13  -8  -8    5.61    0.94
  13   8   8    6.82    1.00
 -14  -8  -8    0.58    0.61
  14   8   8    1.11    0.73
   6  -9  -8   -0.18    0.44
  -6   9   8   -0.52    0.94
   5  -9  -8   -0.16    0.42
  -5   9   8   -0.35    0.91
  -4   9   8    3.82    1.13
   3  -9  -8   -0.16    0.35
  -3   9   8   -0.72    0.71
   2  -9  -8    3.25    0.56
  -2   9   8    3.62    1.02
   1  -9  -8    0.16    0.35
  -1   9   8    0.52    0.68
   0  -9  -8   15.45    1.00
   0   9   8   14.80    1.49
  -1  -9  -8    0.35    0.35
   1   9   8    0.02    0.54
  -2  -9  -8    1.21    0.42
   2   9   8    1.17    0.65
  -3  -9  -8   43.97    2.02
   3   9   8   41.43    2.35
  -4  -9  -8    4.72    0.67
   4   9   8    3.28    0.79
  -5  -9  -8   27.00    1.53
   5   9   8   23.90    1.61
  -6  -9  -8   31.77    1.73
   6   9   8   26.15    1.71
   6   9   8   31.20    1.42
  -7  -9  -8    0.50    0.48
   7   9   8    1.60    0.41
   7   9   8    1.04    0.53
  -8  -9  -8    1.78    0.57
   8   9   8    1.87    0.47
  -9  -9  -8   11.31    1.17
   9   9   8   10.63    0.91
 -10  -9  -8    0.87    0.61
  10   9   8    0.99    0.50
 -11  -9  -8    3.74    0.82
  11   9   8    6.14    0.84
 -12  -9  -8    2.70    0.75
  12   9   8    3.33    0.75
 -13  -9  -8    0.02    0.55
  13   9   8    0.51    0.59
 -14  -9  -8    0.21    0.60
  14   9   8    0.84    0.64
   5 -10  -8    5.43    0.83
  -5  10   8    5.39    1.40
   4 -10  -8    2.23    0.62
  -4  10   8    3.34    1.19
   3 -10  -8    2.76    0.65
  -3  10   8    2.39    1.05
   2 -10  -8    0.66    0.46
  -2  10   8   -0.44    0.72
   1 -10  -8   12.40    0.96
  -1  10   8    9.21    1.41
   0 -10  -8    6.35    0.78
   0  10   8    4.81    1.08
  -1 -10  -8   22.25    1.32
   1  10   8   19.51    1.74
  -2 -10  -8    2.54    0.56
   2  10   8    3.29    0.87
  -3 -10  -8   85.80    3.39
   3  10   8   74.71    3.68
  -4 -10  -8   20.54    1.28
   4  10   8   17.13    1.53
  -5 -10  -8   68.37    2.93
   5  10   8   59.22    3.01
  -6 -10  -8    1.79    0.61
   6  10   8    0.87    0.54
  -7 -10  -8    0.54    0.51
   7  10   8    1.04    0.37
   7  10   8   -0.20    0.44
  -8 -10  -8    0.35    0.58
   8  10   8    0.34    0.35
  -9 -10  -8   25.47    1.67
   9  10   8   27.70    1.49
 -10 -10  -8    3.36    0.78
  10  10   8    3.41    0.64
 -11 -10  -8    5.26    0.91
  11  10   8    3.19    0.69
 -12 -10  -8    0.39    0.60
  12  10   8    0.39    0.53
 -13 -10  -8   22.44    1.75
  13  10   8   26.85    1.70
 -14 -10  -8    6.55    1.04
  14  10   8   11.77    1.27
   4 -11  -8    2.77    0.70
  -4  11   8    3.10    1.26
   3 -11  -8    0.22    0.50
  -3  11   8   -0.49    0.87
   2 -11  -8    1.77    0.60
  -2  11   8    2.61    1.11
   1 -11  -8    1.81    0.61
  -1  11   8    2.80    1.07
   0 -11  -8    1.85    0.52
   0  11   8    2.28    0.89
  -1 -11  -8    1.53    0.56
   1  11   8    1.31    0.81
  -2 -11  -8    2.63    0.63
   2  11   8    1.37    0.77
  -3 -11  -8    1.28    0.56
   3  11   8    0.84    0.69
  -4 -11  -8   16.76    1.28
   4  11   8   15.60    1.53
  -5 -11  -8    6.05    0.92
   5  11   8    6.90    1.08
  -6 -11  -8    0.16    0.55
   6  11   8    0.20    0.49
  -7 -11  -8   17.87    1.40
   7  11   8   19.62    1.43
  -8 -11  -8   13.63    1.34
  -9 -11  -8    5.83    0.95
   9  11   8    5.71    0.76
 -10 -11  -8    1.51    0.64
  10  11   8    0.59    0.47
 -11 -11  -8    1.09    0.62
  11  11   8    1.24    0.57
 -12 -11  -8    2.06    0.74
  12  11   8    2.22    0.64
 -13 -11  -8    0.36    0.62
  13  11   8    0.34    0.58
 -14 -11  -8    0.51    0.64
  14  11   8    2.44    0.77
   3 -12  -8    2.40    0.70
  -3  12   8    0.90    1.06
   2 -12  -8    5.16    0.84
  -2  12   8    3.12    1.17
   1 -12  -8    2.36    0.65
  -1  12   8    2.24    1.09
   0 -12  -8    2.88    0.71
   0  12   8    2.96    1.12
  -1 -12  -8    0.45    0.51
   1  12   8    0.40    0.86
  -2 -12  -8   15.64    1.21
   2  12   8   16.09    1.80
  -3 -12  -8    0.86    0.58
   3  12   8    0.62    0.75
  -4 -12  -8    3.51    0.82
   4  12   8    3.67    0.96
  -5 -12  -8    2.81    0.81
   5  12   8    0.75    0.67
  -6 -12  -8   69.61    3.15
   6  12   8   62.21    3.16
  -7 -12  -8   21.64    1.58
   7  12   8   17.65    1.44
  -8 -12  -8   27.96    1.85
  -9 -12  -8   -1.00    0.53
 -10 -12  -8    2.15    0.74
 -11 -12  -8    1.43    0.71
  11  12   8    3.29    0.68
 -12 -12  -8   -0.02    0.60
  12  12   8    0.45    0.52
 -13 -12  -8    6.47    1.08
  13  12   8    8.02    1.05
   1 -13  -8    1.09    0.62
  -1  13   8    1.29    1.02
   0 -13  -8   10.69    1.14
   0  13   8    6.95    1.39
  -1 -13  -8    4.83    0.85
   1  13   8    2.99    1.11
  -2 -13  -8    6.27    0.95
   2  13   8    8.62    1.37
  -3 -13  -8    3.35    0.75
   3  13   8    1.29    0.86
  -4 -13  -8    2.82    0.81
   4  13   8    0.77    0.79
  -5 -13  -8   11.48    1.31
   5  13   8   10.59    1.35
  -6 -13  -8    1.43    0.74
   6  13   8    0.55    0.64
  -7 -13  -8   -0.07    0.61
  -8 -13  -8    0.50    0.63
  -9 -13  -8   -0.03    0.64
 -10 -13  -8    2.44    0.78
 -11 -13  -8    0.64    0.65
 -12 -13  -8    1.00    0.72
  -1 -14  -8    6.14    0.98
   1  14   8    4.95    1.32
  -2 -14  -8    0.74    0.61
   2  14   8    0.31    0.85
  -3 -14  -8    8.10    1.11
   3  14   8    5.49    1.22
  -4 -14  -8    6.52    1.08
   4  14   8    5.94    1.19
  -5 -14  -8    2.54    0.84
   5  14   8    1.34    0.76
  -6 -14  -8   13.69    1.39
   6  14   8    9.33    1.31
  -7 -14  -8    0.62    0.72
  -8 -14  -8   13.53    1.46
  -9 -14  -8   -0.04    0.71
 -10 -14  -8   29.07    2.00
 -11 -14  -8    6.71    1.14
  -3 -15  -8    3.01    0.87
   3  15   8    1.94    1.05
  -4 -15  -8    1.46    0.89
   4  15   8   -0.36    0.77
  -5 -15  -8    3.87    0.94
   5  15   8    1.19    0.84
  -6 -15  -8    0.60    0.76
   6  15   8    0.02    0.78
  -7 -15  -8    0.29    0.70
  -8 -15  -8    8.21    1.25
  -9 -15  -8    0.20    0.77
 -10 -15  -8    0.79    1.00
   7  13  -9    0.13    0.59
   6  13  -9    2.92    0.84
  -5 -13   9    0.23    0.69
  -4 -13   9   13.42    1.47
   3  13  -9    0.47    0.78
  -3 -13   9    2.21    0.76
   2  13  -9   35.92    2.42
  -2 -13   9   32.46    2.11
   1  13  -9    2.07    0.99
   0  13  -9    5.55    1.27
   9  12  -9    1.76    0.72
   8  12  -9    3.06    0.81
   7  12  -9    8.58    1.16
   6  12  -9    0.47    0.60
  -5 -12   9    8.52    1.23
  -4 -12   9    8.59    1.21
   3  12  -9    4.66    0.97
  -3 -12   9    4.16    0.91
   2  12  -9    2.37    0.84
  -2 -12   9    0.12    0.55
   1  12  -9    0.46    0.75
  -1 -12   9    1.06    0.60
   0  12  -9    1.23    0.93
   0 -12   9    0.97    0.61
  -1  12  -9    0.97    0.98
  -2  12  -9    0.24    0.94
  10  11  -9    6.83    1.06
   9  11  -9   15.53    1.44
   8  11  -9    3.82    0.84
   7  11  -9    8.93    1.14
  -5 -11   9    5.99    1.01
   4  11  -9   11.64    1.20
  -4 -11   9   10.62    1.26
   3  11  -9    8.02    1.11
  -3 -11   9    7.78    1.09
   2  11  -9    3.14    0.82
  -2 -11   9    2.04    0.72
   1  11  -9   -0.01    0.62
  -1 -11   9    0.47    0.55
   0  11  -9   34.05    2.26
   0 -11   9   32.50    1.92
  -1  11  -9    8.33    1.40
   1 -11   9    6.38    0.91
  -2  11  -9   34.64    2.38
   2 -11   9   27.69    1.92
  -3  11  -9    1.08    1.02
  -4  11  -9    0.53    1.02
 -11 -10   9    0.00    0.47
  10  10  -9    3.94    0.89
 -10 -10   9    3.80    0.71
   9  10  -9    1.67    0.67
  -9 -10   9    2.58    0.63
   8  10  -9    0.34    0.52
  -8 -10   9    0.31    0.43
   7  10  -9    7.42    1.01
  -6 -10   9   -0.16    0.61
  -5 -10   9    4.09    0.89
   4  10  -9    0.80    0.50
  -4 -10   9    0.71    0.61
   3  10  -9    5.21    0.86
  -3 -10   9    3.72    0.79
   2  10  -9   22.93    1.64
  -2 -10   9   24.32    1.63
   1  10  -9    0.43    0.60
  -1 -10   9    0.16    0.51
   0  10  -9    7.23    1.16
   0 -10   9    5.10    0.82
  -1  10  -9   11.83    1.45
   1 -10   9    9.79    1.11
  -2  10  -9   -0.19    0.71
   2 -10   9   -0.08    0.49
  -3  10  -9    3.04    1.09
   3 -10   9    2.73    0.71
  -4  10  -9    1.22    0.95
  -5  10  -9    1.45    1.10
  11   9  -9    3.42    0.86
 -11  -9   9    3.45    0.72
  10   9  -9    4.24    0.89
 -10  -9   9    1.86    0.58
   9   9  -9    0.31    0.55
  -9  -9   9   -0.07    0.36
   8   9  -9    1.40    0.59
  -8  -9   9    0.88    0.45
   7   9  -9   53.36    2.69
  -7  -9   9   55.19    2.45
  -6  -9   9   19.21    1.59
  -6  -9   9   18.40    1.19
  -5  -9   9   58.17    2.93
   4   9  -9    3.14    0.62
  -4  -9   9    4.02    0.79
   3   9  -9   13.98    1.13
  -3  -9   9   13.08    1.24
   2   9  -9    5.52    0.86
  -2  -9   9    6.18    0.88
   1   9  -9   27.80    1.73
  -1  -9   9   28.19    1.70
   0   9  -9    8.17    1.12
   0  -9   9    9.74    1.03
  -1   9  -9   18.55    1.63
   1  -9   9   18.20    1.35
  -2   9  -9    0.35    0.71
   2  -9   9   -0.10    0.42
  -3   9  -9   12.31    1.55
   3  -9   9   11.61    1.12
  -4   9  -9   12.38    1.62
   4  -9   9   11.84    1.14
  -5   9  -9   20.49    2.13
   5  -9   9   15.94    1.35
  -6   9  -9    0.14    0.98
  11   8  -9    0.71    0.65
 -11  -8   9   -0.38    0.40
  10   8  -9    0.35    0.55
 -10  -8   9    0.36    0.48
   9   8  -9    5.43    0.90
  -9  -8   9    6.30    0.82
   8   8  -9    2.97    0.70
  -8  -8   9    2.62    0.57
   7   8  -9    9.84    1.09
  -7  -8   9    9.04    0.84
  -6  -8   9    6.01    1.02
  -6  -8   9    5.03    0.65
   5   8  -9    7.39    0.78
  -5  -8   9    7.84    0.76
  -5  -8   9    7.01    1.02
   4   8  -9    9.05    0.84
  -4  -8   9    9.87    1.11
  -4  -8   9    9.15    0.73
   3   8  -9    1.94    0.52
  -3  -8   9    2.13    0.63
   2   8  -9    0.31    0.41
  -2  -8   9    0.23    0.45
   1   8  -9    7.23    0.90
  -1  -8   9    5.16    0.75
   0   8  -9    1.04    0.59
   0  -8   9    1.15    0.49
  -1   8  -9    4.51    0.85
   1  -8   9    4.27    0.70
  -2   8  -9   56.17    2.82
   2  -8   9   53.41    2.51
  -3   8  -9    2.19    0.82
   3  -8   9    0.53    0.48
  -4   8  -9   -0.25    0.71
   4  -8   9    0.25    0.47
  -5   8  -9   12.78    1.71
   5  -8   9   13.17    1.17
  -6   8  -9    0.33    0.90
   6  -8   9    1.51    0.61
  -7   8  -9    1.17    1.09
   7  -8   9   -0.03    0.69
  12   7  -9    2.73    0.84
 -12  -7   9    1.70    0.61
  11   7  -9    0.22    0.59
 -11  -7   9   -0.16    0.42
  10   7  -9   10.63    1.25
 -10  -7   9    9.69    1.06
   9   7  -9    1.57    0.63
  -9  -7   9    1.18    0.50
   8   7  -9   26.81    1.70
  -8  -7   9   26.48    1.47
   7   7  -9    1.66    0.55
  -7  -7   9    1.55    0.45
  -6  -7   9   11.03    0.84
  -6  -7   9   13.60    1.31
   5   7  -9    2.09    0.44
  -5  -7   9    1.88    0.41
  -5  -7   9    3.31    0.77
   4   7  -9   31.76    1.59
  -4  -7   9   31.50    1.87
  -4  -7   9   32.92    1.50
   3   7  -9   48.84    2.31
  -3  -7   9   51.35    2.52
  -3  -7   9   56.50    2.15
   2   7  -9   95.17    3.89
  -2  -7   9   95.93    3.97
   1   7  -9    1.57    0.49
  -1  -7   9    0.69    0.44
   0   7  -9   16.70    1.20
   0  -7   9   14.88    1.09
  -1   7  -9    0.72    0.50
   1  -7   9    0.71    0.43
  -2   7  -9   22.62    1.57
   2  -7   9   22.30    1.37
  -3   7  -9    0.41    0.60
   3  -7   9    0.00    0.39
  -4   7  -9   23.33    1.80
   4  -7   9   22.33    1.44
  -5   7  -9   14.30    1.60
   5  -7   9   12.28    1.12
  -6   7  -9    9.12    1.39
   6  -7   9    7.81    1.01
  -7   7  -9    6.86    1.38
   7  -7   9    5.25    0.88
  -8   7  -9    4.22    1.29
   8  -7   9    1.83    0.67
  12   6  -9    0.88    0.68
 -12  -6   9    0.98    0.56
  11   6  -9    1.05    0.68
 -11  -6   9    0.77    0.50
  10   6  -9    2.73    0.79
 -10  -6   9    1.05    0.48
   9   6  -9    7.67    1.03
  -9  -6   9    6.35    0.83
   8   6  -9    2.08    0.62
  -8  -6   9    1.34    0.48
   7   6  -9    1.09    0.47
  -7  -6   9    1.87    0.46
   6   6  -9    0.14    0.38
  -6  -6   9    0.81    0.34
   5   6  -9  108.65    4.01
  -5  -6   9  101.95    4.39
  -5  -6   9  103.08    4.01
   4   6  -9    0.13    0.27
  -4  -6   9    0.64    0.52
  -4  -6   9    0.09    0.26
   3   6  -9   15.50    0.99
  -3  -6   9   15.97    1.19
  -3  -6   9   17.15    0.88
   2   6  -9  131.27    5.22
  -2  -6   9  146.22    4.98
  -2  -6   9  131.90    5.35
   1   6  -9   19.08    1.20
  -1  -6   9   20.88    1.25
   0   6  -9    4.32    0.66
   0  -6   9    4.23    0.64
  -1   6  -9    1.43    0.50
   1  -6   9    1.23    0.44
  -2   6  -9   18.25    1.29
   2  -6   9   16.49    1.13
  -3   6  -9    0.81    0.52
   3  -6   9    0.84    0.40
  -4   6  -9    2.47    0.76
   4  -6   9    2.56    0.58
  -5   6  -9   13.47    1.35
   5  -6   9   10.30    1.03
  -6   6  -9    8.68    1.31
   6  -6   9    7.43    0.93
  -7   6  -9    0.52    0.85
   7  -6   9    0.94    0.57
  -8   6  -9    9.34    1.53
   8  -6   9    8.21    1.06
  -9   6  -9    1.77    1.07
   9  -6   9    1.34    0.66
  12   5  -9    1.20    0.67
 -12  -5   9   -0.09    0.49
  11   5  -9    2.47    0.80
 -11  -5   9    2.96    0.67
  10   5  -9   13.58    1.34
 -10  -5   9   13.16    1.08
   9   5  -9    7.52    1.04
  -9  -5   9    7.34    0.85
   8   5  -9    0.16    0.43
  -8  -5   9    0.17    0.35
   7   5  -9    8.68    0.98
  -7  -5   9    8.24    0.76
   6   5  -9   13.14    1.09
  -6  -5   9   16.22    0.97
   5   5  -9   60.51    2.35
  -5  -5   9   55.09    2.38
  -5  -5   9   59.10    2.76
   4   5  -9    0.14    0.21
  -4  -5   9    0.10    0.42
  -4  -5   9    0.61    0.26
   3   5  -9   28.76    1.36
  -3  -5   9   28.73    1.60
  -3  -5   9   27.46    1.24
   2   5  -9   12.27    0.83
  -2  -5   9   12.55    0.66
  -2  -5   9   12.00    0.98
   1   5  -9   19.56    1.18
  -1  -5   9   21.45    1.27
  -1  -5   9   22.34    0.90
   0   5  -9   17.67    1.11
   0  -5   9   17.24    1.11
  -1   5  -9   10.10    0.86
   1  -5   9    9.65    0.79
  -2   5  -9   83.34    3.39
   2  -5   9   75.55    3.22
  -3   5  -9    0.28    0.44
   3  -5   9    1.01    0.38
  -4   5  -9   37.54    2.04
   4  -5   9   35.53    1.81
  -5   5  -9    1.24    0.61
   5  -5   9    0.63    0.40
  -6   5  -9    2.88    0.83
   6  -5   9    2.79    0.61
  -7   5  -9    3.00    0.95
   7  -5   9    2.13    0.61
  -8   5  -9   12.87    1.61
   8  -5   9   11.28    1.18
  -9   5  -9   29.98    2.23
   9  -5   9   20.25    1.58
 -10   5  -9    1.12    1.06
  10  -5   9    0.33    0.60
  12   4  -9    4.66    0.93
 -12  -4   9    3.51    0.75
  11   4  -9    1.15    0.65
 -11  -4   9    0.92    0.52
  10   4  -9    2.79    0.78
 -10  -4   9    1.85    0.57
   9   4  -9    9.30    1.16
  -9  -4   9    8.92    0.92
   8   4  -9   14.71    1.25
  -8  -4   9   11.36    0.94
   7   4  -9    4.96    0.79
  -7  -4   9    4.96    0.65
   6   4  -9    1.18    0.45
  -6  -4   9    1.06    0.36
   5   4  -9   82.99    3.21
  -5  -4   9   83.99    3.28
  -5  -4   9   85.94    3.64
   4   4  -9    6.83    0.55
  -4  -4   9    7.22    0.57
  -4  -4   9    7.77    0.87
   3   4  -9   21.40    1.10
  -3  -4   9   22.63    1.02
  -3  -4   9   20.58    1.31
   2   4  -9  107.83    4.22
  -2  -4   9  110.57    4.38
  -2  -4   9  113.94    4.03
   1   4  -9   12.56    0.86
  -1  -4   9   14.12    0.63
  -1  -4   9   14.52    0.97
   0   4  -9    3.43    0.50
   0  -4   9    4.62    0.60
  -1   4  -9   67.84    2.87
   1  -4   9   71.52    2.88
  -2   4  -9   11.30    0.90
   2  -4   9   10.51    0.80
  -3   4  -9    7.07    0.81
   3  -4   9    7.54    0.73
  -4   4  -9   10.95    1.01
   4  -4   9   10.67    0.87
  -5   4  -9   16.53    1.29
   5  -4   9   18.96    1.18
  -6   4  -9    0.31    0.54
   6  -4   9    0.10    0.39
  -7   4  -9    0.76    0.66
   7  -4   9   -0.50    0.39
  -8   4  -9   11.43    1.40
   8  -4   9   10.95    1.17
  -9   4  -9    1.89    0.93
   9  -4   9    0.95    0.61
  10  -4   9   -0.40    0.61
  11  -4   9   -0.28    0.65
  12   3  -9    8.06    1.19
 -12  -3   9    6.72    0.99
  11   3  -9    0.40    0.64
 -11  -3   9    0.86    0.51
  10   3  -9    1.19    0.67
 -10  -3   9    0.18    0.42
   9   3  -9    1.73    0.66
  -9  -3   9    1.46    0.52
   8   3  -9    4.94    0.85
  -8  -3   9    4.81    0.68
   7   3  -9    3.43    0.67
  -7  -3   9    3.33    0.55
   6   3  -9    2.25    0.53
  -6  -3   9    1.19    0.38
   5   3  -9   90.55    3.68
   5   3  -9   89.95    3.36
  -5  -3   9   84.70    3.40
   4   3  -9    0.24    0.20
  -4  -3   9    0.45    0.23
  -4  -3   9    0.36    0.41
   3   3  -9  127.58    4.76
  -3  -3   9  126.13    4.66
  -3  -3   9  129.62    4.98
   2   3  -9    4.78    0.52
  -2  -3   9    4.35    0.61
  -2  -3   9    5.33    0.37
   1   3  -9  170.00    6.25
  -1  -3   9  166.53    6.29
  -1  -3   9  169.87    5.96
   0   3  -9    8.50    0.66
   0  -3   9    8.44    0.37
   0  -3   9    9.92    0.75
  -1   3  -9  121.13    4.71
   1  -3   9  127.45    4.71
  -2   3  -9   23.33    1.26
  -3   3  -9   18.24    1.14
   3  -3   9   17.55    1.03
  -4   3  -9    0.52    0.37
   4  -3   9    0.25    0.32
  -5   3  -9   12.86    1.07
   5  -3   9   13.76    0.98
  -6   3  -9   75.92    3.34
   6  -3   9   76.25    3.24
  -7   3  -9   14.08    1.31
   7  -3   9   15.67    1.17
  -8   3  -9    1.64    0.71
   8  -3   9    0.42    0.54
  -9   3  -9    0.18    0.74
   9  -3   9   -0.15    0.56
 -10   3  -9    0.45    0.81
  10  -3   9    0.55    0.64
  11  -3   9    7.10    1.17
 -12  -2   9    1.76    0.67
  11   2  -9    1.10    0.69
 -11  -2   9    0.22    0.49
  10   2  -9    9.73    1.23
 -10  -2   9    7.57    0.95
   9   2  -9   10.31    1.23
  -9  -2   9    6.54    0.86
   8   2  -9    1.59    0.60
  -8  -2   9    1.17    0.44
   7   2  -9    0.30    0.42
  -7  -2   9   -0.12    0.28
   6   2  -9    9.49    0.91
  -6  -2   9    9.84    0.77
  -6  -2   9   11.62    0.84
   5   2  -9    0.55    0.38
  -5  -2   9    0.64    0.30
  -5  -2   9    1.05    0.40
  -4  -2   9    4.78    0.70
  -4  -2   9    5.05    0.51
   3   2  -9    2.79    0.40
  -3  -2   9    1.97    0.31
  -3  -2   9    1.75    0.46
   2   2  -9   89.17    3.46
  -2  -2   9   88.47    3.51
  -2  -2   9   88.34    3.26
   1   2  -9   11.49    0.78
  -1  -2   9   13.62    0.61
  -1  -2   9   13.20    0.87
   0   2  -9   27.52    1.38
   0  -2   9   28.43    1.08
   0  -2   9   30.38    1.39
  -1   2  -9   85.45    3.42
   1  -2   9   87.72    3.36
  -2   2  -9   51.08    2.18
   2  -2   9   49.28    2.11
  -3   2  -9   18.33    1.07
   3  -2   9   16.29    0.97
  -4   2  -9    4.10    0.60
   4  -2   9    4.47    0.57
  -5   2  -9   32.67    1.69
   5  -2   9   31.87    1.61
  -6   2  -9    4.93    0.72
   6  -2   9    3.30    0.60
  -7   2  -9    9.37    1.02
   7  -2   9    7.12    0.88
  -8   2  -9    0.23    0.57
   8  -2   9    0.44    0.46
  -9   2  -9    5.31    0.98
   9  -2   9    4.72    0.86
 -10   2  -9    0.35    0.68
  10  -2   9   -0.62    0.52
  11  -2   9    7.21    1.12
  12  -2   9    0.15    0.75
 -11  -1   9    2.46    0.68
  10   1  -9   14.75    1.45
 -10  -1   9   13.38    1.16
   9   1  -9    2.77    0.75
  -9  -1   9    2.65    0.63
   8   1  -9   40.83    2.27
  -8  -1   9   42.69    2.03
   7   1  -9    4.07    0.76
  -7  -1   9    4.43    0.63
   6   1  -9   30.01    1.66
  -6  -1   9   27.82    1.45
  -6  -1   9   30.67    1.52
   5   1  -9    3.62    0.62
  -5  -1   9    4.52    0.64
  -5  -1   9    3.97    0.51
  -4  -1   9   20.40    1.02
  -4  -1   9   19.91    1.21
  -4  -1   9   20.28    1.24
  -3  -1   9    4.17    0.43
  -3  -1   9    4.31    0.60
  -3  -1   9    4.15    0.64
  -2  -1   9  108.16    4.11
  -2  -1   9  106.70    3.91
  -2  -1   9  105.48    4.24
  -1  -1   9  172.25    6.46
  -1  -1   9  179.10    6.73
  -1  -1   9  179.08    6.27
   0   1  -9  107.40    3.79
   0   1  -9  103.33    4.12
   0  -1   9  109.00    4.04
  -1   1  -9    5.74    0.64
  -1   1  -9    4.95    0.25
   1  -1   9    4.95    0.51
  -2   1  -9    9.98    0.73
   2  -1   9    9.59    0.67
  -3   1  -9   22.34    1.21
   3  -1   9   21.28    1.10
  -4   1  -9   94.91    3.24
  -4   1  -9   92.56    3.66
   4  -1   9   87.57    3.57
  -5   1  -9    1.75    0.22
  -5   1  -9    1.13    0.40
   5  -1   9    1.31    0.40
  -6   1  -9   24.77    1.06
  -6   1  -9   23.28    1.37
   6  -1   9   24.77    1.41
  -7   1  -9    0.79    0.26
  -7   1  -9    0.51    0.43
   7  -1   9    0.19    0.43
  -8   1  -9   15.74    1.23
   8  -1   9   16.74    1.27
  -9   1  -9   16.89    1.35
   9  -1   9   16.22    1.35
 -10   1  -9   31.47    2.37
  10  -1   9   28.46    1.95
  11  -1   9    1.00    0.76
  12  -1   9   -0.84    0.66
 -11   0   9   -0.41    0.48
 -10   0   9    0.64    0.48
   9   0  -9    5.48    0.98
  -9   0   9    5.50    0.79
   8   0  -9    2.25    0.68
  -8   0   9    1.93    0.51
   7   0  -9    6.30    0.89
  -7   0   9    5.81    0.72
   6   0  -9   26.78    1.60
  -6   0   9   26.48    1.39
  -6   0   9   28.27    1.55
   5   0  -9    7.79    0.86
  -5   0   9    8.91    0.88
  -5   0   9    7.95    0.68
   4   0  -9   34.37    1.70
  -4   0   9   36.39    1.58
  -4   0   9   35.03    1.80
  -3   0   9   25.29    1.36
  -3   0   9   27.55    1.23
  -3   0   9   26.85    1.55
  -2   0   9   47.13    1.88
  -2   0   9   45.48    2.26
  -2   0   9   48.49    2.04
  -1   0   9   28.60    1.29
  -1   0   9   27.29    1.16
  -1   0   9   26.47    1.59
   0   0  -9  199.96    6.87
   0   0   9  197.20    7.47
   0   0   9  188.14    7.03
  -1   0  -9   57.99    2.08
   1   0   9   55.78    2.26
   1   0   9   56.24    2.66
  -2   0  -9    8.61    0.43
  -2   0  -9    7.61    0.66
   2   0   9    8.30    0.58
  -3   0  -9   15.44    0.66
  -3   0  -9   13.35    0.88
   3   0   9   12.59    0.79
  -4   0  -9    5.91    0.62
  -4   0  -9    7.35    0.42
   4   0   9    6.57    0.58
  -5   0  -9   10.12    0.80
  -5   0  -9    9.54    0.56
   5   0   9    9.05    0.77
  -6   0  -9    7.17    0.73
  -6   0  -9    7.95    0.54
   6   0   9    8.26    0.77
  -7   0  -9    9.03    0.65
  -7   0  -9    8.61    0.83
   7   0   9    8.74    0.87
  -8   0  -9    1.27    0.38
  -8   0  -9    1.26    0.50
   8   0   9    0.47    0.46
  -9   0  -9   10.03    1.06
  -9   0  -9    9.93    0.82
   9   0   9    9.43    1.08
  10   0   9   13.06    1.29
  11   0   9    1.53    0.77
  12   0   9    4.28    1.04
  13   0   9    9.65    1.43
 -11   1   9    0.69    0.52
 -10   1   9   -0.46    0.43
  -9   1   9   11.19    1.11
  -8   1   9   21.33    1.36
   7  -1  -9   16.63    1.37
  -7   1   9   17.60    1.14
   6  -1  -9    1.70    0.56
  -6   1   9    1.51    0.41
  -6   1   9    1.86    0.58
   5  -1  -9   12.73    1.04
  -5   1   9   14.39    0.90
  -5   1   9   14.14    1.13
   4  -1  -9   35.29    1.77
  -4   1   9   40.40    1.99
  -4   1   9   35.78    1.65
   3  -1  -9   24.64    1.30
  -3   1   9   25.95    1.20
  -3   1   9   24.84    1.54
  -2   1   9   16.14    0.93
  -2   1   9   18.07    1.29
  -2   1   9   16.24    0.85
   1  -1  -9    1.06    0.20
  -1   1   9    1.62    0.56
  -1   1   9    0.67    0.25
   0  -1  -9    0.91    0.18
   0   1   9    0.54    0.55
   0   1   9    1.09    0.27
  -1  -1  -9  121.59    4.36
   1   1   9  121.62    4.48
   1   1   9  123.01    5.06
  -2  -1  -9  210.92    7.50
   2   1   9  218.29    8.16
   2   1   9  210.87    7.62
  -3  -1  -9  128.70    4.73
  -3  -1  -9  130.00    5.01
   3   1   9  133.24    4.81
  -4  -1  -9   46.68    2.11
  -4  -1  -9   49.15    1.93
   4   1   9   46.88    1.99
  -5  -1  -9   14.69    0.77
  -5  -1  -9   13.71    0.90
   5   1   9   12.54    0.85
  -6  -1  -9   25.32    1.19
  -6  -1  -9   24.32    1.33
   6   1   9   25.90    1.37
  -7  -1  -9   28.20    1.35
  -7  -1  -9   28.08    1.47
   7   1   9   27.40    1.54
  -8  -1  -9   14.01    1.04
  -8  -1  -9   14.47    0.92
   8   1   9   13.80    1.12
  -9  -1  -9    1.99    0.55
  -9  -1  -9    1.12    0.42
   9   1   9    1.00    0.56
 -10  -1  -9    0.68    0.43
  10   1   9    1.02    0.61
  11   1   9   24.34    1.84
  12   1   9    2.99    0.95
  13   1   9   13.50    1.64
 -10   2   9    1.32    0.62
  -9   2   9    0.16    0.46
  -8   2   9    4.63    0.73
  -7   2   9   20.43    1.50
  -7   2   9   22.22    1.33
   6  -2  -9    9.77    0.99
  -6   2   9   10.99    0.85
  -6   2   9    8.67    1.08
   5  -2  -9   18.66    1.30
  -5   2   9   20.70    1.43
  -5   2   9   19.12    1.11
   4  -2  -9   20.89    1.29
  -4   2   9   23.10    1.51
  -4   2   9   21.41    1.16
   3  -2  -9   10.21    0.79
  -3   2   9   13.55    1.11
  -3   2   9   12.45    0.77
   2  -2  -9   48.73    1.98
  -2   2   9   51.73    2.47
   1  -2  -9    1.82    0.27
  -1   2   9    2.56    0.37
  -1   2   9    2.12    0.62
   0  -2  -9    0.19    0.14
   0   2   9    0.60    0.23
   0   2   9    0.26    0.49
  -1  -2  -9    1.19    0.21
   1   2   9    1.40    0.62
   1   2   9    1.70    0.28
  -2  -2  -9   16.74    0.76
   2   2   9   16.65    1.41
   2   2   9   15.61    0.79
  -3  -2  -9   39.58    1.60
   3   2   9   41.01    1.64
   3   2   9   38.20    2.14
  -4  -2  -9    3.47    0.44
   4   2   9    2.58    0.67
   4   2   9    3.32    0.42
  -5  -2  -9   13.32    0.90
  -5  -2  -9   13.41    0.86
   5   2   9   13.32    0.84
  -6  -2  -9   53.37    2.25
  -6  -2  -9   56.11    2.34
   6   2   9   50.84    2.29
  -7  -2  -9   14.28    0.95
  -7  -2  -9   17.69    1.02
   7   2   9   14.32    1.06
  -8  -2  -9    0.35    0.36
  -8  -2  -9    0.50    0.36
   8   2   9    0.63    0.46
  -9  -2  -9    1.01    0.42
  -9  -2  -9    0.25    0.37
   9   2   9   -0.09    0.42
 -10  -2  -9    8.31    0.89
  10   2   9    9.28    1.11
 -11  -2  -9    2.73    0.64
  11   2   9    2.58    0.78
  12   2   9    1.46    0.78
  13   2   9    4.17    1.04
  14   2   9   -0.52    0.83
  10  -3  -9    1.01    0.51
   9  -3  -9    1.38    0.55
  -8   3   9    0.72    0.49
  -7   3   9    5.72    0.78
  -7   3   9    3.40    0.83
  -6   3   9   25.61    1.44
  -6   3   9   26.55    1.76
  -5   3   9   43.23    2.00
  -5   3   9   44.54    2.35
   4  -3  -9   25.33    1.25
   4  -3  -9   26.67    1.37
  -4   3   9   26.68    1.70
   3  -3  -9   42.41    1.82
   3  -3  -9   43.02    1.92
  -3   3   9   43.62    2.30
   2  -3  -9    8.00    0.62
   2  -3  -9    8.91    0.57
  -2   3   9    7.87    1.04
   1  -3  -9  109.59    4.07
  -1   3   9  107.65    4.58
  -1   3   9  113.31    4.06
   0  -3  -9    1.79    0.26
   0   3   9    1.34    0.53
   0   3   9    1.86    0.27
  -1  -3  -9   83.35    3.15
   1   3   9   81.42    3.77
   1   3   9   87.77    3.12
  -2  -3  -9  142.50    5.06
   2   3   9  139.88    5.03
   2   3   9  135.84    5.76
  -3  -3  -9   35.10    1.50
   3   3   9   34.70    2.10
   3   3   9   37.71    1.49
  -4  -3  -9   78.54    3.06
   4   3   9   75.97    3.53
   4   3   9   80.55    3.01
  -5  -3  -9  140.93    5.14
   5   3   9  137.87    5.08
   5   3   9  130.76    5.47
  -6  -3  -9   79.63    3.27
  -6  -3  -9   82.30    3.29
   6   3   9   81.31    3.25
  -7  -3  -9   16.62    1.09
  -7  -3  -9   17.50    1.00
   7   3   9   14.49    1.05
  -8  -3  -9   56.82    2.28
  -8  -3  -9   50.25    2.36
   8   3   9   51.02    2.41
  -9  -3  -9    1.10    0.36
  -9  -3  -9    1.05    0.47
   9   3   9    0.49    0.51
 -10  -3  -9    4.34    0.69
  10   3   9    2.30    0.68
 -11  -3  -9    3.20    0.67
  11   3   9    2.49    0.74
 -12  -3  -9    2.02    0.63
  12   3   9    4.71    0.98
 -13  -3  -9    3.86    1.01
  13   3   9    4.46    1.04
  14   3   9    3.81    1.06
   9  -4  -9    0.29    0.46
   8  -4  -9    0.28    0.44
   7  -4  -9   -0.13    0.36
  -7   4   9    0.10    0.63
   6  -4  -9   -0.20    0.31
  -6   4   9   -0.07    0.56
   5  -4  -9    1.85    0.43
  -5   4   9    1.02    0.66
   4  -4  -9    0.55    0.27
  -4   4   9    0.14    0.56
   3  -4  -9    1.56    0.35
  -3   4   9    1.36    0.68
   2  -4  -9    0.64    0.24
  -2   4   9    1.31    0.62
   1  -4  -9    1.95    0.32
   1  -4  -9    2.33    0.27
  -1   4   9    1.59    0.61
   0  -4  -9   27.62    1.24
   0   4   9   27.78    1.12
   0   4   9   29.67    1.79
  -1  -4  -9    2.26    0.32
   1   4   9    2.24    0.65
   1   4   9    2.06    0.24
  -2  -4  -9   12.64    0.72
   2   4   9   12.92    1.21
   2   4   9   12.92    0.64
  -3  -4  -9   35.85    1.61
   3   4   9   42.55    2.25
   3   4   9   38.90    1.55
  -4  -4  -9    7.56    0.61
   4   4   9    7.52    1.01
   4   4   9    6.97    0.52
  -5  -4  -9   47.47    2.02
   5   4   9   42.26    2.30
   5   4   9   45.96    1.92
  -6  -4  -9    7.62    0.79
   6   4   9    7.19    0.93
   6   4   9    8.12    0.68
  -7  -4  -9    0.09    0.38
  -7  -4  -9    0.23    0.25
   7   4   9    0.61    0.36
  -8  -4  -9    6.39    0.83
  -8  -4  -9    8.16    0.69
   8   4   9    6.84    0.81
  -9  -4  -9    8.57    0.96
  -9  -4  -9    9.88    0.84
   9   4   9    7.91    0.94
 -10  -4  -9    0.07    0.43
  10   4   9    0.34    0.46
 -11  -4  -9    0.03    0.49
  11   4   9   -0.02    0.55
 -12  -4  -9    2.65    0.68
  12   4   9    3.59    0.89
 -13  -4  -9    7.98    1.07
  13   4   9   11.58    1.41
 -14  -4  -9    0.16    0.69
  14   4   9    1.21    0.83
   9  -5  -9    1.39    0.59
   8  -5  -9    8.72    1.00
   7  -5  -9    0.83    0.46
  -7   5   9   -0.63    0.61
   6  -5  -9    8.78    0.86
  -6   5   9    6.08    1.07
   5  -5  -9   34.68    1.71
  -5   5   9   36.34    2.28
   4  -5  -9   26.53    1.36
  -4   5   9   28.09    1.93
   3  -5  -9   10.38    0.73
  -3   5   9   12.11    1.34
   2  -5  -9  152.20    5.48
  -2   5   9  142.93    6.03
   1  -5  -9    8.48    0.60
  -1   5   9    7.76    1.12
   0  -5  -9   42.89    1.77
   0   5   9   42.39    2.36
  -1  -5  -9   39.64    1.67
   1   5   9   39.64    2.15
  -2  -5  -9    3.85    0.45
   2   5   9    3.77    0.79
   2   5   9    3.16    0.29
  -3  -5  -9    5.02    0.54
   3   5   9    4.58    0.38
   3   5   9    4.90    0.83
  -4  -5  -9    0.15    0.29
   4   5   9    1.39    0.57
   4   5   9    0.59    0.23
  -5  -5  -9   11.95    0.88
   5   5   9   12.04    0.75
   5   5   9   11.22    1.13
  -6  -5  -9   11.84    0.91
   6   5   9   13.78    1.14
   6   5   9   11.56    0.80
  -7  -5  -9   14.98    1.10
   7   5   9   15.06    0.98
   7   5   9   15.82    1.16
  -8  -5  -9   91.04    3.79
  -8  -5  -9   92.88    3.57
   8   5   9   89.16    3.70
  -9  -5  -9   10.20    1.05
   9   5   9    9.04    0.95
 -10  -5  -9   26.43    1.69
  10   5   9   33.02    1.78
 -11  -5  -9    3.13    0.74
  11   5   9    5.39    0.91
 -12  -5  -9   13.82    1.40
  12   5   9   20.34    1.53
 -13  -5  -9    2.00    0.67
  13   5   9    1.07    0.73
 -14  -5  -9    0.05    0.55
  14   5   9    1.44    0.80
   8  -6  -9    0.76    0.49
   7  -6  -9    0.32    0.46
  -7   6   9    0.97    0.79
   6  -6  -9    0.44    0.41
  -6   6   9    0.83    0.80
   5  -6  -9    2.70    0.51
  -5   6   9    1.70    0.85
   4  -6  -9    5.76    0.66
  -4   6   9    5.09    1.04
   3  -6  -9    0.17    0.25
  -3   6   9    1.18    0.73
   2  -6  -9   18.67    1.00
  -2   6   9   15.06    1.56
   1  -6  -9   17.84    0.97
  -1   6   9   15.42    1.48
   0  -6  -9    2.83    0.42
   0   6   9    3.26    0.78
  -1  -6  -9   22.17    1.08
   1   6   9   20.08    1.58
  -2  -6  -9   56.42    2.25
   2   6   9   52.01    2.68
  -3  -6  -9    3.63    0.51
   3   6   9    3.26    0.31
   3   6   9    3.40    0.73
  -4  -6  -9   42.74    1.88
   4   6   9   39.05    1.64
   4   6   9   41.81    2.19
  -5  -6  -9    7.24    0.77
   5   6   9    7.08    0.93
   5   6   9    6.35    0.54
  -6  -6  -9   34.76    1.76
   6   6   9   35.53    1.93
   6   6   9   35.24    1.60
  -7  -6  -9    1.51    0.52
   7   6   9    1.93    0.43
   7   6   9    1.57    0.53
  -8  -6  -9    1.05    0.53
   8   6   9    1.99    0.48
  -9  -6  -9   43.16    2.23
   9   6   9   43.06    2.11
 -10  -6  -9   13.62    1.23
  10   6   9   13.30    1.17
 -11  -6  -9   -0.17    0.49
  11   6   9    0.85    0.57
 -12  -6  -9    0.20    0.54
  12   6   9    0.84    0.59
 -13  -6  -9    0.94    0.61
  13   6   9    0.80    0.68
 -14  -6  -9    0.01    0.55
  14   6   9   -0.28    0.68
   7  -7  -9    3.99    0.69
  -7   7   9    3.55    1.05
   6  -7  -9    3.41    0.64
  -6   7   9    2.33    0.98
   5  -7  -9    6.61    0.77
  -5   7   9    7.23    1.27
   4  -7  -9    1.12    0.41
  -4   7   9    0.35    0.77
   3  -7  -9    0.36    0.30
  -3   7   9   -0.03    0.72
   2  -7  -9    3.74    0.53
  -2   7   9    4.34    0.99
   1  -7  -9    1.44    0.37
  -1   7   9    1.41    0.69
   0  -7  -9   12.64    0.80
   0   7   9   10.79    1.33
  -1  -7  -9   60.43    2.43
   1   7   9   56.83    2.90
  -2  -7  -9   40.65    1.78
   2   7   9   37.61    2.18
  -3  -7  -9   47.02    2.02
   3   7   9   43.34    2.38
  -4  -7  -9   13.98    0.95
   4   7   9   14.55    1.22
   4   7   9   13.73    0.71
  -5  -7  -9   31.22    1.61
   5   7   9   27.39    1.72
   5   7   9   29.90    1.33
  -6  -7  -9    2.65    0.59
   6   7   9    3.13    0.46
   6   7   9    2.61    0.62
  -7  -7  -9    3.25    0.65
   7   7   9    3.37    0.53
   7   7   9    3.45    0.67
  -8  -7  -9    6.36    0.85
   8   7   9    6.33    0.80
   8   7   9    7.53    0.79
  -9  -7  -9   52.53    2.58
   9   7   9   56.92    2.49
 -10  -7  -9   21.75    1.52
  10   7   9   24.99    1.45
 -11  -7  -9   11.72    1.27
  11   7   9   14.09    1.22
 -12  -7  -9    4.67    0.89
  12   7   9    6.68    0.95
 -13  -7  -9   20.79    1.63
  13   7   9   25.14    1.69
 -14  -7  -9    0.91    0.68
  14   7   9    1.78    0.77
   7  -8  -9   -0.28    0.42
   6  -8  -9    0.06    0.45
  -6   8   9    0.72    0.86
   5  -8  -9   21.46    1.32
  -5   8   9   14.80    1.80
   4  -8  -9    0.47    0.40
  -4   8   9   -0.48    0.79
   3  -8  -9   12.35    0.90
  -3   8   9   11.63    1.54
   2  -8  -9   22.46    1.24
  -2   8   9   20.55    1.87
   1  -8  -9    0.24    0.32
  -1   8   9    0.05    0.66
   0  -8  -9   17.70    1.00
   0   8   9   12.66    1.44
  -1  -8  -9    7.47    0.73
   1   8   9    5.41    1.03
  -2  -8  -9    9.55    0.78
   2   8   9   10.19    1.25
  -3  -8  -9   17.50    1.11
   3   8   9   18.24    1.44
  -4  -8  -9    0.57    0.40
   4   8   9   -0.31    0.44
  -5  -8  -9    2.88    0.63
   5   8   9    3.01    0.69
   5   8   9    3.10    0.39
  -6  -8  -9   39.29    2.02
   6   8   9   37.71    2.09
   6   8   9   40.35    1.73
  -7  -8  -9    1.08    0.51
   7   8   9    1.08    0.41
   7   8   9    1.55    0.52
  -8  -8  -9    5.55    0.81
   8   8   9    5.20    0.65
   8   8   9    5.20    0.75
  -9  -8  -9    1.11    0.54
   9   8   9    0.76    0.43
 -10  -8  -9    6.47    0.96
  10   8   9    8.75    0.94
 -11  -8  -9    1.57    0.64
  11   8   9    1.92    0.61
 -12  -8  -9    2.37    0.77
  12   8   9    4.33    0.81
 -13  -8  -9    4.82    0.92
  13   8   9    6.16    0.99
 -14  -8  -9    1.46    0.66
  14   8   9    1.64    0.72
   6  -9  -9    1.32    0.55
  -6   9   9    1.78    1.02
   5  -9  -9    7.14    0.90
  -5   9   9    4.42    1.25
   4  -9  -9    2.09    0.59
  -4   9   9    2.65    1.18
   3  -9  -9    5.20    0.74
  -3   9   9    4.28    1.13
   2  -9  -9    5.60    0.72
  -2   9   9    4.36    1.13
   1  -9  -9    4.97    0.67
  -1   9   9    6.29    1.17
   0  -9  -9    2.70    0.51
   0   9   9    3.37    0.92
  -1  -9  -9   23.31    1.27
   1   9   9   20.37    1.72
  -2  -9  -9   10.85    0.87
   2   9   9    8.50    1.23
  -3  -9  -9   44.19    2.00
   3   9   9   37.75    2.31
  -4  -9  -9    0.50    0.46
   4   9   9    0.05    0.51
  -5  -9  -9   59.54    2.63
   5   9   9   51.23    2.71
  -6  -9  -9   59.24    2.78
   6   9   9   60.17    2.93
   6   9   9   63.80    2.49
  -7  -9  -9   17.09    1.29
   7   9   9   18.10    1.04
   7   9   9   17.79    1.33
  -8  -9  -9    9.35    1.08
   8   9   9   10.49    0.83
   8   9   9    9.12    1.06
  -9  -9  -9    3.33    0.75
   9   9   9    5.59    0.72
 -10  -9  -9    5.20    0.88
  10   9   9    5.90    0.78
 -11  -9  -9    1.47    0.63
  11   9   9    0.92    0.50
 -12  -9  -9   25.05    1.79
  12   9   9   26.87    1.69
 -13  -9  -9   12.38    1.33
  13   9   9   12.88    1.30
 -14  -9  -9    7.11    1.09
  14   9   9    6.20    1.05
   5 -10  -9    1.72    0.61
  -5  10   9    0.40    1.00
   4 -10  -9    0.03    0.46
  -4  10   9    0.22    0.99
   3 -10  -9    0.43    0.46
  -3  10   9    0.71    0.95
   2 -10  -9    5.27    0.76
  -2  10   9    4.11    1.23
   1 -10  -9   23.81    1.38
  -1  10   9   23.45    2.10
   0 -10  -9    0.73    0.46
   0  10   9   -0.25    0.64
  -1 -10  -9    1.41    0.50
   1  10   9    1.21    0.76
  -2 -10  -9    2.09    0.54
   2  10   9    1.10    0.73
  -3 -10  -9    2.77    0.60
   3  10   9    0.82    0.69
  -4 -10  -9    0.74    0.50
   4  10   9    0.46    0.56
  -5 -10  -9    6.31    0.87
   5  10   9    3.30    0.78
  -6 -10  -9    9.88    1.10
   6  10   9   10.00    1.17
  -7 -10  -9    0.11    0.50
   7  10   9    0.28    0.48
  -8 -10  -9    4.17    0.78
   8  10   9    3.53    0.58
  -9 -10  -9    1.29    0.65
   9  10   9    0.87    0.45
 -10 -10  -9    4.18    0.82
  10  10   9    2.43    0.62
  11  10   9    3.12    0.66
 -12 -10  -9    0.03    0.55
  12  10   9   -0.20    0.50
 -13 -10  -9    0.64    0.67
  13  10   9    1.23    0.58
 -14 -10  -9    1.46    0.70
  14  10   9    1.23    0.70
   4 -11  -9    4.14    0.80
   3 -11  -9    1.17    0.55
  -3  11   9    1.00    1.07
   2 -11  -9   23.82    1.47
  -2  11   9   14.23    1.93
   1 -11  -9    3.63    0.71
  -1  11   9    3.08    1.07
   0 -11  -9   22.92    1.39
   0  11   9   19.01    1.91
  -1 -11  -9    0.46    0.48
   1  11   9    0.40    0.80
  -2 -11  -9    2.18    0.61
   2  11   9    1.09    0.81
  -3 -11  -9    8.94    1.01
   3  11   9    8.94    1.36
  -4 -11  -9    2.66    0.67
   4  11   9    2.39    0.81
  -5 -11  -9   29.76    1.75
   5  11   9   26.98    1.91
  -6 -11  -9    3.97    0.84
   6  11   9    3.48    0.80
  -7 -11  -9   12.49    1.29
   7  11   9   12.88    1.24
  -8 -11  -9    3.33    0.78
  -9 -11  -9   13.26    1.35
 -10 -11  -9   38.10    2.21
  10  11   9   43.46    2.07
 -11 -11  -9   -0.25    0.57
  11  11   9    0.57    0.53
 -12 -11  -9    2.66    0.79
  12  11   9    3.14    0.70
 -13 -11  -9    0.81    0.68
  13  11   9    1.29    0.67
   2 -12  -9    1.34    0.63
  -2  12   9    0.82    0.97
   1 -12  -9    0.54    0.56
  -1  12   9    1.18    1.01
   0 -12  -9    2.41    0.69
   0  12   9    2.26    0.99
  -1 -12  -9    0.80    0.58
   1  12   9    1.90    0.96
  -2 -12  -9    8.91    1.03
   2  12   9    5.59    1.26
  -3 -12  -9    1.90    0.65
   3  12   9    0.84    0.84
  -4 -12  -9    1.11    0.67
   4  12   9    0.92    0.73
  -5 -12  -9    8.71    1.10
   5  12   9    7.17    1.18
  -6 -12  -9    0.47    0.65
   6  12   9    0.81    0.62
  -7 -12  -9    2.29    0.77
   7  12   9    0.80    0.60
  -8 -12  -9    6.12    0.96
  -9 -12  -9    0.07    0.62
 -10 -12  -9    2.58    0.79
 -11 -12  -9   16.88    1.53
 -12 -12  -9    1.85    0.77
  12  12   9    1.58    0.61
 -13 -12  -9    0.24    0.61
  13  12   9   -0.03    0.54
   1 -13  -9    0.87    0.66
  -1  13   9    0.80    1.06
   0 -13  -9    3.17    0.76
   0  13   9    2.13    1.09
  -1 -13  -9    1.06    0.63
   1  13   9   -0.79    0.80
  -2 -13  -9   12.24    1.25
   2  13   9    9.91    1.54
  -3 -13  -9   14.22    1.31
   3  13   9   14.93    1.79
  -4 -13  -9    2.41    0.80
   4  13   9    2.45    0.88
  -5 -13  -9    1.68    0.74
   5  13   9    0.77    0.74
  -6 -13  -9   -0.08    0.65
   6  13   9   -0.07    0.55
  -7 -13  -9   32.32    1.97
   7  13   9   28.36    1.97
  -8 -13  -9    1.98    0.78
  -9 -13  -9   12.01    1.36
 -10 -13  -9    2.28    0.83
 -11 -13  -9   14.54    1.50
 -12 -13  -9    1.92    0.83
  -1 -14  -9    0.69    0.69
   1  14   9    0.19    0.95
  -2 -14  -9    1.63    0.74
   2  14   9   -0.68    0.92
  -3 -14  -9    3.00    0.85
   3  14   9    1.74    0.99
  -4 -14  -9    7.16    1.09
   4  14   9    5.77    1.21
  -5 -14  -9    1.38    0.81
   5  14   9   -0.48    0.72
  -6 -14  -9    2.18    0.88
   6  14   9    1.36    0.74
  -7 -14  -9    0.91    0.73
  -8 -14  -9    2.30    0.86
  -9 -14  -9    5.13    1.06
 -10 -14  -9    3.91    0.95
 -11 -14  -9    0.08    0.69
  -4 -15  -9    3.74    1.01
   4  15   9    3.10    1.04
  -5 -15  -9    6.10    1.12
   5  15   9    4.19    1.07
  -6 -15  -9    4.08    1.01
   6  15   9    4.18    1.04
  -7 -15  -9    7.63    1.20
  -8 -15  -9    5.67    1.12
  -9 -15  -9    1.48    0.80
   6  13 -10    2.50    0.83
  -5 -13  10    2.53    0.89
  -4 -13  10    0.05    0.64
   3  13 -10    9.33    1.41
  -3 -13  10   10.35    1.29
   2  13 -10    0.16    0.78
  -2 -13  10   -0.37    0.56
   1  13 -10    0.11    0.80
   8  12 -10    6.90    1.11
   7  12 -10   10.06    1.28
   6  12 -10   14.50    1.55
  -5 -12  10    1.93    0.85
  -4 -12  10   -0.05    0.61
   3  12 -10   -0.37    0.57
  -3 -12  10   -0.58    0.53
   2  12 -10   -0.27    0.67
  -2 -12  10    0.08    0.56
   1  12 -10   19.39    1.83
  -1 -12  10   18.46    1.53
   0 -12  10    7.35    1.08
  -1  12 -10    6.04    1.36
   9  11 -10    1.29    0.66
   8  11 -10    4.27    0.87
   7  11 -10    6.57    1.04
  -6 -11  10    1.80    0.86
  -5 -11  10    2.18    0.80
   4  11 -10    1.74    0.70
  -4 -11  10    0.94    0.66
   3  11 -10    0.43    0.59
  -3 -11  10    0.68    0.63
   2  11 -10   -0.12    0.58
  -2 -11  10   -0.33    0.52
   1  11 -10    4.44    1.00
  -1 -11  10    2.53    0.72
   0  11 -10    0.25    0.74
   0 -11  10    0.49    0.57
  -1  11 -10    2.60    1.02
   1 -11  10    4.39    0.83
  -2  11 -10    1.63    0.97
   2 -11  10    1.92    0.70
  -3  11 -10    1.82    1.05
  10  10 -10    1.34    0.68
 -10 -10  10    0.29    0.59
   9  10 -10    6.85    1.03
   8  10 -10    6.88    1.03
   7  10 -10    9.06    1.14
  -6 -10  10   -0.03    0.69
  -5 -10  10    4.26    0.91
   4  10 -10   12.86    1.19
  -4 -10  10   13.96    1.35
   3  10 -10   48.44    2.50
  -3 -10  10   49.83    2.57
   2  10 -10    3.46    0.84
  -2 -10  10    1.96    0.70
   1  10 -10    2.30    0.79
  -1 -10  10    1.36    0.62
   0  10 -10    0.18    0.64
   0 -10  10    0.13    0.46
  -1  10 -10    2.97    0.96
   1 -10  10    3.65    0.77
  -2  10 -10   10.19    1.43
   2 -10  10    8.45    1.08
  -3  10 -10    4.72    1.20
   3 -10  10    5.17    0.91
  -4  10 -10   18.66    2.06
   4 -10  10   17.86    1.44
  -5  10 -10    0.06    1.06
 -11  -9  10    0.98    0.54
  10   9 -10    4.17    0.89
 -10  -9  10    2.53    0.64
   9   9 -10    1.03    0.61
  -9  -9  10    0.66    0.46
   8   9 -10    3.64    0.78
  -8  -9  10    3.35    0.63
   7   9 -10    2.34    0.70
  -7  -9  10    0.75    0.47
  -6  -9  10   11.12    1.39
  -5  -9  10    2.05    0.74
   4   9 -10    0.20    0.40
  -4  -9  10   -0.73    0.46
   3   9 -10   19.36    1.35
  -3  -9  10   18.74    1.45
   2   9 -10   15.80    1.27
  -2  -9  10   16.06    1.32
   1   9 -10    4.11    0.83
  -1  -9  10    3.36    0.76
   0   9 -10    0.49    0.57
   0  -9  10    0.34    0.48
  -1   9 -10    7.97    1.17
   1  -9  10    5.62    0.87
  -2   9 -10    2.88    0.95
   2  -9  10    3.39    0.70
  -3   9 -10    1.88    0.95
   3  -9  10    1.58    0.61
  -4   9 -10    0.91    0.88
   4  -9  10    0.34    0.53
  -5   9 -10    5.01    1.25
   5  -9  10    6.39    0.96
  -6   9 -10   -0.73    0.90
  11   8 -10    0.81    0.66
 -11  -8  10    2.70    0.66
  10   8 -10   28.89    1.91
 -10  -8  10   26.83    1.64
   9   8 -10   -0.51    0.45
  -9  -8  10    0.30    0.44
   8   8 -10    6.54    0.97
  -8  -8  10    6.27    0.81
   7   8 -10    0.96    0.50
  -7  -8  10    0.29    0.37
  -6  -8  10   51.47    2.31
  -6  -8  10   54.27    2.80
  -5  -8  10    2.66    0.79
  -5  -8  10    2.99    0.53
   4   8 -10   16.56    1.12
  -4  -8  10   15.62    1.34
   3   8 -10    2.44    0.56
  -3  -8  10    1.72    0.62
   2   8 -10    4.50    0.74
  -2  -8  10    5.44    0.82
   1   8 -10   19.97    1.43
  -1  -8  10   21.09    1.39
   0   8 -10    9.84    1.12
   0  -8  10    9.63    0.97
  -1   8 -10   37.69    2.16
   1  -8  10   36.64    1.94
  -2   8 -10    2.20    0.74
   2  -8  10    1.65    0.58
  -3   8 -10    2.32    0.81
   3  -8  10    1.30    0.54
  -4   8 -10    6.09    1.20
   4  -8  10    4.74    0.82
  -5   8 -10    0.15    0.84
   5  -8  10    0.74    0.57
  -6   8 -10    9.60    1.56
   6  -8  10    8.17    1.06
  -7   8 -10    0.67    1.07
   7  -8  10    0.16    0.56
  11   7 -10    1.79    0.72
 -11  -7  10    1.07    0.52
  10   7 -10    6.59    1.04
 -10  -7  10    5.01    0.77
   9   7 -10    1.78    0.63
  -9  -7  10    0.18    0.42
   8   7 -10    0.83    0.53
  -8  -7  10    0.40    0.41
   7   7 -10    0.90    0.50
  -7  -7  10    0.39    0.37
  -6  -7  10    1.71    0.43
  -6  -7  10    3.30    0.86
   5   7 -10    0.19    0.29
  -5  -7  10    0.59    0.33
  -5  -7  10    0.19    0.54
   4   7 -10    7.37    0.74
  -4  -7  10    7.94    0.63
  -4  -7  10    6.72    0.97
   3   7 -10   20.85    1.25
  -3  -7  10   19.72    1.43
   2   7 -10   11.19    0.98
  -2  -7  10   13.24    1.10
   1   7 -10    0.05    0.38
  -1  -7  10    0.12    0.40
   0   7 -10   25.22    1.53
   0  -7  10   24.94    1.50
  -1   7 -10   32.55    1.87
   1  -7  10   32.89    1.75
  -2   7 -10    1.25    0.58
   2  -7  10    1.31    0.49
  -3   7 -10    6.45    1.04
   3  -7  10    6.40    0.84
  -4   7 -10   10.02    1.32
   4  -7  10    9.86    1.05
  -5   7 -10    0.96    0.78
   5  -7  10    2.02    0.60
  -6   7 -10    2.30    1.01
   6  -7  10    2.01    0.65
  -7   7 -10   -0.97    0.79
   7  -7  10   -0.06    0.53
  -8   7 -10    1.91    1.10
   8  -7  10    2.63    0.76
 -11  -6  10    0.64    0.50
  10   6 -10    2.27    0.79
 -10  -6  10    3.72    0.71
   9   6 -10    5.54    0.97
  -9  -6  10    6.65    0.80
   8   6 -10    7.41    1.01
  -8  -6  10    7.48    0.85
   7   6 -10   13.69    1.19
  -7  -6  10   14.27    0.99
  -6  -6  10   45.87    2.07
  -6  -6  10   48.03    2.54
   5   6 -10    3.46    0.49
  -5  -6  10    4.18    0.81
  -5  -6  10    3.86    0.52
   4   6 -10   14.85    0.94
  -4  -6  10   15.01    1.28
  -4  -6  10   15.46    0.87
   3   6 -10    8.95    0.75
  -3  -6  10    9.18    0.61
  -3  -6  10    8.84    1.00
   2   6 -10   23.20    1.31
  -2  -6  10   23.40    1.44
   1   6 -10   11.39    0.93
  -1  -6  10   10.55    0.95
   0   6 -10    0.19    0.39
   0  -6  10    0.55    0.37
  -1   6 -10   62.00    2.78
   1  -6  10   58.43    2.65
  -2   6 -10    0.83    0.53
   2  -6  10    1.67    0.50
  -3   6 -10   29.59    1.79
   3  -6  10   29.41    1.59
  -4   6 -10    1.52    0.67
   4  -6  10    1.43    0.49
  -5   6 -10   48.35    2.66
   5  -6  10   48.10    2.36
  -6   6 -10    4.19    1.02
   6  -6  10    3.59    0.74
  -7   6 -10   10.20    1.52
   7  -6  10    9.78    1.13
  -8   6 -10    0.94    0.90
   8  -6  10    0.50    0.56
  -9   6 -10    2.65    1.19
   9  -6  10    2.69    0.78
  11   5 -10    1.84    0.76
 -11  -5  10    0.76    0.53
  10   5 -10   15.68    1.46
 -10  -5  10   11.77    1.05
   9   5 -10    0.28    0.51
  -9  -5  10    0.62    0.44
   8   5 -10    3.58    0.74
  -8  -5  10    2.26    0.55
   7   5 -10   24.43    1.56
  -7  -5  10   25.20    1.37
   6   5 -10   -0.10    0.36
  -6  -5  10    0.21    0.29
   5   5 -10   14.35    0.84
  -5  -5  10   13.58    0.87
  -5  -5  10   13.89    1.23
   4   5 -10   31.35    1.52
  -4  -5  10   34.03    1.87
  -4  -5  10   35.41    1.51
   3   5 -10    0.23    0.25
  -3  -5  10    0.73    0.47
  -3  -5  10    0.17    0.22
   2   5 -10    6.00    0.65
  -2  -5  10    6.07    0.81
  -2  -5  10    5.97    0.44
   1   5 -10    3.37    0.53
  -1  -5  10    3.12    0.41
  -1  -5  10    3.14    0.55
   0   5 -10   19.64    1.19
   0  -5  10   19.57    1.21
  -1   5 -10   48.14    2.24
   1  -5  10   47.15    2.16
  -2   5 -10    8.58    0.94
   2  -5  10    8.19    0.76
  -3   5 -10    9.94    1.08
   3  -5  10    9.28    0.84
  -4   5 -10   17.95    1.35
   4  -5  10   14.88    1.09
  -5   5 -10    9.96    1.19
   5  -5  10   10.16    0.96
  -6   5 -10    2.38    0.82
   6  -5  10    0.94    0.50
  -7   5 -10    1.00    0.74
   7  -5  10    0.21    0.51
  -8   5 -10   13.63    1.71
   8  -5  10    9.23    1.11
  -9   5 -10    0.26    0.92
   9  -5  10    2.40    0.72
 -10   5 -10    2.84    1.20
  10  -5  10    3.52    0.88
  11   4 -10    7.22    1.12
 -11  -4  10    5.85    0.85
  10   4 -10    1.84    0.72
 -10  -4  10    2.11    0.59
   9   4 -10   13.74    1.34
  -9  -4  10   15.20    1.13
   8   4 -10    0.06    0.42
  -8  -4  10    0.07    0.35
   7   4 -10    0.00    0.43
  -7  -4  10    0.79    0.39
   6   4 -10    2.05    0.53
  -6  -4  10    1.38    0.39
   5   4 -10   13.24    0.80
  -5  -4  10   14.34    1.26
  -5  -4  10   14.20    0.85
   4   4 -10   22.72    1.16
  -4  -4  10   23.64    1.13
  -4  -4  10   24.33    1.50
   3   4 -10   16.28    0.93
  -3  -4  10   15.72    0.82
  -3  -4  10   15.51    1.16
   2   4 -10  113.65    4.40
  -2  -4  10  118.43    4.58
  -2  -4  10  113.51    4.16
   1   4 -10   63.03    2.77
  -1  -4  10   71.86    2.48
  -1  -4  10   67.82    2.89
   0   4 -10   12.32    0.89
   0  -4  10   12.62    0.93
  -1   4 -10    0.75    0.35
   1  -4  10    1.29    0.39
  -2   4 -10    4.76    0.65
   2  -4  10    5.19    0.61
  -3   4 -10   20.96    1.32
   3  -4  10   17.82    1.14
  -4   4 -10   42.72    2.18
   4  -4  10   43.72    2.04
  -5   4 -10   11.79    1.13
   5  -4  10   10.09    0.92
  -6   4 -10   14.47    1.35
   6  -4  10   17.57    1.24
  -7   4 -10    0.48    0.63
   7  -4  10   -0.02    0.49
  -8   4 -10   14.49    1.62
   8  -4  10   12.46    1.17
  -9   4 -10   10.07    1.45
   9  -4  10    8.07    1.08
 -10   4 -10   11.30    1.60
  10  -4  10   10.75    1.29
  11  -4  10    0.05    0.64
  11   3 -10    3.63    0.88
 -11  -3  10    3.73    0.77
  10   3 -10    4.35    0.93
 -10  -3  10    4.41    0.74
   9   3 -10    1.23    0.60
  -9  -3  10    0.02    0.36
   8   3 -10   -0.10    0.42
  -8  -3  10   -0.26    0.32
   7   3 -10   30.55    1.78
  -7  -3  10   30.72    1.58
   6   3 -10   17.42    1.20
  -6  -3  10   16.03    0.99
   5   3 -10   20.56    1.04
  -5  -3  10   21.66    1.44
  -5  -3  10   19.87    1.07
   4   3 -10    7.34    0.59
  -4  -3  10   10.06    1.05
  -4  -3  10    8.29    0.61
   3   3 -10   21.12    1.09
  -3  -3  10   21.70    1.31
  -3  -3  10   19.94    0.97
   2   3 -10    0.65    0.28
  -2  -3  10    1.26    0.23
  -2  -3  10    0.45    0.41
   1   3 -10    0.52    0.29
  -1  -3  10    0.13    0.13
  -1  -3  10   -0.03    0.31
   0   3 -10    0.47    0.29
   0  -3  10    1.21    0.39
   0  -3  10    1.28    0.13
  -1   3 -10   20.79    1.20
   1  -3  10   21.74    1.17
  -2   3 -10   25.71    1.40
   2  -3  10   26.86    1.35
  -3   3 -10   61.58    2.72
   3  -3  10   63.28    2.62
  -4   3 -10    3.92    0.65
   4  -3  10    4.48    0.61
  -5   3 -10   19.80    1.33
   5  -3  10   19.60    1.25
  -6   3 -10   39.77    2.13
   6  -3  10   39.44    1.98
  -7   3 -10    0.32    0.62
   7  -3  10    0.46    0.48
  -8   3 -10    4.17    0.92
   8  -3  10    3.00    0.72
  -9   3 -10   -0.26    0.70
   9  -3  10   -0.35    0.51
 -10   3 -10    1.42    0.86
  10  -3  10    0.03    0.65
  11  -3  10    4.98    1.05
  11   2 -10    1.60    0.70
 -11  -2  10    0.70    0.55
  10   2 -10    7.56    1.12
 -10  -2  10    7.30    0.94
   9   2 -10    9.41    1.19
  -9  -2  10    8.44    0.94
   8   2 -10   41.12    2.30
  -8  -2  10   43.06    2.04
   7   2 -10    1.74    0.56
  -7  -2  10    1.27    0.40
   6   2 -10    3.42    0.65
  -6  -2  10    2.52    0.46
   5   2 -10    0.56    0.38
  -5  -2  10    0.32    0.29
   4   2 -10   47.92    2.04
  -4  -2  10   50.37    2.31
  -4  -2  10   46.45    1.98
   3   2 -10    0.36    0.25
  -3  -2  10    0.36    0.39
  -3  -2  10    0.26    0.19
   2   2 -10   16.68    1.00
  -2  -2  10   17.38    1.07
  -2  -2  10   17.42    0.82
   1   2 -10   15.43    0.94
  -1  -2  10   15.06    0.69
  -1  -2  10   14.98    0.96
   0   2 -10   38.10    1.81
   0   2 -10   39.00    1.43
   0  -2  10   39.73    1.77
  -1   2 -10  148.65    5.69
   1  -2  10  152.75    5.62
  -2   2 -10   88.31    3.54
   2  -2  10   87.88    3.46
  -3   2 -10   83.02    3.34
   3  -2  10   80.68    3.25
  -4   2 -10   17.00    1.11
   4  -2  10   18.04    1.07
  -5   2 -10    5.11    0.74
   5  -2  10    5.47    0.68
  -6   2 -10   17.26    1.28
   6  -2  10   17.29    1.18
  -7   2 -10   21.96    1.50
   7  -2  10   19.87    1.37
  -8   2 -10   37.17    2.12
   8  -2  10   36.43    2.00
  -9   2 -10    1.13    0.74
   9  -2  10   -0.05    0.50
 -10   2 -10   17.69    1.65
  10  -2  10   20.79    1.61
  11  -2  10    0.79    0.75
  12  -2  10    8.12    1.32
 -11  -1  10    0.74    0.57
  10   1 -10    0.54    0.84
 -10  -1  10    0.45    0.47
   9   1 -10    9.32    1.22
  -9  -1  10    9.52    1.01
   8   1 -10    3.78    0.81
  -8  -1  10    2.72    0.57
   7   1 -10    0.30    0.45
  -7  -1  10    0.19    0.34
   6   1 -10    4.99    0.74
  -6  -1  10    5.61    0.66
  -6  -1  10    5.24    0.68
   5   1 -10    0.17    0.33
  -5  -1  10    0.13    0.28
  -5  -1  10    0.75    0.40
  -4  -1  10    5.70    0.79
  -4  -1  10    6.68    0.81
  -4  -1  10    5.99    0.58
  -3  -1  10    4.87    0.47
  -3  -1  10    4.35    0.69
  -3  -1  10    4.59    0.65
  -2  -1  10   21.67    0.98
  -2  -1  10   21.85    1.36
  -2  -1  10   20.99    1.18
  -1  -1  10   61.59    2.36
  -1  -1  10   62.94    2.59
  -1  -1  10   65.75    2.86
   0   1 -10    0.16    0.28
   0   1 -10    0.27    0.10
   0  -1  10    0.17    0.26
  -1   1 -10    6.40    0.65
  -1   1 -10    7.08    0.33
   1  -1  10    6.44    0.57
  -2   1 -10    5.50    0.65
   2  -1  10    4.71    0.52
  -3   1 -10    9.24    0.78
   3  -1  10    8.58    0.68
  -4   1 -10    7.59    0.74
   4  -1  10    7.09    0.67
  -5   1 -10   18.19    1.17
   5  -1  10   16.90    1.09
  -6   1 -10    8.64    0.96
   6  -1  10    8.85    0.85
  -7   1 -10    9.53    0.99
   7  -1  10   12.08    1.07
  -8   1 -10    0.53    0.50
   8  -1  10    0.12    0.47
  -9   1 -10    1.90    0.69
   9  -1  10    1.37    0.66
 -10   1 -10    2.78    0.78
  10  -1  10    1.39    0.73
  11  -1  10    2.62    0.87
  12  -1  10   -0.71    0.68
 -11   0  10    2.64    0.71
 -10   0  10    2.68    0.67
  -9   0  10    2.88    0.64
   8   0 -10    2.55    0.72
  -8   0  10    0.87    0.46
   7   0 -10   37.62    2.13
  -7   0  10   38.79    1.89
   6   0 -10   33.91    1.89
  -6   0  10   35.27    1.71
  -6   0  10   37.60    1.88
   5   0 -10   45.00    2.16
  -5   0  10   43.85    1.97
  -5   0  10   47.46    2.22
   4   0 -10   27.59    1.48
  -4   0  10   28.68    1.61
  -4   0  10   26.92    1.32
  -3   0  10   15.44    1.03
  -3   0  10   13.75    1.13
  -3   0  10   15.75    0.85
  -2   0  10    0.22    0.31
  -2   0  10    0.41    0.20
  -2   0  10    0.24    0.43
  -1   0  10   12.90    0.67
  -1   0  10   14.10    1.15
  -1   0  10   13.32    0.82
   0   0 -10   75.18    2.78
   0   0  10   76.51    2.98
   0   0  10   76.99    3.39
  -1   0 -10   16.54    0.70
   1   0  10   16.14    0.89
   1   0  10   16.76    1.30
  -2   0 -10    6.41    0.37
  -2   0 -10    5.86    0.71
   2   0  10    6.23    0.54
  -3   0 -10  206.58    7.05
  -3   0 -10  195.47    7.41
   3   0  10  196.03    7.23
  -4   0 -10   32.03    1.19
  -4   0 -10   28.57    1.49
   4   0  10   28.11    1.43
  -5   0 -10  274.20    9.28
  -5   0 -10  260.57    9.65
   5   0  10  255.31    9.55
  -6   0 -10    2.21    0.32
  -6   0 -10    2.19    0.52
   6   0  10    1.64    0.47
  -7   0 -10   40.04    2.03
  -7   0 -10   42.38    1.73
   7   0  10   39.03    2.02
  -8   0 -10   13.73    1.12
   8   0  10   14.32    1.18
  -9   0 -10    7.97    0.95
   9   0  10    6.33    0.92
 -10   0 -10    5.59    1.15
  10   0  10    2.68    0.79
  11   0  10   15.80    1.62
  12   0  10    2.45    0.91
  13   0  10    4.43    1.13
 -10   1  10    1.33    0.60
  -9   1  10    0.39    0.50
  -8   1  10   -0.50    0.36
   7  -1 -10    0.38    0.47
  -7   1  10    0.28    0.40
   6  -1 -10    9.40    1.09
  -6   1  10    8.91    1.02
  -6   1  10    9.43    0.84
   5  -1 -10    0.51    0.39
  -5   1  10    0.65    0.47
  -5   1  10    0.15    0.30
   4  -1 -10    1.11    0.40
  -4   1  10    1.22    0.34
  -4   1  10    1.28    0.56
   3  -1 -10   12.81    0.87
  -3   1  10   12.06    1.09
  -3   1  10   11.42    0.75
  -2   1  10   13.61    0.79
  -2   1  10   15.16    1.26
  -2   1  10   13.60    0.91
   1  -1 -10    0.34    0.16
  -1   1  10    0.47    0.27
  -1   1  10    0.76    0.52
   0  -1 -10    6.88    0.41
   0   1  10    9.12    1.15
   0   1  10    6.35    0.53
  -1  -1 -10    0.83    0.18
   1   1  10    1.02    0.28
   1   1  10    0.77    0.56
  -2  -1 -10   13.33    0.64
   2   1  10   15.09    1.26
   2   1  10   14.34    0.78
  -3  -1 -10    4.95    0.66
  -3  -1 -10    5.25    0.45
   3   1  10    4.88    0.50
  -4  -1 -10   26.12    1.20
  -4  -1 -10   27.40    1.43
   4   1  10   25.48    1.26
  -5  -1 -10    6.15    0.54
  -5  -1 -10    4.35    0.62
   5   1  10    5.09    0.60
  -6  -1 -10    2.81    0.53
  -6  -1 -10    3.20    0.44
   6   1  10    2.59    0.52
  -7  -1 -10    1.86    0.39
  -7  -1 -10    1.18    0.42
   7   1  10    1.17    0.46
  -8  -1 -10   21.27    1.20
  -8  -1 -10   24.24    1.40
   8   1  10   24.57    1.49
  -9  -1 -10    1.39    0.51
  -9  -1 -10    0.62    0.35
   9   1  10    0.03    0.48
  10   1  10   -0.42    0.50
  11   1  10   17.07    1.53
  12   1  10    0.60    0.76
  13   1  10   -0.10    0.78
 -10   2  10   -0.28    0.52
  -9   2  10    1.50    0.59
  -8   2  10   -0.58    0.40
  -7   2  10   12.60    1.03
  -6   2  10    3.03    0.74
  -6   2  10    2.74    0.53
   5  -2 -10    0.84    0.44
  -5   2  10    1.66    0.60
  -5   2  10    0.89    0.36
   4  -2 -10   51.50    2.42
  -4   2  10   55.44    2.67
  -4   2  10   53.93    2.29
   3  -2 -10  121.53    4.65
  -3   2  10  122.57    4.97
  -3   2  10  118.02    4.54
   2  -2 -10  141.88    5.29
  -2   2  10  149.87    5.40
  -2   2  10  142.91    5.83
   1  -2 -10   10.40    0.58
  -1   2  10    6.91    1.01
  -1   2  10    9.04    0.65
   0  -2 -10   28.89    1.25
   0   2  10   31.87    1.34
   0   2  10   30.95    1.92
  -1  -2 -10   16.84    0.82
   1   2  10   19.57    0.89
   1   2  10   16.00    1.47
  -2  -2 -10   37.34    1.49
   2   2  10   37.26    1.55
   2   2  10   36.56    2.25
  -3  -2 -10    1.04    0.26
   3   2  10    0.65    0.58
   3   2  10    1.68    0.32
  -4  -2 -10   88.80    3.34
   4   2  10   89.03    3.35
   4   2  10   82.86    3.85
  -5  -2 -10   11.26    0.87
  -5  -2 -10   10.04    0.76
   5   2  10   11.32    0.78
  -6  -2 -10   45.72    2.11
  -6  -2 -10   45.10    1.98
   6   2  10   46.86    2.06
  -7  -2 -10   63.75    2.75
  -7  -2 -10   72.99    2.93
   7   2  10   66.93    2.91
  -8  -2 -10   69.86    2.86
  -8  -2 -10   74.93    2.98
   8   2  10   63.73    3.00
  -9  -2 -10    3.61    0.58
  -9  -2 -10    3.58    0.61
   9   2  10    3.46    0.70
 -10  -2 -10    3.49    0.61
  10   2  10    3.19    0.75
  11   2  10    0.63    0.65
  12   2  10    6.14    1.11
  13   2  10   -0.46    0.73
  14   2  10    2.44    1.01
   9  -3 -10    1.33    0.57
   8  -3 -10    2.94    0.63
   7  -3 -10    1.01    0.43
  -7   3  10    0.78    0.68
   6  -3 -10    0.04    0.30
  -6   3  10   -0.01    0.55
   5  -3 -10   14.81    0.95
  -5   3  10   17.56    1.45
   4  -3 -10    4.94    0.55
  -4   3  10    4.60    0.89
   3  -3 -10    8.16    0.77
   3  -3 -10    9.59    0.67
  -3   3  10    7.94    1.09
   2  -3 -10    0.26    0.20
   2  -3 -10    0.45    0.28
  -2   3  10    0.43    0.54
   1  -3 -10    3.67    0.41
  -1   3  10    6.05    0.51
  -1   3  10    4.18    0.83
   0  -3 -10    4.04    0.39
   0   3  10    3.29    0.77
   0   3  10    3.87    0.40
  -1  -3 -10    0.02    0.16
   1   3  10    0.88    0.55
   1   3  10    0.78    0.22
  -2  -3 -10   10.37    0.60
   2   3  10    8.44    1.22
   2   3  10   10.02    0.59
  -3  -3 -10    2.14    0.32
   3   3  10    3.76    0.86
   3   3  10    1.80    0.32
  -4  -3 -10   72.27    2.82
   4   3  10   72.22    2.76
   4   3  10   68.61    3.35
  -5  -3 -10  113.22    4.22
   5   3  10  110.30    4.17
   5   3  10  107.06    4.67
  -6  -3 -10    0.84    0.36
  -6  -3 -10    0.02    0.35
   6   3  10    0.55    0.34
  -7  -3 -10   30.64    1.59
  -7  -3 -10   32.01    1.60
   7   3  10   31.50    1.61
  -8  -3 -10   90.11    3.83
  -8  -3 -10  101.67    3.84
   8   3  10   93.63    3.90
  -9  -3 -10    2.30    0.52
  -9  -3 -10    1.85    0.46
   9   3  10    0.50    0.48
 -10  -3 -10    0.78    0.47
  10   3  10   -0.24    0.47
 -11  -3 -10    8.08    0.95
  11   3  10   12.11    1.32
 -12  -3 -10    0.90    0.60
  12   3  10    0.37    0.62
  13   3  10    1.24    0.77
  14   3  10   -0.44    0.77
   9  -4 -10    1.19    0.54
   8  -4 -10   -0.10    0.42
   7  -4 -10    1.06    0.48
  -7   4  10   -0.39    0.57
   6  -4 -10    4.09    0.63
  -6   4  10    4.67    0.97
   5  -4 -10    4.74    0.60
  -5   4  10    4.97    0.94
   4  -4 -10    2.62    0.45
  -4   4  10    0.44    0.63
   3  -4 -10    5.03    0.56
  -3   4  10    2.60    0.80
   2  -4 -10   14.78    0.84
  -2   4  10   13.63    1.29
   1  -4 -10   15.76    0.79
   1  -4 -10   15.85    0.84
  -1   4  10   15.08    1.33
   0  -4 -10  145.54    5.49
   0   4  10  154.62    6.13
   0   4  10  152.81    5.39
  -1  -4 -10  112.19    4.17
   1   4  10  109.86    4.76
   1   4  10  114.81    4.06
  -2  -4 -10   20.92    1.07
   2   4  10   25.16    1.73
   2   4  10   24.47    1.03
  -3  -4 -10    0.74    0.25
   3   4  10    0.41    0.57
   3   4  10    0.37    0.20
  -4  -4 -10    1.69    0.39
   4   4  10    3.11    0.79
   4   4  10    1.87    0.32
  -5  -4 -10   21.54    1.19
   5   4  10   22.47    1.12
   5   4  10   21.70    1.60
  -6  -4 -10    0.53    0.39
   6   4  10    2.26    0.66
   6   4  10    0.07    0.30
  -7  -4 -10   10.29    0.83
  -7  -4 -10   10.05    0.94
   7   4  10   12.24    0.91
  -8  -4 -10   65.83    2.59
  -8  -4 -10   53.67    2.62
   8   4  10   58.73    2.63
  -9  -4 -10   47.81    1.96
  -9  -4 -10   35.87    2.06
   9   4  10   42.74    2.12
 -10  -4 -10   27.70    1.68
  10   4  10   33.24    1.86
 -11  -4 -10    1.00    0.54
  11   4  10    1.40    0.66
 -12  -4 -10    9.94    1.13
  12   4  10   13.46    1.45
 -13  -4 -10   -0.38    0.48
  13   4  10    0.96    0.77
  14   4  10    4.83    1.09
   8  -5 -10    0.50    0.47
   7  -5 -10   -0.34    0.40
  -7   5  10    0.10    0.65
   6  -5 -10   13.02    1.03
  -6   5  10   13.76    1.51
   5  -5 -10    0.82    0.38
  -5   5  10   -0.48    0.56
   4  -5 -10    0.77    0.36
  -4   5  10    1.54    0.75
   3  -5 -10    0.20    0.26
  -3   5  10    0.95    0.64
   2  -5 -10   30.47    1.37
  -2   5  10   25.83    1.86
   1  -5 -10    3.67    0.45
  -1   5  10    2.98    0.80
   0  -5 -10   28.51    1.31
   0   5  10   29.66    1.88
  -1  -5 -10  159.18    5.81
   1   5  10  159.27    6.38
  -2  -5 -10    5.95    0.52
   2   5  10    6.72    0.96
   2   5  10    6.23    0.41
  -3  -5 -10    5.87    0.58
   3   5  10    4.42    0.90
   3   5  10    5.78    0.44
  -4  -5 -10   29.97    1.44
   4   5  10   29.09    1.86
   4   5  10   30.55    1.30
  -5  -5 -10   39.10    1.82
   5   5  10   39.01    1.68
   5   5  10   40.16    2.22
  -6  -5 -10    2.29    0.50
   6   5  10    2.26    0.43
   6   5  10    2.91    0.70
  -7  -5 -10    3.36    0.62
   7   5  10    2.82    0.66
   7   5  10    3.74    0.56
  -8  -5 -10    7.73    0.70
  -8  -5 -10    7.96    0.93
   8   5  10    7.13    0.80
  -9  -5 -10    4.40    0.76
  -9  -5 -10    7.05    0.78
   9   5  10    5.03    0.74
 -10  -5 -10    2.76    0.73
  10   5  10    4.87    0.79
 -11  -5 -10    1.18    0.60
  11   5  10    2.11    0.66
 -12  -5 -10    0.70    0.58
  12   5  10    1.05    0.69
 -13  -5 -10    0.93    0.65
  13   5  10    2.07    0.81
 -14  -5 -10    1.57    0.68
  14   5  10    3.03    0.94
   8  -6 -10   -0.02    0.45
   7  -6 -10   12.36    1.06
  -7   6  10   10.37    1.37
   6  -6 -10    5.42    0.75
  -6   6  10    2.07    0.87
   5  -6 -10    6.66    0.76
  -5   6  10    5.43    1.07
   4  -6 -10    0.35    0.31
  -4   6  10    0.06    0.68
   3  -6 -10    6.04    0.65
  -3   6  10    6.22    1.10
   2  -6 -10   13.39    0.84
  -2   6  10   12.83    1.48
   1  -6 -10    2.16    0.41
  -1   6  10    1.36    0.69
   0  -6 -10    7.02    0.59
   0   6  10    6.12    0.98
  -1  -6 -10   25.81    1.22
   1   6  10   23.92    1.69
  -2  -6 -10   71.29    2.83
   2   6  10   70.04    3.32
  -3  -6 -10   45.80    2.01
   3   6  10   48.01    1.80
   3   6  10   45.41    2.45
  -4  -6 -10    0.86    0.37
   4   6  10    0.46    0.22
   4   6  10    0.75    0.54
  -5  -6 -10  111.82    4.30
   5   6  10  108.69    4.08
   5   6  10  107.19    4.58
  -6  -6 -10    1.63    0.50
   6   6  10    1.82    0.61
   6   6  10    1.68    0.38
  -7  -6 -10   63.10    2.77
   7   6  10   64.22    2.88
   7   6  10   60.68    2.60
  -8  -6 -10   18.25    1.31
   8   6  10   20.52    1.31
   8   6  10   21.60    1.26
  -9  -6 -10   30.90    1.76
   9   6  10   30.19    1.67
 -10  -6 -10    1.70    0.59
  10   6  10    1.00    0.53
 -11  -6 -10   33.19    2.00
  11   6  10   43.20    2.14
 -12  -6 -10   28.11    1.83
  12   6  10   31.82    1.92
 -13  -6 -10   13.32    1.42
  13   6  10   18.73    1.55
 -14  -6 -10    0.64    0.62
  14   6  10    0.52    0.69
   7  -7 -10   -0.60    0.40
  -7   7  10   -0.17    0.75
   6  -7 -10    0.32    0.46
  -6   7  10    0.82    0.79
   5  -7 -10   -0.01    0.35
  -5   7  10   -0.45    0.76
   4  -7 -10   -0.15    0.33
  -4   7  10    0.36    0.78
   3  -7 -10    0.43    0.33
  -3   7  10   -0.65    0.57
   2  -7 -10   25.76    1.34
  -2   7  10   24.81    1.91
   1  -7 -10    3.11    0.49
  -1   7  10    2.61    0.82
   0  -7 -10   12.99    0.83
   0   7  10    9.10    1.21
  -1  -7 -10   30.54    1.47
   1   7  10   32.09    2.01
  -2  -7 -10   17.95    1.04
   2   7  10   17.57    1.44
  -3  -7 -10    0.10    0.30
   3   7  10    0.55    0.51
  -4  -7 -10    0.70    0.39
   4   7  10    0.86    0.24
   4   7  10    0.79    0.57
  -5  -7 -10   15.59    1.09
   5   7  10   15.89    0.84
   5   7  10   14.61    1.26
  -6  -7 -10    5.89    0.76
   6   7  10    5.45    0.88
   6   7  10    7.01    0.62
  -7  -7 -10    0.75    0.47
   7   7  10    0.58    0.35
   7   7  10    0.50    0.50
  -8  -7 -10    1.91    0.59
   8   7  10    1.92    0.49
   8   7  10    2.65    0.62
  -9  -7 -10    3.53    0.72
   9   7  10    3.80    0.67
 -10  -7 -10    1.67    0.65
  10   7  10    2.45    0.64
 -11  -7 -10    4.47    0.86
  11   7  10    5.81    0.86
 -12  -7 -10    3.02    0.75
  12   7  10    5.64    0.89
 -13  -7 -10    2.44    0.71
  13   7  10    2.76    0.81
 -14  -7 -10    0.72    0.60
  14   7  10    0.92    0.70
   6  -8 -10   -0.11    0.42
  -6   8  10   -0.05    0.78
   5  -8 -10    8.20    0.91
  -5   8  10    7.72    1.41
   4  -8 -10   -0.11    0.37
  -4   8  10    0.07    0.84
   3  -8 -10    3.40    0.56
  -3   8  10    1.35    0.92
   2  -8 -10   18.86    1.14
  -2   8  10   17.63    1.78
   1  -8 -10    7.21    0.76
  -1   8  10    6.83    1.15
   0  -8 -10   17.71    1.05
   0   8  10   17.24    1.55
  -1  -8 -10   10.53    0.79
   1   8  10    7.65    1.12
  -2  -8 -10   52.99    2.26
   2   8  10   49.95    2.72
  -3  -8 -10    1.08    0.42
   3   8  10    1.86    0.69
  -4  -8 -10  106.49    4.05
   4   8  10   94.69    4.33
  -5  -8 -10   19.17    1.23
   5   8  10   15.33    1.36
   5   8  10   16.39    0.87
  -6  -8 -10   77.18    3.31
   6   8  10   79.22    3.03
   6   8  10   74.18    3.44
  -7  -8 -10    0.33    0.46
   7   8  10    0.10    0.47
   7   8  10    0.72    0.36
  -8  -8 -10    2.41    0.62
   8   8  10    2.96    0.55
   8   8  10    3.07    0.65
  -9  -8 -10   36.07    1.97
   9   8  10   34.90    1.80
 -10  -8 -10   19.35    1.41
  10   8  10   19.80    1.34
 -11  -8 -10    0.95    0.63
  11   8  10    1.24    0.59
 -12  -8 -10    0.19    0.56
  12   8  10    0.31    0.52
 -13  -8 -10    2.39    0.78
  13   8  10    3.81    0.83
 -14  -8 -10    9.30    1.21
  14   8  10   15.24    1.45
   5  -9 -10    2.31    0.63
  -5   9  10    0.58    0.95
   4  -9 -10    0.86    0.52
  -4   9  10    1.22    0.94
   3  -9 -10    0.37    0.44
  -3   9  10    0.06    0.88
   2  -9 -10    1.24    0.46
  -2   9  10    0.78    0.85
   1  -9 -10    1.55    0.44
  -1   9  10    0.16    0.76
   0  -9 -10    0.66    0.38
   0   9  10    1.74    0.81
  -1  -9 -10    5.43    0.68
   1   9  10    6.13    1.05
  -2  -9 -10    7.59    0.79
   2   9  10    6.58    1.08
  -3  -9 -10    2.32    0.55
   3   9  10    2.01    0.76
  -4  -9 -10   12.41    1.06
   4   9  10   12.75    1.24
  -5  -9 -10   39.47    2.02
   5   9  10   36.09    2.14
  -6  -9 -10   14.73    1.20
   6   9  10   12.91    1.25
  -7  -9 -10    6.70    0.86
   7   9  10    7.60    0.77
   7   9  10    7.28    1.01
  -8  -9 -10   20.80    1.47
   8   9  10   19.53    1.38
   8   9  10   19.12    1.18
  -9  -9 -10    3.84    0.77
   9   9  10    3.37    0.62
 -10  -9 -10   33.98    2.06
  10   9  10   41.13    1.98
 -11  -9 -10    2.68    0.77
  11   9  10    2.66    0.65
 -12  -9 -10    0.70    0.64
  12   9  10    0.17    0.51
 -13  -9 -10    4.17    0.84
  13   9  10    4.85    0.90
 -14  -9 -10    0.16    0.56
  14   9  10    1.71    0.73
   4 -10 -10    1.36    0.60
  -4  10  10   -0.60    0.86
   3 -10 -10    5.39    0.79
  -3  10  10    4.19    1.28
   2 -10 -10    0.57    0.42
  -2  10  10    0.46    0.90
   1 -10 -10    9.12    0.92
  -1  10  10   11.26    1.65
   0 -10 -10    0.34    0.41
   0  10  10    0.47    0.77
  -1 -10 -10    8.49    0.89
   1  10  10    7.29    1.21
  -2 -10 -10   38.56    1.84
   2  10  10   30.72    2.17
  -3 -10 -10   24.58    1.43
   3  10  10   19.32    1.67
  -4 -10 -10    3.49    0.70
   4  10  10    3.83    0.88
  -5 -10 -10    2.13    0.64
   5  10  10    1.63    0.69
  -6 -10 -10   17.03    1.35
   6  10  10   16.95    1.45
  -7 -10 -10   33.66    1.90
   7  10  10   30.42    1.90
  -8 -10 -10   20.76    1.47
   8  10  10   21.98    1.33
   8  10  10   18.86    1.58
  -9 -10 -10    8.68    1.10
   9  10  10    6.43    0.76
 -10 -10 -10    5.69    0.93
  10  10  10    6.61    0.81
 -11 -10 -10    3.27    0.83
  11  10  10    3.59    0.74
 -12 -10 -10    5.85    1.00
  12  10  10    5.60    0.87
 -13 -10 -10    5.06    0.93
  13  10  10    5.80    0.95
 -14 -10 -10    2.96    0.81
  14  10  10    4.25    0.88
   3 -11 -10    6.42    0.88
  -3  11  10    7.27    1.54
   2 -11 -10    1.72    0.62
  -2  11  10    1.73    1.11
   1 -11 -10    0.86    0.56
  -1  11  10    0.57    0.99
   0 -11 -10    0.44    0.46
   0  11  10    0.84    0.92
  -1 -11 -10    3.57    0.70
   1  11  10    5.35    1.22
  -2 -11 -10    3.68    0.71
   2  11  10    3.02    0.97
  -3 -11 -10   50.88    2.32
   3  11  10   39.93    2.57
  -4 -11 -10    9.70    1.05
   4  11  10    8.94    1.29
  -5 -11 -10    6.99    1.01
   5  11  10    4.40    0.88
  -6 -11 -10   18.48    1.44
   6  11  10   15.30    1.41
  -7 -11 -10    1.28    0.66
   7  11  10    1.38    0.64
  -8 -11 -10    7.86    1.08
  -9 -11 -10    2.81    0.77
 -10 -11 -10    2.00    0.73
  10  11  10    0.86    0.57
 -11 -11 -10    0.89    0.69
  11  11  10    0.43    0.52
 -12 -11 -10    1.89    0.76
  12  11  10    2.14    0.70
 -13 -11 -10    1.90    0.83
  13  11  10    2.67    0.75
 -14 -11 -10    0.91    0.66
   2 -12 -10    0.55    0.60
  -2  12  10   -0.37    0.98
   1 -12 -10    8.47    1.02
  -1  12  10    5.54    1.38
   0 -12 -10    5.23    0.89
   0  12  10    5.45    1.41
  -1 -12 -10    1.42    0.61
   1  12  10    0.68    0.85
  -2 -12 -10    0.49    0.54
   2  12  10   -0.39    0.68
  -3 -12 -10    2.88    0.72
   3  12  10    2.52    0.96
  -4 -12 -10   10.01    1.12
   4  12  10    8.07    1.30
  -5 -12 -10   20.05    1.50
   5  12  10   16.88    1.55
  -6 -12 -10    7.15    1.06
   6  12  10    5.76    0.98
  -7 -12 -10   26.04    1.80
   7  12  10   25.93    1.80
  -8 -12 -10    1.08    0.72
  -9 -12 -10   16.39    1.52
 -10 -12 -10    1.33    0.70
 -11 -12 -10   32.15    2.07
 -12 -12 -10    0.48    0.75
 -13 -12 -10    2.42    0.86
  13  12  10    2.93    0.86
   0 -13 -10    2.06    0.72
   0  13  10    1.64    1.09
  -1 -13 -10    4.19    0.87
   1  13  10    3.40    1.20
  -2 -13 -10    0.18    0.63
   2  13  10    0.64    0.89
  -3 -13 -10    0.26    0.63
   3  13  10    0.06    0.79
  -4 -13 -10   -0.40    0.63
   4  13  10   -0.09    0.64
  -5 -13 -10    7.69    1.14
   5  13  10    7.26    1.18
  -6 -13 -10    1.09    0.75
   6  13  10    1.04    0.66
  -7 -13 -10    8.47    1.20
   7  13  10    4.46    0.92
  -8 -13 -10    2.99    0.89
  -9 -13 -10    3.91    0.90
 -10 -13 -10    0.36    0.70
 -11 -13 -10   -0.03    0.67
 -12 -13 -10   -0.10    0.62
  -1 -14 -10    0.04    0.67
  -2 -14 -10    5.78    1.01
   2  14  10    5.07    1.32
  -3 -14 -10    0.80    0.68
   3  14  10   -0.07    0.84
  -4 -14 -10   23.45    1.84
  -5 -14 -10    6.31    1.15
   5  14  10    5.03    1.09
  -6 -14 -10   11.11    1.41
  -7 -14 -10    2.46    0.89
  -8 -14 -10   23.94    1.89
  -9 -14 -10    4.48    0.99
 -10 -14 -10    2.27    0.88
 -11 -14 -10   10.12    1.33
  -4 -15 -10    1.41    0.85
  -5 -15 -10    0.18    0.77
   5  15  10    0.56    0.76
  -6 -15 -10    0.92    0.86
   6  15  10    0.07    0.72
  -7 -15 -10    0.99    0.83
  -8 -15 -10    8.99    1.28
  -9 -15 -10   -1.05    0.68
   7  12 -11    1.58    0.77
   6  12 -11    0.49    0.76
  -5 -12  11   -0.13    0.71
  -4 -12  11    4.72    1.03
   3  12 -11    2.35    0.86
  -3 -12  11    2.45    0.84
   2  12 -11    0.38    0.74
  -2 -12  11   -0.12    0.56
   1  12 -11    1.53    0.84
  -1 -12  11    1.10    0.69
   0  12 -11    1.77    0.98
   0 -12  11    1.87    0.72
  -1  12 -11   -0.07    0.87
   1 -12  11    0.57    1.03
   8  11 -11    0.37    0.57
   7  11 -11    2.72    0.80
  -6 -11  11   21.12    1.84
  -5 -11  11    0.83    0.75
  -4 -11  11   27.45    1.91
   3  11 -11    2.00    0.74
  -3 -11  11    2.03    0.76
   2  11 -11   15.09    1.52
  -2 -11  11   15.00    1.43
   1  11 -11    0.12    0.71
  -1 -11  11    0.33    0.56
   0  11 -11   29.74    2.21
   0 -11  11   30.67    1.91
  -1  11 -11    3.54    1.08
   1 -11  11    1.51    0.68
  -2  11 -11    0.44    0.80
   2 -11  11    1.56    0.64
  -3  11 -11   -0.87    0.79
   9  10 -11    1.49    0.66
   8  10 -11    0.27    0.56
   7  10 -11    1.54    0.71
  -6 -10  11   -0.70    0.69
  -5 -10  11    4.18    0.95
   4  10 -11    1.48    0.58
  -4 -10  11    1.09    0.75
   3  10 -11    0.42    0.53
  -3 -10  11    0.31    0.61
   2  10 -11    0.11    0.57
  -2 -10  11    0.72    0.58
   1  10 -11    0.41    0.62
  -1 -10  11   -0.34    0.53
   0  10 -11   23.40    1.83
   0 -10  11   23.45    1.61
  -1  10 -11   -0.49    0.68
   1 -10  11    0.98    0.57
  -2  10 -11    0.46    0.81
   2 -10  11    0.18    0.56
  -3  10 -11   24.21    2.20
   3 -10  11   24.33    1.69
  -4  10 -11    0.63    0.97
   4 -10  11    0.51    0.61
  10   9 -11    0.38    0.61
 -10  -9  11    0.33    0.47
   9   9 -11   15.07    1.38
   8   9 -11    6.12    0.99
   7   9 -11   42.45    2.37
  -6  -9  11    1.66    0.82
  -5  -9  11    2.54    0.81
   4   9 -11    0.84    0.49
  -4  -9  11    0.00    0.57
   3   9 -11   10.59    1.07
  -3  -9  11   10.04    1.20
   2   9 -11   16.48    1.33
  -2  -9  11   17.47    1.37
   1   9 -11    2.03    0.70
  -1  -9  11    1.82    0.65
   0   9 -11   14.06    1.34
   0  -9  11   13.42    1.17
  -1   9 -11    6.82    1.14
   1  -9  11    7.29    0.97
  -2   9 -11    9.63    1.37
   2  -9  11   10.33    1.14
  -3   9 -11    2.02    0.94
   3  -9  11    3.89    0.80
  -4   9 -11    5.60    1.28
   4  -9  11    4.87    0.87
  -5   9 -11    8.10    1.45
   5  -9  11    5.11    0.91
  -6   9 -11    1.41    1.15
   6  -9  11    1.37    0.69
  10   8 -11    1.70    0.66
 -10  -8  11   -0.28    0.43
   9   8 -11    0.34    0.60
  -9  -8  11   -0.36    0.41
   8   8 -11    2.17    0.66
  -8  -8  11    1.19    0.48
   7   8 -11    5.95    0.92
  -7  -8  11    5.02    0.69
  -6  -8  11    0.34    0.65
  -5  -8  11   -0.09    0.56
   4   8 -11   45.76    2.14
  -4  -8  11   42.14    2.36
   3   8 -11   14.09    1.09
  -3  -8  11   13.79    1.26
   2   8 -11   10.26    1.00
  -2  -8  11    8.80    1.07
   1   8 -11   12.24    1.15
  -1  -8  11   10.77    1.06
   0   8 -11   37.28    2.12
   0  -8  11   37.25    2.01
  -1   8 -11    7.02    1.03
   1  -8  11    7.82    0.94
  -2   8 -11   -0.51    0.51
   2  -8  11   -0.31    0.43
  -3   8 -11   12.08    1.46
   3  -8  11   13.37    1.18
  -4   8 -11    1.76    0.90
   4  -8  11    3.50    0.74
  -5   8 -11   -0.01    0.83
   5  -8  11    0.30    0.55
  -6   8 -11    6.21    1.34
   6  -8  11    5.55    0.95
  -7   8 -11    3.65    1.30
   7  -8  11    4.30    0.90
  11   7 -11    1.51    0.72
 -11  -7  11    0.97    0.52
  10   7 -11    4.13    0.88
 -10  -7  11    3.06    0.67
   9   7 -11    2.05    0.72
  -9  -7  11    2.99    0.62
   8   7 -11    1.27    0.61
  -8  -7  11    0.42    0.42
   7   7 -11    2.77    0.71
  -7  -7  11    3.59    0.61
  -6  -7  11    8.31    0.76
  -6  -7  11    8.18    1.17
  -5  -7  11   56.86    2.90
  -5  -7  11   57.94    2.43
   4   7 -11   11.07    0.88
  -4  -7  11   10.60    1.23
   3   7 -11   33.62    1.71
  -3  -7  11   32.67    1.93
   2   7 -11   13.84    1.04
  -2  -7  11   11.66    1.09
   1   7 -11   10.72    1.02
  -1  -7  11   10.91    1.03
   0   7 -11    1.77    0.61
   0  -7  11    1.71    0.55
  -1   7 -11   10.99    1.18
   1  -7  11    9.87    0.96
  -2   7 -11    1.57    0.66
   2  -7  11    1.03    0.51
  -3   7 -11   29.92    1.94
   3  -7  11   27.64    1.66
  -4   7 -11    4.64    0.97
   4  -7  11    4.21    0.75
  -5   7 -11   30.39    2.15
   5  -7  11   30.45    1.82
  -6   7 -11    0.82    0.83
   6  -7  11    0.09    0.51
  -7   7 -11    3.78    1.18
   7  -7  11    1.97    0.72
  -8   7 -11    1.97    1.18
   8  -7  11   -0.09    0.57
  11   6 -11    1.29    0.73
 -11  -6  11    0.61    0.48
  10   6 -11    0.64    0.62
 -10  -6  11    0.61    0.48
   9   6 -11    0.65    0.58
  -9  -6  11    0.20    0.38
   8   6 -11    0.52    0.52
  -8  -6  11    0.40    0.40
   7   6 -11   32.88    1.89
  -7  -6  11   29.98    1.58
  -6  -6  11    4.97    0.63
  -6  -6  11    5.51    0.98
   5   6 -11    2.57    0.44
  -5  -6  11    1.28    0.37
  -5  -6  11    1.89    0.71
   4   6 -11   33.49    1.62
  -4  -6  11   33.58    1.95
  -4  -6  11   33.98    1.53
   3   6 -11    0.39    0.32
  -3  -6  11   -0.37    0.46
   2   6 -11    6.02    0.75
  -2  -6  11    7.87    0.91
   1   6 -11    7.76    0.86
  -1  -6  11    8.65    0.93
   0   6 -11   20.18    1.35
   0  -6  11   22.10    1.37
  -1   6 -11    8.26    0.96
   1  -6  11    9.58    0.93
  -2   6 -11   -0.07    0.41
   2  -6  11    0.72    0.42
  -3   6 -11    0.23    0.49
   3  -6  11    1.10    0.44
  -4   6 -11    3.60    0.84
   4  -6  11    3.25    0.65
  -5   6 -11    1.07    0.75
   5  -6  11    1.46    0.57
  -6   6 -11    9.62    1.39
   6  -6  11    8.69    1.06
  -7   6 -11    0.25    0.80
   7  -6  11   -0.07    0.53
  -8   6 -11   -0.14    0.94
   8  -6  11    0.14    0.54
  -9   6 -11   -0.67    0.97
   9  -6  11    1.07    0.65
  11   5 -11    4.66    0.95
 -11  -5  11    4.03    0.74
  10   5 -11    7.25    1.11
 -10  -5  11    5.63    0.81
   9   5 -11    4.22    0.88
  -9  -5  11    5.27    0.77
   8   5 -11    3.50    0.76
  -8  -5  11    4.62    0.68
   7   5 -11    0.16    0.45
  -7  -5  11   -0.01    0.33
   6   5 -11    2.14    0.58
  -6  -5  11    1.77    0.42
   5   5 -11    0.33    0.27
  -5  -5  11    1.53    0.38
  -5  -5  11    1.56    0.63
   4   5 -11   37.89    1.74
  -4  -5  11   35.26    2.02
  -4  -5  11   40.40    1.67
   3   5 -11    0.67    0.31
  -3  -5  11    0.39    0.45
  -3  -5  11    0.53    0.22
   2   5 -11  129.50    5.10
  -2  -5  11  133.01    5.27
  -2  -5  11  137.32    4.84
   1   5 -11    0.58    0.35
  -1  -5  11    0.75    0.43
   0   5 -11   98.06    4.04
   0  -5  11  101.18    4.02
  -1   5 -11    1.22    0.45
   1  -5  11    0.39    0.37
  -2   5 -11   86.54    3.73
   2  -5  11   90.23    3.64
  -3   5 -11    4.16    0.73
   3  -5  11    1.81    0.51
  -4   5 -11    1.45    0.59
   4  -5  11    1.24    0.49
  -5   5 -11    1.64    0.69
   5  -5  11    2.24    0.61
  -6   5 -11   25.73    1.86
   6  -5  11   21.24    1.48
  -7   5 -11   30.55    2.14
   7  -5  11   28.46    1.79
  -8   5 -11    7.79    1.35
   8  -5  11    5.83    0.94
  -9   5 -11    2.49    1.15
   9  -5  11    1.75    0.73
 -10   5 -11    1.38    1.12
  10  -5  11    2.10    0.81
  11   4 -11    0.67    0.60
 -11  -4  11    0.07    0.46
  10   4 -11    2.37    0.82
 -10  -4  11    2.50    0.61
   9   4 -11    1.95    0.66
  -9  -4  11    1.04    0.48
   8   4 -11   -0.47    0.39
  -8  -4  11    0.12    0.38
   7   4 -11    0.11    0.45
  -7  -4  11    0.34    0.34
   6   4 -11    8.16    0.99
  -6  -4  11    7.59    0.71
   5   4 -11    5.96    0.56
  -5  -4  11    6.42    0.93
  -5  -4  11    7.02    0.66
   4   4 -11    0.77    0.31
  -4  -4  11    0.59    0.27
  -4  -4  11    0.35    0.47
   3   4 -11   36.50    1.76
  -3  -4  11   42.76    1.65
  -3  -4  11   38.57    2.02
   2   4 -11   23.98    1.30
  -2  -4  11   24.28    1.44
  -2  -4  11   25.28    1.07
   1   4 -11   12.49    0.92
  -1  -4  11   13.47    1.00
  -1  -4  11   13.42    0.60
   0   4 -11   10.40    0.85
   0  -4  11    9.66    0.86
  -1   4 -11   15.31    1.06
  -2   4 -11    0.72    0.39
   2  -4  11    0.39    0.34
  -3   4 -11    4.65    0.74
   3  -4  11    4.93    0.68
  -4   4 -11    0.14    0.43
   4  -4  11   -0.01    0.35
  -5   4 -11   10.05    1.16
   5  -4  11    8.27    0.90
  -6   4 -11   10.78    1.24
   6  -4  11   10.77    1.03
  -7   4 -11    0.87    0.68
   7  -4  11    0.27    0.46
  -8   4 -11    2.36    0.91
   8  -4  11    1.45    0.62
  -9   4 -11    0.41    0.87
   9  -4  11    0.06    0.58
 -10   4 -11    0.74    0.91
  10  -4  11    0.08    0.64
  11   3 -11    1.14    0.67
 -11  -3  11    0.73    0.52
  10   3 -11    2.67    0.79
 -10  -3  11    1.08    0.54
   9   3 -11   14.30    1.37
  -9  -3  11   13.42    1.08
   8   3 -11   11.04    1.21
  -8  -3  11   11.77    0.99
   7   3 -11   46.71    2.36
  -7  -3  11   43.84    2.06
   6   3 -11    0.65    0.41
  -6  -3  11    0.27    0.33
   5   3 -11   43.53    1.87
  -5  -3  11   43.49    2.26
  -5  -3  11   44.20    1.91
   4   3 -11   14.68    0.90
  -4  -3  11   16.52    1.23
  -4  -3  11   15.19    0.85
   3   3 -11    0.45    0.27
  -3  -3  11    0.43    0.45
  -3  -3  11    0.27    0.22
   2   3 -11   -0.09    0.23
  -2  -3  11   -0.13    0.34
  -2  -3  11    0.39    0.19
   1   3 -11   93.69    3.73
  -1  -3  11   91.69    3.37
  -1  -3  11   95.36    3.77
   0   3 -11  123.97    4.85
   0  -3  11  125.57    4.82
  -1   3 -11    5.47    0.71
   1  -3  11    5.08    0.64
  -2   3 -11   47.59    2.21
   2  -3  11   47.08    2.11
  -3   3 -11   17.68    1.17
   3  -3  11   17.48    1.09
  -4   3 -11   60.89    2.77
   4  -3  11   60.06    2.61
  -5   3 -11    8.27    1.01
   5  -3  11    9.99    0.93
  -6   3 -11    1.82    0.64
   6  -3  11    3.11    0.62
  -7   3 -11   -0.04    0.53
   7  -3  11    0.36    0.48
  -8   3 -11    2.79    0.82
   8  -3  11    1.57    0.65
  -9   3 -11   17.65    1.70
   9  -3  11   17.83    1.45
 -10   3 -11   13.33    1.65
  10  -3  11    9.59    1.23
  11  -3  11   12.01    1.45
 -11  -2  11    0.59    0.51
  10   2 -11    6.60    1.09
 -10  -2  11    5.38    0.83
   9   2 -11    0.61    0.56
  -9  -2  11    1.46    0.52
   8   2 -11    0.02    0.50
  -8  -2  11    0.94    0.44
   7   2 -11    0.32    0.46
  -7  -2  11    0.85    0.41
   6   2 -11    9.56    1.05
  -6  -2  11    9.70    0.79
   5   2 -11    5.11    0.75
   5   2 -11    4.39    0.53
  -5  -2  11    4.59    0.56
   4   2 -11    1.92    0.38
  -4  -2  11    1.23    0.50
  -4  -2  11    1.38    0.32
   3   2 -11   16.29    0.98
  -3  -2  11   17.15    0.87
  -3  -2  11   16.69    1.14
   2   2 -11   40.22    1.83
  -2  -2  11   39.41    1.89
  -2  -2  11   38.15    1.58
   1   2 -11   16.00    1.00
  -1  -2  11   16.27    1.02
  -1  -2  11   15.56    0.72
   0   2 -11   36.77    1.83
   0   2 -11   39.45    1.43
   0  -2  11   38.41    1.79
  -1   2 -11   19.83    1.18
   1  -2  11   22.30    1.18
  -2   2 -11   37.33    1.84
   2  -2  11   36.91    1.72
  -3   2 -11   32.66    1.68
   3  -2  11   30.66    1.54
  -4   2 -11    5.12    0.73
   4  -2  11    4.86    0.62
  -5   2 -11    2.47    0.57
   5  -2  11    2.98    0.56
  -6   2 -11    0.60    0.47
   6  -2  11   -0.05    0.40
  -7   2 -11    2.87    0.70
   7  -2  11    2.59    0.62
  -8   2 -11    5.33    0.95
   8  -2  11    4.59    0.84
  -9   2 -11    1.60    0.77
   9  -2  11    1.22    0.69
 -10   2 -11    4.73    1.04
  10  -2  11    3.49    0.89
  11  -2  11    2.07    0.89
  12  -2  11    0.68    0.82
 -11  -1  11    0.04    0.51
 -10  -1  11    0.71    0.50
   9   1 -11    0.16    0.57
  -9  -1  11   -0.30    0.43
   8   1 -11   14.00    1.36
  -8  -1  11   16.75    1.18
   7   1 -11   14.16    1.24
  -7  -1  11   15.83    1.09
   6   1 -11    1.28    0.49
  -6  -1  11    0.02    0.38
  -6  -1  11    0.25    0.33
   5   1 -11   37.97    1.95
  -5  -1  11   37.24    1.74
  -5  -1  11   41.63    1.94
  -4  -1  11   30.38    1.67
  -4  -1  11   29.48    1.60
  -4  -1  11   28.33    1.36
  -3  -1  11  154.91    5.99
  -3  -1  11  155.12    5.66
  -3  -1  11  155.90    5.92
  -2  -1  11    3.45    0.54
  -2  -1  11    3.33    0.38
  -2  -1  11    2.49    0.62
  -1  -1  11    1.94    0.43
  -1  -1  11    3.14    0.33
  -1  -1  11    3.67    0.70
   0   1 -11   42.88    1.60
   0   1 -11   41.16    1.99
   0  -1  11   42.30    1.89
  -1   1 -11    6.98    0.79
  -1   1 -11    7.77    0.38
   1  -1  11    8.40    0.68
  -2   1 -11   32.13    1.65
   2  -1  11   31.74    1.51
  -3   1 -11  175.13    6.47
   3  -1  11  164.67    6.27
  -4   1 -11   45.45    2.12
   4  -1  11   43.06    1.98
  -5   1 -11   12.59    1.01
   5  -1  11   11.35    0.90
  -6   1 -11   10.43    0.95
   6  -1  11   10.77    0.95
  -7   1 -11   51.79    2.54
   7  -1  11   53.89    2.52
  -8   1 -11    5.56    0.90
   8  -1  11    5.03    0.85
  -9   1 -11    1.51    0.67
   9  -1  11    0.88    0.59
 -10   1 -11    1.33    0.69
  10  -1  11    0.80    0.66
  11  -1  11    4.20    0.98
  12  -1  11    0.62    0.81
 -10   0  11    0.69    0.51
  -9   0  11    2.66    0.65
   8   0 -11    1.17    0.64
  -8   0  11    0.72    0.47
   7   0 -11    5.14    0.87
  -7   0  11    4.58    0.66
   6   0 -11    0.76    0.47
  -6   0  11    1.12    0.52
  -6   0  11    0.53    0.35
   5   0 -11   28.03    1.60
  -5   0  11   28.12    1.42
  -5   0  11   30.54    1.67
   4   0 -11   19.86    1.25
  -4   0  11   21.59    1.40
  -4   0  11   20.13    1.07
  -3   0  11    6.70    0.92
  -3   0  11    6.97    0.58
  -3   0  11    9.16    0.89
  -2   0  11   23.61    1.10
  -2   0  11   23.04    1.52
  -2   0  11   22.92    1.27
   1   0 -11    0.93    0.19
  -1   0  11    0.90    0.52
  -1   0  11    0.43    0.29
   0   0 -11    1.37    0.21
   0   0  11    1.49    0.58
   0   0  11    2.37    0.41
  -1   0 -11    0.87    0.16
   1   0  11    0.39    0.26
   1   0  11    0.57    0.53
  -2   0 -11   24.11    0.98
   2   0  11   23.98    1.20
  -3   0 -11   25.35    1.44
  -3   0 -11   26.40    1.09
   3   0  11   25.64    1.28
  -4   0 -11    3.69    0.61
  -4   0 -11    4.08    0.33
   4   0  11    2.94    0.50
  -5   0 -11    3.96    0.64
  -5   0 -11    4.15    0.36
   5   0  11    3.59    0.58
  -6   0 -11   17.39    1.17
   6   0  11   15.97    1.11
  -7   0 -11    6.83    0.86
   7   0  11    6.30    0.85
  -8   0 -11   23.26    1.52
   8   0  11   22.70    1.51
  -9   0 -11    3.59    0.74
   9   0  11    3.30    0.79
 -10   0 -11   -0.25    0.51
  10   0  11    0.54    0.64
  11   0  11    7.90    1.17
  12   0  11   -0.05    0.69
  13   0  11   -0.07    0.79
 -10   1  11   11.56    1.24
  -9   1  11   -0.08    0.48
  -8   1  11    0.56    0.47
  -7   1  11    2.16    0.55
   6  -1 -11   15.97    1.29
  -6   1  11   14.64    1.04
  -6   1  11   14.53    1.27
   5  -1 -11    4.59    0.74
  -5   1  11    6.45    0.92
  -5   1  11    6.50    0.70
   4  -1 -11   46.54    2.22
  -4   1  11   47.57    2.08
  -4   1  11   52.24    2.49
  -3   1  11    5.53    0.91
  -3   1  11    5.54    0.57
  -2   1  11   36.22    1.70
  -2   1  11   36.36    2.08
   1  -1 -11    9.89    0.55
  -1   1  11    9.46    1.16
  -1   1  11   10.05    0.73
   0  -1 -11  239.69    8.54
   0   1  11  241.20    8.68
   0   1  11  244.64    9.33
  -1  -1 -11    1.22    0.21
   1   1  11    1.70    0.67
   1   1  11    0.96    0.30
  -2  -1 -11   14.80    0.72
   2   1  11   16.41    1.40
   2   1  11   17.05    0.91
  -3  -1 -11   60.02    2.42
  -3  -1 -11   67.27    2.85
   3   1  11   64.86    2.55
  -4  -1 -11   60.19    2.64
  -4  -1 -11   59.29    2.35
   4   1  11   59.34    2.45
  -5  -1 -11   10.60    0.88
  -5  -1 -11   10.36    0.69
   5   1  11   11.77    0.84
  -6  -1 -11   57.92    2.62
  -6  -1 -11   57.86    2.30
   6   1  11   56.85    2.50
  -7  -1 -11   44.47    2.22
  -7  -1 -11   47.84    1.99
   7   1  11   46.57    2.23
  -8  -1 -11   46.74    2.15
  -8  -1 -11   36.65    2.14
   8   1  11   42.88    2.15
  -9  -1 -11   20.62    1.38
   9   1  11   19.68    1.46
 -10  -1 -11    3.50    0.91
  10   1  11    2.72    0.74
  11   1  11    1.80    0.79
  12   1  11    0.66    0.74
  13   1  11   -0.95    0.69
  10  -2 -11    0.41    0.50
  -9   2  11    1.63    0.63
  -8   2  11   -0.01    0.46
  -7   2  11    2.92    0.64
  -6   2  11    0.77    0.42
  -6   2  11   -0.03    0.51
  -5   2  11   10.74    1.19
  -5   2  11    9.26    0.81
   4  -2 -11    0.88    0.41
  -4   2  11    0.55    0.52
  -4   2  11    0.49    0.31
   3  -2 -11   32.16    1.61
   3  -2 -11   33.00    1.45
  -3   2  11   31.12    1.94
   2  -2 -11    0.15    0.20
  -2   2  11    0.20    0.34
  -2   2  11   -0.14    0.53
   1  -2 -11   46.27    1.91
  -1   2  11   51.98    2.65
  -1   2  11   47.73    2.02
   0  -2 -11  112.29    4.19
   0   2  11  115.97    4.97
   0   2  11  116.27    4.27
  -1  -2 -11   23.22    1.04
   1   2  11   23.96    1.12
   1   2  11   22.12    1.76
  -2  -2 -11   10.07    0.59
   2   2  11   11.83    1.38
   2   2  11   11.18    0.69
  -3  -2 -11   18.21    0.88
   3   2  11   18.63    0.95
   3   2  11   16.59    1.50
  -4  -2 -11    2.98    0.44
   4   2  11    3.29    0.81
   4   2  11    3.50    0.47
  -5  -2 -11    2.50    0.53
  -5  -2 -11    3.21    0.49
   5   2  11    1.96    0.43
  -6  -2 -11    0.20    0.34
  -6  -2 -11    0.63    0.39
   6   2  11    0.53    0.34
  -7  -2 -11    0.63    0.34
  -7  -2 -11    0.78    0.44
   7   2  11   -0.38    0.34
  -8  -2 -11    1.60    0.47
  -8  -2 -11    1.61    0.52
   8   2  11    1.67    0.54
  -9  -2 -11    7.71    0.88
  -9  -2 -11    6.99    0.78
   9   2  11    5.43    0.84
  10   2  11    0.69    0.60
  11   2  11    7.74    1.15
  12   2  11    2.71    0.89
  13   2  11    3.28    1.02
   9  -3 -11    2.08    0.66
   8  -3 -11    4.92    0.80
   7  -3 -11   22.81    1.38
   6  -3 -11    1.53    0.43
  -6   3  11    1.13    0.69
   5  -3 -11    3.08    0.51
  -5   3  11    2.55    0.74
   4  -3 -11   13.17    0.86
  -4   3  11   12.78    1.29
   3  -3 -11   65.93    2.59
  -3   3  11   62.06    3.08
   2  -3 -11    4.64    0.48
   2  -3 -11    5.16    0.58
  -2   3  11    4.32    0.91
   1  -3 -11   53.64    2.15
  -1   3  11   56.08    2.20
  -1   3  11   50.05    2.70
   0  -3 -11    8.45    0.55
   0   3  11    9.57    0.63
   0   3  11    8.36    1.14
  -1  -3 -11   75.69    2.88
   1   3  11   68.07    3.57
   1   3  11   80.79    2.89
  -2  -3 -11   72.24    2.71
   2   3  11   65.96    3.48
   2   3  11   71.67    2.71
  -3  -3 -11    3.57    0.42
   3   3  11    2.85    0.85
   3   3  11    3.17    0.40
  -4  -3 -11   50.96    2.14
   4   3  11   51.87    2.76
   4   3  11   53.83    2.13
  -5  -3 -11    3.43    0.49
   5   3  11    0.66    0.60
   5   3  11    0.78    0.31
  -6  -3 -11   15.20    1.02
  -6  -3 -11   16.84    1.12
   6   3  11   16.49    1.01
  -7  -3 -11    3.17    0.59
  -7  -3 -11    3.26    0.58
   7   3  11    3.35    0.59
  -8  -3 -11   16.06    1.12
  -8  -3 -11   17.26    1.13
   8   3  11   16.55    1.17
  -9  -3 -11   29.94    1.50
  -9  -3 -11   25.12    1.44
   9   3  11   23.00    1.53
 -10  -3 -11    0.93    0.50
  10   3  11    0.90    0.61
  11   3  11   47.96    2.54
  12   3  11    7.86    1.18
  13   3  11    7.29    1.23
  14   3  11    3.20    1.04
   9  -4 -11   -0.14    0.48
   8  -4 -11    1.91    0.60
   7  -4 -11    7.06    0.86
   6  -4 -11    0.92    0.43
  -6   4  11    0.91    0.69
   5  -4 -11    8.55    0.76
  -5   4  11    8.20    1.22
   4  -4 -11    9.89    0.76
  -4   4  11   10.39    1.30
   3  -4 -11    7.97    0.64
  -3   4  11    7.67    1.10
   2  -4 -11    0.29    0.23
  -2   4  11    0.45    0.57
   1  -4 -11    0.49    0.24
  -1   4  11    0.06    0.52
   0  -4 -11   72.32    2.87
   0   4  11   71.17    3.45
   0   4  11   78.32    2.82
  -1  -4 -11    4.99    0.49
   1   4  11    4.73    0.42
   1   4  11    4.54    0.91
  -2  -4 -11   12.57    0.75
   2   4  11   12.15    1.42
   2   4  11   12.87    0.70
  -3  -4 -11   66.27    2.71
   3   4  11   71.21    2.67
   3   4  11   72.34    3.52
  -4  -4 -11   17.27    0.97
   4   4  11   17.04    0.91
   4   4  11   18.26    1.56
  -5  -4 -11   65.91    2.75
   5   4  11   66.53    3.22
   5   4  11   69.12    2.68
  -6  -4 -11   22.84    1.30
   6   4  11   23.57    1.65
   6   4  11   23.32    1.24
  -7  -4 -11    7.35    0.73
  -7  -4 -11    5.72    0.74
   7   4  11    6.71    0.72
  -8  -4 -11    2.32    0.51
  -8  -4 -11    1.76    0.56
   8   4  11    1.95    0.53
  -9  -4 -11    1.85    0.46
  -9  -4 -11    0.98    0.47
   9   4  11    1.16    0.53
 -10  -4 -11    1.84    0.60
  10   4  11    2.86    0.72
 -11  -4 -11    8.45    1.01
  11   4  11    9.93    1.19
 -12  -4 -11   -0.09    0.49
  12   4  11    0.89    0.69
  13   4  11    1.98    0.82
  14   4  11   -0.62    0.71
   8  -5 -11    1.14    0.57
   7  -5 -11   -0.10    0.43
  -7   5  11   -0.03    1.04
   6  -5 -11    6.92    0.82
  -6   5  11    6.87    1.19
   5  -5 -11    9.68    0.86
  -5   5  11    9.31    1.29
   4  -5 -11    2.41    0.48
  -4   5  11    3.36    0.87
   3  -5 -11   22.17    1.18
  -3   5  11   22.46    1.73
   2  -5 -11    0.52    0.28
  -2   5  11   -0.17    0.53
   1  -5 -11   37.00    1.62
  -1   5  11   37.28    2.21
   0  -5 -11    3.42    0.44
   0   5  11    3.13    0.77
  -1  -5 -11   75.76    2.98
   1   5  11   78.36    3.63
  -2  -5 -11    2.16    0.39
   2   5  11    1.65    0.69
   2   5  11    2.42    0.29
  -3  -5 -11   44.27    1.84
   3   5  11   41.13    1.69
   3   5  11   40.99    2.41
  -4  -5 -11   41.70    1.84
   4   5  11   42.06    1.71
   4   5  11   39.61    2.36
  -5  -5 -11   53.34    2.34
   5   5  11   58.66    2.87
   5   5  11   51.55    2.18
  -6  -5 -11   17.74    1.13
   6   5  11   17.70    1.03
   6   5  11   20.94    1.48
  -7  -5 -11    6.73    0.80
   7   5  11    9.61    1.13
   7   5  11    7.39    0.74
  -8  -5 -11   10.81    1.04
  -8  -5 -11   10.11    0.81
   8   5  11   10.16    0.89
  -9  -5 -11   17.44    1.07
  -9  -5 -11   15.03    1.18
   9   5  11   14.22    1.13
 -10  -5 -11   15.20    1.26
  10   5  11   17.31    1.28
 -11  -5 -11    2.17    0.63
  11   5  11    2.00    0.68
 -12  -5 -11    4.12    0.83
  12   5  11    4.12    0.89
 -13  -5 -11    5.98    0.94
  13   5  11   10.94    1.33
  14   5  11    7.18    1.15
   7  -6 -11    7.22    0.89
  -7   6  11    6.19    1.53
   6  -6 -11    1.97    0.55
  -6   6  11    1.41    0.82
   5  -6 -11    0.43    0.38
  -5   6  11    0.49    0.74
   4  -6 -11   14.18    0.96
  -4   6  11   12.48    1.49
   3  -6 -11    0.50    0.33
  -3   6  11    0.87    0.62
   2  -6 -11   25.74    1.27
  -2   6  11   23.69    1.79
   1  -6 -11   10.20    0.74
  -1   6  11   11.28    1.31
   0  -6 -11    0.83    0.30
   0   6  11    0.09    0.51
  -1  -6 -11    0.79    0.30
   1   6  11    0.77    0.59
  -2  -6 -11    1.21    0.34
   2   6  11    0.74    0.60
  -3  -6 -11   20.99    1.14
   3   6  11   22.13    0.96
   3   6  11   19.90    1.60
  -4  -6 -11   67.08    2.77
   4   6  11   69.65    2.57
   4   6  11   62.92    3.18
  -5  -6 -11    5.44    0.68
   5   6  11    4.50    0.49
   5   6  11    4.79    0.91
  -6  -6 -11    8.18    0.85
   6   6  11    8.55    1.11
   6   6  11    6.94    0.62
  -7  -6 -11   30.29    1.62
   7   6  11   30.34    1.79
   7   6  11   30.52    1.51
  -8  -6 -11    3.08    0.63
   8   6  11    3.13    0.57
   8   6  11    3.70    0.70
  -9  -6 -11    2.29    0.49
  -9  -6 -11    2.23    0.60
   9   6  11    1.17    0.50
 -10  -6 -11    0.84    0.55
  10   6  11    2.42    0.59
 -11  -6 -11   12.93    1.28
  11   6  11   15.51    1.26
 -12  -6 -11    1.24    0.60
  12   6  11    0.44    0.62
 -13  -6 -11    6.47    1.01
  13   6  11    7.35    1.07
 -14  -6 -11    0.62    0.60
  14   6  11    0.99    0.75
   7  -7 -11    0.46    0.46
   6  -7 -11    7.54    0.91
  -6   7  11    8.08    1.29
   5  -7 -11    0.16    0.38
  -5   7  11   -0.70    0.66
   4  -7 -11    8.83    0.88
  -4   7  11    8.36    1.32
   3  -7 -11    0.71    0.38
  -3   7  11    1.81    0.82
   2  -7 -11   22.84    1.26
  -2   7  11   24.52    1.94
   1  -7 -11    3.43    0.51
  -1   7  11    3.42    0.93
   0  -7 -11    5.03    0.57
   0   7  11    5.37    1.01
  -1  -7 -11    6.53    0.64
   1   7  11    5.35    0.93
  -2  -7 -11   73.07    2.86
   2   7  11   64.99    3.27
  -3  -7 -11    8.34    0.73
   3   7  11    7.58    1.08
  -4  -7 -11    2.57    0.54
   4   7  11    2.98    0.77
   4   7  11    3.77    0.45
  -5  -7 -11    0.59    0.44
   5   7  11    0.74    0.27
   5   7  11    0.08    0.55
  -6  -7 -11   64.03    2.79
   6   7  11   62.47    2.56
   6   7  11   64.51    3.05
  -7  -7 -11   24.12    1.50
   7   7  11   28.33    1.40
   7   7  11   29.06    1.76
  -8  -7 -11   26.21    1.58
   8   7  11   28.13    1.48
   8   7  11   28.53    1.66
  -9  -7 -11    4.95    0.77
   9   7  11    5.47    0.76
 -10  -7 -11    2.82    0.73
  10   7  11    4.00    0.71
 -11  -7 -11    1.02    0.58
  11   7  11    2.28    0.65
 -12  -7 -11    7.48    1.04
  12   7  11    7.39    1.02
 -13  -7 -11   11.27    1.34
  13   7  11   14.86    1.34
 -14  -7 -11    3.65    0.85
  14   7  11    3.89    0.92
   6  -8 -11   -0.27    0.44
  -6   8  11    0.07    0.73
   5  -8 -11    0.33    0.45
  -5   8  11   -0.14    0.82
   4  -8 -11    4.95    0.71
  -4   8  11    4.77    1.21
   3  -8 -11   13.60    1.00
  -3   8  11   13.76    1.75
   2  -8 -11    2.99    0.54
  -2   8  11    1.11    0.89
   1  -8 -11    1.88    0.47
  -1   8  11    1.35    0.79
   0  -8 -11   38.00    1.80
   0   8  11   40.06    2.42
  -1  -8 -11    7.53    0.75
   1   8  11    7.15    1.11
  -2  -8 -11   24.92    1.27
   2   8  11   18.63    1.59
  -3  -8 -11    2.40    0.50
   3   8  11    2.96    0.80
  -4  -8 -11    0.04    0.39
   4   8  11    0.57    0.59
  -5  -8 -11    5.40    0.78
   5   8  11    5.65    0.96
  -6  -8 -11    9.95    1.04
   6   8  11   10.16    0.72
   6   8  11   10.90    1.22
  -7  -8 -11    0.86    0.52
   7   8  11    0.55    0.52
   7   8  11    0.09    0.34
  -8  -8 -11    3.90    0.75
   8   8  11    4.48    0.65
   8   8  11    3.72    0.76
  -9  -8 -11   17.28    1.32
   9   8  11   20.60    1.27
 -10  -8 -11    2.36    0.68
  10   8  11    1.50    0.53
 -11  -8 -11    1.65    0.65
  11   8  11    1.87    0.65
 -12  -8 -11   -0.30    0.49
  12   8  11    0.04    0.54
 -13  -8 -11    0.73    0.64
  13   8  11    2.25    0.72
 -14  -8 -11    0.78    0.65
  14   8  11    0.39    0.65
   5  -9 -11    6.04    0.87
  -5   9  11    6.63    1.35
   4  -9 -11    1.49    0.56
  -4   9  11    1.35    1.06
   3  -9 -11    0.53    0.45
  -3   9  11   -0.08    0.83
   2  -9 -11    0.52    0.40
  -2   9  11    0.09    0.79
   1  -9 -11   24.34    1.35
  -1   9  11   22.07    2.00
   0  -9 -11    2.64    0.52
   0   9  11    2.22    0.88
  -1  -9 -11   11.89    0.91
   1   9  11   10.13    1.39
  -2  -9 -11    0.43    0.36
   2   9  11    0.79    0.64
  -3  -9 -11   19.62    1.20
   3   9  11   17.06    1.49
  -4  -9 -11   24.99    1.43
   4   9  11   21.91    1.68
  -5  -9 -11   22.96    1.51
   5   9  11   22.52    1.69
  -6  -9 -11   46.18    2.31
   6   9  11   44.93    2.45
  -7  -9 -11    1.11    0.58
   7   9  11    0.70    0.37
   7   9  11    0.04    0.50
  -8  -9 -11    0.60    0.53
   8   9  11    1.31    0.58
   8   9  11    1.11    0.44
  -9  -9 -11    5.79    0.88
   9   9  11    5.10    0.71
 -10  -9 -11   20.56    1.46
  10   9  11   20.94    1.37
 -11  -9 -11   20.25    1.59
  11   9  11   22.73    1.47
 -12  -9 -11    0.87    0.60
  12   9  11    0.82    0.61
 -13  -9 -11    7.74    1.13
  13   9  11   10.10    1.16
 -14  -9 -11   -1.05    0.47
  14   9  11   -0.12    0.63
   4 -10 -11   -0.44    0.43
  -4  10  11   -1.10    0.80
   3 -10 -11    5.19    0.79
  -3  10  11    2.81    1.10
   2 -10 -11    6.99    0.87
  -2  10  11    7.22    1.44
   1 -10 -11    0.15    0.44
  -1  10  11    0.33    0.83
   0 -10 -11    1.33    0.52
   0  10  11    1.90    0.88
  -1 -10 -11   -0.30    0.38
   1  10  11   -0.09    0.69
  -2 -10 -11    2.08    0.54
   2  10  11    1.78    0.85
  -3 -10 -11    9.15    0.97
   3  10  11    6.67    1.12
  -4 -10 -11    4.49    0.73
   4  10  11    4.35    0.93
  -5 -10 -11    2.37    0.68
   5  10  11    1.33    0.62
  -6 -10 -11    1.19    0.65
   6  10  11    0.26    0.57
  -7 -10 -11    1.71    0.63
   7  10  11    0.55    0.54
  -8 -10 -11   24.16    1.60
   8  10  11   23.47    1.65
  -9 -10 -11    3.60    0.79
   9  10  11    4.64    0.68
 -10 -10 -11    0.75    0.61
  10  10  11   -0.65    0.42
 -11 -10 -11    6.50    1.02
  11  10  11    7.87    0.98
 -12 -10 -11    0.64    0.60
  12  10  11    0.94    0.57
 -13 -10 -11    0.75    0.61
  13  10  11   -0.12    0.56
 -14 -10 -11    0.30    0.59
  14  10  11    1.20    0.71
   3 -11 -11    7.63    0.97
  -3  11  11    6.31    1.50
   2 -11 -11    5.42    0.84
  -2  11  11    3.86    1.23
   1 -11 -11    9.29    1.03
  -1  11  11    5.82    1.36
   0 -11 -11    1.25    0.54
   0  11  11    0.05    0.82
  -1 -11 -11    4.41    0.77
   1  11  11    3.37    1.08
  -2 -11 -11    1.13    0.55
   2  11  11    2.40    0.96
  -3 -11 -11   38.57    1.97
   3  11  11   33.20    2.31
  -4 -11 -11    1.94    0.66
   4  11  11    0.91    0.67
  -5 -11 -11    2.08    0.74
   5  11  11    2.63    0.80
  -6 -11 -11    6.26    1.03
   6  11  11    5.73    1.02
  -7 -11 -11   16.35    1.40
   7  11  11   15.04    1.43
  -8 -11 -11   47.88    2.57
  -9 -11 -11    0.73    0.65
 -10 -11 -11   15.07    1.37
 -11 -11 -11    0.06    0.62
  11  11  11    1.43    0.66
 -12 -11 -11    6.15    1.06
  12  11  11    6.88    0.96
 -13 -11 -11    1.11    0.67
  13  11  11    0.73    0.62
   2 -12 -11   -0.26    0.56
   1 -12 -11    0.02    0.51
  -1  12  11   -0.22    0.95
   0 -12 -11    1.11    0.58
   0  12  11    1.10    1.00
  -1 -12 -11    3.08    0.72
   1  12  11    2.34    1.06
  -2 -12 -11    1.10    0.58
   2  12  11    1.22    0.90
  -3 -12 -11    0.05    0.53
   3  12  11    0.17    0.78
  -4 -12 -11    3.92    0.83
   4  12  11    2.76    0.89
  -5 -12 -11    1.09    0.70
   5  12  11   -0.24    0.63
  -6 -12 -11   -0.17    0.66
   6  12  11    1.59    0.76
  -7 -12 -11    6.64    1.06
   7  12  11    5.73    1.02
  -8 -12 -11    2.41    0.80
  -9 -12 -11    2.04    0.82
 -10 -12 -11    1.52    0.79
 -11 -12 -11    5.54    0.99
 -12 -12 -11    0.39    0.68
 -13 -12 -11    3.15    0.85
   0 -13 -11   17.01    1.45
   0  13  11   17.28    2.11
  -1 -13 -11    8.16    1.12
   1  13  11    8.48    1.58
  -2 -13 -11    1.31    0.71
   2  13  11    1.17    0.95
  -3 -13 -11    0.96    0.69
   3  13  11    1.01    0.88
  -4 -13 -11    0.33    0.65
   4  13  11   -0.10    0.71
  -5 -13 -11    3.85    0.93
   5  13  11    2.85    0.94
  -6 -13 -11   -0.16    0.73
   6  13  11   -0.05    0.61
  -7 -13 -11    4.74    1.00
   7  13  11    4.91    0.98
  -8 -13 -11    8.25    1.18
  -9 -13 -11    3.26    0.94
 -10 -13 -11   13.88    1.53
 -11 -13 -11    8.14    1.15
 -12 -13 -11    5.17    1.05
  -2 -14 -11    2.20    0.82
   2  14  11    2.12    1.05
  -3 -14 -11    5.01    0.98
   3  14  11    4.31    1.22
  -4 -14 -11    1.78    0.78
   4  14  11    0.64    0.78
  -5 -14 -11    1.01    0.84
   5  14  11    0.21    0.70
  -6 -14 -11    0.91    0.82
   6  14  11    0.28    0.70
  -7 -14 -11    1.79    0.90
  -8 -14 -11   -0.18    0.72
  -9 -14 -11    2.36    0.88
 -10 -14 -11    3.34    1.01
 -11 -14 -11    9.32    1.38
  -5 -15 -11    9.21    1.41
  -6 -15 -11    0.24    0.84
   6  15  11    0.12    0.72
  -7 -15 -11    0.45    0.79
  -8 -15 -11    3.23    1.01
   6  12 -12    1.97    0.87
  -5 -12  12    0.62    0.78
  -4 -12  12    2.27    0.87
   3  12 -12    9.98    1.39
  -3 -12  12    8.34    1.21
   2  12 -12   12.09    1.53
  -2 -12  12   10.20    1.30
   1  12 -12    1.87    0.89
  -1 -12  12    0.15    0.65
   0  12 -12    6.21    1.28
   0 -12  12    4.55    0.94
   8  11 -12    0.69    0.65
   7  11 -12    0.04    0.61
  -6 -11  12    1.30    0.81
  -5 -11  12   21.53    1.84
  -4 -11  12   -0.64    0.62
   3  11 -12    1.01    0.70
  -3 -11  12    1.05    0.73
   2  11 -12    7.48    1.19
  -2 -11  12    8.88    1.20
   1  11 -12    0.13    0.67
  -1 -11  12    0.62    0.63
   0  11 -12   -0.24    0.70
   0 -11  12   -0.22    0.56
  -1  11 -12    1.51    0.91
   1 -11  12    1.21    0.69
  -2  11 -12    0.82    0.94
   2 -11  12    1.08    0.64
   9  10 -12    4.41    0.94
   8  10 -12   -0.03    0.60
   7  10 -12   12.08    1.39
  -6 -10  12    6.27    1.17
  -5 -10  12   29.36    2.03
  -4 -10  12    2.14    0.81
   3  10 -12    8.13    1.10
  -3 -10  12    9.34    1.23
   2  10 -12    0.82    0.63
  -2 -10  12    0.22    0.59
   1  10 -12   -0.36    0.57
  -1 -10  12    1.03    0.62
   0  10 -12    3.78    0.98
   0 -10  12    1.83    0.70
  -1  10 -12   10.18    1.41
   1 -10  12    9.38    1.13
  -2  10 -12   12.27    1.66
   2 -10  12   12.13    1.31
  -3  10 -12    5.05    1.23
   3 -10  12    5.37    0.98
  -4  10 -12    5.37    1.32
   4 -10  12    5.57    0.99
   9   9 -12    4.17    0.91
   8   9 -12   10.49    1.26
   7   9 -12    2.65    0.78
  -6  -9  12   -0.20    0.67
  -5  -9  12    6.47    1.12
   4   9 -12    0.49    0.46
  -4  -9  12    0.54    0.62
   3   9 -12    0.55    0.52
  -3  -9  12    1.46    0.68
   2   9 -12    3.84    0.80
  -2  -9  12    3.26    0.80
   1   9 -12   13.05    1.40
  -1  -9  12   11.72    1.27
   0   9 -12    1.22    0.69
   0  -9  12    0.26    0.48
  -1   9 -12    9.33    1.28
   1  -9  12    9.15    1.10
  -2   9 -12    1.92    0.85
   2  -9  12    1.90    0.66
  -3   9 -12    0.62    0.77
   3  -9  12   -0.31    0.50
  -4   9 -12    1.08    0.93
   4  -9  12    2.86    0.77
  -5   9 -12    3.49    1.23
   5  -9  12    1.88    0.71
  10   8 -12    2.06    0.73
 -10  -8  12    0.66    0.51
   9   8 -12    0.06    0.56
  -9  -8  12   -0.13    0.45
   8   8 -12    0.55    0.56
   7   8 -12    3.92    0.85
  -6  -8  12    4.38    0.96
  -5  -8  12   27.66    1.93
   4   8 -12    2.46    0.56
  -4  -8  12    0.74    0.62
   3   8 -12   43.64    2.16
  -3  -8  12   43.00    2.37
   2   8 -12   10.61    0.99
  -2  -8  12    9.07    1.10
   1   8 -12   14.24    1.23
  -1  -8  12   15.44    1.24
   0   8 -12    1.74    0.65
   0  -8  12    0.67    0.55
  -1   8 -12    3.15    0.82
   1  -8  12    2.93    0.69
  -2   8 -12   16.27    1.54
   2  -8  12   15.03    1.29
  -3   8 -12    1.45    0.79
   3  -8  12    2.82    0.71
  -4   8 -12    6.43    1.20
   4  -8  12    5.60    0.89
  -5   8 -12    2.98    1.06
   5  -8  12    2.02    0.72
  -6   8 -12   28.93    2.43
   6  -8  12   26.74    1.81
  -7   8 -12    0.70    1.08
   7  -8  12    2.12    0.73
  10   7 -12    0.19    0.57
 -10  -7  12    0.01    0.45
   9   7 -12    1.66    0.68
  -9  -7  12    2.11    0.57
   8   7 -12    0.49    0.57
  -8  -7  12    0.57    0.43
   7   7 -12   -0.19    0.46
  -7  -7  12    0.35    0.33
  -6  -7  12    5.22    0.98
  -6  -7  12    4.69    0.97
  -5  -7  12    3.69    0.87
   4   7 -12    4.90    0.67
  -4  -7  12    1.14    0.67
   3   7 -12    5.12    0.73
  -3  -7  12    5.18    0.91
   2   7 -12   20.26    1.31
  -2  -7  12   18.27    1.39
   1   7 -12    4.47    0.74
  -1  -7  12    2.80    0.64
   0   7 -12   -0.13    0.44
   0  -7  12    0.16    0.48
  -1   7 -12   11.29    1.23
   1  -7  12   12.25    1.06
  -2   7 -12    1.72    0.65
   2  -7  12    0.85    0.51
  -3   7 -12    1.27    0.67
   3  -7  12    2.62    0.65
  -4   7 -12    0.38    0.71
   4  -7  12    0.74    0.54
  -5   7 -12    0.60    0.83
   5  -7  12    0.39    0.55
  -6   7 -12    2.44    1.06
   6  -7  12    2.95    0.73
  -7   7 -12    1.26    1.04
   7  -7  12    2.79    0.75
  -8   7 -12    0.22    1.00
   8  -7  12    0.52    0.61
  10   6 -12   24.01    1.79
   9   6 -12    3.80    0.86
  -9  -6  12    3.72    0.69
   8   6 -12   28.39    1.88
  -8  -6  12   27.99    1.56
   7   6 -12    6.02    0.93
  -7  -6  12    4.04    0.64
  -6  -6  12   11.67    0.90
  -6  -6  12   13.92    1.53
  -5  -6  12    0.83    0.65
  -5  -6  12    0.19    0.29
   4   6 -12    0.36    0.31
  -4  -6  12   -0.46    0.47
   3   6 -12    2.03    0.46
  -3  -6  12    1.12    0.58
   2   6 -12   25.92    1.48
  -2  -6  12   28.97    1.67
   1   6 -12   99.13    4.00
  -1  -6  12   94.42    4.01
   0   6 -12   19.42    1.38
   0  -6  12   24.10    1.45
  -1   6 -12   10.06    1.04
   1  -6  12   10.59    1.07
  -2   6 -12    3.16    0.74
   2  -6  12    3.95    0.66
  -3   6 -12    3.01    0.76
   3  -6  12    1.69    0.55
  -4   6 -12    8.73    1.17
   4  -6  12    9.91    1.04
  -5   6 -12    2.32    0.81
   5  -6  12    2.93    0.69
  -6   6 -12    8.97    1.36
   6  -6  12    9.09    1.13
  -7   6 -12    0.28    0.87
   7  -6  12   -0.03    0.51
  -8   6 -12    4.66    1.30
   8  -6  12    3.27    0.80
  -9   6 -12    7.64    1.63
   9  -6  12    8.00    1.13
 -11  -5  12    2.78    0.69
  10   5 -12    1.21    0.67
 -10  -5  12    1.01    0.48
   9   5 -12    5.21    0.99
  -9  -5  12    4.83    0.74
   8   5 -12    1.73    0.66
  -8  -5  12    1.80    0.53
   7   5 -12    1.55    0.59
  -7  -5  12    1.72    0.47
   6   5 -12    4.09    0.79
  -6  -5  12    5.10    0.62
   5   5 -12    0.34    0.27
  -5  -5  12    0.11    0.28
  -5  -5  12    0.52    0.58
   4   5 -12   13.10    0.89
  -4  -5  12   12.51    0.78
  -4  -5  12   12.79    1.20
   3   5 -12    8.35    0.73
  -3  -5  12    8.94    1.03
  -3  -5  12    8.13    0.59
   2   5 -12    0.77    0.38
  -2  -5  12    1.24    0.53
   1   5 -12   11.82    0.92
  -1  -5  12   12.14    1.03
   0   5 -12    0.25    0.36
   0  -5  12    0.25    0.39
  -1   5 -12    0.50    0.42
   1  -5  12    0.67    0.41
  -2   5 -12    1.74    0.55
   2  -5  12    2.03    0.52
  -3   5 -12   19.09    1.38
   3  -5  12   16.26    1.17
  -4   5 -12   15.43    1.34
   4  -5  12   15.88    1.18
  -5   5 -12    3.42    0.82
   5  -5  12    3.25    0.70
  -6   5 -12    4.28    0.99
   6  -5  12    4.88    0.83
  -7   5 -12    3.52    1.02
   7  -5  12    2.52    0.70
  -8   5 -12    5.38    1.26
   8  -5  12    3.63    0.84
  -9   5 -12    1.88    1.13
   9  -5  12    0.28    0.60
  10  -5  12    0.76    0.68
  11   4 -12    4.15    0.94
 -11  -4  12    2.37    0.65
  10   4 -12    1.01    0.66
 -10  -4  12   -0.11    0.46
   9   4 -12   11.19    1.32
  -9  -4  12   12.54    1.06
   8   4 -12   14.13    1.27
  -8  -4  12   15.45    1.09
   7   4 -12   15.89    1.31
  -7  -4  12   13.32    1.01
   6   4 -12    5.67    0.86
  -6  -4  12    6.20    0.69
   5   4 -12   10.70    0.77
  -5  -4  12   11.50    1.21
  -5  -4  12   10.31    0.76
   4   4 -12   15.24    0.95
  -4  -4  12   12.43    1.18
  -4  -4  12   16.16    0.88
   3   4 -12   11.56    0.83
  -3  -4  12   12.19    0.70
  -3  -4  12   12.64    1.10
   2   4 -12    0.31    0.34
  -2  -4  12    0.32    0.44
  -2  -4  12    0.50    0.20
   1   4 -12    6.73    0.79
  -1  -4  12    5.34    0.71
   0   4 -12    1.75    0.48
   0  -4  12    1.68    0.47
  -1   4 -12   48.61    2.32
   1  -4  12   51.04    2.27
  -2   4 -12   76.12    3.23
   2  -4  12   71.45    3.07
  -3   4 -12  111.07    4.57
   3  -4  12  112.23    4.43
  -4   4 -12    6.01    0.90
   4  -4  12    4.28    0.67
  -5   4 -12    0.53    0.54
   5  -4  12   -0.19    0.41
  -6   4 -12    0.11    0.55
   6  -4  12   -0.40    0.44
  -7   4 -12   15.74    1.59
   7  -4  12   16.19    1.33
  -8   4 -12   -0.40    0.71
   8  -4  12    0.91    0.62
  -9   4 -12    5.65    1.28
   9  -4  12    3.09    0.83
 -10   4 -12   -0.41    0.90
  10  -4  12   -0.09    0.60
 -11  -3  12    3.06    0.72
  10   3 -12    5.00    0.99
 -10  -3  12    5.62    0.85
   9   3 -12    1.42    0.63
  -9  -3  12    1.02    0.49
   8   3 -12   23.74    1.67
  -8  -3  12   22.19    1.37
   7   3 -12    3.91    0.77
  -7  -3  12    4.01    0.61
   6   3 -12    5.93    0.85
  -6  -3  12    5.58    0.65
   5   3 -12   33.01    1.56
  -5  -3  12   33.63    1.56
  -5  -3  12   33.73    1.94
   4   3 -12    0.20    0.27
  -4  -3  12    0.54    0.26
  -4  -3  12   -0.14    0.42
   3   3 -12    0.53    0.28
  -3  -3  12    0.39    0.23
  -3  -3  12    1.33    0.51
   2   3 -12    0.57    0.32
  -2  -3  12    0.19    0.17
  -2  -3  12    0.78    0.44
   1   3 -12   -0.14    0.26
  -1  -3  12    0.13    0.37
  -1  -3  12    0.35    0.15
   0   3 -12    6.65    0.78
   0  -3  12    7.41    0.79
  -1   3 -12   36.77    1.88
   1  -3  12   36.40    1.77
  -2   3 -12    1.10    0.44
   2  -3  12    0.76    0.36
  -3   3 -12    0.23    0.37
   3  -3  12   -0.01    0.31
  -4   3 -12    0.66    0.44
   4  -3  12    0.76    0.41
  -5   3 -12    1.13    0.55
   5  -3  12    0.81    0.45
  -6   3 -12    0.99    0.64
   6  -3  12    2.45    0.60
  -7   3 -12   13.96    1.43
   7  -3  12   13.65    1.20
  -8   3 -12    0.39    0.69
   8  -3  12    0.21    0.52
  -9   3 -12    0.09    0.75
   9  -3  12    1.02    0.65
 -10   3 -12    3.85    1.10
  10  -3  12    4.62    0.99
  11  -3  12   -0.26    0.67
  10   2 -12    2.06    1.20
 -10  -2  12    0.36    0.47
   9   2 -12    1.08    0.60
  -9  -2  12    0.44    0.45
   8   2 -12    1.47    0.64
  -8  -2  12    0.78    0.44
   7   2 -12    2.98    0.70
  -7  -2  12    3.18    0.56
   6   2 -12   17.27    1.28
  -6  -2  12   17.69    1.10
   5   2 -12   43.35    1.95
   5   2 -12   44.00    2.20
  -5  -2  12   44.53    1.95
   4   2 -12   48.63    2.10
  -4  -2  12   48.58    2.34
  -4  -2  12   44.93    1.97
   3   2 -12    9.38    0.77
  -3  -2  12   10.40    1.01
  -3  -2  12    9.37    0.64
   2   2 -12    1.48    0.40
  -2  -2  12    0.83    0.46
  -2  -2  12    1.26    0.26
   1   2 -12   46.84    2.12
  -1  -2  12   46.28    2.07
  -1  -2  12   42.29    1.72
   0   2 -12   31.34    1.69
   0   2 -12   32.81    1.26
   0  -2  12   35.68    1.68
  -1   2 -12    3.10    0.54
   1  -2  12    3.10    0.51
  -2   2 -12    4.64    0.70
   2  -2  12    4.00    0.57
  -3   2 -12    0.45    0.40
   3  -2  12    0.10    0.29
  -4   2 -12   84.11    3.55
   4  -2  12   80.01    3.35
  -5   2 -12   14.13    1.16
   5  -2  12   12.03    0.99
  -6   2 -12   96.74    4.17
   6  -2  12   99.34    4.04
  -7   2 -12    2.93    0.76
   7  -2  12    3.25    0.72
  -8   2 -12   20.33    1.62
   8  -2  12   21.06    1.57
  -9   2 -12    1.81    0.82
   9  -2  12    2.31    0.78
 -10   2 -12    5.41    1.11
  10  -2  12    5.10    1.03
  11  -2  12    1.42    0.80
  12  -2  12    0.19    0.81
 -10  -1  12    3.49    0.74
  -9  -1  12   -0.22    0.41
   8   1 -12    3.64    0.82
  -8  -1  12    3.51    0.66
   7   1 -12    1.16    0.52
  -7  -1  12    0.35    0.40
   6   1 -12   11.09    1.05
  -6  -1  12   10.96    1.01
  -6  -1  12   10.72    0.87
   5   1 -12   10.81    0.98
  -5  -1  12   11.84    0.83
  -5  -1  12   11.98    0.99
  -4  -1  12    1.09    0.56
  -4  -1  12    1.06    0.48
  -4  -1  12    1.25    0.33
  -3  -1  12    0.74    0.48
  -3  -1  12    0.53    0.44
  -3  -1  12   -0.01    0.22
  -2  -1  12    0.20    0.38
  -2  -1  12   -0.22    0.45
  -2  -1  12    0.51    0.22
   1   1 -12    1.74    0.24
   1   1 -12    1.77    0.47
  -1  -1  12    1.90    0.43
   0   1 -12   84.62    3.48
   0   1 -12   84.47    3.01
   0  -1  12   79.11    3.30
  -1   1 -12    0.22    0.11
  -1   1 -12    0.35    0.38
   1  -1  12   -0.14    0.28
  -2   1 -12    0.11    0.32
   2  -1  12   -0.01    0.26
  -3   1 -12   53.22    2.52
   3  -1  12   58.70    2.41
  -4   1 -12    0.69    0.40
   4  -1  12    0.76    0.36
  -5   1 -12    7.10    0.88
   5  -1  12    5.90    0.72
  -6   1 -12    8.03    0.96
   6  -1  12    9.78    0.91
  -7   1 -12    0.75    0.56
   7  -1  12    0.24    0.47
  -8   1 -12    0.91    0.62
   8  -1  12   -0.07    0.50
  -9   1 -12    8.78    1.15
   9  -1  12    6.43    1.01
 -10   1 -12    4.66    1.00
  10  -1  12    5.25    0.97
  11  -1  12    0.22    0.71
  12  -1  12    2.57    0.95
 -10   0  12    3.74    0.79
  -9   0  12   -0.22    0.43
  -8   0  12   23.10    1.46
   7   0 -12    0.91    0.55
  -7   0  12    0.59    0.42
   6   0 -12   12.02    1.08
  -6   0  12   10.86    0.90
  -6   0  12   12.78    1.08
   5   0 -12   21.76    1.42
  -5   0  12   22.20    1.23
  -5   0  12   24.05    1.48
   4   0 -12   17.38    1.17
  -4   0  12   18.39    1.31
  -4   0  12   16.29    0.97
  -3   0  12   36.51    1.85
  -3   0  12   35.50    1.58
  -3   0  12   35.36    1.98
  -2   0  12   61.41    2.83
  -2   0  12   58.52    2.53
  -2   0  12   56.63    2.31
   1   0 -12   44.22    1.77
  -1   0  12   43.27    2.36
  -1   0  12   47.45    2.01
   0   0 -12    2.71    0.29
   0   0  12    2.64    0.71
   0   0  12    2.62    0.46
  -1   0 -12   53.77    1.95
   1   0  12   49.65    2.68
   1   0  12   50.17    2.19
  -2   0 -12    1.10    0.21
  -2   0 -12    0.90    0.38
   2   0  12    0.77    0.33
  -3   0 -12   58.71    2.21
  -3   0 -12   58.27    2.68
   3   0  12   59.21    2.44
  -4   0 -12    4.84    0.73
   4   0  12    4.68    0.61
  -5   0 -12    3.54    0.64
   5   0  12    3.30    0.56
  -6   0 -12    6.39    0.83
   6   0  12    5.40    0.72
  -7   0 -12   13.76    1.16
   7   0  12   13.53    1.10
  -8   0 -12   70.69    3.18
   8   0  12   66.63    3.10
  -9   0 -12    3.88    0.82
   9   0  12    2.76    0.76
 -10   0 -12   17.74    1.47
  10   0  12   14.57    1.46
  11   0  12    2.47    0.89
  12   0  12    6.54    1.19
  13   0  12    0.20    0.74
 -10   1  12   -0.02    0.51
  -9   1  12    0.14    0.49
  -8   1  12    0.42    0.46
  -7   1  12   11.34    1.09
   6  -1 -12    3.61    1.03
  -6   1  12    3.22    0.73
  -6   1  12    1.29    0.48
   5  -1 -12    1.24    0.49
  -5   1  12    0.90    0.38
  -5   1  12    2.14    0.65
   4  -1 -12   12.80    1.01
  -4   1  12   12.60    0.88
  -4   1  12   15.78    1.29
  -3   1  12    1.33    0.50
  -3   1  12    1.42    0.58
  -3   1  12    0.98    0.32
   2  -1 -12    2.24    0.33
  -2   1  12    2.03    0.72
  -2   1  12    2.08    0.50
   1  -1 -12    7.61    0.51
  -1   1  12    9.05    1.14
  -1   1  12    8.14    0.69
   0  -1 -12    0.26    0.16
   0   1  12    0.54    0.60
   0   1  12    0.24    0.28
  -1  -1 -12    1.54    0.24
   1   1  12    0.79    0.65
   1   1  12    0.03    0.26
  -2  -1 -12    2.60    0.30
   2   1  12    1.60    0.72
   2   1  12    2.21    0.39
  -3  -1 -12   57.60    2.63
  -3  -1 -12   51.64    2.13
   3   1  12   56.58    2.29
  -4  -1 -12   25.22    1.18
  -4  -1 -12   27.23    1.51
   4   1  12   24.26    1.26
  -5  -1 -12    6.35    0.82
  -5  -1 -12    6.97    0.57
   5   1  12    6.40    0.68
  -6  -1 -12  125.29    4.95
  -6  -1 -12  124.91    4.57
   6   1  12  118.06    4.76
  -7  -1 -12    0.58    0.43
   7   1  12    0.14    0.41
  -8  -1 -12    6.42    0.88
   8   1  12    8.57    1.02
  -9  -1 -12   23.23    1.50
   9   1  12   20.10    1.51
 -10  -1 -12    5.38    0.87
  10   1  12    6.41    1.04
  11   1  12    1.68    0.79
  12   1  12    0.09    0.69
  13   1  12   -0.22    0.72
   9  -2 -12    9.61    1.10
  -8   2  12    1.26    0.54
  -7   2  12    3.46    0.68
  -6   2  12    6.43    0.79
  -6   2  12    7.35    1.06
  -5   2  12   10.09    0.87
  -5   2  12   12.64    1.26
   4  -2 -12   23.68    1.47
   4  -2 -12   27.09    1.31
  -4   2  12   28.12    1.81
   3  -2 -12    4.47    0.63
   3  -2 -12    5.08    0.55
  -3   2  12    5.11    0.92
   2  -2 -12    5.34    0.47
  -2   2  12    6.58    0.72
  -2   2  12    5.89    0.99
   1  -2 -12    1.02    0.26
  -1   2  12    0.90    0.62
  -1   2  12    1.74    0.42
   0  -2 -12   17.60    0.87
   0   2  12   18.82    0.99
   0   2  12   19.42    1.65
  -1  -2 -12  137.94    5.04
   1   2  12  139.44    5.14
   1   2  12  140.03    5.95
  -2  -2 -12    3.66    0.38
   2   2  12    3.02    0.89
   2   2  12    3.15    0.44
  -3  -2 -12   47.61    1.95
   3   2  12   50.84    2.73
   3   2  12   49.70    2.05
  -4  -2 -12    4.26    0.50
   4   2  12    4.08    0.50
   4   2  12    2.95    0.82
  -5  -2 -12   86.85    3.37
  -5  -2 -12   85.20    3.68
   5   2  12   87.07    3.41
  -6  -2 -12    5.17    0.62
  -6  -2 -12    4.72    0.73
   6   2  12    4.74    0.65
  -7  -2 -12    8.80    0.75
  -7  -2 -12    8.63    0.96
   7   2  12    7.21    0.85
  -8  -2 -12    5.89    0.70
  -8  -2 -12    5.40    0.78
   8   2  12    5.23    0.78
  -9  -2 -12   36.20    1.90
   9   2  12   35.71    1.97
  10   2  12    4.11    0.84
  11   2  12    8.35    1.13
  12   2  12    1.63    0.80
  13   2  12    7.88    1.31
   9  -3 -12    0.67    0.55
   8  -3 -12    4.57    0.80
   7  -3 -12    0.47    0.44
   6  -3 -12    0.28    0.37
  -6   3  12    0.00    0.62
   5  -3 -12   21.33    1.25
  -5   3  12   23.29    1.71
   4  -3 -12    1.89    0.43
  -4   3  12    1.59    0.68
   3  -3 -12   28.04    1.34
  -3   3  12   25.64    1.82
   2  -3 -12    3.78    0.54
   2  -3 -12    4.43    0.48
  -2   3  12    5.12    0.93
   1  -3 -12   34.20    1.49
  -1   3  12   31.39    2.05
  -1   3  12   35.44    1.57
   0  -3 -12    7.13    0.50
   0   3  12    8.32    1.17
   0   3  12    6.82    0.61
  -1  -3 -12    2.32    0.34
   1   3  12    3.27    0.42
   1   3  12    1.71    0.75
  -2  -3 -12   28.86    1.29
   2   3  12   28.81    1.32
   2   3  12   30.20    2.14
  -3  -3 -12   53.22    2.13
   3   3  12   52.09    2.15
   3   3  12   54.43    2.98
  -4  -3 -12    6.85    0.62
   4   3  12    8.05    1.17
   4   3  12    6.52    0.59
  -5  -3 -12    6.96    0.69
   5   3  12    7.11    0.65
   5   3  12    8.45    1.21
  -6  -3 -12   41.26    1.89
  -6  -3 -12   39.07    2.04
   6   3  12   41.98    1.88
  -7  -3 -12    9.89    0.95
  -7  -3 -12   10.46    0.94
   7   3  12    9.84    0.88
  -8  -3 -12    3.53    0.64
  -8  -3 -12    1.62    0.51
   8   3  12    2.56    0.57
  -9  -3 -12    0.40    0.45
  -9  -3 -12    0.44    0.41
   9   3  12    0.44    0.47
 -10  -3 -12   23.17    2.09
  10   3  12   28.88    1.76
  11   3  12    0.61    0.66
  12   3  12   -0.06    0.69
  13   3  12    1.08    0.85
  14   3  12    0.40    0.82
   8  -4 -12   -1.01    0.42
   7  -4 -12    2.66    0.63
   6  -4 -12    4.50    0.71
  -6   4  12    5.25    1.05
   5  -4 -12    0.88    0.39
  -5   4  12    0.95    0.66
   4  -4 -12    1.32    0.39
  -4   4  12    1.27    0.71
   3  -4 -12    6.23    0.65
  -3   4  12    5.48    1.04
   2  -4 -12   49.73    2.02
  -2   4  12   43.97    2.53
   1  -4 -12    4.87    0.51
  -1   4  12    5.61    1.00
   0  -4 -12   15.83    0.88
   0   4  12   16.27    0.87
   0   4  12   17.95    1.51
  -1  -4 -12   21.96    1.09
   1   4  12   23.07    1.04
   1   4  12   20.19    1.67
  -2  -4 -12   58.55    2.42
   2   4  12   58.88    3.20
   2   4  12   64.07    2.39
  -3  -4 -12    1.77    0.36
   3   4  12    1.95    0.36
   3   4  12    1.96    0.83
  -4  -4 -12    7.94    0.66
   4   4  12    8.81    0.63
   4   4  12    9.94    1.37
  -5  -4 -12    6.15    0.67
   5   4  12    7.76    1.14
   5   4  12    6.44    0.61
  -6  -4 -12   65.57    2.79
   6   4  12   70.71    2.78
   6   4  12   64.34    3.23
  -7  -4 -12    2.44    0.53
  -7  -4 -12    2.34    0.53
   7   4  12    2.30    0.50
  -8  -4 -12   52.45    2.51
  -8  -4 -12   60.10    2.56
   8   4  12   54.57    2.52
  -9  -4 -12    1.58    0.47
  -9  -4 -12    0.69    0.46
   9   4  12    1.30    0.53
 -10  -4 -12    5.62    0.81
  10   4  12    5.28    0.85
 -11  -4 -12    0.09    0.47
  11   4  12    0.60    0.59
  12   4  12   28.97    1.92
  13   4  12   10.37    1.39
  14   4  12    1.00    0.83
   8  -5 -12    0.12    0.49
   7  -5 -12    2.38    0.62
   6  -5 -12    0.79    0.47
  -6   5  12    0.15    0.68
   5  -5 -12    1.32    0.45
  -5   5  12    0.34    0.70
   4  -5 -12    8.99    0.79
  -4   5  12   10.39    1.37
   3  -5 -12    0.48    0.30
  -3   5  12    0.09    0.63
   2  -5 -12    8.84    0.71
  -2   5  12    9.98    1.33
   1  -5 -12   57.84    2.33
  -1   5  12   54.55    2.93
   0  -5 -12    1.31    0.32
   0   5  12    1.17    0.66
  -1  -5 -12    6.94    0.58
   1   5  12    5.50    1.01
  -2  -5 -12    1.78    0.38
   2   5  12    2.09    0.30
   2   5  12    2.07    0.80
  -3  -5 -12   52.89    2.30
   3   5  12   54.78    2.97
   3   5  12   59.69    2.22
  -4  -5 -12    2.87    0.48
   4   5  12    3.70    0.44
   4   5  12    1.72    0.72
  -5  -5 -12   15.35    1.03
   5   5  12   15.36    0.87
   5   5  12   15.16    1.49
  -6  -5 -12   17.30    1.12
   6   5  12   18.20    1.49
   6   5  12   18.51    1.04
  -7  -5 -12   16.36    1.11
   7   5  12   15.53    1.05
   7   5  12   19.42    1.48
  -8  -5 -12   22.08    1.36
  -8  -5 -12   23.47    1.32
   8   5  12   21.26    1.32
  -9  -5 -12    6.11    0.84
  -9  -5 -12    7.90    0.79
   9   5  12    6.10    0.82
 -10  -5 -12    5.84    0.87
  10   5  12    9.78    1.05
 -11  -5 -12    5.84    0.90
  11   5  12    7.52    1.01
 -12  -5 -12    0.19    0.50
  12   5  12    0.59    0.65
  13   5  12    2.70    0.86
  14   5  12    0.81    0.76
   7  -6 -12    0.99    0.54
   6  -6 -12    7.19    0.88
  -6   6  12    5.17    1.12
   5  -6 -12    1.82    0.53
  -5   6  12    0.80    0.83
   4  -6 -12    3.78    0.61
  -4   6  12    3.53    0.98
   3  -6 -12    3.04    0.52
  -3   6  12    1.84    0.81
   2  -6 -12    8.91    0.73
  -2   6  12    7.54    1.20
   1  -6 -12   13.01    0.83
  -1   6  12   11.47    1.40
   0  -6 -12   15.90    0.95
   0   6  12   16.50    1.48
  -1  -6 -12   20.05    1.10
   1   6  12   22.43    1.69
  -2  -6 -12    2.49    0.45
   2   6  12    1.68    0.73
  -3  -6 -12   51.67    2.26
   3   6  12   57.18    2.33
   3   6  12   48.69    2.76
  -4  -6 -12    0.52    0.36
   4   6  12    0.93    0.63
   4   6  12    0.27    0.25
  -5  -6 -12   96.07    3.79
   5   6  12   93.88    3.56
   5   6  12   91.57    4.19
  -6  -6 -12    6.29    0.76
   6   6  12    8.47    1.15
   6   6  12    7.34    0.65
  -7  -6 -12    0.64    0.45
   7   6  12    1.04    0.56
   7   6  12    0.99    0.38
  -8  -6 -12    1.08    0.49
   8   6  12    0.73    0.42
   8   6  12    0.42    0.50
  -9  -6 -12   11.39    1.16
  -9  -6 -12   13.39    0.93
   9   6  12   12.45    1.06
 -10  -6 -12   61.08    2.91
  10   6  12   65.33    2.92
 -11  -6 -12    2.80    0.70
  11   6  12    3.61    0.78
 -12  -6 -12    7.06    0.98
  12   6  12    8.16    1.09
 -13  -6 -12    0.29    0.59
  13   6  12   -0.23    0.64
  14   6  12    5.40    1.03
   6  -7 -12   -0.10    0.44
  -6   7  12   -0.02    0.76
   5  -7 -12   -0.10    0.41
  -5   7  12    0.44    0.75
   4  -7 -12    0.63    0.37
  -4   7  12    0.01    0.73
   3  -7 -12    0.03    0.34
  -3   7  12   -0.34    0.65
   2  -7 -12    3.09    0.51
  -2   7  12    2.63    0.91
   1  -7 -12    0.71    0.35
  -1   7  12    0.86    0.68
   0  -7 -12    8.65    0.71
   0   7  12    8.39    1.22
  -1  -7 -12   17.31    1.02
   1   7  12   17.11    1.47
  -2  -7 -12   10.96    0.82
   2   7  12   10.86    1.34
  -3  -7 -12   22.64    1.25
   3   7  12   22.26    1.68
  -4  -7 -12   12.70    0.97
   4   7  12   15.06    1.37
  -5  -7 -12    1.74    0.54
   5   7  12    1.49    0.68
   5   7  12    1.31    0.31
  -6  -7 -12    3.36    0.63
   6   7  12    2.99    0.73
   6   7  12    1.90    0.41
  -7  -7 -12    0.02    0.42
   7   7  12   -0.01    0.47
   7   7  12    0.00    0.31
  -8  -7 -12   21.11    1.36
   8   7  12   21.40    1.47
   8   7  12   22.18    1.28
  -9  -7 -12    8.10    0.94
  -9  -7 -12    6.76    0.77
   9   7  12    7.55    0.86
 -10  -7 -12    0.77    0.53
  10   7  12    1.72    0.58
 -11  -7 -12   12.02    1.24
  11   7  12   13.88    1.24
 -12  -7 -12    1.03    0.59
  12   7  12    0.92    0.63
 -13  -7 -12    2.09    0.70
  13   7  12    1.81    0.73
 -14  -7 -12    0.95    0.66
  14   7  12    1.09    0.71
   6  -8 -12    0.22    0.49
   5  -8 -12    7.54    0.89
  -5   8  12    5.23    1.15
   4  -8 -12    8.90    0.92
  -4   8  12    7.94    1.35
   3  -8 -12    2.31    0.55
  -3   8  12    2.59    0.98
   2  -8 -12   12.14    0.96
  -2   8  12   11.28    1.50
   1  -8 -12    0.43    0.34
  -1   8  12   -0.05    0.67
   0  -8 -12    0.86    0.35
   0   8  12   -0.65    0.53
  -1  -8 -12    0.85    0.40
   1   8  12    0.93    0.62
  -2  -8 -12   19.32    1.17
   2   8  12   18.06    1.55
  -3  -8 -12   82.61    3.39
   3   8  12   82.95    3.88
  -4  -8 -12    1.91    0.51
   4   8  12    2.33    0.75
  -5  -8 -12   31.29    1.74
   5   8  12   31.27    2.00
  -6  -8 -12    1.16    0.56
   6   8  12    0.46    0.33
   6   8  12    0.23    0.55
  -7  -8 -12   95.22    4.05
   7   8  12   99.52    4.31
   7   8  12  101.16    3.85
  -8  -8 -12    0.44    0.48
   8   8  12    0.33    0.50
   8   8  12    0.46    0.38
  -9  -8 -12   19.48    1.44
   9   8  12   24.59    1.40
 -10  -8 -12    0.82    0.56
  10   8  12    0.81    0.49
 -11  -8 -12    3.26    0.78
  11   8  12    3.04    0.71
 -12  -8 -12   -0.03    0.53
  12   8  12    2.41    0.70
 -13  -8 -12    8.90    1.18
  13   8  12   13.27    1.30
 -14  -8 -12    4.93    0.93
  14   8  12    7.74    1.09
   5  -9 -12    2.01    0.63
  -5   9  12    1.12    0.90
   4  -9 -12    1.01    0.53
  -4   9  12    0.77    0.92
   3  -9 -12   -0.71    0.37
  -3   9  12    0.67    0.93
   2  -9 -12    2.03    0.54
  -2   9  12    0.65    0.88
   1  -9 -12    2.17    0.53
  -1   9  12    0.87    0.82
   0  -9 -12    0.47    0.38
   0   9  12   -0.16    0.64
  -1  -9 -12    3.26    0.57
   1   9  12    1.72    0.75
  -2  -9 -12    1.13    0.45
   2   9  12    0.70    0.63
  -3  -9 -12    0.28    0.40
   3   9  12    0.49    0.63
  -4  -9 -12   23.36    1.40
   4   9  12   19.03    1.68
  -5  -9 -12    6.60    0.91
   5   9  12    6.33    1.05
  -6  -9 -12    8.80    1.04
   6   9  12    5.90    1.00
  -7  -9 -12    0.43    0.50
   7   9  12    0.57    0.58
  -8  -9 -12    0.64    0.55
   8   9  12    1.05    0.46
   8   9  12    1.08    0.59
  -9  -9 -12    3.66    0.79
   9   9  12    3.17    0.62
 -10  -9 -12    3.45    0.77
  10   9  12    3.64    0.70
 -11  -9 -12    0.48    0.57
  11   9  12    0.40    0.53
 -12  -9 -12    5.19    0.91
  12   9  12    6.31    0.92
 -13  -9 -12    5.92    1.01
  13   9  12    7.32    1.01
 -14  -9 -12    2.64    0.76
  14   9  12    1.36    0.71
   4 -10 -12    3.95    0.74
  -4  10  12    1.70    1.03
   3 -10 -12    2.99    0.65
  -3  10  12    1.35    0.98
   2 -10 -12    5.38    0.79
  -2  10  12    3.60    1.12
   1 -10 -12    4.57    0.71
  -1  10  12    4.46    1.18
   0 -10 -12   40.19    2.01
   0  10  12   38.67    2.59
  -1 -10 -12   -0.44    0.38
   1  10  12   -0.58    0.62
  -2 -10 -12    3.88    0.67
   2  10  12    3.66    0.94
  -3 -10 -12    6.28    0.82
   3  10  12    5.85    1.05
  -4 -10 -12    7.99    0.95
   4  10  12    8.41    1.19
  -5 -10 -12    1.56    0.64
   5  10  12    0.96    0.70
  -6 -10 -12   36.20    2.10
   6  10  12   35.94    2.22
  -7 -10 -12   16.05    1.33
   7  10  12   15.25    1.40
  -8 -10 -12   18.64    1.51
   8  10  12   18.95    1.52
  -9 -10 -12    1.48    0.66
 -10 -10 -12   24.50    1.74
  10  10  12   29.98    1.65
 -11 -10 -12    5.88    0.99
  11  10  12    4.61    0.79
 -12 -10 -12    2.29    0.70
  12  10  12    2.75    0.72
 -13 -10 -12    0.22    0.62
  13  10  12    0.38    0.58
 -14 -10 -12    6.33    0.99
   2 -11 -12    0.92    0.60
  -2  11  12   -0.04    0.87
   1 -11 -12    0.87    0.59
  -1  11  12    1.54    0.96
   0 -11 -12    0.06    0.49
   0  11  12   -0.59    0.81
  -1 -11 -12    2.93    0.67
   1  11  12    2.97    1.02
  -2 -11 -12    1.26    0.56
   2  11  12    1.85    0.87
  -3 -11 -12    0.79    0.56
   3  11  12    0.73    0.75
  -4 -11 -12    0.26    0.53
   4  11  12    0.03    0.62
  -5 -11 -12    6.04    0.98
   5  11  12    4.58    1.00
  -6 -11 -12   14.23    1.45
   6  11  12   15.64    1.50
  -7 -11 -12    0.20    0.59
   7  11  12    0.20    0.58
  -8 -11 -12    9.25    1.13
   8  11  12    7.90    1.13
  -9 -11 -12   20.42    1.64
 -10 -11 -12    3.50    0.86
 -11 -11 -12   -0.02    0.60
 -12 -11 -12    0.18    0.66
  12  11  12    0.27    0.77
 -13 -11 -12    2.33    0.77
  13  11  12    3.16    0.80
   1 -12 -12    1.24    0.61
  -1  12  12    1.21    1.09
   0 -12 -12    5.79    0.90
   0  12  12    6.98    1.45
  -1 -12 -12    7.06    0.98
   1  12  12    5.93    1.36
  -2 -12 -12    5.29    0.88
   2  12  12    1.73    0.95
  -3 -12 -12   17.39    1.39
   3  12  12   15.96    1.77
  -4 -12 -12    4.20    0.86
   4  12  12    4.75    1.05
  -5 -12 -12    3.69    0.87
   5  12  12    2.84    0.86
  -6 -12 -12    5.55    1.07
   6  12  12    4.48    0.99
  -7 -12 -12    9.08    1.18
   7  12  12    7.19    1.15
  -8 -12 -12    4.52    0.95
  -9 -12 -12   11.80    1.35
 -10 -12 -12    7.54    1.15
 -11 -12 -12   11.32    1.34
 -12 -12 -12   17.47    1.52
 -13 -12 -12   -0.13    0.61
   0 -13 -12    1.94    0.75
  -1 -13 -12    1.14    0.65
   1  13  12    2.69    1.14
  -2 -13 -12    4.82    0.95
   2  13  12    5.95    1.34
  -3 -13 -12    9.24    1.14
   3  13  12    5.50    1.24
  -4 -13 -12   -0.12    0.68
   4  13  12    0.65    0.76
  -5 -13 -12    8.42    1.17
   5  13  12    4.98    1.08
  -6 -13 -12    7.50    1.17
   6  13  12    5.86    1.11
  -7 -13 -12    0.78    0.77
   7  13  12    0.39    0.61
  -8 -13 -12   -0.51    0.66
  -9 -13 -12    3.45    0.93
 -10 -13 -12    0.89    0.78
 -11 -13 -12    0.08    0.62
 -12 -13 -12   -0.81    0.63
  -2 -14 -12    5.03    1.05
  -3 -14 -12    2.00    0.80
   3  14  12    0.98    0.87
  -4 -14 -12    9.72    1.27
   4  14  12    7.55    1.32
  -5 -14 -12   19.16    1.82
   5  14  12   11.08    1.55
  -6 -14 -12    0.34    0.83
   6  14  12    0.06    0.74
  -7 -14 -12   10.35    1.38
   7  14  12    6.22    1.37
  -8 -14 -12   -0.10    0.76
  -9 -14 -12   13.03    1.55
 -10 -14 -12    0.28    0.77
  -4 -12  13    4.15    1.01
  -3 -12  13    0.83    0.74
   2  12 -13   10.31    1.44
  -2 -12  13    7.05    1.12
   7  11 -13    7.59    1.22
  -6 -11  13   19.44    1.83
  -5 -11  13    1.36    0.82
  -4 -11  13    4.06    0.96
   3  11 -13    8.16    1.19
  -3 -11  13    8.65    1.26
   2  11 -13    1.22    0.78
  -2 -11  13    2.39    0.81
   1  11 -13    5.40    1.14
  -1 -11  13    5.16    0.98
   0  11 -13    0.41    0.84
   0 -11  13    1.02    0.71
  -1  11 -13   12.93    1.68
   1 -11  13   14.47    1.50
   2 -11  13    0.85    0.63
   8  10 -13    0.89    0.67
   7  10 -13    0.09    0.59
  -6 -10  13    0.46    0.78
  -5 -10  13    1.81    0.82
  -4 -10  13    1.03    0.76
   3  10 -13   -0.04    0.51
  -3 -10  13    0.39    0.61
   2  10 -13   12.42    1.37
  -2 -10  13   11.64    1.40
   1  10 -13   -0.13    0.58
  -1 -10  13    0.64    0.63
   0  10 -13    0.06    0.68
   0 -10  13    0.81    0.62
  -1  10 -13    9.21    1.37
   1 -10  13    7.69    1.07
  -2  10 -13    0.17    0.79
   2 -10  13   -0.02    0.55
  -3  10 -13   -0.39    0.84
   3 -10  13    0.44    0.64
   9   9 -13    6.43    1.07
   8   9 -13    0.12    0.60
   7   9 -13    3.48    0.87
  -6  -9  13    8.80    1.34
  -5  -9  13    0.01    0.62
   4   9 -13   27.89    2.00
  -4  -9  13   27.96    1.91
   3   9 -13    2.92    0.70
  -3  -9  13    1.76    0.76
   2   9 -13   53.86    2.74
  -2  -9  13   55.91    2.82
   1   9 -13    4.57    0.90
  -1  -9  13    4.34    0.88
   0   9 -13    9.74    1.27
   0  -9  13   10.00    1.18
  -1   9 -13    1.03    0.70
   1  -9  13    0.13    0.53
  -2   9 -13    3.86    0.99
   2  -9  13    2.81    0.77
  -3   9 -13    0.54    0.82
   3  -9  13    0.05    0.57
  -4   9 -13    7.16    1.38
   4  -9  13    5.13    0.94
  -5   9 -13    2.13    1.06
   5  -9  13    2.05    0.73
   9   8 -13    4.47    0.90
   8   8 -13    0.29    0.55
   7   8 -13    1.75    0.72
  -6  -8  13    7.37    1.24
  -5  -8  13    1.79    0.77
   4   8 -13    0.06    0.39
  -4  -8  13    0.20    0.60
   3   8 -13    0.82    0.50
  -3  -8  13   -0.01    0.57
   2   8 -13    0.09    0.44
  -2  -8  13    0.29    0.54
   1   8 -13    7.46    1.00
  -1  -8  13    7.15    1.02
   0   8 -13    1.96    0.68
   0  -8  13    1.49    0.60
  -1   8 -13    2.05    0.76
   1  -8  13    1.26    0.62
  -2   8 -13   19.68    1.64
   2  -8  13   21.78    1.50
  -3   8 -13    9.78    1.43
   3  -8  13   10.30    1.16
  -4   8 -13   -0.39    0.68
   4  -8  13    0.65    0.57
  -5   8 -13    6.40    1.30
   5  -8  13    5.36    0.94
  -6   8 -13    1.10    1.14
   6  -8  13    0.43    0.64
  10   7 -13    3.21    0.81
 -10  -7  13    1.51    0.55
   9   7 -13   14.58    1.43
  -9  -7  13   12.33    1.13
   8   7 -13    5.54    0.98
   7   7 -13    6.20    1.00
  -6  -7  13    0.32    0.64
  -5  -7  13    5.70    1.05
   4   7 -13    1.28    0.44
  -4  -7  13    0.75    0.63
   3   7 -13    2.54    0.57
  -3  -7  13    3.33    0.78
   2   7 -13    3.73    0.68
  -2  -7  13    4.68    0.85
   1   7 -13   18.07    1.29
  -1  -7  13   15.54    1.32
   0   7 -13    3.00    0.71
   0  -7  13    2.77    0.68
  -1   7 -13   42.45    2.30
   1  -7  13   42.88    2.21
  -2   7 -13   24.88    1.71
   2  -7  13   25.40    1.62
  -3   7 -13   17.21    1.58
   3  -7  13   21.22    1.46
  -4   7 -13    1.09    0.74
   4  -7  13    1.24    0.61
  -5   7 -13   -0.03    0.71
   5  -7  13    0.07    0.55
  -6   7 -13    3.81    1.14
   6  -7  13    3.76    0.85
  -7   7 -13    5.36    1.33
   7  -7  13    3.71    0.87
  10   6 -13    2.32    0.75
 -10  -6  13    1.58    0.54
   9   6 -13    4.96    0.97
  -9  -6  13    5.22    0.77
   8   6 -13    0.59    0.61
  -8  -6  13    0.24    0.43
   7   6 -13    0.27    0.52
  -7  -6  13    0.64    0.42
  -6  -6  13    2.29    0.87
  -6  -6  13    2.51    0.50
  -5  -6  13   23.87    1.75
   4   6 -13   12.93    0.95
  -4  -6  13   12.90    1.29
   3   6 -13    0.59    0.37
  -3  -6  13    0.31    0.52
   2   6 -13   38.17    1.92
  -2  -6  13   37.43    2.04
   1   6 -13   24.73    1.51
  -1  -6  13   24.91    1.54
   0   6 -13   14.28    1.15
   0  -6  13   14.80    1.19
  -1   6 -13    0.03    0.44
   1  -6  13    0.71    0.47
  -2   6 -13    2.18    0.68
   2  -6  13    1.99    0.57
  -3   6 -13    3.82    0.85
   3  -6  13    4.73    0.79
  -4   6 -13    0.19    0.57
   4  -6  13   -0.07    0.47
  -5   6 -13   -0.66    0.60
   5  -6  13    0.50    0.52
  -6   6 -13   -0.09    0.74
   6  -6  13    0.17    0.56
  -7   6 -13    1.25    0.95
   7  -6  13    1.16    0.66
  -8   6 -13    3.61    1.22
   8  -6  13    1.97    0.73
  10   5 -13    0.77    0.65
 -10  -5  13    0.12    0.44
   9   5 -13    3.14    0.81
  -9  -5  13    3.17    0.65
   8   5 -13    2.81    0.75
  -8  -5  13    3.28    0.61
   7   5 -13    8.16    1.09
  -7  -5  13    9.05    0.89
   6   5 -13   19.70    1.49
  -6  -5  13   23.05    1.25
  -5  -5  13   25.86    1.28
  -5  -5  13   22.46    1.67
   4   5 -13   17.29    1.10
  -4  -5  13   20.38    1.45
  -4  -5  13   16.51    1.20
   3   5 -13    3.42    0.57
  -3  -5  13    3.16    0.72
   2   5 -13    0.46    0.36
  -2  -5  13    0.08    0.43
   1   5 -13   23.71    1.41
  -1  -5  13   23.26    1.47
   0   5 -13   14.92    1.12
   0  -5  13   13.38    1.09
  -1   5 -13   18.21    1.31
   1  -5  13   18.23    1.28
  -2   5 -13    1.91    0.58
   2  -5  13    1.65    0.52
  -3   5 -13   50.52    2.56
   3  -5  13   50.25    2.39
  -4   5 -13    4.91    0.92
   4  -5  13    5.23    0.81
  -5   5 -13   64.52    3.24
   5  -5  13   63.12    2.96
  -6   5 -13    3.70    0.96
   6  -5  13    4.08    0.80
  -7   5 -13    4.49    1.15
   7  -5  13    6.09    0.96
  -8   5 -13    0.84    0.86
   8  -5  13    0.03    0.62
  -9   5 -13   -0.11    0.97
   9  -5  13   -0.08    0.58
  10   4 -13    0.40    0.61
 -10  -4  13    0.60    0.50
   9   4 -13    2.48    0.77
  -9  -4  13    2.12    0.59
   8   4 -13    1.74    0.64
  -8  -4  13    1.57    0.51
   7   4 -13   12.19    1.20
  -7  -4  13   11.46    0.94
   6   4 -13    3.93    0.79
  -6  -4  13    5.72    0.66
   5   4 -13    6.07    0.62
  -5  -4  13    6.51    0.66
  -5  -4  13    5.41    0.94
   4   4 -13   18.73    1.10
  -4  -4  13   16.65    0.96
  -4  -4  13   18.51    1.39
   3   4 -13    3.77    0.56
  -3  -4  13    4.06    0.43
  -3  -4  13    3.00    0.67
   2   4 -13    6.26    0.74
  -2  -4  13    5.52    0.77
   1   4 -13    2.16    0.50
  -1  -4  13    2.45    0.57
   0   4 -13    2.77    0.59
   0  -4  13    1.42    0.49
  -1   4 -13   11.91    1.01
   1  -4  13    8.79    0.89
  -2   4 -13    4.98    0.77
   2  -4  13    5.38    0.75
  -3   4 -13    7.13    0.96
   3  -4  13    7.24    0.86
  -4   4 -13   -0.02    0.45
   4  -4  13   -0.03    0.39
  -5   4 -13    0.10    0.53
   5  -4  13    0.90    0.51
  -6   4 -13    6.76    1.09
   6  -4  13    9.04    1.05
  -7   4 -13   -0.39    0.66
   7  -4  13    0.66    0.60
  -8   4 -13    1.66    0.94
   8  -4  13    0.73    0.63
  -9   4 -13    2.50    1.02
   9  -4  13    0.71    0.72
 -10   4 -13    0.31    1.00
  10  -4  13   -0.46    0.62
  10   3 -13    0.46    0.63
 -10  -3  13    0.70    0.54
   9   3 -13    3.74    0.82
  -9  -3  13    2.89    0.66
   8   3 -13    7.35    1.08
  -8  -3  13    8.97    0.95
   7   3 -13    8.22    1.06
  -7  -3  13    7.55    0.82
   6   3 -13    1.92    0.59
  -6  -3  13    1.29    0.42
   5   3 -13    4.49    0.57
  -5  -3  13    3.51    0.52
  -5  -3  13    3.50    0.80
   4   3 -13   66.31    2.75
  -4  -3  13   65.72    2.62
  -4  -3  13   63.62    3.01
   3   3 -13   12.02    0.86
  -3  -3  13   11.56    0.71
  -3  -3  13   11.82    1.08
   2   3 -13  130.10    5.22
  -2  -3  13  139.73    5.35
  -2  -3  13  137.91    4.92
   1   3 -13    3.98    0.62
  -1  -3  13    3.86    0.64
   0   3 -13   44.79    2.17
   0  -3  13   45.47    2.12
  -1   3 -13   22.15    1.40
   1  -3  13   21.90    1.29
  -2   3 -13   29.06    1.64
   2  -3  13   29.39    1.53
  -3   3 -13   14.83    1.18
   3  -3  13   15.19    1.06
  -4   3 -13   37.42    2.01
   4  -3  13   34.11    1.81
  -5   3 -13    1.02    0.56
   5  -3  13    1.02    0.49
  -6   3 -13    4.20    0.84
   6  -3  13    5.04    0.78
  -7   3 -13   24.22    1.79
   7  -3  13   25.73    1.66
  -8   3 -13   23.49    1.90
   8  -3  13   20.45    1.56
  -9   3 -13    4.20    1.15
   9  -3  13    3.92    0.92
 -10   3 -13    4.20    1.15
  10  -3  13    3.73    0.95
  11  -3  13   -0.54    0.67
 -10  -2  13    2.56    0.67
   9   2 -13    0.77    0.60
  -9  -2  13   -0.07    0.44
   8   2 -13    1.15    0.63
  -8  -2  13    1.14    0.50
   7   2 -13    0.78    0.49
  -7  -2  13    0.24    0.39
   6   2 -13    1.25    0.54
  -6  -2  13    2.13    0.48
   5   2 -13    6.53    0.65
   5   2 -13    7.29    0.91
  -5  -2  13    7.22    0.66
   4   2 -13   10.20    0.81
  -4  -2  13   11.40    1.12
  -4  -2  13    9.68    0.71
   3   2 -13    0.06    0.28
  -3  -2  13    0.41    0.24
  -3  -2  13    1.12    0.50
   2   2 -13    1.88    0.48
  -2  -2  13    1.95    0.30
  -2  -2  13    1.37    0.45
   1   2 -13    4.99    0.69
   1   2 -13    3.88    0.31
  -1  -2  13    4.84    0.67
   0   2 -13   17.63    1.18
   0  -2  13   15.30    1.08
  -1   2 -13    0.36    0.36
   1  -2  13    0.77    0.38
  -2   2 -13    7.53    0.89
   2  -2  13    8.73    0.79
  -3   2 -13    1.82    0.52
   3  -2  13    1.98    0.46
  -4   2 -13   20.93    1.41
   4  -2  13   18.92    1.22
  -5   2 -13   59.70    2.85
   5  -2  13   60.51    2.69
  -6   2 -13    6.89    0.99
   6  -2  13    7.01    0.85
  -7   2 -13    8.38    1.13
   7  -2  13    9.21    1.08
  -8   2 -13   13.45    1.45
   8  -2  13   11.14    1.24
  -9   2 -13    1.66    0.86
   9  -2  13    2.53    0.80
 -10   2 -13    1.14    0.86
  10  -2  13   -0.81    0.58
  11  -2  13   -0.23    0.70
 -10  -1  13    3.07    0.70
  -9  -1  13    5.97    0.86
   8   1 -13    1.24    0.60
  -8  -1  13    0.26    0.42
   7   1 -13   12.51    1.22
  -7  -1  13   13.14    1.03
   6   1 -13    0.59    0.43
  -6  -1  13    0.58    0.37
   5   1 -13   39.38    2.10
  -5  -1  13   44.30    2.15
  -5  -1  13   40.71    1.88
  -4  -1  13    8.66    1.03
  -4  -1  13    8.68    0.99
  -4  -1  13    7.31    0.65
  -3  -1  13   18.64    1.27
  -3  -1  13   18.51    0.97
  -3  -1  13   17.86    1.35
  -2  -1  13    2.22    0.67
  -2  -1  13    4.15    0.63
  -2  -1  13    3.38    0.40
   1   1 -13    5.82    0.75
   1   1 -13    5.42    0.39
  -1  -1  13    5.95    0.69
   0   1 -13   66.40    3.00
   0   1 -13   66.60    2.48
   0  -1  13   68.18    2.82
  -1   1 -13   76.95    3.25
  -1   1 -13   70.99    2.69
   1  -1  13   73.25    3.02
  -2   1 -13    5.98    0.86
   2  -1  13    6.08    0.67
  -3   1 -13    7.86    0.92
   3  -1  13    8.30    0.76
  -4   1 -13    6.58    0.86
   4  -1  13    6.29    0.72
  -5   1 -13   19.98    1.37
   5  -1  13   21.12    1.27
  -6   1 -13   -0.03    0.44
   6  -1  13    0.42    0.42
  -7   1 -13   17.31    1.45
   7  -1  13   20.37    1.38
  -8   1 -13   10.84    1.29
   8  -1  13   13.09    1.22
  -9   1 -13   15.27    1.59
   9  -1  13   15.24    1.40
 -10   1 -13    7.16    1.18
  10  -1  13    6.02    1.10
  11  -1  13    7.44    1.24
  12  -1  13    1.33    0.87
 -10   0  13    0.95    0.61
  -9   0  13    1.23    0.53
  -8   0  13    0.42    0.45
  -7   0  13    2.83    0.62
   6   0 -13    3.95    0.75
  -6   0  13    3.18    0.77
  -6   0  13    4.30    0.64
   5   0 -13    2.23    0.59
  -5   0  13    2.75    0.66
  -5   0  13    2.60    0.50
   4   0 -13    1.16    0.46
  -4   0  13    0.64    0.49
  -4   0  13    1.55    0.39
  -3   0  13   10.43    1.15
  -3   0  13   11.18    0.73
  -3   0  13   10.17    1.02
   2   0 -13  117.08    4.37
  -2   0  13  120.73    4.64
  -2   0  13  117.61    4.93
   1   0 -13    1.26    0.24
  -1   0  13    1.19    0.60
  -1   0  13    2.09    0.47
   0   0 -13   53.88    2.10
   0   0  13   57.86    2.92
   0   0  13   54.77    2.36
  -1   0 -13  152.88    5.34
  -1   0 -13  150.43    5.93
   1   0  13  145.87    5.61
  -2   0 -13    5.57    0.39
  -2   0 -13    4.67    0.75
   2   0  13    6.56    0.64
  -3   0 -13    7.32    0.91
   3   0  13    6.79    0.71
  -4   0 -13    0.42    0.38
   4   0  13    0.20    0.31
  -5   0 -13   11.25    1.05
   5   0  13   11.29    0.88
  -6   0 -13    2.21    0.64
   6   0  13    1.85    0.52
  -7   0 -13    1.18    0.57
   7   0  13    1.69    0.57
  -8   0 -13    2.99    0.75
   8   0  13    2.07    0.66
  -9   0 -13   15.09    1.42
   9   0  13   14.02    1.31
 -10   0 -13    7.24    1.06
  10   0  13    6.64    1.12
  11   0  13    3.44    0.94
  12   0  13    1.71    0.89
  -9   1  13   -0.08    0.48
  -8   1  13    1.44    0.58
  -7   1  13   10.35    1.01
  -6   1  13    6.25    0.78
  -6   1  13    8.53    1.08
   5  -1 -13    2.58    0.61
  -5   1  13    1.75    0.66
  -5   1  13    2.38    0.49
   4  -1 -13    1.48    0.45
  -4   1  13    1.08    0.37
  -4   1  13    1.04    0.60
   3  -1 -13   35.77    1.63
  -3   1  13   38.39    2.17
  -3   1  13   39.06    1.91
   2  -1 -13   41.10    1.74
  -2   1  13   41.18    1.97
  -2   1  13   43.73    2.37
   1  -1 -13   11.50    0.66
  -1   1  13   12.22    0.89
  -1   1  13   12.88    1.42
   0  -1 -13    8.07    0.51
   0   1  13    8.37    0.71
   0   1  13    6.43    1.09
  -1  -1 -13   23.12    1.01
   1   1  13   23.04    1.20
   1   1  13   20.90    1.72
  -2  -1 -13    9.94    0.56
   2   1  13    9.32    0.75
   2   1  13   13.47    1.57
  -3  -1 -13   26.92    1.57
  -3  -1 -13   23.87    1.12
   3   1  13   24.45    1.28
  -4  -1 -13    4.04    0.48
  -4  -1 -13    3.58    0.67
   4   1  13    3.79    0.51
  -5  -1 -13   75.15    3.34
   5   1  13   76.13    3.10
  -6  -1 -13    0.89    0.48
   6   1  13    0.59    0.41
  -7  -1 -13   47.03    2.36
   7   1  13   44.43    2.22
  -8  -1 -13    6.68    0.94
   8   1  13    6.81    0.91
  -9  -1 -13   11.12    1.19
   9   1  13    6.83    1.03
 -10  -1 -13    0.52    0.55
  10   1  13    0.85    0.65
  11   1  13    4.44    0.98
  12   1  13   21.40    1.83
  13   1  13    1.47    0.95
   9  -2 -13    4.55    0.83
   8  -2 -13    1.06    0.53
   7  -2 -13    3.37    0.64
   6  -2 -13   14.90    1.08
  -6   2  13   13.88    1.43
   5  -2 -13    7.18    0.74
  -5   2  13    7.56    1.13
   4  -2 -13    4.96    0.61
  -4   2  13    4.65    0.94
   3  -2 -13    1.72    0.45
   3  -2 -13    1.70    0.37
  -3   2  13    1.34    0.65
   2  -2 -13   50.86    2.13
  -2   2  13   55.08    2.82
  -2   2  13   51.62    2.30
   1  -2 -13    0.34    0.21
  -1   2  13    1.21    0.71
  -1   2  13    0.45    0.36
   0  -2 -13    3.32    0.38
   0   2  13    3.33    0.47
   0   2  13    2.17    0.79
  -1  -2 -13   29.00    1.28
   1   2  13   30.93    1.40
   1   2  13   28.71    2.12
  -2  -2 -13   53.67    2.13
   2   2  13   53.41    3.01
   2   2  13   55.37    2.27
  -3  -2 -13    2.51    0.37
   3   2  13    2.40    0.85
   3   2  13    1.79    0.40
  -4  -2 -13   10.96    0.74
   4   2  13   10.94    0.79
   4   2  13   11.99    1.46
  -5  -2 -13   25.44    1.30
  -5  -2 -13   26.05    1.61
   5   2  13   28.07    1.40
  -6  -2 -13    4.95    0.77
  -6  -2 -13    5.87    0.67
   6   2  13    5.59    0.66
  -7  -2 -13    6.47    0.89
   7   2  13    7.26    0.85
  -8  -2 -13   10.05    1.13
   8   2  13    8.65    0.97
  -9  -2 -13    0.65    0.47
   9   2  13   -0.16    0.51
 -10  -2 -13    0.08    0.44
  10   2  13    0.01    0.56
  11   2  13    9.64    1.29
  12   2  13    1.38    0.81
  13   2  13    1.07    0.82
   8  -3 -13    3.38    0.68
   7  -3 -13    0.18    0.43
   6  -3 -13    0.82    0.44
  -6   3  13    2.00    0.84
   5  -3 -13    1.48    0.43
  -5   3  13    0.84    0.67
   4  -3 -13    2.94    0.50
  -4   3  13    3.31    0.84
   3  -3 -13    0.31    0.27
  -3   3  13   -0.53    0.51
   2  -3 -13   58.09    2.38
  -2   3  13   58.62    3.00
   1  -3 -13    0.41    0.23
  -1   3  13    0.16    0.32
  -1   3  13   -0.34    0.48
   0  -3 -13  108.57    4.12
   0   3  13  105.92    4.90
   0   3  13  115.92    4.18
  -1  -3 -13    2.59    0.36
   1   3  13    2.71    0.41
   1   3  13    1.27    0.79
  -2  -3 -13  127.19    4.57
   2   3  13  125.37    4.60
   2   3  13  114.48    5.46
  -3  -3 -13   12.63    0.76
   3   3  13   13.14    0.82
   3   3  13   12.05    1.60
  -4  -3 -13   43.37    1.95
   4   3  13   47.26    2.73
   4   3  13   48.27    1.98
  -5  -3 -13   17.88    1.06
   5   3  13   20.00    1.09
   5   3  13   17.20    1.66
  -6  -3 -13   18.17    1.12
  -6  -3 -13   18.24    1.27
   6   3  13   19.52    1.13
  -7  -3 -13    0.15    0.38
  -7  -3 -13    0.43    0.40
   7   3  13    0.05    0.36
  -8  -3 -13    2.68    0.56
  -8  -3 -13    2.65    0.65
   8   3  13    1.60    0.53
  -9  -3 -13   52.72    2.43
   9   3  13   47.09    2.43
  10   3  13   18.54    1.46
  11   3  13    3.21    0.83
  12   3  13    3.84    0.91
  13   3  13    1.05    0.82
   8  -4 -13   -0.42    0.45
   7  -4 -13    1.50    0.59
   6  -4 -13    2.61    0.63
  -6   4  13    1.78    0.79
   5  -4 -13    1.73    0.48
  -5   4  13    2.02    0.84
   4  -4 -13    0.07    0.32
  -4   4  13    0.03    0.62
   3  -4 -13    0.57    0.32
  -3   4  13    0.69    0.66
   2  -4 -13    6.81    0.60
  -2   4  13    6.18    1.09
   1  -4 -13    1.68    0.34
  -1   4  13    1.08    0.67
   0  -4 -13    0.45    0.23
   0   4  13    1.74    0.70
  -1  -4 -13    8.35    0.63
   1   4  13   11.29    1.46
   1   4  13    9.77    0.65
  -2  -4 -13   27.49    1.31
   2   4  13   27.54    2.07
   2   4  13   28.54    1.29
  -3  -4 -13    5.55    0.57
   3   4  13    4.65    1.06
   3   4  13    5.59    0.56
  -4  -4 -13   28.51    1.37
   4   4  13   28.72    1.33
   4   4  13   28.70    2.07
  -5  -4 -13   23.70    1.33
   5   4  13   26.40    1.31
   5   4  13   27.93    1.95
  -6  -4 -13    3.33    0.55
   6   4  13    2.60    0.51
   6   4  13    3.00    0.86
  -7  -4 -13    1.29    0.47
  -7  -4 -13    2.61    0.54
   7   4  13    2.11    0.49
  -8  -4 -13    5.11    0.76
  -8  -4 -13    5.42    0.78
   8   4  13    5.48    0.76
  -9  -4 -13    2.13    0.57
  -9  -4 -13    2.21    0.56
   9   4  13    2.99    0.68
 -10  -4 -13    3.95    0.74
  10   4  13    4.15    0.78
  11   4  13   -0.28    0.54
  12   4  13    1.70    0.77
  13   4  13   -0.04    0.66
  14   4  13    5.24    1.12
   7  -5 -13    9.70    1.05
   6  -5 -13    1.45    0.54
  -6   5  13    1.21    0.85
   5  -5 -13   27.14    1.54
  -5   5  13   26.87    2.05
   4  -5 -13    2.29    0.51
  -4   5  13    3.05    0.92
   3  -5 -13   13.85    0.93
  -3   5  13   14.34    1.47
   2  -5 -13    0.79    0.34
  -2   5  13    1.11    0.67
   1  -5 -13   10.84    0.76
  -1   5  13    8.59    1.24
   0  -5 -13    1.81    0.37
   0   5  13    2.45    0.80
  -1  -5 -13   13.54    0.87
   1   5  13   16.23    1.50
  -2  -5 -13  106.64    4.23
   2   5  13  116.41    4.16
   2   5  13  111.42    4.97
  -3  -5 -13   55.23    2.35
   3   5  13   58.37    2.25
   3   5  13   53.47    3.03
  -4  -5 -13   20.07    1.15
   4   5  13   21.42    1.75
   4   5  13   20.20    1.04
  -5  -5 -13    1.07    0.44
   5   5  13   -0.08    0.26
   5   5  13    1.91    0.77
  -6  -5 -13   11.77    0.92
   6   5  13   11.64    0.82
  -7  -5 -13   16.63    1.17
   7   5  13   18.63    1.12
   7   5  13   19.09    1.54
  -8  -5 -13    4.01    0.67
  -8  -5 -13    4.51    0.70
   8   5  13    3.17    0.60
  -9  -5 -13   14.01    1.05
  -9  -5 -13   13.84    1.12
   9   5  13   16.03    1.22
 -10  -5 -13    0.14    0.43
  10   5  13    0.00    0.46
 -11  -5 -13    8.70    1.05
  11   5  13   10.51    1.18
  12   5  13    6.69    1.01
  13   5  13   31.48    2.11
  14   5  13    2.88    0.96
   7  -6 -13   -0.31    0.42
   6  -6 -13    1.23    0.56
  -6   6  13    0.23    0.73
   5  -6 -13    3.78    0.68
  -5   6  13    2.95    0.98
   4  -6 -13    0.67    0.42
  -4   6  13    1.16    0.80
   3  -6 -13    3.34    0.56
  -3   6  13    4.04    1.03
   2  -6 -13    4.91    0.63
  -2   6  13    5.62    1.11
   1  -6 -13   16.41    0.97
  -1   6  13   15.38    1.53
   0  -6 -13   11.01    0.79
   0   6  13   12.03    1.40
  -1  -6 -13   12.23    0.83
   1   6  13   11.26    1.31
  -2  -6 -13   14.26    0.92
   2   6  13   13.11    1.52
  -3  -6 -13   44.72    2.00
   3   6  13   44.80    2.57
  -4  -6 -13   13.54    0.99
   4   6  13   13.46    1.55
   4   6  13   14.87    0.82
  -5  -6 -13    7.11    0.79
   5   6  13    5.79    1.04
   5   6  13    6.54    0.60
  -6  -6 -13    1.73    0.51
   6   6  13    1.75    0.72
   6   6  13    1.62    0.40
  -7  -6 -13    3.09    0.61
   7   6  13    2.15    0.71
   7   6  13    2.25    0.48
  -8  -6 -13    1.70    0.56
   8   6  13    0.87    0.45
   8   6  13    1.60    0.66
  -9  -6 -13    1.26    0.45
  -9  -6 -13    1.66    0.59
   9   6  13    1.95    0.57
 -10  -6 -13    5.18    0.82
  10   6  13    5.79    0.84
 -11  -6 -13    1.31    0.63
  11   6  13    1.93    0.67
 -12  -6 -13    1.29    0.61
  12   6  13    0.37    0.57
  13   6  13    6.02    1.01
  14   6  13    1.93    0.78
   6  -7 -13    1.11    0.52
  -6   7  13    1.70    0.90
   5  -7 -13   10.45    1.02
  -5   7  13   10.03    1.50
   4  -7 -13    9.54    0.95
  -4   7  13    9.73    1.43
   3  -7 -13    5.11    0.69
  -3   7  13    6.28    1.20
   2  -7 -13    0.65    0.36
  -2   7  13    0.08    0.72
   1  -7 -13   21.43    1.20
  -1   7  13   21.55    1.78
   0  -7 -13    3.72    0.55
   0   7  13    4.11    0.95
  -1  -7 -13    1.41    0.40
   1   7  13    1.27    0.73
  -2  -7 -13    0.09    0.32
   2   7  13    1.00    0.62
  -3  -7 -13    1.82    0.44
   3   7  13    1.37    0.70
  -4  -7 -13   14.67    1.04
   4   7  13   14.71    1.44
  -5  -7 -13   56.68    2.63
   5   7  13   61.40    2.55
   5   7  13   57.26    3.00
  -6  -7 -13   84.18    3.53
   6   7  13   81.94    3.85
   6   7  13   84.91    3.29
  -7  -7 -13   36.75    1.91
   7   7  13   39.56    2.17
   7   7  13   35.02    1.71
  -8  -7 -13    0.46    0.45
   8   7  13   -0.17    0.44
   8   7  13    0.17    0.38
  -9  -7 -13    2.66    0.51
  -9  -7 -13    2.63    0.66
   9   7  13    5.14    0.72
 -10  -7 -13    8.49    1.03
  10   7  13   10.65    1.08
 -11  -7 -13    7.56    0.97
  11   7  13    7.80    0.99
 -12  -7 -13    0.55    0.57
  12   7  13    0.69    0.57
 -13  -7 -13    0.82    0.60
  13   7  13    0.53    0.65
  14   7  13    9.56    1.22
   5  -8 -13    4.08    0.69
  -5   8  13    2.93    1.05
   4  -8 -13    6.07    0.82
  -4   8  13    5.91    1.23
   3  -8 -13    2.10    0.55
  -3   8  13    2.84    1.01
   2  -8 -13    6.53    0.78
  -2   8  13    7.72    1.34
   1  -8 -13    3.51    0.58
  -1   8  13    3.08    0.95
   0  -8 -13    5.90    0.71
   0   8  13    5.76    1.11
  -1  -8 -13    2.89    0.52
   1   8  13    1.61    0.73
  -2  -8 -13    0.68    0.39
   2   8  13    0.36    0.65
  -3  -8 -13    4.85    0.66
   3   8  13    4.47    0.93
  -4  -8 -13    3.90    0.65
   4   8  13    3.92    0.92
  -5  -8 -13    2.31    0.61
   5   8  13    2.15    0.77
  -6  -8 -13    0.72    0.54
   6   8  13    0.98    0.63
  -7  -8 -13    7.02    0.89
   7   8  13    7.06    1.06
   7   8  13    8.25    0.74
  -8  -8 -13    1.25    0.58
   8   8  13    0.74    0.41
   8   8  13    0.33    0.52
  -9  -8 -13   12.63    1.17
   9   8  13   13.86    1.08
 -10  -8 -13    2.01    0.64
  10   8  13    2.98    0.66
 -11  -8 -13    0.12    0.55
  11   8  13    0.56    0.53
 -12  -8 -13    2.45    0.71
  12   8  13    3.64    0.79
 -13  -8 -13    4.50    0.85
  13   8  13    3.64    0.85
 -14  -8 -13    0.75    0.63
  14   8  13    0.75    0.70
   4  -9 -13    1.36    0.55
  -4   9  13    0.62    0.88
   3  -9 -13    3.60    0.68
  -3   9  13    1.48    0.93
   2  -9 -13   18.91    1.27
  -2   9  13   16.98    1.94
   1  -9 -13   12.20    0.98
  -1   9  13   11.61    1.56
   0  -9 -13   23.25    1.30
   0   9  13   17.47    1.73
  -1  -9 -13    0.26    0.42
   1   9  13    0.12    0.67
  -2  -9 -13   18.37    1.17
   2   9  13   14.92    1.49
  -3  -9 -13    2.01    0.55
   3   9  13    2.29    0.82
  -4  -9 -13   25.77    1.55
   4   9  13   26.81    1.92
  -5  -9 -13   14.10    1.19
   5   9  13   13.53    1.51
  -6  -9 -13    7.70    1.01
   6   9  13    5.73    1.05
  -7  -9 -13   16.37    1.32
   7   9  13   15.84    1.47
  -8  -9 -13   29.21    1.78
   8   9  13   32.40    1.98
  -9  -9 -13   27.47    1.79
   9   9  13   31.62    1.64
 -10  -9 -13    7.63    1.01
  10   9  13    8.98    0.98
 -11  -9 -13   16.00    1.39
  11   9  13   18.86    1.41
 -12  -9 -13    0.01    0.53
  12   9  13    0.97    0.58
 -13  -9 -13    1.14    0.68
  13   9  13    1.10    0.65
 -14  -9 -13    0.51    0.63
  14   9  13    0.86    0.68
   3 -10 -13    0.69    0.49
  -3  10  13    0.89    0.87
   2 -10 -13    0.71    0.51
  -2  10  13   -0.10    0.80
   1 -10 -13    0.43    0.48
  -1  10  13    0.56    0.87
   0 -10 -13    4.49    0.71
   0  10  13    3.73    1.04
  -1 -10 -13    1.42    0.52
   1  10  13    1.59    0.81
  -2 -10 -13    0.27    0.45
   2  10  13   -0.38    0.61
  -3 -10 -13    2.42    0.64
   3  10  13    0.85    0.73
  -4 -10 -13    5.78    0.87
   4  10  13    6.97    1.17
  -5 -10 -13    0.31    0.53
   5  10  13    0.19    0.60
  -6 -10 -13    9.92    1.18
   6  10  13    6.96    1.14
  -7 -10 -13   -0.86    0.51
   7  10  13    0.02    0.60
  -8 -10 -13    1.00    0.60
   8  10  13   -0.09    0.54
  -9 -10 -13    0.83    0.67
 -10 -10 -13    0.29    0.55
 -11 -10 -13    0.81    0.62
  11  10  13   -0.43    0.49
 -12 -10 -13    1.98    0.75
  12  10  13    2.70    0.73
 -13 -10 -13   -0.10    0.60
  13  10  13   -0.15    0.58
   2 -11 -13    4.37    0.79
  -2  11  13    3.07    1.12
   1 -11 -13    3.90    0.78
  -1  11  13    4.33    1.21
   0 -11 -13    1.52    0.59
   0  11  13    0.78    0.89
  -1 -11 -13   30.04    1.71
   1  11  13   25.62    2.13
  -2 -11 -13    6.06    0.87
   2  11  13    4.65    1.12
  -3 -11 -13    6.20    0.90
   3  11  13    6.34    1.17
  -4 -11 -13   19.79    1.46
   4  11  13   16.13    1.69
  -5 -11 -13    1.29    0.66
   5  11  13    1.71    0.78
  -6 -11 -13    4.71    0.94
   6  11  13    4.78    1.02
  -7 -11 -13   -0.42    0.60
   7  11  13   -0.77    0.56
  -8 -11 -13    5.66    0.99
   8  11  13    4.17    0.93
  -9 -11 -13    3.46    0.84
 -10 -11 -13    5.31    0.94
 -11 -11 -13   27.94    1.85
 -12 -11 -13    4.22    0.90
 -13 -11 -13    7.97    1.11
   1 -12 -13    1.41    0.64
  -1  12  13    0.63    0.98
   0 -12 -13    0.57    0.56
   0  12  13    0.00    0.84
  -1 -12 -13    1.70    0.64
   1  12  13    0.94    0.91
  -2 -12 -13    1.08    0.60
   2  12  13    2.50    0.95
  -3 -12 -13   -0.09    0.60
   3  12  13    0.79    0.80
  -4 -12 -13    2.68    0.80
   4  12  13    1.18    0.82
  -5 -12 -13    6.31    1.07
   5  12  13    3.25    0.99
  -6 -12 -13   -0.25    0.60
   6  12  13    0.08    0.62
  -7 -12 -13   10.80    1.31
   7  12  13    8.30    1.28
  -8 -12 -13   -0.79    0.64
  -9 -12 -13    4.46    0.99
 -10 -12 -13    1.36    0.74
 -11 -12 -13    0.42    0.66
 -12 -12 -13    3.62    0.92
  -1 -13 -13    5.45    0.94
   1  13  13    2.91    1.13
  -2 -13 -13    1.18    0.64
   2  13  13    0.06    0.81
  -3 -13 -13    4.67    0.92
   3  13  13    5.19    1.18
  -4 -13 -13    8.44    1.15
   4  13  13    5.42    1.19
  -5 -13 -13   10.88    1.37
   5  13  13    7.87    1.33
  -6 -13 -13    7.85    1.21
   6  13  13    5.63    1.10
  -7 -13 -13    0.89    0.79
   7  13  13    1.93    0.86
  -8 -13 -13   15.52    1.56
  -9 -13 -13    0.04    0.73
 -10 -13 -13   -0.56    0.65
 -11 -13 -13    0.43    0.74
  -3 -14 -13    2.73    0.92
   3  14  13    2.67    1.06
  -4 -14 -13    0.91    0.79
   4  14  13    1.28    0.91
  -5 -14 -13    3.99    1.01
   5  14  13    1.18    0.83
  -6 -14 -13    1.82    0.91
   6  14  13    1.18    0.78
  -7 -14 -13    0.54    0.79
   7  14  13    0.24    0.73
  -8 -14 -13    0.12    0.74
  -9 -14 -13   11.10    1.43
 -10 -14 -13    0.49    0.83
  -5 -11  14    0.88    0.76
  -4 -11  14    3.13    0.98
  -3 -11  14    0.90    0.68
   2  11 -14    1.13    0.79
  -2 -11  14    0.22    0.69
   1  11 -14   -0.07    0.68
  -1 -11  14    1.01    0.73
   0  11 -14    1.63    0.89
   0 -11  14    1.37    0.73
   7  10 -14   -0.99    0.54
  -6 -10  14    7.07    1.28
  -5 -10  14    0.29    0.70
  -4 -10  14    7.38    1.20
   3  10 -14    1.42    0.68
  -3 -10  14    2.85    0.85
   2  10 -14   22.17    1.74
  -2 -10  14   24.03    1.84
   1  10 -14    2.28    0.84
  -1 -10  14    2.13    0.79
   0  10 -14   14.23    1.61
   0 -10  14   14.96    1.48
  -1  10 -14    5.43    1.18
   1 -10  14    4.91    0.96
  -2  10 -14    8.60    1.44
   2 -10  14    7.15    1.10
  -3  10 -14    1.29    1.00
   3 -10  14    0.50    0.66
   8   9 -14    1.51    0.71
   7   9 -14   -0.11    0.55
  -6  -9  14   11.08    1.51
  -5  -9  14    1.54    0.81
  -4  -9  14    2.87    0.87
   3   9 -14   13.11    1.26
  -3  -9  14   12.26    1.40
   2   9 -14    0.22    0.57
  -2  -9  14    0.24    0.62
   1   9 -14    2.26    0.74
  -1  -9  14    2.62    0.80
   0   9 -14   -1.01    0.49
   0  -9  14   -0.03    0.54
  -1   9 -14   -0.41    0.65
   1  -9  14    1.36    0.68
  -2   9 -14    1.21    0.79
   2  -9  14   -0.31    0.57
  -3   9 -14   -0.23    0.73
   3  -9  14    1.43    0.72
  -4   9 -14    0.91    0.93
   4  -9  14    0.69    0.68
   9   8 -14   14.37    1.44
   8   8 -14    1.54    0.66
   7   8 -14   20.87    1.72
  -6  -8  14    0.30    0.76
  -5  -8  14   25.32    1.96
   4   8 -14    1.17    0.56
  -4  -8  14    0.59    0.70
   3   8 -14    0.47    0.50
  -3  -8  14    1.45    0.71
   2   8 -14    3.06    0.72
  -2  -8  14    1.57    0.67
   1   8 -14   16.07    1.35
  -1  -8  14   15.77    1.45
   0   8 -14   23.40    1.67
   0  -8  14   20.49    1.55
  -1   8 -14    1.35    0.72
   1  -8  14    2.52    0.75
  -2   8 -14    8.64    1.25
   2  -8  14    7.75    1.05
  -3   8 -14    6.14    1.15
   3  -8  14    5.43    0.94
  -4   8 -14    4.39    1.10
   4  -8  14    5.03    0.94
  -5   8 -14   14.40    1.88
   5  -8  14   15.76    1.45
  -6   8 -14   -1.29    0.82
   6  -8  14   -0.53    0.54
   9   7 -14    0.83    0.65
   8   7 -14    1.64    0.73
   7   7 -14   -0.11    0.52
  -6  -7  14    4.72    1.04
  -5  -7  14    3.42    0.89
   4   7 -14    2.99    0.60
  -4  -7  14    3.59    0.87
   3   7 -14    8.23    0.96
  -3  -7  14    7.88    1.11
   2   7 -14    0.87    0.48
  -2  -7  14    1.06    0.60
   1   7 -14    0.37    0.49
  -1  -7  14    0.09    0.48
   0   7 -14   15.85    1.36
   0  -7  14   17.26    1.38
  -1   7 -14    1.40    0.64
   1  -7  14    1.46    0.59
  -2   7 -14    1.28    0.67
   2  -7  14    0.41    0.54
  -3   7 -14    2.54    0.83
   3  -7  14    3.00    0.73
  -4   7 -14    0.45    0.71
   4  -7  14    0.19    0.57
  -5   7 -14   -0.09    0.74
   5  -7  14   -0.25    0.59
  -6   7 -14    0.01    0.88
   6  -7  14    1.81    0.72
  -7   7 -14    1.78    1.13
   7  -7  14   -0.20    0.59
   9   6 -14    0.54    0.57
  -9  -6  14    0.84    0.50
   8   6 -14    9.02    1.22
  -8  -6  14    7.55    1.36
   7   6 -14    6.26    1.00
  -6  -6  14   -0.11    0.68
  -5  -6  14   15.69    1.48
   4   6 -14    4.70    0.66
  -4  -6  14    4.31    0.90
   3   6 -14   40.21    2.01
   2   6 -14    7.07    0.86
  -2  -6  14    6.91    0.96
   1   6 -14    6.08    0.84
  -1  -6  14    4.96    0.79
   0   6 -14    0.32    0.47
   0  -6  14    0.53    0.49
  -1   6 -14    0.54    0.50
   1  -6  14    0.97    0.50
  -2   6 -14   34.22    2.06
   2  -6  14   34.64    1.92
  -3   6 -14   15.12    1.46
   3  -6  14   15.19    1.28
  -4   6 -14   25.86    1.91
   4  -6  14   26.03    1.68
  -5   6 -14   -0.64    0.62
   5  -6  14   -0.05    0.52
  -6   6 -14    9.86    1.51
   6  -6  14   11.87    1.28
  -7   6 -14    6.68    1.38
   7  -6  14    2.78    0.83
  -8   6 -14    8.73    1.65
   8  -6  14    5.51    1.01
 -10  -5  14    2.98    0.69
   9   5 -14    5.33    0.99
  -9  -5  14    4.20    0.73
   8   5 -14   -0.45    0.48
  -8  -5  14    0.19    0.42
   7   5 -14   15.75    1.43
  -7  -5  14   18.13    1.17
   6   5 -14    0.47    0.49
  -6  -5  14    0.21    0.34
  -5  -5  14    8.00    1.11
   4   5 -14   11.45    0.92
  -4  -5  14   11.92    1.28
   3   5 -14    2.48    0.53
  -3  -5  14    2.71    0.72
   2   5 -14    5.61    0.77
  -2  -5  14    4.47    0.84
   1   5 -14    7.54    0.90
  -1  -5  14    7.00    0.90
   0   5 -14    2.21    0.61
   0  -5  14    1.51    0.53
  -1   5 -14   -0.40    0.38
   1  -5  14    0.18    0.45
  -2   5 -14    6.38    0.94
   2  -5  14    7.18    0.87
  -3   5 -14    0.86    0.59
   3  -5  14    0.69    0.49
  -4   5 -14    1.09    0.67
   4  -5  14    0.84    0.52
  -5   5 -14    8.90    1.27
   5  -5  14    9.25    1.09
  -6   5 -14   -0.01    0.65
   6  -5  14    0.19    0.59
  -7   5 -14   -0.13    0.74
   7  -5  14   -0.43    0.51
  -8   5 -14   12.35    1.77
   8  -5  14    9.71    1.26
  -9   5 -14    0.19    1.02
   9  -5  14    0.78    0.71
  10   4 -14    9.11    1.26
 -10  -4  14    7.20    0.95
   9   4 -14    0.51    0.58
  -9  -4  14    0.52    0.48
   8   4 -14    8.80    1.15
  -8  -4  14    9.04    0.96
   7   4 -14    0.16    0.50
  -7  -4  14    0.49    0.40
   6   4 -14   10.98    1.24
  -6  -4  14   12.08    0.90
  -5  -4  14    7.89    0.72
  -5  -4  14    7.80    1.10
   4   4 -14   25.03    1.37
  -4  -4  14   24.98    1.71
  -4  -4  14   25.56    1.24
   3   4 -14    1.40    0.40
  -3  -4  14    1.58    0.58
   2   4 -14    0.41    0.34
  -2  -4  14    0.10    0.44
   1   4 -14   11.66    0.96
  -1  -4  14   12.98    1.06
   0   4 -14   67.13    3.04
   0  -4  14   70.90    3.05
  -1   4 -14   20.02    1.39
   1  -4  14   21.90    1.35
  -2   4 -14    5.28    0.82
   2  -4  14    5.75    0.75
  -3   4 -14    0.43    0.51
   3  -4  14    1.72    0.53
  -4   4 -14    6.33    0.97
   4  -4  14    7.16    0.90
  -5   4 -14    6.55    1.05
   5  -4  14    7.72    0.98
  -6   4 -14   10.00    1.33
   6  -4  14    8.86    1.11
  -7   4 -14   14.89    1.66
   7  -4  14   13.81    1.38
  -8   4 -14    2.72    1.01
   8  -4  14    1.97    0.74
  -9   4 -14    2.71    1.10
   9  -4  14    3.66    0.95
 -10   4 -14    4.53    1.35
  10  -4  14    2.59    0.87
 -10  -3  14    0.51    0.52
   9   3 -14    1.92    0.73
  -9  -3  14    1.81    0.58
   8   3 -14    1.85    0.69
  -8  -3  14    1.05    0.47
   7   3 -14    4.87    0.85
  -7  -3  14    5.02    0.70
   6   3 -14    0.48    0.52
  -6  -3  14    0.13    0.33
   5   3 -14   11.57    0.86
  -5  -3  14   13.05    0.86
  -5  -3  14   12.02    1.30
   4   3 -14    1.38    0.40
  -4  -3  14    0.48    0.54
  -4  -3  14    0.97    0.33
   3   3 -14   18.14    1.13
  -3  -3  14   17.14    0.91
  -3  -3  14   16.18    1.34
   2   3 -14    3.22    0.55
  -2  -3  14    3.21    0.65
   1   3 -14    5.34    0.75
  -1  -3  14    7.68    0.88
   0   3 -14   15.95    1.17
   0  -3  14   17.98    1.18
  -1   3 -14   33.54    1.90
   1  -3  14   38.78    1.85
  -2   3 -14    0.55    0.45
   2  -3  14    0.12    0.38
  -3   3 -14    4.65    0.82
   3  -3  14    3.79    0.63
  -4   3 -14   21.20    1.53
   4  -3  14   21.76    1.40
  -5   3 -14    2.08    0.68
   5  -3  14    2.51    0.63
  -6   3 -14    7.46    1.11
   6  -3  14    7.68    0.98
  -7   3 -14    1.60    0.82
   7  -3  14    2.31    0.72
  -8   3 -14    4.38    1.06
   8  -3  14    6.84    1.06
  -9   3 -14    1.49    0.97
   9  -3  14    1.43    0.73
 -10   3 -14    0.78    0.93
  10  -3  14    0.78    0.73
 -10  -2  14    1.06    0.54
  -9  -2  14    0.77    0.49
   8   2 -14    1.33    0.63
  -8  -2  14    0.92    0.47
   7   2 -14   38.11    2.16
  -7  -2  14   38.33    1.91
   6   2 -14    3.08    0.72
  -6  -2  14    4.64    0.64
   5   2 -14    8.72    1.02
   5   2 -14    8.27    0.74
  -5  -2  14    7.89    0.71
   4   2 -14    0.49    0.33
  -4  -2  14    0.34    0.50
  -4  -2  14    0.10    0.27
   3   2 -14   57.16    2.49
  -3  -2  14   55.22    2.25
  -3  -2  14   54.05    2.60
   2   2 -14    7.17    0.83
  -2  -2  14    7.19    0.86
  -2  -2  14    6.58    0.50
   1   2 -14   16.79    1.15
  -1  -2  14   15.77    1.14
   0   2 -14    3.32    0.64
   0  -2  14    2.75    0.56
  -1   2 -14    2.50    0.57
   1  -2  14    2.44    0.53
  -2   2 -14   10.11    0.99
   2  -2  14   11.16    0.89
  -3   2 -14   14.03    1.19
   3  -2  14   15.23    1.05
  -4   2 -14   48.05    2.45
   4  -2  14   49.32    2.29
  -5   2 -14   10.56    1.20
   5  -2  14   10.83    0.97
  -6   2 -14    1.76    0.67
   6  -2  14    1.47    0.56
  -7   2 -14   17.65    1.54
   7  -2  14   16.50    1.33
  -8   2 -14    0.86    0.75
   8  -2  14    1.00    0.66
  -9   2 -14   12.64    1.54
   9  -2  14   13.94    1.47
 -10   2 -14    1.51    0.94
  10  -2  14    0.28    0.65
  11  -2  14   19.18    1.76
  -9  -1  14    0.02    0.47
  -8  -1  14    7.76    0.91
   7   1 -14    8.91    1.12
  -7  -1  14   10.55    1.01
   6   1 -14    0.48    0.49
  -6  -1  14    0.96    0.39
   5   1 -14    2.55    0.63
  -5  -1  14    3.79    0.56
  -5  -1  14    2.93    0.69
  -4  -1  14    4.69    0.80
  -4  -1  14    2.50    0.44
  -4  -1  14    3.72    0.77
  -3  -1  14    0.79    0.31
  -3  -1  14    1.40    0.55
  -3  -1  14    0.61    0.53
   2   1 -14    0.67    0.22
   2   1 -14    0.88    0.43
  -2  -1  14    1.18    0.47
   1   1 -14    7.99    0.50
   1   1 -14    9.09    0.89
  -1  -1  14    8.18    0.80
   0   1 -14    2.30    0.58
   0   1 -14    3.50    0.31
   0  -1  14    4.03    0.61
  -1   1 -14   19.29    1.35
   1  -1  14   18.33    1.16
  -2   1 -14    3.98    0.71
   2  -1  14    4.05    0.58
  -3   1 -14    5.37    0.85
   3  -1  14    7.04    0.76
  -4   1 -14   38.30    2.06
   4  -1  14   37.30    1.84
  -5   1 -14   21.90    1.54
   5  -1  14   21.98    1.34
  -6   1 -14    4.07    0.84
   6  -1  14    4.68    0.75
  -7   1 -14    7.31    1.10
   7  -1  14    8.79    1.01
  -8   1 -14    0.87    0.66
   8  -1  14    0.26    0.53
  -9   1 -14    0.73    0.70
   9  -1  14    0.58    0.62
 -10   1 -14    1.77    0.83
  10  -1  14    0.63    0.67
  11  -1  14    2.67    0.93
  12  -1  14   -0.06    0.71
  -9   0  14    1.30    0.56
  -8   0  14    1.41    0.55
  -7   0  14    2.49    0.59
   6   0 -14    0.73    0.49
  -6   0  14    0.34    0.40
   5   0 -14    5.12    0.80
  -5   0  14    4.25    0.61
  -5   0  14    4.43    0.81
   4   0 -14    7.60    0.93
  -4   0  14    9.33    1.10
  -4   0  14    8.52    0.73
  -3   0  14   60.90    2.75
  -3   0  14   59.25    2.88
   2   0 -14    8.70    0.60
  -2   0  14    9.78    0.95
  -2   0  14   10.09    1.15
   1   0 -14   24.32    1.11
  -1   0  14   26.33    1.76
  -1   0  14   26.08    1.42
   0   0 -14    8.81    0.53
   0   0  14    9.56    1.26
   0   0  14   10.30    0.86
  -1   0 -14   36.52    1.44
  -1   0 -14   37.02    2.00
   1   0  14   34.54    1.73
  -2   0 -14   12.04    1.11
   2   0  14   12.10    0.90
  -3   0 -14    3.66    0.70
   3   0  14    4.94    0.64
  -4   0 -14   46.18    2.36
   4   0  14   47.37    2.12
  -5   0 -14    2.04    0.61
   5   0  14    1.67    0.48
  -6   0 -14   49.24    2.56
   6   0  14   52.85    2.39
  -7   0 -14    2.54    0.71
   7   0  14    2.28    0.60
  -8   0 -14   43.96    2.45
   8   0  14   43.10    2.33
  -9   0 -14    8.63    1.18
   9   0  14    8.00    1.12
 -10   0 -14   17.48    1.56
  10   0  14   14.03    1.52
  11   0  14    1.52    0.81
  12   0  14    1.42    0.88
   9  -1 -14    0.63    0.48
  -8   1  14    1.41    0.56
  -7   1  14    4.52    0.71
  -6   1  14    0.28    0.78
  -6   1  14    0.35    0.39
  -5   1  14    3.23    0.81
  -5   1  14    2.98    0.55
   4  -1 -14    7.14    0.86
   4  -1 -14    7.56    0.74
  -4   1  14    6.29    0.99
   3  -1 -14    3.50    0.48
  -3   1  14    4.94    0.75
  -3   1  14    4.68    0.89
   2  -1 -14   14.92    0.84
  -2   1  14   15.17    1.36
  -2   1  14   16.79    1.13
   1  -1 -14   19.44    0.96
  -1   1  14   20.88    1.20
  -1   1  14   20.61    1.60
   0  -1 -14    0.57    0.20
   0   1  14    1.12    0.40
   0   1  14    1.87    0.75
  -1  -1 -14    3.36    0.37
   1   1  14    2.54    0.83
   1   1  14    3.89    0.54
  -2  -1 -14    3.71    0.37
   2   1  14    3.04    0.91
   2   1  14    2.44    0.47
  -3  -1 -14   14.04    0.78
  -3  -1 -14   16.12    1.25
   3   1  14   14.07    0.95
  -4  -1 -14   18.08    1.37
   4   1  14   18.93    1.10
  -5  -1 -14   -0.05    0.40
   5   1  14    0.06    0.31
  -6  -1 -14    6.49    0.93
   6   1  14    6.65    0.76
  -7  -1 -14    7.31    1.00
   7   1  14    7.08    0.88
  -8  -1 -14   16.87    1.39
   8   1  14   13.84    1.27
  -9  -1 -14    1.80    0.66
   9   1  14    0.47    0.55
 -10  -1 -14    1.14    0.66
  10   1  14    1.23    0.71
  11   1  14    9.82    1.31
  12   1  14    2.12    0.91
  13   1  14    3.05    1.14
   8  -2 -14   10.77    1.14
   7  -2 -14    1.21    0.52
   6  -2 -14   23.67    1.47
  -6   2  14   27.20    1.90
   5  -2 -14    0.51    0.38
  -5   2  14    0.61    0.66
   4  -2 -14   -0.16    0.26
  -4   2  14    0.00    0.60
   3  -2 -14    0.84    0.32
  -3   2  14    1.07    0.65
   2  -2 -14   11.81    0.74
  -2   2  14   12.12    1.42
  -2   2  14   12.47    0.98
   1  -2 -14   25.98    1.24
  -1   2  14   28.18    1.44
  -1   2  14   29.75    1.99
   0  -2 -14    1.18    0.28
   0   2  14    2.50    0.87
   0   2  14    1.34    0.40
  -1  -2 -14   98.74    3.78
   1   2  14   99.75    4.71
   1   2  14  106.01    3.94
  -2  -2 -14   65.68    2.49
   2   2  14   59.93    3.36
   2   2  14   63.99    2.61
  -3  -2 -14   38.91    1.70
   3   2  14   42.34    1.85
   3   2  14   43.23    2.65
  -4  -2 -14    0.25    0.29
  -4  -2 -14    0.21    0.40
   4   2  14    0.69    0.35
  -5  -2 -14    1.06    0.37
  -5  -2 -14    2.34    0.61
   5   2  14    0.92    0.36
  -6  -2 -14    5.01    0.82
   6   2  14    5.27    0.69
  -7  -2 -14    6.70    0.97
   7   2  14    7.90    0.90
  -8  -2 -14   19.73    1.47
   8   2  14   23.34    1.45
  -9  -2 -14   15.78    1.30
   9   2  14   13.06    1.26
 -10  -2 -14    5.62    0.88
  10   2  14    3.67    0.83
  11   2  14    1.78    0.81
  12   2  14    9.74    1.36
  13   2  14   10.05    1.44
   8  -3 -14    2.42    0.66
   7  -3 -14    0.87    0.51
   6  -3 -14    1.61    0.53
  -6   3  14    2.86    0.92
   5  -3 -14    2.29    0.55
  -5   3  14    2.38    0.88
   4  -3 -14    6.00    0.69
  -4   3  14    4.51    1.01
   3  -3 -14   17.50    1.04
  -3   3  14   18.85    1.64
   2  -3 -14    6.31    0.62
  -2   3  14    5.04    1.03
   1  -3 -14    2.72    0.40
  -1   3  14    2.33    0.49
  -1   3  14    3.41    0.88
   0  -3 -14   12.14    0.76
   0   3  14   12.20    1.50
   0   3  14   16.00    0.93
  -1  -3 -14    1.07    0.28
   1   3  14    0.94    0.33
   1   3  14    0.93    0.73
  -2  -3 -14   -0.05    0.22
   2   3  14   -0.30    0.63
   2   3  14    0.25    0.30
  -3  -3 -14    0.59    0.30
   3   3  14    0.47    0.33
   3   3  14    1.12    0.75
  -4  -3 -14   14.41    0.87
   4   3  14   11.89    1.50
   4   3  14   13.88    0.90
  -5  -3 -14   23.40    1.27
   5   3  14   25.31    2.01
   5   3  14   27.16    1.34
  -6  -3 -14   22.32    1.24
  -6  -3 -14   20.13    1.44
   6   3  14   23.52    1.29
  -7  -3 -14    2.49    0.53
  -7  -3 -14    2.38    0.61
   7   3  14    2.32    0.54
  -8  -3 -14   18.95    1.39
   8   3  14   20.18    1.33
  -9  -3 -14   22.79    1.54
   9   3  14   21.32    1.47
 -10  -3 -14    0.85    0.54
  10   3  14    0.69    0.57
  11   3  14    0.81    0.69
  12   3  14    0.55    0.71
  13   3  14    0.90    0.80
   7  -4 -14    3.80    0.74
   6  -4 -14    8.08    0.93
  -6   4  14    8.83    1.37
   5  -4 -14   24.80    1.44
  -5   4  14   25.78    1.98
   4  -4 -14    6.67    0.76
  -4   4  14    5.27    1.06
   3  -4 -14    1.87    0.43
  -3   4  14    1.69    0.79
   2  -4 -14    0.00    0.27
  -2   4  14    1.16    0.72
   1  -4 -14    9.25    0.68
  -1   4  14    9.17    1.28
   0  -4 -14    0.52    0.26
   0   4  14    0.44    0.64
  -1  -4 -14   16.37    0.93
   1   4  14   17.67    0.95
   1   4  14   17.87    1.66
  -2  -4 -14    7.58    0.61
   2   4  14    7.24    1.24
   2   4  14    6.70    0.60
  -3  -4 -14   24.19    1.26
   3   4  14   27.68    1.30
   3   4  14   25.59    2.09
  -4  -4 -14   29.58    1.47
   4   4  14   31.14    1.46
   4   4  14   33.48    2.34
  -5  -4 -14   67.07    2.86
   5   4  14   69.07    3.51
   5   4  14   72.09    2.83
  -6  -4 -14   49.48    2.24
   6   4  14   51.04    2.85
   6   4  14   53.43    2.26
  -7  -4 -14    0.76    0.44
  -7  -4 -14    0.91    0.45
   7   4  14    0.68    0.41
  -8  -4 -14    9.08    1.03
  -8  -4 -14    7.91    0.90
   8   4  14    9.14    0.97
  -9  -4 -14    4.17    0.73
   9   4  14    3.59    0.72
  10   4  14    3.65    0.78
  11   4  14   22.25    1.61
  12   4  14    0.00    0.58
  13   4  14   12.06    1.43
   7  -5 -14    1.04    0.53
   6  -5 -14    7.48    0.91
  -6   5  14    6.63    1.21
   5  -5 -14    1.93    0.53
  -5   5  14    1.56    0.86
   4  -5 -14    0.31    0.35
  -4   5  14    0.08    0.72
   3  -5 -14    3.69    0.57
  -3   5  14    4.32    1.01
   2  -5 -14    1.86    0.42
  -2   5  14    1.80    0.82
   1  -5 -14   -0.36    0.22
  -1   5  14   -0.62    0.57
   0  -5 -14    0.48    0.28
   0   5  14    0.32    0.62
  -1  -5 -14   23.77    1.21
   1   5  14   24.30    1.88
  -2  -5 -14   28.27    1.42
   2   5  14   33.23    2.19
  -3  -5 -14    1.04    0.35
   3   5  14   -0.49    0.57
   3   5  14    0.79    0.30
  -4  -5 -14    0.89    0.37
   4   5  14    0.83    0.34
   4   5  14    0.48    0.66
  -5  -5 -14    6.63    0.74
   5   5  14    5.65    0.60
   5   5  14    6.28    1.16
  -6  -5 -14    6.30    0.74
   6   5  14    4.91    0.98
   6   5  14    4.29    0.59
  -7  -5 -14    1.55    0.48
   7   5  14    2.35    0.51
   7   5  14    2.33    0.78
  -8  -5 -14    6.56    0.83
  -8  -5 -14    7.82    0.90
   8   5  14    8.40    0.83
  -9  -5 -14    0.00    0.43
  -9  -5 -14    0.27    0.41
   9   5  14    0.24    0.43
 -10  -5 -14    0.56    0.46
  10   5  14    0.23    0.51
  11   5  14    1.73    0.67
  12   5  14    0.06    0.63
  13   5  14    0.46    0.72
  14   5  14   -0.75    0.65
   6  -6 -14    1.20    0.54
  -6   6  14    0.56    0.82
   5  -6 -14    0.73    0.46
  -5   6  14    0.18    0.78
   4  -6 -14   10.68    0.96
  -4   6  14   10.87    1.45
   3  -6 -14   12.11    0.92
  -3   6  14   10.84    1.48
   2  -6 -14   18.92    1.15
  -2   6  14   21.88    1.78
   1  -6 -14   24.31    1.32
  -1   6  14   26.55    1.94
   0  -6 -14    0.50    0.34
   0   6  14    0.61    0.70
  -1  -6 -14    2.40    0.45
   1   6  14    2.39    0.87
  -2  -6 -14    0.49    0.33
   2   6  14    0.66    0.66
  -3  -6 -14   23.20    1.28
   3   6  14   22.85    1.83
  -4  -6 -14   21.18    1.23
   4   6  14   21.43    1.21
   4   6  14   20.30    1.76
  -5  -6 -14    2.99    0.57
   5   6  14    2.57    0.43
   5   6  14    2.31    0.83
  -6  -6 -14   66.88    2.94
   6   6  14   68.33    3.36
   6   6  14   69.79    2.80
  -7  -6 -14    7.67    0.87
   7   6  14    9.92    1.21
   7   6  14    9.09    0.79
  -8  -6 -14   93.24    3.95
   8   6  14  100.01    3.90
  -9  -6 -14    0.23    0.46
  -9  -6 -14    0.41    0.38
   9   6  14    0.56    0.46
 -10  -6 -14   17.69    1.39
  10   6  14   23.64    1.48
 -11  -6 -14    1.32    0.60
  11   6  14    2.15    0.70
  12   6  14    1.00    0.67
  13   6  14    1.60    0.80
  14   6  14    4.33    0.96
   5  -7 -14    0.38    0.47
  -5   7  14    0.23    0.79
   4  -7 -14   -0.08    0.41
  -4   7  14    0.46    0.76
   3  -7 -14    0.97    0.45
  -3   7  14    0.71    0.84
   2  -7 -14    1.51    0.45
  -2   7  14    1.92    0.88
   1  -7 -14    1.43    0.46
  -1   7  14    1.20    0.79
   0  -7 -14    5.48    0.68
   0   7  14    4.75    1.09
  -1  -7 -14    0.55    0.35
   1   7  14    0.37    0.58
  -2  -7 -14    1.84    0.45
   2   7  14    0.83    0.66
  -3  -7 -14    0.91    0.41
   3   7  14    0.84    0.70
  -4  -7 -14    8.50    0.86
   4   7  14    6.39    1.15
  -5  -7 -14    5.73    0.80
   5   7  14    6.20    1.13
  -6  -7 -14    0.44    0.50
   6   7  14   -0.06    0.59
   6   7  14    0.88    0.36
  -7  -7 -14   -0.74    0.40
   7   7  14    0.25    0.60
   7   7  14    0.03    0.34
  -8  -7 -14    1.25    0.55
   8   7  14    2.09    0.69
   8   7  14    2.24    0.52
  -9  -7 -14    1.07    0.42
  -9  -7 -14    0.40    0.50
   9   7  14    0.97    0.51
 -10  -7 -14    2.52    0.68
  10   7  14    2.73    0.66
 -11  -7 -14    2.14    0.66
  11   7  14    3.58    0.76
 -12  -7 -14   -0.04    0.51
  12   7  14    0.64    0.62
  13   7  14    1.52    0.69
  14   7  14    7.07    1.12
   5  -8 -14    0.14    0.44
  -5   8  14   -0.54    0.72
   4  -8 -14    9.00    0.98
  -4   8  14    8.69    1.48
   3  -8 -14    0.34    0.42
  -3   8  14    0.59    0.84
   2  -8 -14    0.75    0.45
  -2   8  14    0.24    0.77
   1  -8 -14    9.27    0.85
  -1   8  14    7.51    1.34
   0  -8 -14   28.07    1.51
   0   8  14   26.82    2.04
  -1  -8 -14   54.40    2.35
   1   8  14   46.87    2.78
  -2  -8 -14    0.09    0.35
   2   8  14    0.11    0.60
  -3  -8 -14   20.23    1.27
   3   8  14   19.25    1.73
  -4  -8 -14    5.46    0.73
   4   8  14    4.80    1.05
  -5  -8 -14    8.41    0.98
   5   8  14    6.11    1.08
  -6  -8 -14    0.29    0.51
   6   8  14    0.65    0.61
  -7  -8 -14   25.06    1.58
   7   8  14   25.32    1.80
  -8  -8 -14    8.03    0.98
   8   8  14    9.19    1.15
   8   8  14    9.02    0.85
  -9  -8 -14    3.41    0.74
   9   8  14    3.90    0.66
   9   8  14    2.93    0.81
 -10  -8 -14   27.70    1.81
  10   8  14   36.09    1.87
 -11  -8 -14   15.57    1.39
  11   8  14   21.70    1.46
 -12  -8 -14    5.50    0.92
  12   8  14    6.73    0.98
 -13  -8 -14    0.64    0.58
  13   8  14    0.10    0.57
   4  -9 -14    0.10    0.47
  -4   9  14    1.64    0.97
   3  -9 -14    1.59    0.54
  -3   9  14    1.51    0.93
   2  -9 -14    4.39    0.72
  -2   9  14    3.25    1.05
   1  -9 -14    0.96    0.49
  -1   9  14    1.24    0.88
   0  -9 -14    0.13    0.38
   0   9  14   -0.08    0.72
  -1  -9 -14    0.52    0.44
   1   9  14    0.68    0.71
  -2  -9 -14    2.04    0.57
   2   9  14    0.91    0.74
  -3  -9 -14    2.13    0.60
   3   9  14    1.75    0.78
  -4  -9 -14    0.13    0.45
   4   9  14    0.43    0.63
  -5  -9 -14    2.51    0.68
   5   9  14    2.74    0.86
  -6  -9 -14    2.01    0.70
   6   9  14    2.18    0.80
  -7  -9 -14   22.98    1.58
   7   9  14   24.05    1.79
  -8  -9 -14   10.03    1.13
   8   9  14    9.87    1.23
  -9  -9 -14    0.41    0.54
 -10  -9 -14   15.69    1.39
  10   9  14   22.34    1.41
 -11  -9 -14   12.23    1.28
  11   9  14   13.97    1.23
 -12  -9 -14    0.02    0.57
  12   9  14   -0.25    0.54
 -13  -9 -14    0.48    0.61
  13   9  14    0.98    0.67
   3 -10 -14    0.60    0.54
  -3  10  14    0.91    0.98
   2 -10 -14    4.39    0.77
  -2  10  14    2.09    1.05
   1 -10 -14   -0.01    0.44
  -1  10  14    0.68    0.82
   0 -10 -14    2.95    0.67
   0  10  14    3.44    1.07
  -1 -10 -14    2.09    0.58
   1  10  14    3.78    1.00
  -2 -10 -14    2.87    0.63
   2  10  14    1.67    0.84
  -3 -10 -14   24.47    1.54
   3  10  14   23.99    1.95
  -4 -10 -14   16.80    1.33
   4  10  14   14.16    1.63
  -5 -10 -14   16.82    1.38
   5  10  14   19.02    1.72
  -6 -10 -14    1.02    0.67
   6  10  14    1.27    0.74
  -7 -10 -14    4.51    0.92
   7  10  14    4.28    0.98
  -8 -10 -14    1.45    0.67
   8  10  14    1.73    0.70
  -9 -10 -14    2.71    0.79
 -10 -10 -14   -0.08    0.53
 -11 -10 -14   14.02    1.39
 -12 -10 -14    7.41    1.09
  12  10  14   11.82    1.22
 -13 -10 -14    9.31    1.20
  13  10  14   12.73    1.28
   1 -11 -14    1.12    0.58
  -1  11  14    0.35    0.86
   0 -11 -14    0.43    0.52
   0  11  14   -0.52    0.73
  -1 -11 -14    3.40    0.70
   1  11  14    3.97    1.11
  -2 -11 -14    0.64    0.54
   2  11  14    0.11    0.76
  -3 -11 -14   15.12    1.27
   3  11  14   13.10    1.63
  -4 -11 -14   23.23    1.56
   4  11  14   20.01    1.80
  -5 -11 -14   -0.05    0.60
   5  11  14    0.54    0.74
  -6 -11 -14    5.79    1.04
   6  11  14    6.16    1.11
  -7 -11 -14    1.28    0.75
   7  11  14    2.21    0.84
  -8 -11 -14    6.31    1.05
   8  11  14    4.75    0.97
  -9 -11 -14    2.53    0.84
 -10 -11 -14    1.20    0.73
 -11 -11 -14    0.02    0.60
 -12 -11 -14    3.36    0.86
 -13 -11 -14    1.01    0.66
   0 -12 -14    4.21    0.81
   0  12  14    2.86    1.16
  -1 -12 -14    2.43    0.74
   1  12  14    2.26    1.04
  -2 -12 -14    1.90    0.68
   2  12  14    1.31    0.91
  -3 -12 -14    0.04    0.57
   3  12  14    0.64    0.81
  -4 -12 -14    3.92    0.90
   4  12  14    4.00    1.07
  -5 -12 -14    9.52    1.23
   5  12  14    9.22    1.35
  -6 -12 -14   11.00    1.38
   6  12  14    8.60    1.36
  -7 -12 -14    0.29    0.72
   7  12  14    0.41    0.67
  -8 -12 -14   18.42    1.66
   8  12  14   18.15    2.15
  -9 -12 -14   -0.89    0.56
 -10 -12 -14   10.52    1.34
 -11 -12 -14    0.68    0.69
 -12 -12 -14   10.34    1.29
  -2 -13 -14    1.22    0.67
   2  13  14    1.00    0.95
  -3 -13 -14   -0.36    0.59
   3  13  14    0.51    0.81
  -4 -13 -14    2.07    0.80
   4  13  14   -0.68    0.78
   5  13  14    6.49    1.23
  -6 -13 -14    2.16    0.89
   6  13  14   -0.29    0.71
  -7 -13 -14    1.67    0.85
   7  13  14    1.15    0.79
  -8 -13 -14    7.87    1.21
  -9 -13 -14   -0.45    0.73
 -10 -13 -14    2.12    0.87
 -11 -13 -14    0.77    0.72
  -4 -14 -14    0.63    0.80
  -5 -14 -14   11.42    1.44
   5  14  14    7.77    1.35
  -6 -14 -14    1.45    0.92
   6  14  14   -0.40    0.65
  -7 -14 -14   12.21    1.47
   7  14  14    9.75    1.38
  -8 -14 -14    1.69    0.91
  -9 -14 -14   11.94    1.46
  -3 -11  15    9.33    1.34
   2  11 -15    1.71    0.80
  -2 -11  15    1.27    0.80
  -1 -11  15   17.82    1.69
  -6 -10  15    0.46    0.84
  -5 -10  15   -0.17    0.66
  -4 -10  15    0.47    0.67
   3  10 -15    0.35    0.60
  -3 -10  15   -0.41    0.60
   2  10 -15    1.24    0.74
  -2 -10  15    1.23    0.74
   1  10 -15    0.81    0.68
  -1 -10  15    2.03    0.79
   0  10 -15    7.77    1.32
   0 -10  15    7.64    1.17
  -1  10 -15    2.10    0.95
   1 -10  15    2.18    0.79
  -2  10 -15   -0.23    0.75
   2 -10  15    0.45    0.66
   7   9 -15    1.33    0.77
  -6  -9  15    6.70    1.27
  -5  -9  15    4.39    1.03
  -4  -9  15    7.69    1.26
   3   9 -15    7.71    1.06
  -3  -9  15    8.36    1.23
   2   9 -15    1.87    0.72
  -2  -9  15    1.31    0.73
   1   9 -15    6.08    1.03
  -1  -9  15    4.53    0.94
   0   9 -15    1.57    0.73
   0  -9  15    2.06    0.76
  -1   9 -15   10.64    1.44
   1  -9  15   11.76    1.34
  -2   9 -15    9.45    1.41
   2  -9  15    8.55    1.18
  -3   9 -15   14.56    1.80
   3  -9  15   20.54    1.63
  -4   9 -15    2.62    1.04
   4  -9  15    0.03    0.60
   8   8 -15    6.93    1.16
   7   8 -15    0.90    0.68
  -6  -8  15    0.60    0.77
  -5  -8  15    2.92    0.93
  -4  -8  15    6.89    1.12
   3   8 -15    5.44    0.84
  -3  -8  15    3.08    0.87
   2   8 -15    8.23    1.09
  -2  -8  15    6.57    1.08
   1   8 -15    5.18    0.94
  -1  -8  15    4.03    0.89
   0   8 -15    2.95    0.82
   0  -8  15    2.69    0.76
  -1   8 -15   12.68    1.46
   1  -8  15   14.04    1.30
  -2   8 -15   -0.56    0.62
   2  -8  15   -0.30    0.54
  -3   8 -15    1.84    0.83
   3  -8  15    0.29    0.60
  -4   8 -15    0.94    0.84
   4  -8  15    0.02    0.61
  -5   8 -15    0.19    0.86
   5  -8  15    0.23    0.62
   8   7 -15    3.39    0.85
   7   7 -15    1.47    0.72
  -6  -7  15    5.53    1.14
  -5  -7  15    5.38    1.05
   4   7 -15   16.48    1.19
  -4  -7  15   15.08    1.57
   3   7 -15    0.69    0.44
  -3  -7  15    1.55    0.68
   2   7 -15    4.18    0.78
  -2  -7  15    5.05    0.92
   1   7 -15   12.95    1.21
  -1  -7  15   11.42    1.29
   0   7 -15   32.74    2.01
   0  -7  15   34.46    1.98
  -1   7 -15    1.44    0.69
   1  -7  15    1.86    0.67
  -2   7 -15    6.29    1.08
   2  -7  15    5.32    0.89
  -3   7 -15    1.53    0.74
   3  -7  15    0.85    0.61
  -4   7 -15    7.84    1.27
   4  -7  15    9.79    1.16
  -5   7 -15    1.06    0.88
   5  -7  15    0.47    0.64
  -6   7 -15   27.84    2.41
   6  -7  15   26.95    1.93
  -7   7 -15    2.00    1.16
   7  -7  15    1.10    0.69
   9   6 -15    0.19    0.59
   8   6 -15    0.42    0.61
   7   6 -15    0.17    0.61
  -6  -6  15   16.14    1.62
  -5  -6  15    2.30    0.80
   4   6 -15    2.28    0.55
  -4  -6  15    3.14    0.88
   3   6 -15    0.06    0.36
  -3  -6  15   -0.32    0.52
   2   6 -15    0.64    0.45
  -2  -6  15    0.48    0.58
   1   6 -15    1.44    0.53
  -1  -6  15    1.12    0.55
   0   6 -15   18.79    1.46
   0  -6  15   22.03    1.50
  -1   6 -15    0.75    0.61
   1  -6  15    1.02    0.59
  -2   6 -15    2.99    0.76
   2  -6  15    1.74    0.63
  -3   6 -15    8.37    1.21
   3  -6  15    9.54    1.09
  -4   6 -15    0.94    0.74
   4  -6  15   -0.35    0.51
  -5   6 -15    2.82    0.93
   5  -6  15    3.11    0.80
  -6   6 -15    1.20    0.84
   6  -6  15    1.59    0.70
  -7   6 -15    0.11    0.92
   7  -6  15    0.23    0.61
  -8   6 -15   -0.16    1.01
   8  -6  15   -0.30    0.65
   9   5 -15    0.64    0.62
  -9  -5  15   -0.28    0.42
   8   5 -15   16.40    1.46
  -8  -5  15   11.55    1.39
   7   5 -15   19.85    1.61
   6   5 -15    4.94    0.95
  -5  -5  15    0.73    0.68
   4   5 -15    0.39    0.35
  -4  -5  15    0.04    0.55
   3   5 -15   22.75    1.40
  -3  -5  15   25.28    1.69
   2   5 -15    0.65    0.45
  -2  -5  15    1.31    0.58
   1   5 -15   38.86    2.06
  -1  -5  15   40.24    2.12
   0   5 -15    1.05    0.49
   0  -5  15    0.67    0.54
  -1   5 -15   20.27    1.49
   1  -5  15   19.92    1.40
  -2   5 -15    0.57    0.54
   2  -5  15    1.08    0.53
  -3   5 -15   44.98    2.53
   3  -5  15   49.94    2.39
  -4   5 -15    9.71    1.30
   4  -5  15   10.28    1.11
  -5   5 -15    2.14    0.82
   5  -5  15    2.01    0.70
  -6   5 -15    1.67    0.85
   6  -5  15    1.08    0.67
  -7   5 -15    1.43    0.95
   7  -5  15    1.32    0.75
  -8   5 -15    8.05    1.49
   8  -5  15    7.44    1.16
  -9   5 -15    1.29    1.09
   9  -5  15    0.04    0.65
   9   4 -15    1.11    0.63
  -9  -4  15    0.26    0.48
  -8  -4  15    0.20    0.43
   7   4 -15    3.98    0.85
  -7  -4  15    4.70    0.70
   6   4 -15    1.50    0.63
  -6  -4  15    0.52    0.39
  -5  -4  15    0.68    0.69
   4   4 -15    6.98    0.71
  -4  -4  15    6.56    1.00
   3   4 -15    0.86    0.39
  -3  -4  15    0.93    0.61
   2   4 -15   13.85    1.07
  -2  -4  15   14.23    1.21
   1   4 -15    1.22    0.47
  -1  -4  15    0.89    0.51
   0   4 -15    1.63    0.51
   0  -4  15    2.74    0.64
  -1   4 -15    2.99    0.68
   1  -4  15    0.95    0.51
  -2   4 -15    1.44    0.58
   2  -4  15    1.85    0.57
  -3   4 -15   24.70    1.67
   3  -4  15   25.91    1.56
  -4   4 -15    1.76    0.69
   4  -4  15    2.72    0.67
  -5   4 -15    1.40    0.73
   5  -4  15    1.23    0.58
  -6   4 -15   27.48    2.08
   6  -4  15   29.68    1.86
  -7   4 -15   -0.47    0.66
   7  -4  15    0.35    0.61
  -8   4 -15    2.53    1.03
   8  -4  15    2.76    0.81
  -9   4 -15    2.37    1.14
   9  -4  15    2.52    0.85
   9   3 -15    1.97    0.72
  -9  -3  15    1.05    0.54
   8   3 -15    0.46    0.53
  -8  -3  15   -0.19    0.39
   7   3 -15    0.29    0.51
  -7  -3  15    0.70    0.45
   6   3 -15   10.46    1.19
  -6  -3  15   11.26    0.89
  -5  -3  15    5.46    0.64
  -5  -3  15    5.62    0.98
   4   3 -15   67.23    2.92
  -4  -3  15   70.16    3.19
  -4  -3  15   68.40    2.76
   3   3 -15   19.14    1.20
  -3  -3  15   16.72    1.37
   2   3 -15    4.10    0.64
  -2  -3  15    4.41    0.76
   1   3 -15   -0.15    0.34
  -1  -3  15    0.82    0.49
   0   3 -15    1.23    0.53
   0  -3  15    2.25    0.60
  -1   3 -15   37.53    2.02
   1  -3  15   36.11    1.92
  -2   3 -15    2.57    0.66
   2  -3  15    2.45    0.59
  -3   3 -15   20.80    1.50
   3  -3  15   20.51    1.33
  -4   3 -15    3.69    0.79
   4  -3  15    3.30    0.66
  -5   3 -15   34.19    2.14
   5  -3  15   31.95    1.85
  -6   3 -15    2.66    0.85
   6  -3  15    2.82    0.72
  -7   3 -15   13.37    1.55
   7  -3  15    9.45    1.17
  -8   3 -15    7.95    1.35
   8  -3  15    8.93    1.19
  -9   3 -15    3.10    1.08
   9  -3  15    1.46    0.82
 -10   3 -15    2.81    1.14
  10  -3  15    0.65    0.77
  -9  -2  15    1.26    0.55
   8   2 -15    0.12    0.53
  -8  -2  15    0.26    0.43
   7   2 -15    0.54    0.51
  -7  -2  15    1.12    0.48
   6   2 -15    0.38    0.48
  -6  -2  15    0.40    0.37
   5   2 -15    0.50    0.33
   5   2 -15    0.92    0.50
  -5  -2  15    0.24    0.34
   4   2 -15    7.29    0.82
  -4  -2  15    6.64    0.62
  -4  -2  15    9.11    1.06
   3   2 -15    2.23    0.50
  -3  -2  15    1.44    0.59
  -3  -2  15    1.41    0.34
   2   2 -15    0.61    0.40
  -2  -2  15    0.61    0.48
   1   2 -15   55.88    2.59
  -1  -2  15   53.99    2.51
   0   2 -15    1.39    0.52
   0  -2  15    1.94    0.55
  -1   2 -15    2.75    0.64
   1  -2  15    2.88    0.60
  -2   2 -15   18.81    1.41
   2  -2  15   21.70    1.32
  -3   2 -15   20.22    1.48
   3  -2  15   21.53    1.31
  -4   2 -15    1.24    0.56
   4  -2  15    0.01    0.39
  -5   2 -15   -0.08    0.50
   5  -2  15   -0.24    0.41
  -6   2 -15    6.89    1.11
   6  -2  15    7.82    1.00
  -7   2 -15    5.97    1.07
   7  -2  15    5.97    0.95
  -8   2 -15    0.71    0.71
   8  -2  15   -0.11    0.56
  -9   2 -15    2.97    1.00
   9  -2  15    2.41    0.82
 -10   2 -15    5.78    1.25
  10  -2  15    6.79    1.20
  11  -2  15   -0.64    0.65
  -9  -1  15    1.46    0.58
  -8  -1  15    0.05    0.45
  -7  -1  15    2.76    0.61
   6   1 -15    3.89    0.77
  -6  -1  15    3.55    0.64
   5   1 -15    4.33    0.76
   5   1 -15    4.71    0.66
  -5  -1  15    3.72    0.58
   4   1 -15    3.19    0.59
  -4  -1  15    3.49    0.78
  -4  -1  15    3.46    0.51
   3   1 -15    0.52    0.38
  -3  -1  15    0.52    0.50
   2   1 -15  104.40    4.23
   2   1 -15   98.45    3.80
  -2  -1  15  104.86    4.22
   1   1 -15    5.76    0.42
   1   1 -15    5.23    0.80
  -1  -1  15    5.39    0.74
   0   1 -15   69.64    3.19
   0  -1  15   70.15    3.01
  -1   1 -15    6.47    0.92
   1  -1  15    7.15    0.81
  -2   1 -15   27.08    1.68
   2  -1  15   24.01    1.41
  -3   1 -15    0.24    0.45
   3  -1  15    1.74    0.45
  -4   1 -15    6.16    0.93
   4  -1  15    5.61    0.72
  -5   1 -15    0.54    0.53
   5  -1  15    0.09    0.37
  -6   1 -15   11.78    1.31
   6  -1  15   13.96    1.17
  -7   1 -15    7.81    1.12
   7  -1  15    6.20    0.92
  -8   1 -15   45.13    2.60
   8  -1  15   43.57    2.37
  -9   1 -15    4.63    1.02
   9  -1  15    2.74    0.81
 -10   1 -15    2.23    0.96
  10  -1  15    4.01    0.98
  11  -1  15    0.10    0.72
  -9   0  15    1.46    0.58
  -8   0  15    0.32    0.50
  -7   0  15    0.87    0.49
  -6   0  15    1.25    0.48
   5   0 -15    1.67    0.57
  -5   0  15    2.06    0.64
  -5   0  15    2.18    0.50
   4   0 -15   20.80    1.42
   4   0 -15   22.51    1.17
  -4   0  15   22.31    1.52
   3   0 -15    0.56    0.28
  -3   0  15    0.65    0.52
  -3   0  15    0.11    0.48
   2   0 -15    0.55    0.24
  -2   0  15   -0.26    0.41
  -2   0  15    0.57    0.59
   1   0 -15   15.95    0.83
  -1   0  15   18.24    1.57
  -1   0  15   17.93    1.15
   0   0 -15    4.08    0.40
   0   0  15    4.67    0.65
  -1   0 -15    3.09    0.69
   1   0  15    2.24    0.51
  -2   0 -15    0.15    0.44
   2   0  15    0.03    0.33
  -3   0 -15   40.60    2.24
   3   0  15   42.07    1.95
  -4   0 -15   16.14    1.35
   4   0  15   17.08    1.11
  -5   0 -15    0.01    0.45
   5   0  15    0.06    0.35
  -6   0 -15    3.59    0.80
   6   0  15    3.87    0.67
  -7   0 -15   10.22    1.24
   7   0  15    9.20    1.02
  -8   0 -15    1.12    0.69
   8   0  15    0.75    0.58
  -9   0 -15    6.79    1.11
   9   0  15    4.90    0.94
 -10   0 -15    1.05    0.74
  10   0  15    0.94    0.70
  11   0  15   -0.28    0.70
  12   0  15   -0.04    0.73
   8  -1 -15    4.90    0.78
   7  -1 -15    6.66    0.86
   6  -1 -15    3.90    0.66
   5  -1 -15   11.17    0.87
  -5   1  15   10.39    1.26
   4  -1 -15    0.50    0.34
  -4   1  15    1.22    0.66
   3  -1 -15    1.15    0.33
  -3   1  15    0.14    0.49
  -3   1  15    0.66    0.64
   2  -1 -15    0.15    0.22
  -2   1  15    0.58    0.61
  -2   1  15    0.16    0.42
   1  -1 -15   15.94    0.85
  -1   1  15   15.29    1.46
  -1   1  15   16.96    1.10
   0  -1 -15    3.80    0.39
   0   1  15    2.53    0.51
   0   1  15    2.69    0.81
  -1  -1 -15  100.19    3.72
   1   1  15  102.52    4.73
   1   1  15   99.29    3.96
  -2  -1 -15   12.55    0.70
   2   1  15   18.01    1.93
   2   1  15   11.66    0.92
  -3  -1 -15   59.43    2.95
   3   1  15   63.21    2.63
  -4  -1 -15    1.25    0.55
   4   1  15    1.48    0.44
  -5  -1 -15   51.03    2.69
   5   1  15   57.79    2.46
  -6  -1 -15    1.43    0.58
   6   1  15    2.80    0.57
  -7  -1 -15    0.88    0.57
   7   1  15    0.30    0.43
  -8  -1 -15    0.23    0.55
   8   1  15    0.07    0.49
  -9  -1 -15   10.41    1.28
   9   1  15    9.75    1.18
 -10  -1 -15   27.09    1.89
  10   1  15   28.16    1.96
  11   1  15   10.08    1.34
  12   1  15    6.51    1.19
   8  -2 -15    0.27    0.48
   7  -2 -15    0.38    0.45
   6  -2 -15    0.97    0.46
   5  -2 -15    0.56    0.37
  -5   2  15    0.46    0.71
   4  -2 -15    1.71    0.43
  -4   2  15    1.03    0.70
   3  -2 -15   19.72    1.12
  -3   2  15   19.67    1.69
   2  -2 -15    2.39    0.40
  -2   2  15    2.91    0.60
  -2   2  15    2.34    0.85
   1  -2 -15    4.85    0.51
  -1   2  15    6.53    0.75
  -1   2  15    4.62    1.03
   0  -2 -15   56.33    2.24
   0   2  15   57.89    3.08
   0   2  15   54.87    2.37
  -1  -2 -15   11.67    0.70
   1   2  15   12.63    0.90
   1   2  15   13.51    1.68
  -2  -2 -15    0.75    0.26
   2   2  15    0.86    0.38
   2   2  15    0.15    0.62
  -3  -2 -15   12.98    0.77
   3   2  15   13.67    0.94
   3   2  15   15.62    1.88
  -4  -2 -15    5.99    0.82
  -4  -2 -15    6.87    0.95
   4   2  15    6.62    0.70
  -5  -2 -15   -0.14    0.39
   5   2  15    0.38    0.34
  -6  -2 -15    0.14    0.43
   6   2  15    0.16    0.35
  -7  -2 -15    0.13    0.44
   7   2  15   -0.24    0.38
  -8  -2 -15    2.75    0.73
   8   2  15    2.41    0.66
  -9  -2 -15    1.26    0.63
   9   2  15    1.94    0.66
 -10  -2 -15    1.62    0.67
  10   2  15   -0.03    0.59
  11   2  15    0.51    0.65
  12   2  15    0.02    0.71
  13   2  15   -0.55    0.69
   7  -3 -15    1.58    0.58
   6  -3 -15   10.36    1.07
   5  -3 -15    9.60    0.88
  -5   3  15    8.60    1.32
   4  -3 -15   21.03    1.26
  -4   3  15   24.88    1.87
   3  -3 -15    2.29    0.44
  -3   3  15    0.36    0.69
   2  -3 -15   32.77    1.55
  -2   3  15   35.02    2.24
   1  -3 -15    0.08    0.22
  -1   3  15    0.34    0.67
   0  -3 -15    2.23    0.36
   0   3  15    3.15    0.51
   0   3  15    3.36    0.98
  -1  -3 -15    0.55    0.26
   1   3  15    1.48    0.40
   1   3  15    2.08    0.87
  -2  -3 -15   16.67    0.93
   2   3  15   18.84    1.03
   2   3  15   12.26    1.64
  -3  -3 -15  109.41    4.10
   3   3  15  114.40    4.20
   3   3  15   97.60    5.01
  -4  -3 -15    4.84    0.59
   4   3  15    4.21    0.58
   4   3  15    4.38    1.07
  -5  -3 -15   48.59    2.46
  -5  -3 -15   45.89    2.09
   5   3  15   52.81    2.19
  -6  -3 -15    2.68    0.67
   6   3  15    3.82    0.59
  -7  -3 -15   36.56    2.06
   7   3  15   40.34    1.96
  -8  -3 -15    5.89    0.94
   8   3  15    5.36    0.78
  -9  -3 -15    5.40    0.87
   9   3  15    3.89    0.76
 -10  -3 -15    1.72    0.60
  10   3  15    0.53    0.62
  11   3  15    3.87    0.91
  12   3  15    6.76    1.11
  13   3  15    6.57    1.20
   7  -4 -15    6.37    0.92
   6  -4 -15   -0.05    0.44
  -6   4  15    0.27    0.85
   5  -4 -15   -0.08    0.38
  -5   4  15   -1.29    0.66
   4  -4 -15    2.32    0.53
  -4   4  15    2.38    0.93
   3  -4 -15    8.06    0.72
  -3   4  15    6.74    1.21
   2  -4 -15    1.63    0.40
  -2   4  15    1.27    0.79
   1  -4 -15    4.88    0.58
  -1   4  15    3.94    0.93
   0  -4 -15   13.51    0.83
   0   4  15   11.33    1.48
  -1  -4 -15    6.48    0.62
   1   4  15    6.39    1.18
  -2  -4 -15    1.75    0.37
   2   4  15    1.59    0.38
   2   4  15    1.17    0.76
  -3  -4 -15    8.13    0.70
   3   4  15    8.82    0.73
   3   4  15    7.51    1.35
  -4  -4 -15    3.12    0.51
   4   4  15    2.24    0.46
   4   4  15    2.66    0.95
  -5  -4 -15   13.54    0.95
   5   4  15   14.70    1.71
   5   4  15   12.29    0.89
  -6  -4 -15    4.81    0.64
   6   4  15    4.71    0.65
   6   4  15    4.03    0.99
  -7  -4 -15    1.84    0.56
  -7  -4 -15    2.20    0.52
   7   4  15    1.58    0.47
  -8  -4 -15    1.06    0.50
   8   4  15    0.97    0.49
  -9  -4 -15    1.19    0.54
   9   4  15    1.12    0.53
 -10  -4 -15    1.96    0.61
  10   4  15    0.83    0.60
  11   4  15    0.89    0.66
  12   4  15    2.50    0.84
  13   4  15   -0.50    0.69
   6  -5 -15    0.87    0.53
  -6   5  15   -0.06    0.81
   5  -5 -15    4.31    0.72
  -5   5  15    4.68    1.07
   4  -5 -15   14.97    1.07
  -4   5  15   15.44    1.73
   3  -5 -15    0.34    0.38
  -3   5  15   -1.21    0.53
   2  -5 -15   17.02    1.06
  -2   5  15   18.34    1.75
   1  -5 -15    1.92    0.43
  -1   5  15    2.53    0.89
   0  -5 -15   87.91    3.47
   0   5  15   88.24    4.23
  -1  -5 -15    0.50    0.29
   1   5  15    0.55    0.69
  -2  -5 -15   17.12    1.00
   2   5  15   18.32    1.75
  -3  -5 -15   15.12    0.97
   3   5  15   15.10    1.76
   3   5  15   15.25    0.93
  -4  -5 -15    1.53    0.46
   4   5  15    1.35    0.38
   4   5  15    0.36    0.71
  -5  -5 -15    4.58    0.68
   5   5  15    5.75    1.11
   5   5  15    5.83    0.62
  -6  -5 -15   48.43    2.33
   6   5  15   55.85    2.33
   6   5  15   55.68    2.92
  -7  -5 -15   41.23    2.06
   7   5  15   46.28    2.07
  -8  -5 -15    8.79    0.91
  -8  -5 -15    7.65    0.87
   8   5  15    9.22    0.91
  -9  -5 -15    7.87    0.91
  -9  -5 -15    7.05    0.93
   9   5  15    7.68    0.92
  10   5  15   22.00    1.53
  11   5  15    7.58    1.05
  12   5  15    3.15    0.83
  13   5  15   -0.58    0.61
   6  -6 -15    0.09    0.47
  -6   6  15   -0.42    0.75
   5  -6 -15   -0.14    0.43
  -5   6  15   -0.76    0.67
   4  -6 -15    1.24    0.48
  -4   6  15   -0.28    0.77
   3  -6 -15   -0.38    0.32
  -3   6  15   -0.66    0.73
   2  -6 -15    7.87    0.79
  -2   6  15    5.15    1.15
   1  -6 -15    2.07    0.46
  -1   6  15    2.01    0.88
   0  -6 -15    0.49    0.34
   0   6  15    0.31    0.70
  -1  -6 -15    3.96    0.57
   1   6  15    4.15    1.02
  -2  -6 -15    4.90    0.62
   2   6  15    4.12    1.02
  -3  -6 -15    3.45    0.56
   3   6  15    3.72    0.95
  -4  -6 -15    2.52    0.55
   4   6  15    2.66    0.90
  -5  -6 -15   14.24    1.12
   5   6  15   17.80    1.64
   5   6  15   17.68    0.99
  -6  -6 -15    8.22    0.93
   6   6  15    6.87    1.12
   6   6  15    7.79    0.77
  -7  -6 -15    2.27    0.57
   7   6  15    0.82    0.63
   7   6  15    0.61    0.40
  -8  -6 -15    0.36    0.45
  -8  -6 -15    0.09    0.36
   8   6  15   -0.13    0.36
  -9  -6 -15    8.74    0.96
  -9  -6 -15    7.41    0.90
   9   6  15    8.27    0.93
 -10  -6 -15    0.10    0.49
  10   6  15    0.03    0.46
  11   6  15    7.16    0.98
  12   6  15    1.07    0.66
  13   6  15    1.62    0.73
   5  -7 -15    1.15    0.54
  -5   7  15    3.08    1.03
   4  -7 -15    1.39    0.53
  -4   7  15    1.92    0.89
   3  -7 -15    5.05    0.71
  -3   7  15    4.03    1.07
   2  -7 -15    0.10    0.37
  -2   7  15    0.50    0.78
   1  -7 -15   20.57    1.23
  -1   7  15   20.21    1.83
   0  -7 -15    9.25    0.88
   0   7  15    7.01    1.25
  -1  -7 -15    6.95    0.75
   1   7  15    5.05    1.07
  -2  -7 -15    2.36    0.53
   2   7  15    3.67    0.93
  -3  -7 -15   49.90    2.25
   3   7  15   47.28    2.79
  -4  -7 -15   16.17    1.15
   4   7  15   16.99    1.67
  -5  -7 -15    3.65    0.68
   5   7  15    4.04    1.00
  -6  -7 -15    4.35    0.73
   6   7  15    4.75    0.98
  -7  -7 -15   13.01    1.10
   7   7  15   12.13    0.91
   7   7  15   11.89    1.37
  -8  -7 -15    6.71    0.88
   8   7  15    5.62    1.02
   8   7  15    8.41    0.84
  -9  -7 -15   14.11    1.20
  -9  -7 -15   11.48    1.02
   9   7  15   14.90    1.12
 -10  -7 -15   10.19    1.13
  10   7  15   11.64    1.10
 -11  -7 -15   14.75    1.33
  11   7  15   21.31    1.49
  12   7  15    9.33    1.15
  13   7  15    3.45    0.85
   4  -8 -15    2.09    0.59
  -4   8  15    1.79    0.95
   3  -8 -15    0.55    0.47
  -3   8  15    0.80    0.88
   2  -8 -15    4.55    0.72
  -2   8  15    2.37    1.01
   1  -8 -15    1.93    0.53
  -1   8  15    1.17    0.78
   0  -8 -15    7.01    0.81
   0   8  15    7.35    1.29
  -1  -8 -15    2.88    0.58
   1   8  15    2.14    0.84
  -2  -8 -15   29.77    1.58
   2   8  15   27.86    2.05
  -3  -8 -15   21.39    1.30
   3   8  15   18.42    1.76
  -4  -8 -15    5.24    0.76
   4   8  15    4.43    1.05
  -5  -8 -15   14.08    1.18
   5   8  15   11.88    1.49
  -6  -8 -15    0.51    0.55
   6   8  15    0.97    0.71
  -7  -8 -15    1.39    0.57
   7   8  15    0.75    0.68
  -8  -8 -15    0.10    0.50
   8   8  15    0.41    0.42
   8   8  15    0.52    0.60
  -9  -8 -15    1.73    0.63
   9   8  15    1.03    0.63
   9   8  15    1.91    0.55
 -10  -8 -15    0.64    0.55
  10   8  15    0.62    0.51
 -11  -8 -15    1.22    0.62
  11   8  15    0.93    0.59
 -12  -8 -15    0.99    0.59
  12   8  15    1.35    0.71
  13   8  15   -0.20    0.60
   3  -9 -15    4.79    0.78
  -3   9  15    4.01    1.14
   2  -9 -15    2.30    0.61
  -2   9  15    1.78    0.96
   1  -9 -15    0.42    0.44
  -1   9  15    0.45    0.79
   0  -9 -15   10.92    0.97
   0   9  15    8.54    1.39
  -1  -9 -15    5.16    0.74
   1   9  15    4.24    1.03
  -2  -9 -15    8.16    0.91
   2   9  15    8.09    1.29
  -3  -9 -15    2.43    0.61
   3   9  15    3.98    1.03
  -4  -9 -15    9.83    1.06
   4   9  15   11.30    1.44
  -5  -9 -15   21.23    1.51
   5   9  15   19.65    1.74
  -6  -9 -15    1.20    0.67
   6   9  15    1.68    0.81
  -7  -9 -15   20.69    1.50
   7   9  15   20.38    1.71
  -8  -9 -15    1.30    0.59
   8   9  15   -0.07    0.54
  -9  -9 -15    3.85    0.80
 -10  -9 -15    2.50    0.74
  10   9  15    2.79    0.80
 -11  -9 -15    8.25    1.12
  11   9  15    6.13    0.92
 -12  -9 -15    9.69    1.15
  12   9  15   11.51    1.22
 -13  -9 -15    0.80    0.65
  13   9  15    0.72    0.61
   2 -10 -15    5.17    0.82
  -2  10  15    3.96    1.23
   1 -10 -15    3.19    0.69
  -1  10  15    2.16    1.10
   0 -10 -15    1.63    0.58
   0  10  15   -0.85    0.68
  -1 -10 -15   -0.51    0.44
   1  10  15   -0.51    0.69
  -2 -10 -15   -0.59    0.44
   2  10  15    0.93    0.77
  -3 -10 -15    4.56    0.80
   3  10  15    4.65    1.06
  -4 -10 -15    4.07    0.81
   4  10  15    2.06    0.86
  -5 -10 -15    1.11    0.65
   5  10  15    0.56    0.70
  -6 -10 -15    0.71    0.67
   6  10  15    0.22    0.72
  -7 -10 -15    5.77    0.99
   7  10  15    4.32    1.01
  -8 -10 -15   21.86    1.65
   8  10  15   24.03    1.83
  -9 -10 -15    0.78    0.66
 -10 -10 -15    0.98    0.65
 -11 -10 -15    1.95    0.77
 -12 -10 -15    0.84    0.64
 -13 -10 -15    0.98    0.67
  13  10  15    1.28    0.70
   1 -11 -15    0.39    0.53
  -1  11  15    1.00    0.99
   0 -11 -15    6.99    0.92
   0  11  15    7.85    1.42
  -1 -11 -15    1.05    0.59
   1  11  15    0.39    0.87
  -2 -11 -15   17.81    1.35
   2  11  15   15.94    1.82
  -3 -11 -15    0.05    0.59
   3  11  15    0.57    0.78
  -4 -11 -15   23.37    1.60
   4  11  15   22.40    1.95
  -5 -11 -15    1.73    0.73
   5  11  15    0.78    0.77
  -6 -11 -15    6.43    1.08
   6  11  15    4.99    1.11
  -7 -11 -15    4.69    0.99
   7  11  15    5.36    1.07
  -8 -11 -15    9.70    1.28
   8  11  15   10.66    1.35
  -9 -11 -15   17.08    1.50
 -10 -11 -15    0.63    0.67
 -11 -11 -15    5.10    0.98
 -12 -11 -15    2.51    0.80
  -1 -12 -15    2.64    0.73
   1  12  15    3.59    1.17
  -2 -12 -15    0.28    0.60
   2  12  15    0.57    0.89
  -3 -12 -15   -0.40    0.56
   3  12  15   -0.60    0.72
  -4 -12 -15    0.23    0.64
   4  12  15    0.20    0.70
  -5 -12 -15    1.60    0.76
   5  12  15    1.22    0.86
  -6 -12 -15    1.56    0.84
   6  12  15    0.47    0.74
  -7 -12 -15   11.81    1.42
   7  12  15    6.28    1.23
  -8 -12 -15   -0.49    0.68
   8  12  15   -0.05    0.69
  -9 -12 -15   -0.24    0.67
 -10 -12 -15    4.33    1.02
 -11 -12 -15   -0.03    0.67
  -3 -13 -15    1.37    0.73
   3  13  15    0.85    0.94
  -4 -13 -15    3.04    0.86
   4  13  15    3.24    1.03
  -5 -13 -15    9.59    1.29
   5  13  15    6.94    1.31
  -6 -13 -15   10.73    1.42
   6  13  15    7.95    1.34
  -7 -13 -15   -0.32    0.75
   7  13  15    0.65    0.75
  -8 -13 -15    1.69    0.84
  -9 -13 -15    5.67    1.10
 -10 -13 -15    3.91    1.00
  -6 -14 -15    0.49    0.80
  -7 -14 -15    0.43    0.83
   7  14  15   -1.07    0.61
  -8 -14 -15    0.03    0.74
  -4 -10  16    4.54    1.02
  -3 -10  16    0.54    0.74
   2  10 -16    3.90    0.97
  -2 -10  16    2.51    0.82
   1  10 -16    7.55    1.24
  -1 -10  16    7.06    1.13
   0  10 -16    3.87    1.01
   0 -10  16    4.36    0.98
  -1  10 -16    2.12    0.96
   1 -10  16    3.71    0.93
  -6  -9  16   -0.76    0.71
  -5  -9  16    3.35    0.97
  -4  -9  16    1.18    0.74
   3   9 -16    2.56    0.75
  -3  -9  16    0.73    0.70
   2   9 -16    4.49    0.94
  -2  -9  16    2.17    0.86
   1   9 -16    0.74    0.70
  -1  -9  16    2.64    0.82
   0   9 -16   -0.31    0.62
   0  -9  16    0.04    0.58
  -1   9 -16    3.76    1.02
   1  -9  16    4.90    0.96
  -2   9 -16   -0.69    0.68
   2  -9  16    0.04    0.62
  -3   9 -16    0.15    0.86
   3  -9  16    1.07    0.73
   7   8 -16    1.80    0.77
  -6  -8  16    3.35    1.05
  -5  -8  16    1.29    0.81
  -4  -8  16    8.46    1.28
   3   8 -16   -0.12    0.48
  -3  -8  16    0.57    0.65
   2   8 -16   27.73    1.82
  -2  -8  16   28.37    1.92
   1   8 -16    2.12    0.76
  -1  -8  16    3.08    0.83
   0   8 -16    6.88    1.11
   0  -8  16    8.56    1.14
  -1   8 -16    0.44    0.67
   1  -8  16   -0.48    0.52
  -2   8 -16    6.87    1.25
   2  -8  16    5.71    1.03
  -3   8 -16   17.49    1.81
   3  -8  16   17.56    1.51
  -4   8 -16    1.64    0.90
   4  -8  16    0.88    0.72
  -5   8 -16    1.98    1.11
   5  -8  16    0.67    0.73
   8   7 -16    1.21    0.70
   7   7 -16   -0.06    0.62
  -6  -7  16    1.49    0.86
  -5  -7  16   -0.53    0.62
  -4  -7  16    0.82    0.72
   3   7 -16    1.50    0.56
  -3  -7  16    0.41    0.68
   2   7 -16    1.90    0.65
  -2  -7  16    1.46    0.70
   1   7 -16    0.82    0.57
  -1  -7  16    1.09    0.62
   0   7 -16    1.17    0.65
   0  -7  16    1.51    0.65
  -1   7 -16    0.29    0.62
   1  -7  16   -0.03    0.53
  -2   7 -16    0.00    0.58
   2  -7  16    0.47    0.60
  -3   7 -16    0.74    0.72
   3  -7  16    0.61    0.68
  -4   7 -16    0.65    0.77
   4  -7  16    0.27    0.63
  -5   7 -16    2.62    1.00
   5  -7  16    2.41    0.80
  -6   7 -16    2.04    1.12
   6  -7  16    5.04    1.02
   8   6 -16    0.32    0.62
   7   6 -16   18.26    1.61
   6   6 -16   -0.41    0.54
  -5  -6  16   37.96    2.35
   4   6 -16   10.95    0.99
  -4  -6  16   10.91    1.35
   3   6 -16    4.09    0.71
  -3  -6  16    4.39    0.93
   2   6 -16    1.39    0.52
  -2  -6  16    2.68    0.76
   1   6 -16   -0.28    0.39
  -1  -6  16    0.01    0.55
   0   6 -16   13.05    1.26
   0  -6  16   13.10    1.23
  -1   6 -16   12.47    1.38
   1  -6  16   13.47    1.26
  -2   6 -16    7.84    1.17
   2  -6  16    6.55    0.96
  -3   6 -16   10.26    1.36
   3  -6  16   12.15    1.29
  -4   6 -16    4.45    1.03
   4  -6  16    5.08    0.91
  -5   6 -16   11.72    1.56
   5  -6  16   12.35    1.35
  -6   6 -16    1.41    0.99
   6  -6  16    1.43    0.76
  -7   6 -16   12.15    1.77
   7  -6  16   10.39    1.33
   8   5 -16   -0.02    0.51
   7   5 -16    0.86    0.65
   6   5 -16    1.38    0.68
  -5  -5  16   -0.77    0.61
   4   5 -16    0.36    0.35
  -4  -5  16    0.12    0.64
   3   5 -16    7.92    0.91
  -3  -5  16    4.52    0.95
   2   5 -16   24.10    1.51
  -2  -5  16   24.52    1.65
   1   5 -16    1.19    0.48
  -1  -5  16   -0.13    0.47
   0   5 -16    2.79    0.68
   0  -5  16    2.15    0.66
  -1   5 -16   10.04    1.21
   1  -5  16    9.15    1.06
  -2   5 -16    0.26    0.51
   2  -5  16   -0.25    0.47
  -3   5 -16    0.48    0.61
   3  -5  16    0.85    0.52
  -4   5 -16    1.09    0.68
   4  -5  16    0.97    0.61
  -5   5 -16    2.28    0.90
   5  -5  16    1.80    0.68
  -6   5 -16    1.84    0.89
   6  -5  16    1.88    0.75
  -7   5 -16   -0.24    0.86
   7  -5  16    0.18    0.67
  -8   5 -16   -0.83    0.85
   8  -5  16   -0.66    0.59
   8   4 -16   -0.03    0.46
  -8  -4  16    0.35    0.59
   7   4 -16    3.64    0.86
   6   4 -16    3.77    0.86
  -5  -4  16    2.69    0.84
   4   4 -16    4.75    0.69
  -4  -4  16    4.72    0.90
   3   4 -16   24.77    1.47
  -3  -4  16   25.62    1.71
   2   4 -16   32.41    1.83
  -2  -4  16   36.51    1.99
   1   4 -16   13.41    1.14
  -1  -4  16   12.61    1.14
   0   4 -16   15.31    1.20
   0  -4  16   14.54    1.22
  -1   4 -16    0.89    0.55
   1  -4  16    0.51    0.46
  -2   4 -16   -0.09    0.42
   2  -4  16    0.96    0.54
  -3   4 -16    0.30    0.49
   3  -4  16    0.61    0.51
  -4   4 -16   15.38    1.42
   4  -4  16   15.04    1.25
  -5   4 -16   10.30    1.40
   5  -4  16   10.35    1.15
  -6   4 -16    8.33    1.32
   6  -4  16    8.01    1.08
  -7   4 -16    7.63    1.36
   7  -4  16    8.81    1.22
  -8   4 -16   14.30    1.88
   8  -4  16   14.53    1.56
  -9   4 -16    1.23    1.05
   9  -4  16   -0.45    0.65
   8   3 -16    1.15    0.62
  -8  -3  16    1.31    0.55
   7   3 -16    3.07    0.76
  -7  -3  16    3.77    0.67
   6   3 -16   10.30    1.20
  -6  -3  16   10.65    0.93
  -5  -3  16   10.32    1.27
   4   3 -16    1.60    0.44
  -4  -3  16    0.95    0.64
   3   3 -16    2.42    0.53
  -3  -3  16    2.84    0.73
   2   3 -16    2.68    0.59
  -2  -3  16    2.80    0.70
   1   3 -16    2.96    0.66
  -1  -3  16    2.70    0.64
   0   3 -16    0.07    0.40
   0  -3  16   -0.20    0.43
  -1   3 -16   -0.06    0.41
   1  -3  16    0.79    0.46
  -2   3 -16   22.01    1.60
   2  -3  16   24.36    1.46
  -3   3 -16    1.24    0.57
   3  -3  16    0.66    0.49
  -4   3 -16    4.88    0.93
   4  -3  16    6.91    0.87
  -5   3 -16    1.24    0.72
   5  -3  16    2.93    0.71
  -6   3 -16    0.10    0.66
   6  -3  16    0.07    0.55
  -7   3 -16    6.36    1.23
   7  -3  16    7.09    1.06
  -8   3 -16    2.85    1.07
   8  -3  16    3.59    0.91
  -9   3 -16    2.68    1.11
   9  -3  16    0.50    0.72
 -10   3 -16    1.01    1.01
  10  -3  16    1.05    0.84
  -8  -2  16    5.06    0.79
   7   2 -16    1.13    0.57
  -7  -2  16    1.00    0.51
   6   2 -16    0.85    0.57
  -6  -2  16    0.44    0.41
   5   2 -16    1.14    0.58
  -5  -2  16    0.62    0.39
   4   2 -16    2.69    0.55
  -4  -2  16    2.26    0.45
  -4  -2  16    2.12    0.71
   3   2 -16    3.88    0.67
  -3  -2  16    4.20    0.80
   2   2 -16   24.02    1.46
  -2  -2  16   24.38    1.57
   1   2 -16    3.02    0.67
  -1  -2  16    1.66    0.57
   0   2 -16   61.17    2.90
   0  -2  16   61.65    2.81
  -1   2 -16   24.31    1.63
   1  -2  16   26.03    1.52
  -2   2 -16   25.74    1.73
   2  -2  16   24.86    1.48
  -3   2 -16    0.45    0.50
   3  -2  16    0.38    0.41
  -4   2 -16    4.78    0.86
   4  -2  16    1.75    0.53
  -5   2 -16   13.99    1.36
   5  -2  16   15.13    1.23
  -6   2 -16    1.01    0.63
   6  -2  16    0.11    0.47
  -7   2 -16    4.71    1.07
   7  -2  16    4.95    0.91
  -8   2 -16    1.22    0.87
   8  -2  16    1.77    0.76
  -9   2 -16   27.83    2.27
   9  -2  16   29.06    2.06
 -10   2 -16    9.50    1.49
  10  -2  16    5.73    1.16
  -8  -1  16   -0.24    0.44
  -7  -1  16   -0.29    0.43
   6   1 -16    0.37    0.47
  -6  -1  16   -0.09    0.38
   5   1 -16    1.29    0.53
   5   1 -16    1.30    0.43
  -5  -1  16    0.85    0.41
   4   1 -16    0.52    0.29
   4   1 -16    0.47    0.37
  -4  -1  16    0.15    0.55
   3   1 -16    1.52    0.35
   3   1 -16    1.64    0.51
  -3  -1  16    0.97    0.55
   2   1 -16    1.22    0.28
   2   1 -16    1.55    0.50
  -2  -1  16    2.29    0.60
   1   1 -16   12.51    1.11
  -1  -1  16   11.94    1.09
   0   1 -16   17.51    1.37
   0  -1  16   15.29    1.17
  -1   1 -16   10.75    1.10
   1  -1  16    9.93    0.94
  -2   1 -16    3.39    0.76
   2  -1  16    3.73    0.65
  -3   1 -16    4.38    0.85
   3  -1  16    5.03    0.71
  -4   1 -16   12.56    1.23
   4  -1  16   12.02    1.01
  -5   1 -16    0.22    0.51
   5  -1  16    0.95    0.49
  -6   1 -16    3.34    0.83
   6  -1  16    2.90    0.67
  -7   1 -16    0.87    0.65
   7  -1  16    1.39    0.64
  -8   1 -16    1.01    0.74
   8  -1  16   -0.07    0.53
  -9   1 -16    2.01    0.93
   9  -1  16    2.49    0.83
 -10   1 -16    0.83    0.79
  10  -1  16    1.23    0.75
  11  -1  16   -0.03    0.74
   8   0 -16    0.79    0.46
   7   0 -16   17.48    1.22
   6   0 -16    2.72    0.57
   5   0 -16   31.40    1.62
  -5   0  16   34.05    2.01
   4   0 -16    2.40    0.61
   4   0 -16    2.24    0.46
  -4   0  16    2.00    0.69
   3   0 -16    7.51    0.63
  -3   0  16    8.58    1.02
  -3   0  16   10.85    1.26
   2   0 -16    0.56    0.25
  -2   0  16    1.62    0.71
  -2   0  16    0.88    0.49
   1   0 -16    0.93    0.24
  -1   0  16    1.24    0.49
  -1   0  16    0.69    0.65
   0   0 -16    0.65    0.48
   0   0  16   -0.06    0.39
  -1   0 -16    8.64    1.12
   1   0  16    8.91    0.90
  -2   0 -16   99.36    4.27
   2   0  16   91.68    3.83
  -3   0 -16   37.43    2.12
   3   0  16   33.29    1.76
  -4   0 -16   28.89    1.89
   4   0  16   30.67    1.62
  -5   0 -16    5.81    0.97
   5   0  16    6.31    0.80
  -6   0 -16    0.77    0.59
   6   0  16    0.56    0.47
  -7   0 -16    7.83    1.15
   7   0  16    8.50    0.98
  -8   0 -16    2.51    0.79
   8   0  16    0.96    0.61
  -9   0 -16   17.34    1.68
   9   0  16   18.86    1.59
 -10   0 -16    1.16    0.75
  10   0  16   -0.37    0.65
  11   0  16    6.28    1.14
   8  -1 -16    5.84    0.87
   7  -1 -16    1.75    0.57
   6  -1 -16    0.25    0.41
   5  -1 -16    5.70    0.74
  -5   1  16    6.79    1.03
   4  -1 -16    0.30    0.32
  -4   1  16    0.32    0.59
   3  -1 -16    0.72    0.32
  -3   1  16    0.22    0.57
  -3   1  16    1.72    0.72
   2  -1 -16    0.41    0.25
  -2   1  16    0.09    0.43
  -2   1  16   -0.56    0.52
   1  -1 -16    9.46    0.63
  -1   1  16    9.74    0.90
  -1   1  16    9.78    1.28
   0  -1 -16    1.33    0.27
   0   1  16    0.98    0.43
   0   1  16    3.78    0.91
  -1  -1 -16    1.11    0.26
   1   1  16   -0.55    0.59
   1   1  16    0.89    0.41
  -2  -1 -16    6.81    1.01
   2   1  16    8.89    0.82
  -3  -1 -16    3.34    0.76
   3   1  16    3.81    0.60
  -4  -1 -16    0.23    0.51
   4   1  16    0.62    0.39
  -5  -1 -16    2.62    0.69
   5   1  16    2.66    0.54
  -6  -1 -16   13.53    1.45
   6   1  16   12.29    1.06
  -7  -1 -16    6.13    1.01
   7   1  16    6.42    0.87
  -8  -1 -16    1.50    0.70
   8   1  16    2.34    0.68
  -9  -1 -16    1.45    0.70
   9   1  16    0.63    0.62
 -10  -1 -16    1.85    0.77
  10   1  16    0.52    0.68
  11   1  16    4.00    0.95
  12   1  16    0.08    0.73
   7  -2 -16    0.74    0.49
   6  -2 -16    2.71    0.61
   5  -2 -16   19.32    1.24
  -5   2  16   18.01    1.72
   4  -2 -16    9.54    0.83
  -4   2  16    8.19    1.24
   3  -2 -16   11.61    0.84
  -3   2  16   12.61    1.48
   2  -2 -16    2.80    0.44
  -2   2  16    3.00    0.88
   1  -2 -16   14.06    0.84
  -1   2  16   15.88    1.11
  -1   2  16   17.92    1.61
   0  -2 -16    5.43    0.49
   0   2  16    6.86    0.74
   0   2  16    6.87    1.15
  -1  -2 -16    1.25    0.29
   1   2  16    0.44    0.73
   1   2  16    1.39    0.43
  -2  -2 -16   16.84    0.86
   2   2  16   12.70    1.65
   2   2  16   15.39    1.02
   3   2  16    3.22    1.07
   3   2  16    4.12    0.60
  -4  -2 -16   17.68    1.40
  -5  -2 -16   21.16    1.58
   5   2  16   22.50    1.31
  -6  -2 -16  113.64    4.89
   6   2  16  115.24    4.53
  -7  -2 -16    7.52    1.08
   7   2  16    7.78    0.90
  -8  -2 -16    4.36    0.85
   8   2  16    3.09    0.70
  -9  -2 -16    0.74    0.58
   9   2  16   -0.08    0.55
 -10  -2 -16   11.00    1.30
  10   2  16    9.07    1.23
  11   2  16   -0.21    0.65
  12   2  16    1.72    0.82
   7  -3 -16    1.07    0.55
   6  -3 -16    0.60    0.48
   5  -3 -16   12.91    1.03
  -5   3  16   14.70    1.66
   4  -3 -16    0.58    0.39
  -4   3  16   -0.10    0.75
   3  -3 -16    4.66    0.61
  -3   3  16    6.25    1.15
   2  -3 -16   11.53    0.84
  -2   3  16   15.81    1.59
   1  -3 -16    1.59    0.35
  -1   3  16    2.83    0.90
   0  -3 -16    2.06    0.37
   0   3  16    2.73    0.76
   0   3  16    2.19    0.87
  -1  -3 -16    1.18    0.31
   1   3  16    1.85    0.83
   1   3  16    0.82    0.38
  -2  -3 -16    0.28    0.27
   2   3  16    0.51    0.35
   2   3  16   -0.03    0.65
  -3  -3 -16    8.34    0.68
   3   3  16    8.60    1.42
   3   3  16    9.17    0.81
  -4  -3 -16   21.43    1.18
   4   3  16   22.50    1.25
   4   3  16   21.40    2.02
  -5  -3 -16    2.85    0.69
   5   3  16    2.45    0.50
  -6  -3 -16    0.05    0.44
   6   3  16   -0.32    0.32
  -7  -3 -16    0.15    0.46
   7   3  16    0.23    0.42
  -8  -3 -16   -0.12    0.46
   8   3  16    0.62    0.50
  -9  -3 -16    4.25    0.86
   9   3  16    4.90    0.82
 -10  -3 -16   10.18    1.19
  10   3  16   11.14    1.26
  11   3  16    0.37    0.64
  12   3  16    2.38    0.85
  13   3  16    2.29    0.92
   6  -4 -16    2.15    0.58
   5  -4 -16    0.04    0.39
  -5   4  16    0.42    0.80
   4  -4 -16    2.46    0.55
  -4   4  16    0.99    0.86
   3  -4 -16    2.92    0.53
  -3   4  16    2.52    0.96
   2  -4 -16   15.84    0.99
  -2   4  16   13.88    1.71
   1  -4 -16   31.46    1.52
  -1   4  16   32.27    2.21
   0  -4 -16    7.12    0.62
   0   4  16    7.99    1.33
  -1  -4 -16    0.97    0.31
   1   4  16    0.79    0.74
  -2  -4 -16    7.69    0.65
   2   4  16    7.78    1.38
   2   4  16    6.88    0.69
  -3  -4 -16   24.04    1.28
   3   4  16   25.02    2.12
   3   4  16   25.63    1.31
  -4  -4 -16    8.06    0.74
   4   4  16    8.01    0.74
   4   4  16    6.20    1.27
  -5  -4 -16    0.33    0.37
   5   4  16    0.04    0.33
   5   4  16    0.50    0.71
  -6  -4 -16    0.62    0.41
  -6  -4 -16    0.36    0.45
   6   4  16    0.72    0.38
  -7  -4 -16   21.72    1.48
   7   4  16   23.55    1.39
  -8  -4 -16   10.16    1.15
   8   4  16    9.63    1.02
  -9  -4 -16   41.24    2.23
   9   4  16   41.22    2.15
 -10  -4 -16    7.79    1.04
  10   4  16    8.74    1.11
  11   4  16    9.22    1.17
  12   4  16   -0.05    0.60
  13   4  16    1.99    0.87
   6  -5 -16    0.07    0.48
   5  -5 -16    2.76    0.63
  -5   5  16    2.72    1.03
   4  -5 -16    0.09    0.40
  -4   5  16    0.14    0.77
   3  -5 -16    5.92    0.72
  -3   5  16    6.71    1.24
   2  -5 -16    3.58    0.56
  -2   5  16    4.41    1.11
   1  -5 -16    3.94    0.57
  -1   5  16    4.09    1.04
   0  -5 -16    3.80    0.54
   0   5  16    3.19    0.99
  -1  -5 -16    1.23    0.36
   1   5  16    0.38    0.72
  -2  -5 -16    0.10    0.30
   2   5  16   -0.20    0.66
  -3  -5 -16   31.81    1.55
   3   5  16   30.27    2.29
  -4  -5 -16    1.41    0.47
   4   5  16    0.85    0.38
   4   5  16    0.98    0.76
  -5  -5 -16    8.81    0.90
   5   5  16    8.80    1.38
   5   5  16    7.75    0.73
  -6  -5 -16   17.88    1.21
   6   5  16   23.51    1.23
   6   5  16   17.98    1.70
  -7  -5 -16    1.61    0.51
  -7  -5 -16    0.60    0.44
   7   5  16    0.50    0.41
  -8  -5 -16   13.83    1.14
   8   5  16   15.83    1.14
  -9  -5 -16    2.73    0.66
   9   5  16    1.94    0.60
 -10  -5 -16    1.15    0.71
  10   5  16    0.19    0.52
  11   5  16    0.27    0.57
  12   5  16    2.69    0.81
  13   5  16    0.85    0.71
   5  -6 -16    7.43    0.87
  -5   6  16    5.17    1.17
   4  -6 -16    2.91    0.60
  -4   6  16    2.30    0.89
   3  -6 -16   12.69    1.01
  -3   6  16    8.86    1.42
   2  -6 -16    3.56    0.60
  -2   6  16    3.18    1.05
   1  -6 -16    2.87    0.52
  -1   6  16    2.60    0.94
   0  -6 -16    6.97    0.74
   0   6  16    8.52    1.32
  -1  -6 -16   22.54    1.24
   1   6  16   20.91    1.87
  -2  -6 -16   16.15    1.03
   2   6  16   13.17    1.65
  -3  -6 -16    4.55    0.61
   3   6  16    3.67    1.02
  -4  -6 -16   20.01    1.28
   4   6  16   22.89    1.92
  -5  -6 -16    1.45    0.52
   5   6  16    0.41    0.69
  -6  -6 -16   19.01    1.30
   6   6  16   19.97    1.74
   6   6  16   19.52    1.13
  -7  -6 -16   12.05    1.06
   7   6  16   12.59    0.97
   7   6  16   11.31    1.41
  -8  -6 -16    2.13    0.57
  -8  -6 -16    2.75    0.62
   8   6  16    2.27    0.55
  -9  -6 -16    3.52    0.70
  -9  -6 -16    2.79    0.63
   9   6  16    5.01    0.77
  10   6  16    2.12    0.65
  11   6  16   35.29    2.07
  12   6  16    1.56    0.71
  13   6  16    6.03    1.04
   4  -7 -16    0.81    0.48
  -4   7  16    1.07    0.93
   3  -7 -16    2.19    0.59
  -3   7  16    3.75    1.07
   2  -7 -16    0.31    0.41
  -2   7  16   -0.09    0.80
   1  -7 -16    3.29    0.59
  -1   7  16    3.89    1.07
   0  -7 -16    0.06    0.36
   0   7  16   -0.09    0.72
  -1  -7 -16    3.72    0.61
   1   7  16    3.55    1.03
  -2  -7 -16    0.03    0.34
   2   7  16   -0.22    0.60
  -3  -7 -16    0.49    0.43
   3   7  16    0.46    0.71
  -4  -7 -16    2.46    0.57
   4   7  16    1.27    0.80
  -5  -7 -16    0.32    0.49
   5   7  16    0.84    0.69
  -6  -7 -16    7.67    0.94
   6   7  16    6.34    1.15
  -7  -7 -16   13.41    1.13
   7   7  16   13.97    1.01
   7   7  16   11.90    1.45
  -8  -7 -16    7.50    0.95
   8   7  16    8.12    1.21
   8   7  16    7.34    0.84
  -9  -7 -16   11.99    1.06
  -9  -7 -16   11.92    1.17
   9   7  16   13.77    1.11
 -10  -7 -16    2.46    0.66
  10   7  16    3.87    0.74
  11   7  16    4.18    0.84
  12   7  16    1.32    0.69
  13   7  16    0.38    0.63
   4  -8 -16    0.91    0.53
  -4   8  16   -0.85    0.78
   3  -8 -16    3.77    0.71
  -3   8  16    4.15    1.11
   2  -8 -16    1.84    0.55
  -2   8  16    1.30    0.89
   1  -8 -16   15.49    1.12
  -1   8  16   16.83    1.89
   0  -8 -16    4.38    0.68
   0   8  16    4.47    1.15
  -1  -8 -16    7.39    0.84
   1   8  16    7.97    1.34
  -2  -8 -16    1.48    0.51
   2   8  16    0.45    0.71
  -3  -8 -16    2.09    0.56
   3   8  16    3.15    0.93
  -4  -8 -16   35.19    1.90
   4   8  16   35.68    2.42
  -5  -8 -16    1.00    0.58
   5   8  16    0.36    0.65
  -6  -8 -16   19.24    1.47
   6   8  16   20.78    1.76
  -7  -8 -16   -0.15    0.50
   7   8  16   -0.42    0.53
  -8  -8 -16   39.83    2.13
   8   8  16   42.38    2.39
  -9  -8 -16   -0.12    0.52
   9   8  16   -0.05    0.59
   9   8  16   -0.27    0.41
 -10  -8 -16    5.40    0.87
  10   8  16    8.44    0.99
 -11  -8 -16    1.08    0.62
  11   8  16    1.34    0.63
  12   8  16    9.90    1.16
  13   8  16    3.16    0.82
   3  -9 -16    0.01    0.45
  -3   9  16   -0.79    0.77
   2  -9 -16    2.54    0.64
  -2   9  16    3.03    1.05
   1  -9 -16   -0.11    0.45
  -1   9  16    0.43    0.81
   0  -9 -16    9.02    0.99
   0   9  16    6.80    1.31
  -1  -9 -16    0.54    0.46
   1   9  16    0.43    0.78
  -2  -9 -16    3.99    0.71
   2   9  16    3.54    1.02
  -3  -9 -16    6.87    0.88
   3   9  16    5.42    1.13
  -4  -9 -16    2.20    0.64
   4   9  16    1.72    0.86
  -5  -9 -16    6.44    0.96
   5   9  16    3.95    1.04
  -6  -9 -16    5.88    0.98
   6   9  16    4.44    1.06
  -7  -9 -16    0.05    0.58
   7   9  16    0.02    0.63
  -8  -9 -16    1.43    0.67
   8   9  16    1.86    0.78
  -9  -9 -16    5.09    0.89
   9   9  16    6.01    1.00
 -10  -9 -16    4.45    0.86
 -11  -9 -16    0.64    0.63
  11   9  16    0.15    0.74
 -12  -9 -16    0.82    0.64
  12   9  16    1.68    0.69
  13   9  16    9.62    1.15
   2 -10 -16    1.54    0.61
  -2  10  16    0.11    0.86
   1 -10 -16    0.39    0.54
  -1  10  16   -0.89    0.76
   0 -10 -16    0.80    0.52
   0  10  16    0.32    0.82
  -1 -10 -16   16.56    1.29
   1  10  16   17.45    1.76
  -2 -10 -16    2.34    0.68
   2  10  16    2.41    0.93
  -3 -10 -16   10.55    1.12
   3  10  16    8.12    1.34
  -4 -10 -16    2.92    0.74
   4  10  16    2.08    0.90
  -5 -10 -16   16.30    1.38
   5  10  16   16.18    1.83
  -6 -10 -16    3.13    0.85
   6  10  16    2.06    0.90
  -7 -10 -16    0.94    0.70
   7  10  16    1.51    0.81
  -8 -10 -16    1.49    0.72
   8  10  16    1.74    0.77
  -9 -10 -16    7.26    1.10
 -10 -10 -16    2.88    0.81
 -11 -10 -16   12.59    1.36
 -12 -10 -16    1.99    0.77
   0 -11 -16    0.04    0.50
   0  11  16    0.67    0.90
  -1 -11 -16    0.44    0.54
   1  11  16   -0.07    0.70
  -2 -11 -16    8.71    1.08
   2  11  16    8.93    1.40
  -3 -11 -16    1.83    0.66
   3  11  16    1.65    0.87
  -4 -11 -16    0.95    0.64
   4  11  16    0.44    0.73
  -5 -11 -16    1.13    0.70
   5  11  16    0.88    0.80
  -6 -11 -16   10.54    1.35
   6  11  16    8.76    1.39
  -7 -11 -16    3.76    0.92
   7  11  16    2.62    0.94
  -8 -11 -16    5.71    1.05
   8  11  16    4.16    0.99
 -10 -11 -16    4.11    0.90
 -11 -11 -16    1.39    0.69
 -12 -11 -16    0.18    0.67
  -1 -12 -16    1.48    0.66
   1  12  16   -0.44    0.81
  -2 -12 -16    1.19    0.66
   2  12  16    1.22    0.93
  -3 -12 -16    5.26    0.97
   3  12  16    3.00    1.01
  -4 -12 -16    7.07    1.08
   4  12  16    5.29    1.20
  -5 -12 -16    5.77    1.06
   5  12  16    5.93    1.20
  -6 -12 -16    8.71    1.30
   6  12  16    7.30    1.30
  -7 -12 -16    1.10    0.81
   7  12  16    0.51    0.75
  -8 -12 -16   11.42    1.42
   8  12  16    9.85    1.41
  -9 -12 -16    5.14    1.04
 -10 -12 -16    0.29    0.77
 -11 -12 -16   -0.48    0.62
  -3 -13 -16    3.49    1.02
  -4 -13 -16    1.73    0.78
   4  13  16    2.14    1.02
  -5 -13 -16   -0.60    0.65
   5  13  16    0.77    0.78
  -6 -13 -16    8.01    1.31
   6  13  16    7.66    1.32
  -7 -13 -16    1.01    0.83
   7  13  16   -0.40    0.70
  -8 -13 -16   -0.43    0.73
  -9 -13 -16   -0.37    0.70
 -10 -13 -16    0.43    0.74
  -5  -9  17    8.70    1.32
  -4  -9  17    0.43    0.69
  -3  -9  17    1.72    0.78
   2   9 -17    3.86    0.93
  -2  -9  17    5.76    1.06
   1   9 -17    5.34    1.06
  -1  -9  17    8.83    1.20
   0   9 -17    7.18    1.22
   0  -9  17    6.91    1.13
  -1   9 -17   16.47    1.79
   1  -9  17   14.42    1.53
  -2   9 -17    3.29    1.04
   2  -9  17    3.75    0.92
  -6  -8  17   -0.71    0.73
  -5  -8  17    1.73    0.83
  -4  -8  17    0.84    0.76
   3   8 -17    1.41    0.62
  -3  -8  17    1.46    0.76
   2   8 -17    3.44    0.80
  -2  -8  17    2.22    0.82
   1   8 -17   -0.17    0.56
  -1  -8  17    0.53    0.66
   0   8 -17    0.12    0.65
   0  -8  17    1.44    0.69
  -1   8 -17    7.12    1.21
   1  -8  17    6.42    1.05
  -2   8 -17    1.32    0.86
   2  -8  17    2.73    0.87
  -3   8 -17    2.53    1.00
   3  -8  17    5.85    1.05
  -4   8 -17    4.21    1.23
   4  -8  17    6.89    1.10
   7   7 -17   10.48    1.39
  -5  -7  17    4.57    1.05
  -4  -7  17    4.81    1.02
   3   7 -17    8.69    1.07
  -3  -7  17    7.10    1.14
   2   7 -17    4.56    0.85
  -2  -7  17    4.69    0.94
   1   7 -17    4.82    0.93
  -1  -7  17    4.09    0.90
   0   7 -17    2.00    0.75
   0  -7  17    2.00    0.71
  -1   7 -17    1.04    0.67
   1  -7  17   -0.04    0.59
  -2   7 -17    1.54    0.80
   2  -7  17    2.28    0.76
  -3   7 -17    8.17    1.35
   3  -7  17    9.28    1.20
  -4   7 -17   17.58    1.81
   4  -7  17   18.54    1.57
  -5   7 -17    6.87    1.38
   5  -7  17    8.13    1.16
   7   6 -17    0.81    0.63
   6   6 -17    1.34    0.76
  -5  -6  17    2.55    0.84
  -4  -6  17    2.79    0.87
   3   6 -17    2.95    0.65
  -3  -6  17    1.78    0.81
   2   6 -17    5.32    0.85
  -2  -6  17    5.45    0.98
   1   6 -17    6.40    0.94
  -1  -6  17    5.09    0.98
   0   6 -17    5.37    0.94
   0  -6  17    7.59    1.04
  -1   6 -17   10.22    1.28
   1  -6  17    8.74    1.14
  -2   6 -17    1.01    0.69
   2  -6  17    1.91    0.68
  -3   6 -17    1.18    0.75
   3  -6  17    0.15    0.57
  -4   6 -17    7.09    1.26
   4  -6  17    8.41    1.15
  -5   6 -17    1.36    0.89
   5  -6  17    0.52    0.63
  -6   6 -17   -0.31    0.86
   6  -6  17    0.17    0.70
  -7   6 -17   -0.37    0.90
   7  -6  17    1.34    0.73
   8   5 -17    1.76    0.70
   7   5 -17    0.92    0.68
   6   5 -17   -0.04    0.57
  -5  -5  17    0.25    0.71
   4   5 -17   11.25    0.99
  -4  -5  17   13.25    1.46
   3   5 -17   29.37    1.74
  -3  -5  17   35.76    2.13
   2   5 -17   13.02    1.13
  -2  -5  17   13.29    1.41
   1   5 -17    5.34    0.85
  -1  -5  17    5.86    0.99
   0   5 -17   17.20    1.40
   0  -5  17   19.53    1.49
  -1   5 -17    2.90    0.77
   1  -5  17    2.99    0.75
  -2   5 -17   10.23    1.28
   2  -5  17   10.40    1.20
  -3   5 -17    6.44    1.11
   3  -5  17    6.12    0.96
  -4   5 -17   18.82    1.68
   4  -5  17   17.67    1.44
  -5   5 -17    0.87    0.82
   5  -5  17    0.21    0.57
  -6   5 -17   17.24    1.98
   6  -5  17   16.20    1.53
  -7   5 -17    0.47    0.97
   7  -5  17   -0.66    0.63
  -8   5 -17   11.78    1.84
   8  -5  17    9.76    1.35
   8   4 -17    0.27    0.56
   7   4 -17    0.80    0.60
   6   4 -17    2.91    0.79
  -5  -4  17    1.05    0.74
   4   4 -17   -0.02    0.34
  -4  -4  17    0.25    0.59
   3   4 -17    2.65    0.62
  -3  -4  17    2.26    0.75
   2   4 -17    0.25    0.40
  -2  -4  17   -0.44    0.54
   1   4 -17   10.55    1.06
  -1  -4  17   10.59    1.18
   0   4 -17    0.20    0.46
   0  -4  17    0.68    0.55
  -1   4 -17    5.18    0.92
   1  -4  17    2.87    0.72
  -2   4 -17    3.32    0.84
   2  -4  17    4.26    0.77
  -3   4 -17    0.22    0.59
   3  -4  17    0.46    0.52
  -4   4 -17    1.60    0.72
   4  -4  17    2.33    0.69
  -5   4 -17    1.60    0.83
   5  -4  17    1.20    0.63
  -6   4 -17    0.36    0.81
   6  -4  17   -0.05    0.59
  -7   4 -17    2.02    0.99
   7  -4  17    1.26    0.74
  -8   4 -17    3.18    1.15
   8  -4  17    2.84    0.92
   9  -4  17    0.96    0.76
   7   3 -17    5.21    0.93
   6   3 -17   11.16    1.30
  -5  -3  17    1.56    0.77
   4   3 -17    5.04    0.73
  -4  -3  17    4.76    0.97
   3   3 -17    9.02    0.90
  -3  -3  17    8.92    1.13
   2   3 -17   -0.17    0.38
  -2  -3  17    0.82    0.56
   1   3 -17   38.41    2.11
  -1  -3  17   38.82    2.13
   0   3 -17    1.08    0.54
   0  -3  17   -0.21    0.46
  -1   3 -17   74.43    3.51
   1  -3  17   75.90    3.32
  -2   3 -17    7.03    1.05
   2  -3  17    7.27    0.93
  -3   3 -17   15.34    1.49
   3  -3  17   19.83    1.38
  -4   3 -17    1.12    0.62
   4  -3  17    1.00    0.54
  -5   3 -17    2.45    0.87
   5  -3  17    2.62    0.69
  -6   3 -17   -0.16    0.65
   6  -3  17   -0.29    0.51
  -7   3 -17    0.67    0.75
   7  -3  17    1.07    0.68
  -8   3 -17    9.18    1.52
   8  -3  17    9.12    1.28
  -9   3 -17   12.19    1.80
   9  -3  17    5.92    1.15
  -8  -2  17    3.68    0.74
  -7  -2  17   -0.22    0.40
   6   2 -17    4.34    0.83
  -6  -2  17    4.66    0.69
   5   2 -17    5.08    0.90
  -5  -2  17    4.18    0.82
   4   2 -17    0.18    0.35
  -4  -2  17    0.03    0.59
   3   2 -17    4.13    0.68
  -3  -2  17    3.58    0.79
   2   2 -17    0.35    0.42
  -2  -2  17    0.45    0.56
   1   2 -17    0.21    0.46
  -1  -2  17    0.39    0.50
   0   2 -17    0.91    0.52
   0  -2  17    0.97    0.50
  -1   2 -17    2.48    0.71
   1  -2  17    1.54    0.55
  -2   2 -17    7.33    1.10
   2  -2  17    9.98    1.03
  -3   2 -17    0.35    0.54
   3  -2  17    0.73    0.50
  -4   2 -17    3.18    0.78
   4  -2  17    2.57    0.63
  -5   2 -17   33.05    2.22
   5  -2  17   38.99    2.05
  -6   2 -17    1.97    0.80
   6  -2  17    2.60    0.73
  -7   2 -17    0.84    0.73
   7  -2  17    0.93    0.65
  -8   2 -17    4.12    1.11
   8  -2  17    6.61    1.10
  -9   2 -17    1.91    1.01
   9  -2  17    1.36    0.79
 -10   2 -17   -0.01    0.95
  10  -2  17    0.01    0.74
   8   1 -17    2.58    0.59
   6   1 -17   12.30    0.95
   5   1 -17    3.76    0.57
   5   1 -17    3.08    0.70
   4   1 -17   11.34    0.99
   4   1 -17   12.19    0.83
  -4  -1  17   11.21    1.26
   3   1 -17    2.53    0.61
  -3  -1  17    1.74    0.64
   2   1 -17    3.89    0.75
  -2  -1  17    4.55    0.79
   1   1 -17    2.80    0.66
  -1  -1  17    1.39    0.56
   0   1 -17    1.24    0.57
   0  -1  17    1.18    0.51
  -1   1 -17   17.13    1.38
   1  -1  17   16.53    1.19
  -2   1 -17   10.01    1.23
   2  -1  17   11.20    0.98
  -3   1 -17    7.28    1.08
   3  -1  17    8.11    0.91
  -4   1 -17   13.24    1.34
   4  -1  17   14.81    1.12
  -5   1 -17   37.24    2.25
  -6   1 -17   25.35    1.87
   6  -1  17   26.37    1.68
  -7   1 -17    1.39    0.75
   7  -1  17    0.32    0.58
  -8   1 -17    1.42    0.78
   8  -1  17   -0.10    0.60
  -9   1 -17    1.76    0.93
   9  -1  17    1.78    0.79
 -10   1 -17    3.28    1.07
  10  -1  17    3.56    0.95
  11  -1  17    5.80    1.15
   7   0 -17    1.18    0.50
   6   0 -17    2.72    0.61
   5   0 -17    2.07    0.49
  -5   0  17    1.07    0.68
   4   0 -17   -0.30    0.41
   4   0 -17   -0.06    0.28
  -4   0  17   -0.14    0.57
   3   0 -17    1.08    0.33
  -3   0  17    0.12    0.53
  -3   0  17    1.05    0.69
   2   0 -17   41.62    1.82
  -2   0  17   44.01    2.51
  -2   0  17   45.34    2.21
   1   0 -17    3.92    0.72
  -1   0  17    4.21    0.71
   0   0 -17    3.11    0.71
   0   0  17    2.66    0.58
  -1   0 -17   37.37    2.18
   1   0  17   34.95    1.86
  -2   0 -17   23.38    1.68
   2   0  17   19.58    1.28
  -3   0 -17   12.00    1.23
   3   0  17   10.41    0.92
  -4   0 -17    0.67    0.54
   4   0  17    0.74    0.45
  -5   0 -17    0.89    0.63
   5   0  17    1.43    0.52
  -6   0 -17    2.51    0.77
   6   0  17    2.10    0.60
  -7   0 -17    2.16    0.79
   7   0  17    1.08    0.57
  -8   0 -17   -0.21    0.59
   8   0  17    0.12    0.55
  -9   0 -17    0.96    0.78
   9   0  17    0.93    0.68
 -10   0 -17    0.83    0.83
  10   0  17    0.12    0.68
  11   0  17   -0.36    0.69
   7  -1 -17    0.65    0.43
   6  -1 -17    3.52    0.65
   5  -1 -17    1.58    0.50
  -5   1  17    1.75    0.73
   4  -1 -17    5.09    0.66
  -4   1  17    4.21    0.93
   3  -1 -17    4.33    0.55
  -3   1  17    2.19    0.77
   2  -1 -17   31.46    1.50
  -2   1  17   33.65    2.13
  -2   1  17   34.42    1.84
   1  -1 -17   15.12    0.84
  -1   1  17   15.55    1.58
  -1   1  17   16.17    1.19
   0  -1 -17    1.26    0.32
   0   1  17    1.18    0.47
   0   1  17    2.59    0.92
   1   1  17    1.69    0.84
   1   1  17    2.35    0.54
  -2  -1 -17   16.95    1.42
   2   1  17   17.17    1.17
  -3  -1 -17    9.67    1.21
   3   1  17   10.96    0.93
  -4  -1 -17   24.56    1.75
   4   1  17   26.00    1.44
  -5  -1 -17    0.91    0.60
   5   1  17    1.13    0.50
  -6  -1 -17   34.53    2.16
   6   1  17   34.19    1.82
  -7  -1 -17    1.40    0.69
   7   1  17    0.79    0.50
  -8  -1 -17   36.13    2.25
   8   1  17   34.34    1.99
  -9  -1 -17    6.69    1.13
   9   1  17    8.56    1.16
  10   1  17    6.94    1.10
  11   1  17   -0.03    0.69
  12   1  17   -0.32    0.75
   7  -2 -17    0.01    0.48
   6  -2 -17    1.70    0.55
   5  -2 -17    4.08    0.68
  -5   2  17    2.42    0.90
   4  -2 -17    7.65    0.82
  -4   2  17    6.17    1.16
   3  -2 -17    1.83    0.41
  -3   2  17    1.81    0.82
   2  -2 -17    6.94    0.69
  -2   2  17    7.94    1.24
   1  -2 -17    7.51    0.60
  -1   2  17    6.95    1.22
  -1   2  17    7.02    0.97
   0  -2 -17    8.74    0.64
   0   2  17    9.73    1.38
   0   2  17    9.05    0.89
  -1  -2 -17    2.60    0.39
   1   2  17    2.70    0.94
   1   2  17    2.53    0.55
   2   2  17   11.08    1.65
   2   2  17   10.80    0.94
   3   2  17   -0.15    0.34
  -4  -2 -17    0.68    0.48
   4   2  17   -0.40    0.33
  -5  -2 -17    5.88    0.98
   5   2  17    7.63    0.83
  -6  -2 -17    1.79    0.66
   6   2  17    1.71    0.52
  -7  -2 -17    1.37    0.62
   7   2  17    1.56    0.55
  -8  -2 -17    0.77    0.62
   8   2  17    1.58    0.59
  -9  -2 -17    3.40    0.87
   9   2  17    4.09    0.83
 -10  -2 -17    4.16    0.87
  10   2  17    2.73    0.82
  11   2  17   -0.44    0.62
  12   2  17    1.83    0.85
   6  -3 -17    0.66    0.46
   5  -3 -17    7.63    0.88
  -5   3  17    6.96    1.24
   4  -3 -17   10.88    0.92
  -4   3  17    9.35    1.43
   3  -3 -17    4.20    0.60
  -3   3  17    4.67    1.11
   2  -3 -17    2.83    0.48
  -2   3  17    2.23    0.91
   1  -3 -17   19.69    1.07
  -1   3  17   19.58    1.85
   0  -3 -17    1.09    0.32
   0   3  17    0.39    0.69
  -1  -3 -17   62.12    2.59
   1   3  17   67.16    2.73
   1   3  17   65.12    3.53
  -2  -3 -17    0.46    0.27
   2   3  17   -0.68    0.31
   2   3  17   -0.04    0.69
  -3  -3 -17   39.32    1.73
   3   3  17   40.87    1.89
   3   3  17   32.22    2.53
   4   3  17    9.64    0.86
   4   3  17    9.38    1.66
  -5  -3 -17    8.91    1.13
   5   3  17   10.37    0.91
  -6  -3 -17    9.18    1.13
   6   3  17   11.89    0.97
  -7  -3 -17   20.05    1.49
   7   3  17   19.69    1.30
  -8  -3 -17    2.24    0.72
   8   3  17    3.16    0.67
  -9  -3 -17    0.52    0.56
   9   3  17    1.05    0.59
 -10  -3 -17   13.78    1.36
  10   3  17   13.20    1.38
  11   3  17    9.92    1.26
  12   3  17    2.62    0.87
   6  -4 -17   -0.33    0.44
   5  -4 -17    1.16    0.53
  -5   4  17   -0.08    0.78
   4  -4 -17    0.28    0.40
  -4   4  17   -0.09    0.73
   3  -4 -17    0.17    0.34
  -3   4  17    0.06    0.76
   2  -4 -17    7.71    0.77
  -2   4  17    8.87    1.43
   1  -4 -17    0.39    0.30
  -1   4  17    1.43    0.85
   0  -4 -17    4.78    0.57
   0   4  17    4.27    1.07
  -1  -4 -17    0.46    0.30
   1   4  17    0.46    0.72
  -2  -4 -17    0.74    0.33
   2   4  17    0.35    0.69
  -3  -4 -17   21.34    1.19
   3   4  17   21.66    1.99
   3   4  17   22.52    1.25
  -4  -4 -17    0.16    0.33
   4   4  17   -0.10    0.72
   4   4  17    0.68    0.38
   5   4  17    1.84    0.90
   5   4  17    0.66    0.41
  -6  -4 -17   -0.14    0.41
   6   4  17    0.06    0.37
  -7  -4 -17   12.06    1.11
   7   4  17   14.75    1.07
  -8  -4 -17    9.89    1.15
   8   4  17   10.14    1.05
  -9  -4 -17    4.32    0.83
   9   4  17    3.61    0.77
 -10  -4 -17    5.96    0.97
  10   4  17    6.04    0.94
  11   4  17    3.71    0.86
  12   4  17    0.36    0.66
   5  -5 -17    0.72    0.49
  -5   5  17   -0.04    0.77
   4  -5 -17    7.53    0.86
  -4   5  17    6.09    1.30
   3  -5 -17    0.74    0.42
  -3   5  17    0.14    0.81
   2  -5 -17   17.87    1.14
  -2   5  17   18.44    1.89
   1  -5 -17    5.99    0.68
  -1   5  17    4.86    1.20
   0  -5 -17   12.22    0.85
   0   5  17   10.75    1.49
  -1  -5 -17    1.16    0.37
   1   5  17    0.70    0.75
  -2  -5 -17    0.90    0.39
   2   5  17    0.50    0.77
  -3  -5 -17   23.44    1.32
   3   5  17   26.32    2.16
  -4  -5 -17   12.54    0.96
   4   5  17   12.22    1.67
  -5  -5 -17   18.98    1.24
   5   5  17   17.45    1.11
   5   5  17   15.86    1.81
  -6  -5 -17    0.48    0.43
   6   5  17    1.32    0.43
   6   5  17    0.76    0.79
  -7  -5 -17   10.61    1.06
   7   5  17   14.70    1.07
  -8  -5 -17   10.76    1.06
   8   5  17   12.67    1.07
  -9  -5 -17    3.57    0.71
   9   5  17    2.66    0.65
 -10  -5 -17    6.50    0.93
  10   5  17    9.11    1.06
  11   5  17    2.47    0.71
  12   5  17    6.77    1.11
  13   5  17    2.39    0.88
   5  -6 -17   -0.06    0.46
  -5   6  17   -0.02    0.82
   4  -6 -17    1.34    0.52
  -4   6  17    2.33    1.03
   3  -6 -17    0.31    0.40
  -3   6  17   -0.26    0.73
   2  -6 -17    1.07    0.45
  -2   6  17    1.33    0.88
   1  -6 -17   -0.34    0.34
  -1   6  17   -0.39    0.74
   0  -6 -17    9.34    0.86
   0   6  17   11.72    1.55
  -1  -6 -17   21.65    1.24
   1   6  17   22.43    2.03
  -2  -6 -17    0.52    0.38
   2   6  17   -0.20    0.65
  -3  -6 -17   22.10    1.30
   3   6  17   22.34    1.97
  -4  -6 -17   38.07    1.84
   4   6  17   32.13    2.40
  -5  -6 -17   -0.10    0.44
   5   6  17   -0.30    0.60
  -6  -6 -17    7.95    0.94
   6   6  17    5.83    1.13
   6   6  17    8.09    0.78
  -7  -6 -17    0.74    0.50
   7   6  17    0.70    0.40
   7   6  17    0.32    0.66
  -8  -6 -17    1.19    0.66
  -8  -6 -17    1.49    0.52
   8   6  17    1.25    0.51
  -9  -6 -17    1.08    0.49
   9   6  17    1.70    0.57
  10   6  17   -0.44    0.46
  11   6  17    1.10    0.60
  12   6  17    5.64    0.98
  13   6  17    3.77    0.91
   4  -7 -17    2.43    0.64
  -4   7  17    2.05    0.93
   3  -7 -17    1.85    0.56
  -3   7  17    1.86    0.92
   2  -7 -17    4.19    0.70
  -2   7  17    3.43    1.08
   1  -7 -17   -0.06    0.38
  -1   7  17    0.02    0.73
   0  -7 -17   23.76    1.40
   0   7  17   26.39    2.17
  -1  -7 -17   11.88    0.99
   1   7  17   13.65    1.71
  -2  -7 -17   12.97    1.01
   2   7  17   13.41    1.68
  -3  -7 -17    3.57    0.63
   3   7  17    1.75    0.90
  -4  -7 -17    8.97    0.96
   4   7  17    6.97    1.28
  -5  -7 -17    2.75    0.68
   5   7  17    1.97    0.85
  -6  -7 -17    3.45    0.75
   6   7  17    5.26    1.12
  -7  -7 -17    2.60    0.68
   7   7  17    2.81    0.87
  -8  -7 -17   17.22    1.34
   8   7  17   18.14    1.22
   8   7  17   19.15    1.67
  -9  -7 -17    0.75    0.45
  -9  -7 -17   -0.35    0.44
   9   7  17    0.94    0.50
  10   7  17   14.04    1.24
  11   7  17    7.94    1.05
  12   7  17    9.08    1.16
  13   7  17    0.85    0.68
   3  -8 -17    5.40    0.82
  -3   8  17    6.19    1.35
   2  -8 -17    0.31    0.45
  -2   8  17    1.22    0.88
   1  -8 -17    1.17    0.49
  -1   8  17    0.83    0.85
   0   8  17    1.19    0.85
  -1  -8 -17    6.94    0.86
   1   8  17    6.88    1.29
  -2  -8 -17    2.08    0.55
   2   8  17    2.53    0.96
  -3  -8 -17    0.79    0.51
   3   8  17    0.39    0.73
  -4  -8 -17    0.55    0.50
   4   8  17    0.13    0.74
  -5  -8 -17   18.42    1.41
   5   8  17   17.85    1.81
  -6  -8 -17    0.75    0.61
   6   8  17   -0.52    0.58
  -7  -8 -17    0.46    0.54
   7   8  17   -0.11    0.63
  -8  -8 -17    9.97    1.10
   8   8  17   10.17    1.27
  -9  -8 -17    3.29    0.79
   9   8  17    3.29    0.87
 -10  -8 -17    0.50    0.55
  10   8  17    1.75    0.61
  11   8  17    1.75    0.66
  12   8  17   -0.22    0.54
  13   8  17    0.49    0.65
   2  -9 -17    0.21    0.48
  -2   9  17   -0.27    0.78
   1  -9 -17    1.52    0.57
  -1   9  17    0.54    0.87
   0  -9 -17    0.73    0.50
   0   9  17   -0.48    0.73
  -1  -9 -17   12.71    1.08
   1   9  17   10.51    1.53
  -2  -9 -17    1.12    0.52
   2   9  17    0.16    0.75
  -3  -9 -17   25.79    1.57
   3   9  17   23.90    2.00
  -4  -9 -17    4.49    0.82
   4   9  17    3.66    1.07
  -5  -9 -17   35.38    1.99
   5   9  17   28.37    2.26
  -6  -9 -17    0.87    0.66
   6   9  17    1.49    0.86
  -7  -9 -17    3.84    0.84
   7   9  17    4.92    1.04
  -8  -9 -17    4.67    0.89
   8   9  17    4.13    0.93
  -9  -9 -17    3.49    0.81
   9   9  17    4.30    0.94
 -10  -9 -17    1.49    0.68
 -11  -9 -17    0.28    0.64
   1 -10 -17   -0.38    0.47
  -1  10  17    1.13    0.94
   0 -10 -17    0.83    0.55
   0  10  17    0.46    0.87
  -1 -10 -17    7.37    0.95
   1  10  17    7.12    1.31
  -2 -10 -17   -0.02    0.50
   2  10  17    0.47    0.74
  -3 -10 -17    0.32    0.54
   3  10  17    0.36    0.75
  -4 -10 -17   -0.18    0.56
   4  10  17   -0.14    0.74
  -5 -10 -17    8.08    1.12
   5  10  17    7.64    1.35
  -6 -10 -17    1.63    0.76
   6  10  17    0.04    0.70
  -7 -10 -17    1.96    0.80
   7  10  17    2.44    0.91
  -8 -10 -17    0.02    0.64
   8  10  17    2.37    0.81
  -9 -10 -17   -0.52    0.59
 -10 -10 -17   -0.53    0.59
 -11 -10 -17    0.73    0.66
 -12 -10 -17   -0.68    0.59
   0 -11 -17    2.17    0.68
  -1 -11 -17   -0.29    0.51
   1  11  17   -0.14    0.82
  -2 -11 -17    2.84    0.76
   2  11  17    1.62    0.93
  -3 -11 -17    0.15    0.59
   3  11  17    0.97    0.87
  -4 -11 -17    0.71    0.64
   4  11  17   -0.24    0.68
  -5 -11 -17   25.73    1.83
   5  11  17   20.34    1.92
  -6 -11 -17   11.82    1.43
   6  11  17   11.28    1.59
  -7 -11 -17   18.09    1.63
   7  11  17   14.56    1.73
  -8 -11 -17    1.03    0.75
   8  11  17    0.16    0.70
  -9 -11 -17    4.88    1.01
 -10 -11 -17    2.38    0.83
 -11 -11 -17    0.66    0.69
  -2 -12 -17    3.21    0.86
   2  12  17    0.78    0.94
  -3 -12 -17    0.56    0.67
   3  12  17   -0.65    0.74
  -4 -12 -17    0.38    0.69
   4  12  17    2.04    0.96
  -5 -12 -17    2.45    0.89
   5  12  17    1.40    0.91
  -6 -12 -17    3.89    1.04
   6  12  17    3.84    1.09
  -7 -12 -17   -0.06    0.74
   7  12  17    0.31    0.76
  -8 -12 -17    1.94    0.84
   8  12  17    1.65    0.84
  -9 -12 -17    1.36    0.81
 -10 -12 -17   -0.65    0.70
  -5 -13 -17   -0.58    0.67
   5  13  17   -0.61    0.71
  -6 -13 -17    0.56    0.79
   6  13  17    0.53    0.83
  -7 -13 -17    1.28    0.82
   7  13  17    2.08    0.95
  -8 -13 -17    3.43    1.02
  -3  -9  18    1.37    0.83
   2   9 -18    2.77    0.84
  -2  -9  18    0.97    0.80
   1   9 -18    1.18    0.77
  -1  -9  18    0.93    0.75
   0   9 -18    0.75    0.71
   0  -9  18    1.24    0.73
  -5  -8  18    2.78    0.99
  -4  -8  18   25.44    1.98
  -3  -8  18    8.46    1.26
   2   8 -18    0.48    0.61
  -2  -8  18    1.15    0.72
   1   8 -18    1.66    0.71
  -1  -8  18    0.90    0.70
   0   8 -18    0.51    0.67
   0  -8  18    0.82    0.71
  -1   8 -18    6.46    1.21
   1  -8  18    5.89    1.05
  -2   8 -18    0.46    0.76
   2  -8  18    0.34    0.67
  -3   8 -18    2.00    0.96
   3  -8  18    5.12    1.05
   6   7 -18    0.60    0.76
  -5  -7  18    3.86    1.03
  -4  -7  18    1.48    0.83
   3   7 -18   -0.11    0.42
  -3  -7  18   -0.26    0.62
   2   7 -18    1.33    0.61
  -2  -7  18    1.38    0.76
   1   7 -18    5.26    0.98
  -1  -7  18    7.81    1.16
   0   7 -18    1.76    0.76
   0  -7  18    2.52    0.78
  -1   7 -18   -0.06    0.65
   1  -7  18    0.22    0.62
  -2   7 -18    1.73    0.87
   2  -7  18    3.11    0.85
  -3   7 -18    2.21    0.91
   3  -7  18    2.97    0.87
  -4   7 -18   -1.00    0.63
   4  -7  18   -0.27    0.62
  -5   7 -18    0.29    0.89
   5  -7  18    0.28    0.70
   6   6 -18    5.67    1.09
  -5  -6  18    1.33    0.86
  -4  -6  18    3.36    0.90
   3   6 -18    0.36    0.45
  -3  -6  18    0.01    0.65
   2   6 -18   24.01    1.64
  -2  -6  18   24.72    1.81
   1   6 -18    7.38    1.04
  -1  -6  18    7.89    1.14
   0   6 -18   20.56    1.62
   0  -6  18   21.22    1.65
  -1   6 -18    7.05    1.12
   1  -6  18    7.72    1.13
  -2   6 -18    1.10    0.78
   2  -6  18    0.30    0.58
  -3   6 -18    1.74    0.88
   3  -6  18    3.01    0.84
  -4   6 -18    0.86    0.80
   4  -6  18    0.39    0.65
  -5   6 -18    2.73    1.02
   5  -6  18    2.28    0.83
  -6   6 -18    1.01    1.00
   6  -6  18    0.94    0.74
   7   5 -18    4.41    0.95
   6   5 -18   -0.15    0.56
  -5  -5  18    1.72    0.83
  -4  -5  18    8.87    1.23
   3   5 -18    0.66    0.45
  -3  -5  18    0.42    0.65
   2   5 -18    5.07    0.82
  -2  -5  18    3.52    0.89
   1   5 -18    0.14    0.45
  -1  -5  18   -0.28    0.52
   0   5 -18    2.56    0.72
   0  -5  18    2.25    0.69
  -1   5 -18    0.11    0.50
   1  -5  18   -0.78    0.48
  -2   5 -18   -0.10    0.56
   2  -5  18   -0.28    0.51
  -3   5 -18    2.01    0.82
   3  -5  18    3.26    0.78
  -4   5 -18    3.17    0.97
   4  -5  18    2.87    0.80
  -5   5 -18    2.33    0.95
   5  -5  18    2.30    0.79
  -6   5 -18    1.15    0.94
   6  -5  18    0.97    0.68
  -7   5 -18    0.52    0.91
   7  -5  18   -0.44    0.67
   7   4 -18   10.46    1.32
   6   4 -18    2.41    0.79
  -5  -4  18    6.89    1.16
   4   4 -18   -0.16    0.39
  -4  -4  18   -0.21    0.60
   3   4 -18    8.66    0.99
  -3  -4  18    7.16    1.08
   2   4 -18    1.83    0.57
  -2  -4  18    2.89    0.74
   1   4 -18    4.70    0.82
  -1  -4  18    3.43    0.81
   0   4 -18    2.55    0.71
   0  -4  18    2.46    0.73
  -1   4 -18   26.96    1.88
   1  -4  18   27.09    1.76
  -2   4 -18    6.00    1.05
   2  -4  18    6.97    0.97
  -3   4 -18   10.60    1.39
   3  -4  18   12.39    1.29
  -4   4 -18    3.01    0.89
   4  -4  18    3.14    0.76
  -5   4 -18   17.18    1.73
   5  -4  18   18.10    1.47
  -6   4 -18    2.29    0.98
   6  -4  18    1.31    0.70
  -7   4 -18    0.35    0.89
   7  -4  18    0.28    0.69
  -8   4 -18   -0.13    0.86
   8  -4  18    0.13    0.69
   7   3 -18    0.83    0.61
   6   3 -18   -0.07    0.54
   5   3 -18    1.61    0.71
   4   3 -18    0.27    0.42
  -4  -3  18   -0.49    0.58
   3   3 -18   20.60    1.41
  -3  -3  18   20.72    1.62
   2   3 -18    0.31    0.44
  -2  -3  18    0.06    0.58
   1   3 -18    0.38    0.47
  -1  -3  18    0.93    0.57
   0   3 -18   30.54    1.89
   0  -3  18   28.66    1.77
  -1   3 -18    0.91    0.62
   1  -3  18    1.52    0.63
  -2   3 -18    0.69    0.55
   2  -3  18    1.17    0.60
  -3   3 -18   -0.35    0.55
   3  -3  18    0.20    0.52
  -4   3 -18    1.79    0.77
   4  -3  18    1.70    0.65
  -5   3 -18    0.38    0.66
   5  -3  18    0.57    0.61
  -6   3 -18    1.51    0.86
   6  -3  18    2.96    0.80
  -7   3 -18   -0.39    0.69
   7  -3  18   -0.64    0.62
  -8   3 -18    1.14    1.00
   8  -3  18   -0.15    0.63
  -9   3 -18    1.46    1.01
   9  -3  18    0.78    0.79
   6   2 -18   10.56    1.31
   5   2 -18    2.13    0.70
   4   2 -18    7.54    0.91
  -4  -2  18    5.95    1.01
   3   2 -18    1.33    0.54
  -3  -2  18    1.32    0.65
   2   2 -18   25.15    1.63
  -2  -2  18   28.26    1.73
   1   2 -18    2.95    0.73
  -1  -2  18    2.44    0.67
   0   2 -18    0.09    0.46
   0  -2  18    0.41    0.48
  -1   2 -18    0.70    0.60
   1  -2  18    1.50    0.56
  -2   2 -18    9.75    1.29
   2  -2  18    9.60    1.05
  -3   2 -18   22.67    1.76
   3  -2  18   21.86    1.47
  -4   2 -18    5.19    1.01
   4  -2  18    7.40    0.93
  -5   2 -18    9.45    1.31
   5  -2  18   10.54    1.14
  -6   2 -18    6.56    1.16
   6  -2  18    4.51    0.92
  -7   2 -18    1.49    0.82
   7  -2  18    1.36    0.70
  -8   2 -18   15.48    1.86
   8  -2  18   15.83    1.57
  -9   2 -18    2.09    1.03
   9  -2  18    1.15    0.80
 -10   2 -18    4.70    1.27
  10  -2  18    4.12    1.11
   7   1 -18   16.10    1.18
   6   1 -18    0.53    0.44
   4   1 -18    0.62    0.45
  -4  -1  18   -0.01    0.67
   3   1 -18    3.30    0.67
  -3  -1  18    3.52    0.80
   2   1 -18    2.52    0.63
  -2  -1  18    3.26    0.74
   1   1 -18    7.16    0.99
  -1  -1  18    6.72    0.91
   0   1 -18    4.16    0.79
   0  -1  18    4.99    0.76
  -1   1 -18    1.12    0.63
   1  -1  18    0.95    0.52
  -2   1 -18    0.15    0.52
   2  -1  18   -0.10    0.44
  -3   1 -18    9.90    1.30
   3  -1  18   10.30    1.05
  -4   1 -18    2.90    0.84
   4  -1  18    3.30    0.66
  -5   1 -18    2.57    0.85
   5  -1  18    2.96    0.68
  -6   1 -18    2.75    0.89
   6  -1  18    3.54    0.75
  -7   1 -18    0.52    0.68
   7  -1  18    0.27    0.57
  -8   1 -18    0.98    0.76
   8  -1  18    0.38    0.67
  -9   1 -18    2.49    0.96
   9  -1  18    1.35    0.81
 -10   1 -18    2.41    1.02
  10  -1  18    1.04    0.82
   7   0 -18    2.16    0.56
   6   0 -18    1.05    0.46
   5   0 -18    4.87    0.70
   4   0 -18   12.48    1.07
   4   0 -18   12.38    0.92
   3   0 -18    1.01    0.49
  -3   0  18    1.61    0.66
   2   0 -18   11.88    1.12
  -2   0  18   10.76    1.14
   1   0 -18    0.12    0.41
  -1   0  18    0.78    0.53
   0   0 -18   28.24    1.84
   0   0  18   31.11    1.71
  -1   0 -18    7.70    1.09
   1   0  18    8.47    0.97
  -2   0 -18   20.44    1.63
   2   0  18   19.60    1.34
  -3   0 -18    4.21    0.97
   3   0  18    4.27    0.71
  -4   0 -18    1.38    0.65
   4   0  18    1.00    0.51
  -5   0 -18   20.24    1.66
   5   0  18   18.88    1.34
  -6   0 -18   10.38    1.35
   6   0  18   10.49    1.14
  -7   0 -18   26.14    1.99
   7   0  18   31.58    1.81
  -8   0 -18    0.24    0.63
   8   0  18    0.29    0.59
  -9   0 -18    5.80    1.13
   9   0  18    4.92    1.01
 -10   0 -18    5.96    1.19
  10   0  18    5.25    1.06
  11   0  18    6.09    1.17
   7  -1 -18    2.09    0.61
   6  -1 -18   -0.07    0.41
   5  -1 -18    0.55    0.41
  -5   1  18   -0.13    0.82
   4  -1 -18    7.14    0.78
  -4   1  18    6.73    1.14
   3  -1 -18    1.45    0.38
  -3   1  18    1.10    0.75
   2  -1 -18    3.36    0.47
  -2   1  18    4.04    1.03
  -2   1  18    4.00    1.00
  -1   1  18    4.37    0.76
  -1   1  18    4.50    1.09
   0   1  18    0.75    0.74
   0   1  18    0.36    0.46
  -1  -1 -18    2.21    0.67
   1   1  18    2.20    0.59
  -2  -1 -18    7.31    1.06
   2   1  18    8.09    0.92
  -3  -1 -18    6.62    1.05
   3   1  18    7.97    0.89
  -4  -1 -18    0.34    0.53
   4   1  18    0.07    0.39
  -5  -1 -18    4.82    0.95
   5   1  18    4.47    0.73
  -6  -1 -18    0.38    0.55
   6   1  18    0.60    0.48
  -7  -1 -18   -0.33    0.60
   7   1  18   -0.18    0.44
  -8  -1 -18    4.46    0.98
   8   1  18    5.00    0.88
  -9  -1 -18    0.57    0.66
   9   1  18   -0.76    0.54
 -10  -1 -18    1.09    0.75
  10   1  18    0.78    0.68
  11   1  18    6.83    1.16
   6  -2 -18   -0.50    0.37
   5  -2 -18   16.03    1.17
  -5   2  18   17.45    1.73
   4  -2 -18    0.72    0.40
  -4   2  18   -0.06    0.68
   3  -2 -18    7.57    0.77
  -3   2  18    7.84    1.28
   2  -2 -18    4.63    0.57
  -2   2  18    4.53    1.09
   1  -2 -18   16.58    0.95
  -1   2  18   18.79    1.70
   0  -2 -18    5.86    0.54
   0   2  18    5.63    0.75
   0   2  18    6.19    1.17
   1   2  18    3.81    0.64
   1   2  18    3.25    1.09
   2   2  18    5.70    1.32
   2   2  18    5.08    0.73
  -3  -2 -18   25.52    1.80
   3   2  18   27.65    1.51
  -4  -2 -18   24.75    1.76
   4   2  18   26.42    1.50
  -5  -2 -18    7.21    1.09
   5   2  18    8.47    0.91
  -6  -2 -18    1.09    0.63
   6   2  18    1.49    0.54
  -7  -2 -18    9.69    1.27
   7   2  18    9.31    1.03
  -8  -2 -18    1.61    0.73
   8   2  18    1.91    0.64
  -9  -2 -18    8.73    1.22
   9   2  18    9.30    1.11
 -10  -2 -18    4.51    0.96
  10   2  18    3.65    0.89
  11   2  18    4.93    1.02
  12   2  18   -0.08    0.74
   6  -3 -18    0.51    0.46
   5  -3 -18    1.35    0.52
  -5   3  18    1.28    0.86
   4  -3 -18    2.28    0.53
  -4   3  18    2.60    0.96
   3  -3 -18    0.13    0.36
  -3   3  18    0.84    0.80
   2  -3 -18    9.29    0.76
  -2   3  18    8.91    1.41
   1  -3 -18    1.06    0.35
  -1   3  18    1.68    0.86
   0  -3 -18    4.15    0.53
   0   3  18    5.53    1.16
  -1  -3 -18    0.49    0.27
   1   3  18    0.68    0.83
  -2  -3 -18    9.71    1.21
   2   3  18   10.76    0.93
   2   3  18    8.42    1.46
   3   3  18    3.55    1.19
   3   3  18    3.46    0.61
   4   3  18   20.65    2.35
   4   3  18   20.23    1.27
  -5  -3 -18    0.09    0.42
   5   3  18    0.06    0.39
  -6  -3 -18    4.12    0.87
   6   3  18    7.17    0.83
  -7  -3 -18    8.08    1.11
   7   3  18    7.10    0.88
  -8  -3 -18    0.46    0.57
   8   3  18   -0.21    0.44
  -9  -3 -18    6.02    1.04
   9   3  18    8.72    1.07
 -10  -3 -18    2.31    0.75
  10   3  18    1.31    0.69
  11   3  18    1.12    0.71
  12   3  18    1.03    0.72
   5  -4 -18    0.53    0.50
  -5   4  18    0.72    0.86
   4  -4 -18   12.22    1.00
  -4   4  18   10.23    1.54
   3  -4 -18    8.65    0.86
  -3   4  18    8.61    1.42
   2  -4 -18    5.39    0.68
  -2   4  18    6.77    1.30
   1  -4 -18    1.31    0.39
  -1   4  18    2.42    0.95
   0  -4 -18   18.75    1.07
   0   4  18   19.16    1.92
  -1  -4 -18    5.73    0.62
   1   4  18    4.94    1.16
  -2  -4 -18    9.39    0.75
   2   4  18    9.71    1.56
  -3  -4 -18    1.13    0.41
   3   4  18    1.44    0.65
   3   4  18    0.19    0.76
   4   4  18    1.76    0.50
   4   4  18    1.59    0.93
   5   4  18    0.26    0.87
   5   4  18    0.63    0.42
  -6  -4 -18    7.44    1.02
   6   4  18    8.75    0.90
  -7  -4 -18   19.49    1.52
   7   4  18   23.93    1.41
  -8  -4 -18   13.61    1.27
   8   4  18   14.05    1.16
  -9  -4 -18    2.18    0.72
   9   4  18    1.27    0.59
 -10  -4 -18   13.40    1.28
  10   4  18   12.59    1.23
  11   4  18    2.86    0.84
  12   4  18    9.39    1.28
   5  -5 -18    4.39    0.74
  -5   5  18    4.66    1.17
   4  -5 -18    4.27    0.70
  -4   5  18    4.16    1.14
   3  -5 -18    1.19    0.46
  -3   5  18    0.21    0.82
   2  -5 -18    2.01    0.50
  -2   5  18    1.31    0.93
   1  -5 -18   -0.17    0.35
  -1   5  18   -0.06    0.78
   0  -5 -18    0.44    0.33
   0   5  18    0.04    0.76
  -1  -5 -18    0.73    0.35
   1   5  18    0.48    0.79
  -2  -5 -18    6.60    0.73
   2   5  18    6.43    1.28
  -3  -5 -18    0.73    0.40
   3   5  18    1.83    0.85
  -4  -5 -18    3.49    0.61
   4   5  18    2.02    0.91
  -5  -5 -18    1.79    0.60
   5   5  18    2.55    0.95
   5   5  18    2.01    0.51
   6   5  18    0.51    0.81
   6   5  18    0.04    0.37
  -7  -5 -18    6.14    0.91
   7   5  18    8.03    0.88
  -8  -5 -18   19.04    1.39
   8   5  18   17.62    1.28
  -9  -5 -18    1.92    0.63
   9   5  18    0.67    0.54
 -10  -5 -18    1.66    0.62
  10   5  18    0.23    0.54
  11   5  18    1.60    0.67
  12   5  18    0.21    0.63
   4  -6 -18    0.41    0.43
  -4   6  18    0.07    0.82
   3  -6 -18   -0.16    0.39
  -3   6  18   -1.37    0.71
   2  -6 -18    1.06    0.47
  -2   6  18    1.17    0.95
   1  -6 -18    1.82    0.48
  -1   6  18    1.47    0.93
   0  -6 -18   26.50    1.46
   0   6  18   29.00    2.25
  -1  -6 -18    9.54    0.85
   1   6  18   10.06    1.57
  -2  -6 -18   14.88    1.02
   2   6  18   13.06    1.72
  -3  -6 -18    7.03    0.82
   3   6  18    6.06    1.26
  -4  -6 -18   22.79    1.41
   4   6  18   21.53    1.95
  -5  -6 -18   10.83    1.08
   5   6  18   10.34    1.49
  -6  -6 -18    5.09    0.80
   6   6  18    2.82    0.94
   7   6  18   12.38    1.00
   7   6  18   11.18    1.53
  -8  -6 -18    1.31    0.54
   8   6  18    0.82    0.48
  -9  -6 -18   23.29    1.56
   9   6  18   25.71    1.58
 -10  -6 -18    0.37    0.61
  10   6  18    0.37    0.52
  11   6  18   18.25    1.47
  12   6  18    5.61    1.01
   3  -7 -18    0.46    0.48
  -3   7  18    0.30    0.81
   2  -7 -18   -0.06    0.45
  -2   7  18    0.29    0.79
   1  -7 -18   -0.33    0.41
  -1   7  18    0.26    0.80
   0  -7 -18    3.01    0.57
   0   7  18    2.35    0.95
  -1  -7 -18    5.09    0.70
   1   7  18    4.13    1.14
  -2  -7 -18    1.81    0.51
   2   7  18    2.91    1.05
  -3  -7 -18    0.18    0.40
   3   7  18    0.71    0.77
  -4  -7 -18   -0.03    0.47
   4   7  18    1.34    0.81
  -5  -7 -18    7.47    0.97
   5   7  18    6.44    1.25
  -6  -7 -18    3.33    0.72
   6   7  18    2.70    0.87
  -7  -7 -18    0.80    0.58
   7   7  18    1.03    0.74
  -8  -7 -18    0.23    0.60
   8   7  18    0.30    0.71
  -9  -7 -18    1.65    0.58
   9   7  18    1.82    0.57
  10   7  18    0.04    0.49
  11   7  18    4.99    0.89
  12   7  18   -0.06    0.58
   2  -8 -18   -0.14    0.42
  -2   8  18   -0.67    0.74
   1  -8 -18    0.17    0.47
  -1   8  18   -0.90    0.70
   0  -8 -18    0.98    0.46
   0   8  18   -0.40    0.72
  -1  -8 -18    3.86    0.69
   1   8  18    3.18    1.04
  -2  -8 -18   11.46    1.01
   2   8  18    7.70    1.37
  -3  -8 -18    0.72    0.49
   3   8  18    0.56    0.78
  -4  -8 -18   25.47    1.59
   4   8  18   22.61    2.09
  -5  -8 -18   17.06    1.38
   5   8  18   14.83    1.80
  -6  -8 -18   23.02    1.65
   6   8  18   24.71    2.03
  -7  -8 -18    2.41    0.69
   7   8  18    2.38    0.86
  -8  -8 -18    0.56    0.59
   8   8  18    0.75    0.70
  -9  -8 -18    0.79    0.63
  -9  -8 -18    1.12    0.50
  11   8  18   12.50    1.45
  12   8  18    4.34    0.88
   1  -9 -18    0.26    0.48
  -1   9  18   -0.70    0.76
   0  -9 -18    2.36    0.66
   0   9  18    1.85    0.93
  -1  -9 -18    0.66    0.50
   1   9  18   -0.65    0.71
  -2  -9 -18   -0.29    0.44
   2   9  18    1.00    0.78
  -3  -9 -18    0.97    0.55
   3   9  18   -0.11    0.71
  -4  -9 -18   -0.25    0.55
   4   9  18    0.44    0.76
  -5  -9 -18    0.28    0.63
   5   9  18   -0.95    0.63
  -6  -9 -18    0.42    0.65
   6   9  18   -0.07    0.69
  -7  -9 -18    3.29    0.82
   7   9  18    3.66    0.97
  -8  -9 -18    6.84    1.02
   8   9  18    5.60    1.10
  -9  -9 -18    0.89    0.67
   9   9  18    0.15    0.70
 -10  -9 -18    0.33    0.57
   0 -10 -18    0.43    0.51
   0  10  18   -0.07    0.83
  -1 -10 -18    0.60    0.54
   1  10  18    1.05    0.86
  -2 -10 -18    1.78    0.66
   2  10  18    1.06    0.87
  -3 -10 -18    0.30    0.54
   3  10  18   -0.04    0.73
  -4 -10 -18    5.02    0.92
   4  10  18    4.92    1.16
  -5 -10 -18    2.40    0.79
   5  10  18    2.50    0.98
  -6 -10 -18   10.91    1.33
   6  10  18   13.35    1.69
  -7 -10 -18    3.43    0.90
   7  10  18    2.02    0.92
  -8 -10 -18   19.18    1.61
   8  10  18   20.31    1.83
  -9 -10 -18   12.69    1.42
 -10 -10 -18    5.91    0.98
 -11 -10 -18    1.66    0.73
  -1 -11 -18    1.85    0.67
   1  11  18    1.60    1.01
  -2 -11 -18   -0.01    0.55
   2  11  18   -0.20    0.79
  -3 -11 -18    1.77    0.73
   3  11  18    0.98    0.90
  -4 -11 -18    5.47    1.00
   4  11  18    4.34    1.13
  -5 -11 -18    5.09    1.02
   5  11  18    4.67    1.17
  -6 -11 -18   -0.35    0.72
   6  11  18    0.21    0.76
  -7 -11 -18    1.11    0.80
   7  11  18    0.06    0.74
  -8 -11 -18    0.36    0.75
   8  11  18    1.26    0.80
  -9 -11 -18   -0.04    0.72
 -10 -11 -18    2.43    0.86
 -11 -11 -18    0.37    0.71
  -3 -12 -18    1.04    0.73
  -4 -12 -18    0.33    0.67
   4  12  18   -1.51    0.66
  -5 -12 -18    0.95    0.75
   5  12  18   -0.52    0.77
  -6 -12 -18    4.38    1.06
   6  12  18    3.34    1.10
  -7 -12 -18    5.24    1.13
   7  12  18    5.26    1.20
  -8 -12 -18   -0.66    0.69
   8  12  18    0.13    0.73
  -3  -8  19    0.03    0.70
   2   8 -19    1.72    0.71
  -2  -8  19    0.45    0.70
   1   8 -19    4.81    0.98
  -1  -8  19    4.61    1.01
   0   8 -19    0.59    0.65
   0  -8  19    0.49    0.68
  -1   8 -19    0.66    0.75
   1  -8  19    1.94    0.75
  -4  -7  19    0.17    0.73
  -3  -7  19    8.51    1.26
   2   7 -19    2.52    0.74
  -2  -7  19    0.10    0.65
   1   7 -19    6.27    1.01
  -1  -7  19    3.76    0.92
   0   7 -19    4.76    0.99
   0  -7  19    6.27    1.12
  -1   7 -19   11.77    1.48
   1  -7  19   13.27    1.43
  -2   7 -19    1.65    0.85
   2  -7  19    1.86    0.78
  -3   7 -19    6.45    1.30
   3  -7  19    5.95    1.06
  -4   7 -19    1.16    0.94
   4  -7  19    0.47    0.77
  -5  -6  19    0.16    0.74
  -4  -6  19   -0.31    0.70
   3   6 -19    1.16    0.53
  -3  -6  19    0.17    0.67
   2   6 -19    0.89    0.54
  -2  -6  19    0.88    0.70
   1   6 -19    3.99    0.82
  -1  -6  19    3.39    0.88
   0   6 -19   11.18    1.36
   0  -6  19   10.58    1.26
  -1   6 -19    4.78    0.99
   1  -6  19    4.50    0.92
  -2   6 -19    0.11    0.65
   2  -6  19    0.67    0.68
  -3   6 -19    8.50    1.37
   3  -6  19    8.58    1.20
  -4   6 -19    0.45    0.79
   4  -6  19    0.61    0.72
  -5   6 -19    0.75    0.92
   5  -6  19    0.35    0.68
   6   5 -19    4.87    1.04
  -5  -5  19    5.90    1.12
  -4  -5  19    0.97    0.80
   3   5 -19    2.41    0.62
  -3  -5  19    1.66    0.80
   2   5 -19    8.85    1.10
  -2  -5  19   10.11    1.29
   1   5 -19    0.07    0.47
  -1  -5  19   -0.26    0.58
   0   5 -19    6.88    1.10
   0  -5  19    7.84    1.08
  -1   5 -19    0.39    0.60
   1  -5  19    0.61    0.65
  -2   5 -19   13.07    1.55
   2  -5  19   16.88    1.42
  -3   5 -19    1.99    0.81
   3  -5  19    3.49    0.86
  -4   5 -19    7.02    1.28
   4  -5  19    8.86    1.21
  -5   5 -19    4.95    1.16
   5  -5  19    4.10    0.98
  -6   5 -19   -0.06    0.84
   6  -5  19    0.73    0.71
   6   4 -19   -0.04    0.58
  -5  -4  19    1.44    0.83
  -4  -4  19    4.64    1.00
   3   4 -19    0.61    0.46
  -3  -4  19    1.79    0.74
   2   4 -19    2.93    0.71
  -2  -4  19    2.89    0.89
   1   4 -19    0.89    0.52
  -1  -4  19    0.92    0.67
   0   4 -19    1.27    0.64
   0  -4  19    0.88    0.63
  -1   4 -19    0.84    0.65
   1  -4  19    3.24    0.79
  -2   4 -19    0.21    0.61
   2  -4  19    0.95    0.62
  -3   4 -19   11.56    1.49
   3  -4  19   13.45    1.37
  -4   4 -19    0.22    0.68
   4  -4  19   -0.22    0.59
  -5   4 -19    0.95    0.78
   5  -4  19    1.07    0.67
  -6   4 -19    5.96    1.31
  -7   4 -19    1.51    1.02
   7  -4  19    1.44    0.79
   6   3 -19    1.12    0.62
   5   3 -19    6.23    1.05
  -4  -3  19    0.10    0.62
   3   3 -19    4.43    0.77
  -3  -3  19    5.17    0.96
   2   3 -19    5.37    0.84
  -2  -3  19    4.90    0.92
   1   3 -19    5.07    0.88
  -1  -3  19    5.39    0.91
   0   3 -19   12.89    1.32
   0  -3  19   15.16    1.31
  -1   3 -19    2.52    0.77
   1  -3  19    2.96    0.78
  -2   3 -19   22.62    1.78
   2  -3  19   24.13    1.59
  -3   3 -19    3.74    1.00
   3  -3  19    2.65    0.76
  -4   3 -19    8.03    1.25
   4  -3  19    8.61    1.09
  -5   3 -19    3.02    0.93
   5  -3  19    3.69    0.83
  -6   3 -19   24.89    2.08
   6  -3  19   26.83    1.83
  -7   3 -19    0.76    0.88
   7  -3  19    1.21    0.73
  -8   3 -19    1.61    1.09
   8  -3  19    2.74    0.95
   5   2 -19    6.34    1.02
   4   2 -19    3.77    0.69
  -4  -2  19    2.60    0.81
   3   2 -19    0.24    0.43
  -3  -2  19   -0.15    0.59
   2   2 -19    3.98    0.78
  -2  -2  19    3.82    0.86
   1   2 -19    7.72    1.06
  -1  -2  19    9.83    1.14
   0   2 -19    0.57    0.54
   0  -2  19    1.39    0.63
  -1   2 -19    3.58    0.88
   1  -2  19    2.84    0.73
  -2   2 -19    0.84    0.64
   2  -2  19    0.15    0.49
  -3   2 -19    2.06    0.83
   3  -2  19    2.34    0.67
  -4   2 -19    8.84    1.29
   4  -2  19   11.22    1.20
  -5   2 -19    0.92    0.74
   5  -2  19    1.09    0.62
  -6   2 -19    0.11    0.68
   6  -2  19   -0.42    0.50
  -7   2 -19    0.28    0.76
   7  -2  19   -0.29    0.63
  -8   2 -19    0.09    0.77
   8  -2  19   -0.03    0.71
  -9   2 -19    1.82    1.02
   9  -2  19    0.48    0.77
   4   1 -19    0.43    0.45
   3   1 -19    5.78    0.87
  -3  -1  19    5.80    1.00
   2   1 -19    0.57    0.48
  -2  -1  19    0.15    0.53
   1   1 -19   27.29    1.81
  -1  -1  19   32.85    1.85
   0   1 -19    0.69    0.55
   0  -1  19   -0.58    0.44
  -1   1 -19    3.88    0.87
   1  -1  19    3.18    0.73
  -2   1 -19    2.38    0.75
   2  -1  19    1.86    0.61
  -3   1 -19   42.66    2.55
   3  -1  19   38.43    2.07
  -4   1 -19   10.84    1.40
   4  -1  19    8.79    1.02
  -5   1 -19    8.71    1.37
   5  -1  19   11.52    1.13
  -6   1 -19   -0.09    0.63
   6  -1  19    0.59    0.58
  -7   1 -19    3.42    0.92
   7  -1  19    4.88    0.91
  -8   1 -19    0.54    0.77
   8  -1  19    0.31    0.67
  -9   1 -19   14.80    1.87
   9  -1  19   19.07    1.75
 -10   1 -19    3.08    1.07
  10  -1  19    2.60    0.94
   4   0 -19    2.61    0.64
   3   0 -19    7.88    1.00
   2   0 -19    2.39    0.66
  -2   0  19    2.76    0.74
   1   0 -19    0.99    0.52
  -1   0  19    2.66    0.70
   0   0 -19    0.99    0.56
   0   0  19    0.66    0.53
  -1   0 -19    2.48    0.73
   1   0  19    1.86    0.60
  -2   0 -19    0.22    0.52
   2   0  19    0.20    0.46
  -3   0 -19   22.21    1.74
   3   0  19   21.70    1.44
  -4   0 -19    2.39    0.81
   4   0  19    4.17    0.73
  -5   0 -19    7.11    1.22
   5   0  19    7.59    0.95
  -6   0 -19    7.36    1.17
   6   0  19    6.24    0.91
  -7   0 -19    1.20    0.71
   7   0  19    0.38    0.57
  -8   0 -19    9.20    1.35
   8   0  19    8.62    1.14
  -9   0 -19    0.42    0.73
   9   0  19   -0.54    0.62
 -10   0 -19    1.90    0.88
  10   0  19   -0.38    0.72
   6  -1 -19    0.03    0.40
   5  -1 -19    3.32    0.63
   4  -1 -19   19.22    1.22
  -4   1  19   25.62    1.89
  -3   1  19   12.98    1.56
  -2   1  19    1.98    0.91
  -1   1  19    2.01    0.90
  -1   1  19    0.78    0.58
   0  -1 -19    6.61    0.97
   0   1  19    8.48    0.94
  -1  -1 -19    1.30    0.61
   1   1  19    2.74    0.63
  -2  -1 -19   13.06    1.32
   2   1  19   16.04    1.20
  -3  -1 -19    0.89    0.63
   3   1  19    1.36    0.53
  -4  -1 -19    4.99    0.95
   4   1  19    7.90    0.90
  -5  -1 -19   -0.34    0.55
   5   1  19    0.48    0.49
  -6  -1 -19   25.54    1.96
   6   1  19   26.78    1.61
  -7  -1 -19   15.45    1.56
   7   1  19   19.79    1.40
  -8  -1 -19    3.20    0.91
   8   1  19    3.18    0.77
  -9  -1 -19    2.12    0.82
   9   1  19    1.34    0.71
 -10  -1 -19    2.31    0.83
  10   1  19    0.07    0.67
  11   1  19    4.60    1.05
   6  -2 -19    0.08    0.42
   5  -2 -19    0.26    0.42
   4  -2 -19    3.75    0.63
  -4   2  19    2.97    0.97
   3  -2 -19    0.60    0.39
  -3   2  19    1.10    0.75
   2  -2 -19    3.38    0.50
  -2   2  19    3.36    1.00
  -1   2  19    8.91    1.35
   0   2  19    3.50    1.06
   1   2  19   12.94    1.77
   1   2  19   13.72    1.09
   2   2  19    3.35    0.65
  -3  -2 -19    0.45    0.54
   3   2  19    0.51    0.45
  -4  -2 -19    1.95    0.73
   4   2  19    3.28    0.62
  -5  -2 -19    2.99    0.79
   5   2  19    1.28    0.51
  -6  -2 -19    1.91    0.71
   6   2  19    2.89    0.65
  -7  -2 -19    3.84    0.90
   7   2  19    3.72    0.72
  -8  -2 -19    2.48    0.80
   8   2  19    1.38    0.61
  -9  -2 -19    7.12    1.14
   9   2  19    6.25    0.97
 -10  -2 -19    2.22    0.77
  10   2  19    0.11    0.60
  11   2  19    2.53    0.86
   5  -3 -19   -0.22    0.39
   4  -3 -19    0.36    0.43
  -4   3  19   -0.07    0.75
   3  -3 -19    2.57    0.51
  -3   3  19    1.88    0.89
   2  -3 -19    2.23    0.45
  -2   3  19    1.62    0.87
   1  -3 -19   31.55    1.55
  -1   3  19   34.01    2.39
   0  -3 -19   24.66    1.28
   0   3  19   27.01    2.16
   1   3  19    6.88    1.40
   2   3  19    2.25    1.02
   3   3  19   -0.35    0.79
   3   3  19   -0.03    0.41
  -4  -3 -19   19.60    1.60
   4   3  19   25.90    1.43
  -5  -3 -19    2.77    0.78
   5   3  19    3.59    0.67
  -6  -3 -19   10.07    1.24
   6   3  19   10.65    1.01
  -7  -3 -19    0.23    0.50
   7   3  19    0.51    0.47
  -8  -3 -19   24.52    1.82
   8   3  19   26.95    1.66
  -9  -3 -19    3.56    0.86
   9   3  19    6.26    0.95
 -10  -3 -19   11.81    1.34
  10   3  19    9.54    1.17
  11   3  19    5.67    1.04
   5  -4 -19    0.35    0.47
   4  -4 -19    0.06    0.38
  -4   4  19   -0.16    0.79
   3  -4 -19    0.07    0.36
  -3   4  19   -0.85    0.75
   2  -4 -19    1.06    0.41
  -2   4  19    1.62    0.90
   1  -4 -19    0.97    0.39
  -1   4  19    0.02    0.81
   0  -4 -19    3.31    0.53
   0   4  19    1.89    0.96
  -1  -4 -19    1.73    0.41
   1   4  19    1.51    0.93
  -2  -4 -19   10.29    0.86
   2   4  19    9.89    1.56
   3   4  19    0.92    0.85
   4   4  19   -0.13    0.39
   4   4  19    0.11    0.87
   5   4  19    6.47    0.80
  -6  -4 -19    0.98    0.52
   6   4  19    1.13    0.51
  -7  -4 -19   -0.16    0.43
   7   4  19    0.30    0.42
  -8  -4 -19   -0.37    0.49
   8   4  19   -0.21    0.44
  -9  -4 -19    0.25    0.54
   9   4  19    0.13    0.49
 -10  -4 -19    4.07    0.86
  10   4  19    2.29    0.75
  11   4  19    1.24    0.71
  12   4  19   -0.78    0.57
   4  -5 -19   -0.10    0.42
  -4   5  19   -0.01    0.82
   3  -5 -19    4.50    0.69
  -3   5  19    6.76    1.34
   2  -5 -19    2.76    0.57
  -2   5  19    2.36    1.04
   1  -5 -19    2.08    0.50
  -1   5  19    1.90    0.98
   0  -5 -19    0.76    0.38
   0   5  19    0.42    0.82
  -1  -5 -19   47.31    2.14
   1   5  19   48.45    3.02
  -2  -5 -19    3.15    0.55
   2   5  19    2.45    1.02
  -3  -5 -19   34.05    1.69
   3   5  19   30.73    2.39
   4   5  19    6.00    1.29
   5   5  19   15.90    1.95
   6   5  19    0.76    0.49
   6   5  19    0.29    0.84
  -7  -5 -19    0.82    0.47
   7   5  19    1.89    0.55
  -8  -5 -19    2.02    0.64
   8   5  19    1.93    0.60
  -9  -5 -19    0.74    0.55
   9   5  19    1.27    0.58
 -10  -5 -19    2.34    0.68
  10   5  19    1.80    0.67
  11   5  19   17.84    1.50
  12   5  19    8.24    1.18
   3  -6 -19    1.36    0.54
  -3   6  19    1.84    1.01
   2  -6 -19    1.22    0.49
  -2   6  19    2.30    0.99
   1  -6 -19    2.03    0.52
  -1   6  19    0.02    0.85
   0  -6 -19   -0.18    0.37
   0   6  19    0.48    0.90
  -1  -6 -19    0.66    0.39
   1   6  19    0.20    0.87
  -2  -6 -19    0.80    0.43
   2   6  19    0.48    0.85
  -3  -6 -19    3.57    0.63
   3   6  19    4.32    1.19
  -4  -6 -19    0.20    0.46
   4   6  19   -0.27    0.70
  -5  -6 -19    1.96    0.61
   5   6  19    2.60    1.00
   6   6  19   13.43    1.68
   7   6  19    4.25    1.06
  -8  -6 -19    0.14    0.44
   8   6  19   -0.07    0.48
  -9  -6 -19    3.76    0.74
   9   6  19    3.96    0.76
 -10  -6 -19    1.95    0.65
  10   6  19    2.59    0.73
  11   6  19    0.08    0.57
  12   6  19    1.57    0.72
   3  -7 -19    0.87    0.55
  -3   7  19    0.35    0.87
   2  -7 -19    6.18    0.83
  -2   7  19    4.87    1.25
   1  -7 -19    0.35    0.43
  -1   7  19    0.04    0.83
   0  -7 -19    0.76    0.44
   0   7  19    0.56    0.81
  -1  -7 -19    1.19    0.47
   1   7  19    0.88    0.87
  -2  -7 -19    2.24    0.55
   2   7  19    2.50    0.98
  -3  -7 -19    2.37    0.58
   3   7  19    2.16    0.98
  -4  -7 -19   19.30    1.37
   4   7  19   20.33    1.98
  -5  -7 -19   18.24    1.36
   5   7  19   15.95    1.91
  -6  -7 -19   11.55    1.17
   6   7  19   10.43    1.52
   7   7  19    2.08    0.89
  -8  -7 -19   10.59    1.07
  -9  -7 -19    4.68    0.80
  10   7  19   -0.32    0.49
  11   7  19   -0.13    0.56
  12   7  19    1.66    0.74
   2  -8 -19    0.80    0.54
  -2   8  19    0.30    0.95
   1  -8 -19    0.15    0.46
  -1   8  19    0.12    0.87
   0  -8 -19    7.31    0.89
   0   8  19    3.57    1.14
  -1  -8 -19    0.37    0.45
   1   8  19    0.20    0.79
  -2  -8 -19    8.00    0.94
   2   8  19    8.03    1.42
  -3  -8 -19   21.21    1.42
   3   8  19   19.19    1.99
  -4  -8 -19    1.91    0.65
   4   8  19    0.61    0.88
  -5  -8 -19    0.18    0.57
   5   8  19    0.94    0.81
  -6  -8 -19    4.42    0.91
   6   8  19    1.98    0.92
  -7  -8 -19    1.48    0.67
   7   8  19    0.60    0.77
  -8  -8 -19   -0.88    0.67
   8   8  19   -0.07    0.71
  -9  -8 -19    1.27    0.56
   1  -9 -19    3.98    0.75
   0  -9 -19    1.17    0.59
   0   9  19    1.43    0.92
  -1  -9 -19    6.65    0.86
   1   9  19    5.68    1.27
  -2  -9 -19    3.95    0.76
   2   9  19    2.44    0.98
  -3  -9 -19    0.09    0.51
   3   9  19    0.21    0.82
  -4  -9 -19   -0.08    0.55
   4   9  19   -0.49    0.67
  -5  -9 -19    1.15    0.69
   5   9  19    0.63    0.83
  -6  -9 -19   27.69    1.85
   6   9  19   21.62    1.98
  -7  -9 -19    2.27    0.76
   7   9  19    2.23    0.87
  -8  -9 -19   20.22    1.58
   8   9  19   17.92    1.69
  -9  -9 -19    0.40    0.71
   9   9  19    2.04    0.90
  -1 -10 -19    0.30    0.53
   1  10  19    1.13    0.89
  -2 -10 -19    3.16    0.76
   2  10  19    1.57    0.95
  -3 -10 -19    1.42    0.64
   3  10  19    0.19    0.77
  -4 -10 -19    0.65    0.63
   4  10  19   -0.62    0.75
  -5 -10 -19    0.84    0.64
   5  10  19   -0.55    0.73
  -6 -10 -19    0.44    0.70
   6  10  19   -0.15    0.73
  -7 -10 -19   -0.74    0.66
   7  10  19   -0.37    0.62
  -8 -10 -19    0.85    0.73
   8  10  19    0.73    0.74
  -9 -10 -19    0.63    0.68
   9  10  19    0.49    0.81
 -10 -10 -19   -0.40    0.63
  -2 -11 -19    0.68    0.64
  -3 -11 -19   18.34    1.51
   3  11  19   16.35    1.92
  -4 -11 -19    0.72    0.67
   4  11  19    0.57    0.75
  -5 -11 -19   11.87    1.38
   5  11  19    6.91    1.35
  -6 -11 -19    0.77    0.79
   6  11  19    0.04    0.80
  -7 -11 -19    0.06    0.73
   7  11  19    0.78    0.88
  -8 -11 -19    0.99    0.81
   8  11  19    0.48    0.70
  -9 -11 -19    4.42    1.04
 -10 -11 -19   13.86    1.52
  -5 -12 -19    0.61    0.78
  -6 -12 -19    1.59    0.89
   6  12  19    1.48    0.91
  -7 -12 -19    3.17    0.96
   7  12  19    3.01    1.08
  -8 -12 -19    1.65    0.86
  -3  -7  20    1.36    0.81
   2   7 -20    1.89    0.69
  -2  -7  20    2.30    0.92
   1   7 -20    1.06    0.63
  -1  -7  20    0.80    0.73
   0   7 -20    1.78    0.75
   0  -7  20    0.99    0.74
  -1   7 -20    0.35    0.66
   1  -7  20    0.53    0.67
  -2   7 -20    2.55    0.95
   2  -7  20    2.32    0.88
  -4  -6  20    4.63    1.08
  -3  -6  20    2.37    0.90
   2   6 -20    6.44    0.96
  -2  -6  20    5.91    1.08
   1   6 -20    3.73    0.81
  -1  -6  20    3.17    0.90
   0   6 -20    1.57    0.68
   0  -6  20    2.93    0.86
  -1   6 -20    5.39    1.06
   1  -6  20    5.54    1.00
  -2   6 -20    2.04    0.83
   2  -6  20    2.79    0.89
  -3   6 -20    0.72    0.83
   3  -6  20   -0.27    0.64
  -4   6 -20    5.79    1.27
   4  -6  20    4.24    0.99
  -5  -5  20    3.84    1.04
  -4  -5  20    0.21    0.69
   3   5 -20    0.85    0.48
  -3  -5  20    0.11    0.69
   2   5 -20   20.26    1.51
  -2  -5  20   21.38    1.76
   1   5 -20    2.33    0.70
  -1  -5  20    2.32    0.82
   0   5 -20    0.24    0.56
   0  -5  20   -0.27    0.58
  -1   5 -20    5.82    1.06
   1  -5  20    7.39    1.12
  -2   5 -20    0.96    0.72
   2  -5  20    1.06    0.73
  -3   5 -20    0.95    0.85
   3  -5  20    1.52    0.70
  -4   5 -20    1.35    0.90
   4  -5  20    0.87    0.74
  -5   5 -20    0.81    0.84
   5  -5  20    0.18    0.65
   6  -5  20    0.10    0.76
  -4  -4  20    1.38    0.76
   3   4 -20    0.56    0.48
  -3  -4  20    0.74    0.72
   2   4 -20    9.44    1.13
  -2  -4  20    9.01    1.22
   1   4 -20    4.82    0.89
  -1  -4  20    5.12    0.96
   0   4 -20    2.87    0.83
   0  -4  20    2.18    0.75
  -1   4 -20    4.01    0.97
   1  -4  20    3.01    0.80
  -2   4 -20    6.97    1.18
   2  -4  20    7.98    1.12
  -3   4 -20    6.16    1.17
   3  -4  20    9.28    1.21
  -4   4 -20    7.96    1.37
   4  -4  20    4.60    0.97
  -5   4 -20    1.46    0.87
   5  -4  20    2.05    0.81
  -6   4 -20    1.69    1.04
   6  -4  20    1.12    0.78
  -7   4 -20    0.80    0.99
   7  -4  20   -0.21    0.71
   5   3 -20    5.49    1.04
  -4  -3  20    2.92    0.88
   3   3 -20    0.66    0.48
  -3  -3  20    0.55    0.66
   2   3 -20    2.70    0.72
  -2  -3  20    3.16    0.85
   1   3 -20    0.16    0.47
  -1  -3  20    0.15    0.57
   0   3 -20    3.25    0.83
   0  -3  20    2.51    0.71
  -1   3 -20    2.55    0.79
   1  -3  20    2.17    0.69
  -2   3 -20    5.68    1.05
   2  -3  20    4.06    0.85
  -3   3 -20    0.42    0.67
   3  -3  20    0.45    0.58
  -4   3 -20    0.67    0.76
   4  -3  20    2.00    0.72
  -5   3 -20    0.36    0.72
   5  -3  20    0.96    0.69
  -6   3 -20    0.21    0.82
   6  -3  20    1.57    0.78
  -7   3 -20   -0.01    0.78
   7  -3  20   -0.15    0.69
  -8   3 -20    3.96    1.20
   8  -3  20    1.73    0.89
  -4  -2  20    5.11    1.01
   3   2 -20    8.34    1.01
  -3  -2  20    6.98    1.11
   2   2 -20    1.66    0.58
  -2  -2  20    0.44    0.63
   1   2 -20    3.33    0.75
  -1  -2  20    4.36    0.89
   0   2 -20    1.13    0.63
   0  -2  20    1.64    0.67
  -1   2 -20   21.11    1.69
   1  -2  20   20.03    1.51
  -2   2 -20    4.39    0.99
   2  -2  20    5.54    0.90
  -3   2 -20   12.00    1.55
   3  -2  20   13.53    1.23
  -4   2 -20    0.57    0.64
   4  -2  20    0.90    0.61
  -5   2 -20    7.05    1.23
   5  -2  20    6.86    1.05
  -6   2 -20   13.92    1.74
   6  -2  20   15.62    1.46
  -7   2 -20    4.41    1.17
   7  -2  20    4.50    0.94
  -8   2 -20    2.31    1.01
   8  -2  20    2.06    0.89
   4   1 -20    0.99    0.55
   3   1 -20    0.20    0.44
  -3  -1  20    0.03    0.60
   2   1 -20    0.58    0.51
  -2  -1  20    1.54    0.70
   1   1 -20    1.57    0.58
  -1  -1  20    1.65    0.67
   0   1 -20    2.35    0.74
   0  -1  20    1.36    0.64
  -1   1 -20    1.22    0.65
   1  -1  20    2.71    0.71
  -2   1 -20    2.19    0.78
   2  -1  20    2.24    0.67
  -3   1 -20    2.00    0.81
   3  -1  20    2.75    0.69
  -4   1 -20    1.17    0.74
   4  -1  20    0.90    0.58
  -5   1 -20    1.77    0.85
   5  -1  20   -0.04    0.49
  -6   1 -20    0.04    0.68
   6  -1  20    2.44    0.70
  -7   1 -20    0.07    0.71
   7  -1  20    0.45    0.64
  -8   1 -20    1.56    0.86
   8  -1  20    0.50    0.67
  -9   1 -20    1.63    0.90
   9  -1  20    1.79    0.87
   4   0 -20   10.62    1.17
   3   0 -20    0.82    0.48
   2   0 -20   20.11    1.47
  -2   0  20   17.31    1.75
   1   0 -20   19.00    1.49
  -1   0  20   21.21    1.54
   0   0 -20    6.62    1.02
   0   0  20    8.96    1.04
  -1   0 -20    1.00    0.60
   1   0  20    0.63    0.53
  -2   0 -20    2.88    0.78
   2   0  20    3.33    0.73
  -3   0 -20    6.38    1.12
   3   0  20    7.61    0.96
  -4   0 -20    5.12    1.02
   4   0  20    5.44    0.85
  -5   0 -20    7.33    1.19
   5   0  20    9.95    1.10
  -6   0 -20    9.35    1.39
   6   0  20    9.67    1.12
  -7   0 -20    3.86    1.01
   7   0  20    6.15    0.96
  -8   0 -20   11.11    1.47
   8   0  20   11.21    1.32
  -9   0 -20    1.40    0.84
   9   0  20    0.94    0.79
 -10   0 -20   10.55    1.52
  10   0  20   11.24    1.48
  -3   1  20   -0.06    0.72
   1  -1 -20    0.37    0.53
   0  -1 -20    6.70    0.99
   0   1  20    7.35    0.95
  -1  -1 -20    4.45    0.86
   1   1  20    5.63    0.81
  -2  -1 -20    0.33    0.53
   2   1  20    0.38    0.50
  -3  -1 -20    1.32    0.70
   3   1  20    2.07    0.61
  -4  -1 -20    2.91    0.84
   4   1  20    2.76    0.66
  -5  -1 -20    0.13    0.57
   5   1  20    0.33    0.53
  -6  -1 -20    1.22    0.71
   6   1  20    1.24    0.57
  -7  -1 -20    0.18    0.70
   7   1  20    0.19    0.51
  -8  -1 -20    0.87    0.68
   8   1  20    1.87    0.70
  -9  -1 -20    0.74    0.68
   9   1  20   -0.03    0.64
 -10  -1 -20    1.65    0.80
  10   1  20   -0.55    0.65
   5  -2 -20    1.32    0.52
   4  -2 -20    3.26    0.66
  -4   2  20    3.84    1.05
  -3   2  20    0.82    0.85
  -2   2  20    4.94    1.18
  -1   2  20    1.06    0.88
   0   2  20   21.97    2.12
   1   2  20   16.93    2.01
  -2  -2 -20    8.88    1.20
   2   2  20   12.86    1.14
  -3  -2 -20   11.51    1.34
   3   2  20   16.42    1.25
  -4  -2 -20    0.09    0.58
   4   2  20    0.60    0.47
  -5  -2 -20    0.02    0.49
   5   2  20   -0.19    0.44
  -6  -2 -20   -0.04    0.54
   6   2  20   -0.24    0.42
  -7  -2 -20    9.28    1.29
   7   2  20    9.14    1.08
  -8  -2 -20    3.52    0.88
   8   2  20    4.48    0.82
  -9  -2 -20    3.37    0.92
   9   2  20    4.77    0.91
 -10  -2 -20    4.74    1.05
  10   2  20    5.38    1.01
  11   2  20   12.25    1.44
   4  -3 -20    1.77    0.51
  -4   3  20    1.70    0.89
   3  -3 -20    4.85    0.68
  -3   3  20    7.87    1.35
   2  -3 -20    2.22    0.45
  -2   3  20    2.07    0.94
  -1   3  20    0.76    0.80
   0   3  20    1.94    0.91
   1   3  20   -1.22    0.70
   2   3  20    1.69    1.10
   3   3  20   -1.57    0.77
   3   3  20   -0.47    0.43
  -4  -3 -20    3.32    0.81
   4   3  20    3.00    0.65
  -5  -3 -20    4.26    0.89
   5   3  20    6.45    0.85
  -6  -3 -20    0.60    0.53
   6   3  20    1.91    0.59
  -7  -3 -20    1.93    0.71
   7   3  20    3.04    0.70
  -8  -3 -20    2.07    0.72
   8   3  20    1.21    0.59
  -9  -3 -20    1.07    0.68
   9   3  20    2.23    0.72
 -10  -3 -20    5.89    1.04
  10   3  20    4.48    0.90
  11   3  20    1.81    0.74
   4  -4 -20    0.27    0.45
  -4   4  20    0.94    0.88
   3  -4 -20    1.49    0.49
  -3   4  20    1.03    0.91
   2  -4 -20    0.38    0.36
  -2   4  20   -0.62    0.69
   1  -4 -20    0.06    0.34
  -1   4  20    0.24    0.80
   0  -4 -20    2.28    0.45
   0   4  20    0.86    0.85
   1   4  20    7.91    1.44
   2   4  20    1.75    1.02
   3   4  20   16.33    2.02
   4   4  20   19.39    2.31
  -5  -4 -20   16.65    1.47
   5   4  20   21.86    1.36
  -6  -4 -20    0.62    0.54
   6   4  20    0.27    0.45
  -7  -4 -20    0.55    0.52
   7   4  20    1.17    0.58
  -8  -4 -20    4.60    0.88
   8   4  20    3.91    0.77
  -9  -4 -20    1.63    0.66
   9   4  20    0.97    0.58
 -10  -4 -20    2.31    0.74
  10   4  20    1.31    0.64
  11   4  20    0.92    0.67
   3  -5 -20    1.46    0.54
  -3   5  20    2.30    1.03
   2  -5 -20    0.76    0.47
  -2   5  20    0.30    0.83
   1  -5 -20    1.06    0.43
  -1   5  20    1.21    0.88
   0  -5 -20   -0.37    0.31
   0   5  20    0.24    0.80
  -1  -5 -20    5.16    0.68
   1   5  20    5.51    1.25
  -2  -5 -20    2.44    0.56
   2   5  20    2.76    1.00
   3   5  20    6.02    1.34
   4   5  20    1.32    0.98
   5   5  20    1.01    0.95
  -6  -5 -20    6.07    0.93
  -7  -5 -20    1.35    0.58
   7   5  20    1.15    0.56
  -8  -5 -20    1.83    0.62
   8   5  20    2.76    0.69
  -9  -5 -20    1.22    0.57
   9   5  20    1.05    0.59
 -10  -5 -20    0.56    0.56
  10   5  20    0.16    0.55
  11   5  20   -0.06    0.56
   3  -6 -20    1.76    0.61
  -3   6  20    2.10    1.02
   2  -6 -20   13.55    1.09
  -2   6  20   12.11    1.65
   1  -6 -20    0.42    0.40
  -1   6  20   -0.17    0.82
   0  -6 -20    2.29    0.51
   0   6  20    3.19    1.09
  -1  -6 -20    2.81    0.58
   1   6  20    3.30    1.11
  -2  -6 -20    2.64    0.58
   2   6  20    3.94    1.17
  -3  -6 -20    0.13    0.44
   3   6  20   -0.45    0.72
   4   6  20    0.12    0.74
   5   6  20   21.85    2.05
   6   6  20   13.38    1.84
  -7  -6 -20   11.59    1.17
  -8  -6 -20    7.91    1.06
  -9  -6 -20    1.49    0.56
   9   6  20    0.06    0.51
 -10  -6 -20    2.03    0.63
  10   6  20    1.67    0.63
  11   6  20   -0.57    0.54
   2  -7 -20    2.83    0.64
  -2   7  20    2.57    1.08
   1  -7 -20    1.23    0.52
  -1   7  20    0.89    0.86
   0  -7 -20    0.21    0.42
   0   7  20    1.09    0.87
  -1  -7 -20    0.52    0.44
   1   7  20   -0.23    0.79
  -2  -7 -20    1.90    0.56
   2   7  20    1.52    0.93
  -3  -7 -20    0.20    0.46
   3   7  20   -0.62    0.70
  -4  -7 -20    0.11    0.50
   4   7  20    0.09    0.68
  -5  -7 -20    0.54    0.62
   5   7  20    0.07    0.70
   6   7  20    0.85    0.82
   7   7  20    1.00    0.84
  -8  -7 -20    0.89    0.53
  -9  -7 -20    2.49    0.66
  11   7  20    0.38    0.67
   1  -8 -20    1.91    0.61
  -1   8  20    2.73    1.04
   0  -8 -20    8.00    0.95
   0   8  20    7.50    1.42
  -1  -8 -20    1.00    0.51
   1   8  20    0.68    0.82
  -2  -8 -20    7.17    0.90
   2   8  20    5.43    1.28
  -3  -8 -20    1.59    0.60
   3   8  20    1.27    0.95
  -4  -8 -20    1.28    0.60
   4   8  20    0.45    0.82
  -5  -8 -20   11.37    1.23
   5   8  20    9.88    1.50
  -6  -8 -20   -0.66    0.56
   6   8  20    1.01    0.82
   7   8  20    5.15    1.13
   8   8  20    0.47    0.77
  -9  -8 -20   27.39    1.74
   0  -9 -20    1.97    0.66
   0   9  20    1.72    1.04
  -1  -9 -20    1.63    0.61
   1   9  20    2.21    1.05
  -2  -9 -20    1.16    0.54
   2   9  20    1.85    0.92
  -3  -9 -20    1.41    0.63
   3   9  20    1.38    0.89
  -4  -9 -20    0.96    0.63
   4   9  20   -0.12    0.74
  -5  -9 -20    0.14    0.62
   5   9  20    0.11    0.76
  -6  -9 -20    1.76    0.81
   6   9  20    2.66    1.00
  -7  -9 -20    1.05    0.73
   7   9  20    3.00    0.96
   8   9  20    2.26    0.90
   9   9  20   -0.06    0.68
  -2 -10 -20    8.14    1.02
   2  10  20    7.82    1.45
  -3 -10 -20    3.32    0.80
   3  10  20    3.40    1.12
  -4 -10 -20    0.41    0.62
   4  10  20    1.56    0.96
  -5 -10 -20    0.16    0.64
   5  10  20    0.27    0.79
  -6 -10 -20    7.12    1.13
   6  10  20    6.66    1.32
  -7 -10 -20    7.05    1.10
   7  10  20    6.48    1.29
  -8 -10 -20    0.50    0.68
   8  10  20   -0.31    0.64
   9  10  20    0.90    0.87
  -4 -11 -20    0.70    0.69
   4  11  20    0.18    0.76
  -5 -11 -20    0.17    0.65
   5  11  20    0.15    0.78
  -6 -11 -20    5.14    1.06
   6  11  20    5.65    1.26
  -7 -11 -20   -1.30    0.64
   7  11  20    2.23    1.00
  -8 -11 -20    4.38    1.04
   8  11  20    5.26    1.13
  -9 -11 -20    2.73    0.93
   2   6 -21    1.24    0.56
  -2  -6  21   -0.10    0.72
   1   6 -21    2.78    0.72
  -1  -6  21    2.05    0.87
   0   6 -21    0.45    0.59
   0  -6  21    0.95    0.74
  -1   6 -21    4.02    1.03
   1  -6  21    3.49    0.92
  -2   6 -21    0.98    0.77
   2  -6  21   -0.10    0.65
  -3  -5  21    0.71    0.76
   2   5 -21    0.60    0.52
  -2  -5  21    1.60    0.82
   1   5 -21    1.02    0.55
  -1  -5  21   -0.52    0.63
   0   5 -21    3.00    0.82
   0  -5  21    2.63    0.85
  -1   5 -21   13.70    1.65
   1  -5  21   16.34    1.52
  -2   5 -21    3.81    1.01
   2  -5  21    4.50    0.96
  -3   5 -21    8.83    1.46
   3  -5  21    9.07    1.24
  -4   5 -21    2.17    0.98
   4  -5  21    2.89    0.89
  -4  -4  21    1.23    0.80
   3   4 -21    1.11    0.51
  -3  -4  21    0.95    0.72
   2   4 -21    0.70    0.51
  -2  -4  21    0.46    0.65
   1   4 -21    1.70    0.65
  -1  -4  21    0.67    0.70
   0   4 -21    1.84    0.76
   0  -4  21    1.05    0.71
  -1   4 -21    0.45    0.63
   1  -4  21    0.33    0.60
  -2   4 -21    1.19    0.71
   2  -4  21    0.61    0.63
  -3   4 -21    3.44    1.01
   3  -4  21    1.71    0.75
  -4   4 -21    1.36    0.87
   4  -4  21    0.46    0.66
  -5   4 -21    0.46    0.76
   5  -4  21   -0.68    0.62
  -6   4 -21    0.13    0.87
   6  -4  21   -0.05    0.73
  -4  -3  21    3.10    0.95
   3   3 -21    0.44    0.47
  -3  -3  21    0.07    0.68
   2   3 -21   13.71    1.23
  -2  -3  21   11.88    1.35
   1   3 -21    2.70    0.77
  -1  -3  21    1.14    0.68
   0   3 -21    4.20    0.92
   0  -3  21    5.10    0.97
  -1   3 -21    6.45    1.15
   1  -3  21    5.28    0.94
  -2   3 -21    4.56    1.04
   2  -3  21    4.32    0.91
  -3   3 -21    5.20    1.14
   3  -3  21    3.25    0.82
  -4   3 -21   13.62    1.70
   4  -3  21   14.31    1.41
  -5   3 -21    8.31    1.44
   5  -3  21    8.33    1.14
  -6   3 -21    5.20    1.29
   6  -3  21    4.15    0.98
  -7   3 -21    3.03    1.07
   7  -3  21    2.61    0.92
   3   2 -21    0.36    0.45
  -3  -2  21    0.33    0.68
   2   2 -21    0.63    0.52
  -2  -2  21    0.91    0.69
   1   2 -21    0.61    0.56
  -1  -2  21   -0.50    0.58
   0   2 -21    0.30    0.58
   0  -2  21   -0.05    0.55
  -1   2 -21    2.69    0.80
   1  -2  21    2.62    0.75
  -2   2 -21   -0.26    0.60
   2  -2  21    0.53    0.62
  -3   2 -21    0.16    0.69
   3  -2  21    1.52    0.66
  -4   2 -21    4.57    1.08
   4  -2  21    4.36    0.85
  -5   2 -21    3.96    1.05
   5  -2  21    2.34    0.76
  -6   2 -21    6.65    1.29
   6  -2  21    5.15    0.96
  -7   2 -21    4.05    1.15
   7  -2  21    2.80    0.87
  -8   2 -21    0.27    0.80
   8  -2  21    0.41    0.74
   3   1 -21   10.23    1.14
   2   1 -21    7.07    1.02
  -2  -1  21    8.65    1.15
   1   1 -21    4.63    0.91
  -1  -1  21    5.54    0.94
   0   1 -21   10.51    1.28
   0  -1  21   11.23    1.23
  -1   1 -21    0.51    0.62
   1  -1  21    1.45    0.64
  -2   1 -21   11.09    1.47
   2  -1  21   10.40    1.21
  -3   1 -21    1.52    0.78
   3  -1  21    1.25    0.63
  -4   1 -21    1.52    0.85
   4  -1  21    0.29    0.55
  -5   1 -21   -0.10    0.72
   5  -1  21    0.24    0.58
  -6   1 -21    6.76    1.30
   6  -1  21    7.80    1.07
  -7   1 -21   13.37    1.71
   7  -1  21   14.94    1.44
  -8   1 -21    8.46    1.41
   8  -1  21    8.40    1.22
   3   0 -21    0.31    0.48
   2   0 -21    1.63    0.59
   1   0 -21    3.12    0.74
  -1   0  21    2.55    0.77
   0   0 -21    3.69    0.81
   0   0  21    3.95    0.82
  -1   0 -21    1.78    0.70
   1   0  21    2.69    0.71
  -2   0 -21    0.84    0.65
   2   0  21    3.28    0.78
  -3   0 -21    7.10    1.20
   3   0  21    9.87    1.14
  -4   0 -21    1.19    0.78
   4   0  21    1.04    0.58
  -5   0 -21    2.41    0.86
  -6   0 -21    0.27    0.68
   6   0  21   -0.05    0.54
  -7   0 -21    1.15    0.74
   7   0  21    0.83    0.62
  -8   0 -21    2.51    0.87
   8   0  21    2.54    0.81
  -9   0 -21    1.08    0.82
   9   0  21    0.92    0.75
   4  -1 -21   -0.09    0.55
   3  -1 -21    1.02    0.53
   2  -1 -21    0.52    0.48
   1  -1 -21    7.44    1.07
   0  -1 -21   13.06    1.24
  -1  -1 -21   12.43    1.42
   1   1  21   14.97    1.28
  -2  -1 -21    1.41    0.71
   2   1  21    1.78    0.67
  -3  -1 -21   17.17    1.54
   3   1  21   18.61    1.40
  -4  -1 -21    2.46    0.85
   4   1  21    5.25    0.82
  -5  -1 -21    8.87    1.25
   5   1  21    9.69    1.08
  -6  -1 -21    3.55    0.92
   6   1  21    5.30    0.85
  -7  -1 -21    7.84    1.26
   7   1  21    8.92    1.12
  -8  -1 -21    0.90    0.72
   8   1  21   -0.21    0.56
  -9  -1 -21    8.40    1.30
   9   1  21    8.86    1.21
 -10  -1 -21    2.00    0.87
  10   1  21    0.23    0.72
  -4   2  21    2.96    1.03
  -3   2  21    0.46    0.84
  -2   2  21    0.94    0.88
  -1   2  21    0.52    0.88
   0   2  21    0.28    0.82
  -1  -2 -21    1.07    0.62
  -2  -2 -21    6.14    1.01
   2   2  21    7.70    1.11
  -3  -2 -21    0.21    0.54
   3   2  21    0.37    0.52
  -4  -2 -21    0.31    0.52
   4   2  21    0.25    0.49
  -5  -2 -21    8.54    1.24
   5   2  21    8.05    0.99
  -6  -2 -21   -0.64    0.53
   6   2  21    0.10    0.47
  -7  -2 -21    1.12    0.69
   7   2  21   -0.58    0.46
  -8  -2 -21    0.63    0.65
   8   2  21    0.74    0.60
  -9  -2 -21    1.59    0.74
   9   2  21    0.79    0.63
 -10  -2 -21    1.33    0.74
  10   2  21   -0.70    0.59
  -3   3  21    6.23    1.24
  -2   3  21    2.90    0.95
  -1   3  21    1.38    0.93
   0   3  21    2.76    1.04
   1   3  21   -0.48    0.90
   2   3  21   19.43    2.29
  -3  -3 -21    0.08    0.49
  -4  -3 -21   21.10    1.71
   4   3  21   31.76    1.70
  -5  -3 -21    4.50    0.92
   5   3  21    3.49    0.72
  -6  -3 -21    8.51    1.16
   6   3  21   11.18    1.12
  -7  -3 -21    4.29    0.90
   7   3  21    5.56    0.87
  -8  -3 -21    2.34    0.78
   8   3  21    1.52    0.67
  -9  -3 -21    0.88    0.66
   9   3  21    0.33    0.60
 -10  -3 -21    0.84    0.64
  10   3  21    0.19    0.64
   3  -4 -21    0.64    0.45
  -3   4  21    1.22    0.95
   2  -4 -21    6.46    0.93
  -2   4  21    9.54    1.48
  -1   4  21    0.17    0.84
   0   4  21    1.10    0.89
   1   4  21    0.81    0.93
   2   4  21   -1.24    0.66
   3   4  21    1.56    1.02
   4   4  21    1.57    1.12
  -5  -4 -21    1.38    0.64
  -6  -4 -21   -0.16    0.44
   6   4  21    0.88    0.48
  -7  -4 -21    0.48    0.52
   7   4  21    0.80    0.54
  -8  -4 -21   12.93    1.32
   8   4  21   13.23    1.27
  -9  -4 -21    0.71    0.62
   9   4  21   -0.57    0.49
 -10  -4 -21    0.03    0.56
  10   4  21   -0.72    0.49
   2  -5 -21    1.21    0.49
  -2   5  21    0.46    0.80
   1  -5 -21    4.73    0.67
  -1   5  21    4.93    1.28
   0  -5 -21    2.19    0.61
   0   5  21    1.27    0.96
   1   5  21    3.68    1.12
   2   5  21    4.03    1.18
   3   5  21    0.60    0.85
   4   5  21   16.55    2.10
   5   5  21    3.30    1.23
  -6  -5 -21    7.96    1.04
  -7  -5 -21    0.57    0.55
  -8  -5 -21   12.89    1.25
   8   5  21   14.86    1.26
  -9  -5 -21    8.40    1.11
   9   5  21   12.98    1.22
 -10  -5 -21    3.97    0.84
  10   5  21    2.21    0.70
  11   5  21    0.61    0.65
   2  -6 -21    1.03    0.51
  -2   6  21    0.65    0.86
   1  -6 -21    0.10    0.46
  -1   6  21    0.25    0.84
   0  -6 -21    0.01    0.40
   0   6  21    0.44    0.82
  -1  -6 -21   15.40    1.12
   1   6  21   16.80    2.00
   2   6  21    1.39    0.91
   3   6  21    3.73    1.12
   4   6  21    6.57    1.35
   5   6  21    2.16    1.03
   6   6  21    1.62    0.99
  -7  -6 -21    0.54    0.50
  -8  -6 -21    0.85    0.53
  -9  -6 -21   -0.12    0.44
 -10  -6 -21    1.85    0.66
  10   6  21    2.05    0.69
  11   6  21    0.67    0.60
   1  -7 -21    2.93    0.62
  -1   7  21    2.71    1.11
   0  -7 -21    0.65    0.49
   0   7  21   -0.57    0.77
  -1  -7 -21   11.03    0.99
   1   7  21    9.56    1.59
  -2  -7 -21    6.12    0.82
   2   7  21    5.03    1.28
  -3  -7 -21    4.22    0.72
   3   7  21    4.79    1.19
   4   7  21    1.07    0.86
   5   7  21    4.50    1.21
   6   7  21    3.87    1.11
   7   7  21    9.59    1.47
  -8  -7 -21    0.91    0.58
  -9  -7 -21    7.66    1.01
   0  -8 -21    1.33    0.57
   0   8  21    1.96    1.04
   1   8  21    2.99    1.11
  -2  -8 -21    1.35    0.56
   2   8  21    0.15    0.87
  -3  -8 -21    5.47    0.86
   3   8  21    3.61    1.14
  -4  -8 -21    0.52    0.56
   4   8  21    0.17    0.76
   5   8  21    6.26    1.31
   6   8  21    1.48    0.92
   7   8  21    1.04    0.86
   8   8  21    1.79    0.92
  -9  -8 -21    0.60    0.52
  -2  -9 -21    2.78    0.69
   2   9  21    1.49    0.94
  -3  -9 -21    0.30    0.55
   3   9  21    0.71    0.88
  -4  -9 -21    9.84    1.15
   4   9  21    9.36    1.52
  -5  -9 -21    1.06    0.71
   5   9  21    0.96    0.87
  -6  -9 -21   14.29    1.55
   6   9  21   11.30    1.59
   7   9  21   -0.28    0.74
   8   9  21    2.20    0.97
  -9  -9 -21    4.65    0.85
  -3 -10 -21    2.42    0.75
   3  10  21    1.37    0.99
  -4 -10 -21    0.02    0.60
   4  10  21   -0.40    0.72
  -5 -10 -21    0.28    0.66
   5  10  21   -0.59    0.73
  -6 -10 -21    6.07    1.11
   6  10  21    7.00    1.34
  -7 -10 -21    1.03    0.75
   7  10  21    1.10    0.83
   8  10  21   -0.70    0.64
   1   5 -22    0.21    0.51
  -1  -5  22   -0.10    0.72
   0   5 -22    1.89    0.73
   0  -5  22    0.60    0.72
  -1   5 -22    1.74    0.77
   1  -5  22   -0.28    0.57
  -2   5 -22    0.91    0.78
   2  -5  22   -0.10    0.62
  -3   5 -22    2.73    1.01
   3  -5  22    1.17    0.85
  -3  -4  22    2.87    0.93
   2   4 -22    6.76    1.02
  -2  -4  22    7.96    1.21
   1   4 -22    0.60    0.56
  -1  -4  22    0.51    0.72
   0   4 -22    1.03    0.67
   0  -4  22    1.13    0.73
  -1   4 -22   -0.32    0.59
   1  -4  22    0.14    0.61
  -2   4 -22    6.88    1.21
   2  -4  22    5.89    1.01
  -3   4 -22    0.66    0.80
   3  -4  22    1.16    0.71
  -4   4 -22    3.63    1.12
   4  -4  22    2.74    0.86
   3   3 -22    4.45    1.16
  -3  -3  22    3.78    1.02
   2   3 -22    3.47    0.75
  -2  -3  22    3.30    0.92
   1   3 -22    0.71    0.58
  -1  -3  22    0.17    0.70
   0   3 -22    2.73    0.79
   0  -3  22    2.56    0.81
  -1   3 -22    1.68    0.75
   1  -3  22    3.67    0.84
  -2   3 -22    2.96    0.92
   2  -3  22    2.28    0.79
  -3   3 -22    0.90    0.79
   3  -3  22   -0.07    0.62
  -4   3 -22    0.49    0.76
   4  -3  22   -0.35    0.55
  -5   3 -22    2.26    0.97
   5  -3  22    0.25    0.67
  -6   3 -22   -0.24    0.81
   6  -3  22   -0.15    0.70
   3   2 -22    0.76    0.56
  -3  -2  22    1.26    0.82
   2   2 -22    1.63    0.67
  -2  -2  22    1.82    0.79
   1   2 -22   18.42    1.58
  -1  -2  22   19.81    1.63
   0   2 -22   17.06    1.53
   0  -2  22   18.68    1.57
  -1   2 -22    1.98    0.75
   1  -2  22    1.84    0.71
  -2   2 -22    0.88    0.72
   2  -2  22    1.37    0.71
  -3   2 -22    0.26    0.72
   3  -2  22    0.05    0.56
  -4   2 -22    8.89    1.43
   4  -2  22    4.66    0.93
  -5   2 -22    1.61    0.89
   5  -2  22    0.08    0.62
  -6   2 -22    3.04    1.01
   6  -2  22    3.28    0.88
   7  -2  22    2.72    0.85
   3   1 -22   -0.22    0.46
   2   1 -22    6.52    0.98
   1   1 -22   -0.32    0.47
  -1  -1  22    0.29    0.68
   0   1 -22    0.02    0.56
   0  -1  22    0.78    0.63
  -1   1 -22    0.48    0.58
   1  -1  22    1.00    0.64
  -2   1 -22    1.39    0.81
   2  -1  22    0.43    0.62
  -3   1 -22    1.70    0.85
   3  -1  22    1.29    0.62
  -4   1 -22    1.12    0.85
   4  -1  22   -0.31    0.51
  -5   1 -22    2.70    0.92
   5  -1  22    1.83    0.70
  -6   1 -22    1.51    0.87
   6  -1  22   -0.38    0.59
  -7   1 -22    1.20    0.85
   7  -1  22   -0.83    0.55
  -8   1 -22    2.90    1.06
   8  -1  22    2.71    0.85
   3   0 -22    8.32    1.07
   2   0 -22    0.43    0.51
   1   0 -22    5.64    0.95
   0   0 -22    0.69    0.55
   0   0  22    0.52    0.63
  -1   0 -22   12.44    1.47
   1   0  22   20.06    1.50
  -2   0 -22    1.92    0.76
   2   0  22    1.86    0.71
  -3   0 -22   15.64    1.52
   3   0  22   16.33    1.39
  -4   0 -22    9.14    1.40
   4   0  22    7.58    1.01
  -5   0 -22    2.05    0.81
   5   0  22    0.29    0.57
  -6   0 -22    1.22    0.80
   6   0  22    3.43    0.77
  -7   0 -22    1.14    0.82
   7   0  22    0.98    0.67
  -8   0 -22    2.89    0.98
   8   0  22    3.52    0.90
   3  -1 -22    1.47    0.60
   2  -1 -22    1.00    0.55
   1  -1 -22    0.53    0.55
   0  -1 -22    0.66    0.55
  -1  -1 -22    3.30    0.83
  -2  -1 -22    1.44    0.70
   2   1  22    1.97    0.69
  -3  -1 -22    1.22    0.68
   3   1  22    1.09    0.61
  -4  -1 -22    1.69    0.69
   4   1  22    0.07    0.53
  -5  -1 -22    0.76    0.73
   5   1  22   -0.17    0.51
  -6  -1 -22    0.97    0.78
   6   1  22    0.72    0.59
  -7  -1 -22    1.19    0.76
   7   1  22    1.92    0.68
  -8  -1 -22    2.69    0.88
   8   1  22    1.91    0.76
  -9  -1 -22    0.92    0.72
   9   1  22    0.50    0.64
   1  -2 -22   -0.36    0.43
   0  -2 -22    2.85    0.79
  -1  -2 -22    3.67    0.87
  -2  -2 -22    0.44    0.55
  -3  -2 -22    3.26    0.82
   3   2  22    3.75    0.82
  -4  -2 -22    8.12    1.21
   4   2  22   12.45    1.17
  -5  -2 -22    5.21    1.00
   5   2  22    6.90    0.96
  -6  -2 -22    4.16    0.96
   6   2  22    4.32    0.80
  -7  -2 -22    1.94    0.76
   7   2  22    1.10    0.61
  -8  -2 -22    7.60    1.21
   8   2  22   10.12    1.22
  -9  -2 -22    1.79    0.80
   9   2  22    1.86    0.76
  -3   3  22    0.96    0.97
  -2   3  22    1.40    0.99
  -1   3  22    1.49    1.02
   0   3  22   12.73    1.80
   1   3  22    0.57    1.03
  -2  -3 -22    0.66    0.58
  -3  -3 -22   11.83    1.41
  -4  -3 -22    1.42    0.69
  -5  -3 -22    0.15    0.51
   5   3  22    0.52    0.52
  -6  -3 -22    0.76    0.58
   6   3  22    1.03    0.58
  -7  -3 -22    1.33    0.65
   7   3  22    2.48    0.68
  -8  -3 -22    0.75    0.60
   8   3  22   -0.44    0.49
  -9  -3 -22    2.71    0.81
   9   3  22    2.55    0.78
 -10  -3 -22    1.01    0.67
  10   3  22   -0.08    0.62
  -2   4  22    1.65    0.98
   0   4  22   -0.34    0.75
   1   4  22    7.71    1.50
   2   4  22    4.60    1.35
   3   4  22    1.20    1.09
  -4  -4 -22    1.83    0.73
  -5  -4 -22    4.53    0.93
  -6  -4 -22    6.58    1.04
  -7  -4 -22    2.83    0.74
   7   4  22    5.18    0.84
  -8  -4 -22    4.07    0.82
   8   4  22    5.47    0.91
  -9  -4 -22    3.23    0.82
   9   4  22    3.24    0.83
 -10  -4 -22    0.56    0.61
  10   4  22    0.25    0.61
  -1   5  22    0.05    0.82
   0   5  22    0.87    0.82
   1   5  22    0.42    0.87
   2   5  22    5.31    1.23
   3   5  22   -0.55    0.89
   4   5  22    3.06    1.28
  -5  -5 -22   -0.17    0.50
  -6  -5 -22    2.05    0.66
  -7  -5 -22    0.95    0.59
  -8  -5 -22    1.85    0.66
  -9  -5 -22    2.90    0.74
   9   5  22    2.07    0.74
 -10  -5 -22    0.94    0.58
  10   5  22    1.11    0.63
   1  -6 -22    4.76    0.81
  -1   6  22    7.00    1.42
   0   6  22   -0.59    0.77
   1   6  22    4.48    1.24
   2   6  22    0.32    0.79
   3   6  22    5.48    1.31
   4   6  22    1.03    0.94
   5   6  22   12.53    1.86
  -7  -6 -22    0.67    0.54
  -8  -6 -22    3.31    0.79
  -9  -6 -22    2.86    0.77
 -10  -6 -22    9.60    1.15
   0  -7 -22    2.09    0.58
   0   7  22    1.24    0.96
  -1  -7 -22    0.67    0.53
   1   7  22   -0.73    0.77
   2   7  22    0.89    0.90
   3   7  22    0.60    0.87
   4   7  22    0.12    0.79
   5   7  22    1.62    0.92
   6   7  22    4.93    1.27
  -8  -7 -22    0.86    0.57
  -9  -7 -22    0.63    0.55
  -1  -8 -22    1.21    0.55
  -2  -8 -22    3.96    0.75
   2   8  22    3.76    1.19
   3   8  22    3.47    1.05
   4   8  22    0.48    0.85
   5   8  22    0.14    0.79
   6   8  22    2.70    1.01
   7   8  22    8.27    1.47
  -8  -8 -22    4.18    0.85
  -9  -8 -22    1.40    0.61
  -3  -9 -22    0.73    0.60
   3   9  22   -0.49    0.77
  -4  -9 -22    0.06    0.60
   4   9  22   -0.04    0.76
   5   9  22    1.36    0.91
   6   9  22   -0.02    0.80
   8   9  22   -0.08    0.84
   0   4 -23    0.40    0.60
   0  -4  23    0.04    0.61
  -1   4 -23    1.70    0.77
   1  -4  23   -0.18    0.63
  -2   4 -23    1.15    0.80
   2  -4  23   -0.22    0.62
   1   3 -23    2.66    0.77
  -1  -3  23    1.24    0.80
   0   3 -23    0.92    0.66
   0  -3  23    1.45    0.75
  -1   3 -23    9.38    1.34
   1  -3  23    8.54    1.20
  -2   3 -23    2.35    0.91
   2  -3  23    1.28    0.72
  -3   3 -23   14.65    1.78
   3  -3  23   16.80    1.53
  -4   3 -23    0.96    0.85
   4  -3  23    0.85    0.68
   2   2 -23    1.70    0.67
  -2  -2  23    0.66    0.71
   1   2 -23    1.76    0.66
  -1  -2  23    1.07    0.77
   0   2 -23    1.33    0.70
   0  -2  23    0.92    0.71
  -1   2 -23    1.28    0.73
   1  -2  23    2.89    0.83
  -2   2 -23    0.43    0.70
   2  -2  23    0.87    0.66
  -3   2 -23    2.34    0.88
   3  -2  23    0.86    0.69
  -4   2 -23    3.01    1.06
   4  -2  23    3.30    0.86
  -5   2 -23    1.42    0.88
   5  -2  23    0.46    0.72
   6  -2  23    0.39    0.68
   2   1 -23    1.27    0.60
   1   1 -23    0.77    0.57
   0   1 -23    8.83    1.23
   0  -1  23   11.64    1.33
  -1   1 -23    0.16    0.63
   1  -1  23    2.47    0.83
  -2   1 -23    2.44    0.89
   2  -1  23    4.14    0.88
  -3   1 -23    2.53    0.88
   3  -1  23    2.34    0.78
  -4   1 -23   10.16    1.48
   4  -1  23    9.21    1.19
  -5   1 -23    4.22    1.09
   5  -1  23    3.67    0.85
  -6   1 -23    3.69    1.08
   6  -1  23    2.56    0.82
   2   0 -23   -0.12    0.42
   1   0 -23    0.45    0.52
   0   0 -23    1.18    0.63
  -1   0 -23    0.46    0.61
   1   0  23    0.62    0.63
  -2   0 -23    2.29    0.80
   2   0  23    0.81    0.62
  -3   0 -23    9.69    1.38
   3   0  23   11.80    1.28
  -4   0 -23    2.22    0.90
   4   0  23    0.99    0.65
  -5   0 -23    0.49    0.76
   5   0  23    0.50    0.59
  -6   0 -23    8.14    1.33
   6   0  23   10.16    1.22
  -7   0 -23    0.21    0.67
   7   0  23    0.17    0.57
   2  -1 -23    3.67    0.76
   1  -1 -23    1.35    0.62
   0  -1 -23    1.51    0.66
  -1  -1 -23    4.64    0.92
  -2  -1 -23    3.28    0.82
  -3  -1 -23    3.08    0.84
   3   1  23    3.22    0.78
  -4  -1 -23    2.09    0.84
   4   1  23    1.26    0.67
  -5  -1 -23    4.34    1.04
   5   1  23    5.78    0.93
  -6  -1 -23    1.80    0.78
   6   1  23    1.51    0.69
  -7  -1 -23    1.60    0.82
   7   1  23    4.59    0.89
  -8  -1 -23    4.50    1.05
   8   1  23    4.54    0.94
   2  -2 -23    0.34    0.52
   1  -2 -23    4.42    0.88
   0  -2 -23    0.70    0.59
  -1  -2 -23    2.49    0.77
  -2  -2 -23    0.94    0.61
  -3  -2 -23    0.75    0.63
  -4  -2 -23    0.77    0.61
   4   2  23   -0.01    0.55
  -5  -2 -23   -0.08    0.62
   5   2  23   -0.74    0.47
  -6  -2 -23    3.58    0.89
   6   2  23    3.61    0.83
  -7  -2 -23    2.14    0.77
   7   2  23    0.48    0.59
  -8  -2 -23    1.62    0.74
   8   2  23    0.63    0.63
  -1   3  23   -0.18    0.89
   0   3  23    0.63    1.00
  -1  -3 -23    1.96    0.69
  -2  -3 -23    0.47    0.54
  -3  -3 -23    4.99    0.97
  -4  -3 -23    1.60    0.65
  -5  -3 -23   16.44    1.48
  -6  -3 -23    0.33    0.60
   6   3  23    0.46    0.56
  -7  -3 -23    4.64    0.89
   7   3  23    3.91    0.83
  -8  -3 -23    1.81    0.72
   8   3  23    0.48    0.60
  -9  -3 -23    8.39    1.24
   9   3  23   13.65    1.40
  -1   4  23    1.22    1.00
   0   4  23    0.70    1.04
   1   4  23    1.60    1.07
   2   4  23    2.01    1.20
  -3  -4 -23   -0.39    0.48
  -4  -4 -23    0.06    0.54
  -5  -4 -23    0.68    0.61
  -6  -4 -23    1.11    0.64
  -7  -4 -23    1.02    0.65
  -8  -4 -23    1.33    0.62
   8   4  23    1.29    0.63
  -9  -4 -23    0.78    0.59
   9   4  23   -0.28    0.51
   0   5  23    3.04    1.06
   1   5  23    0.54    0.89
   2   5  23   15.28    2.04
   3   5  23    0.31    0.94
   4   5  23    1.18    1.12
  -5  -5 -23    0.52    0.58
  -6  -5 -23    8.72    1.18
  -7  -5 -23    5.20    0.94
  -8  -5 -23    4.51    0.88
  -9  -5 -23    2.18    0.74
   1   6  23    1.09    0.97
   2   6  23   -0.30    0.86
   3   6  23   -0.25    0.81
   4   6  23    0.50    1.03
   5   6  23    1.28    1.01
  -6  -6 -23    5.26    0.96
  -7  -6 -23    0.87    0.60
  -8  -6 -23    2.09    0.70
  -9  -6 -23    0.90    0.59
   2   7  23    2.17    0.99
   3   7  23    0.10    0.79
   4   7  23    0.79    0.87
   5   7  23    2.07    1.09
   6   7  23    2.49    1.15
  -7  -7 -23    0.73    0.58
  -8  -7 -23    1.38    0.63
   3   8  23    3.02    1.09
   4   8  23    2.54    1.06
   5   8  23    0.29    0.90
   6   8  23   -0.48    0.79
   7   8  23    0.01    0.89
   0   2 -24    7.29    1.14
   0  -2  24    8.44    1.21
  -1   2 -24   -0.12    0.64
   1  -2  24    0.69    0.70
  -2   2 -24    7.83    1.30
   2  -2  24    4.18    0.91
  -3   2 -24    1.43    0.87
   3  -2  24    0.49    0.71
   0   1 -24    0.94    0.65
   0  -1  24    1.29    0.97
  -1   1 -24    1.80    0.82
   1  -1  24    2.15    0.77
  -2   1 -24    1.46    0.77
   2  -1  24   -0.11    0.56
  -3   1 -24    0.81    0.74
   3  -1  24   -0.28    0.56
  -4   1 -24    0.40    0.76
   4  -1  24   -0.07    0.58
  -5   1 -24    0.37    0.76
   5  -1  24    0.54    0.65
   1   0 -24    2.98    0.82
   0   0 -24    4.74    0.95
  -1   0 -24    5.04    0.99
  -2   0 -24    4.29    0.95
   2   0  24    5.55    0.97
  -3   0 -24    1.59    0.81
   3   0  24    1.41    0.73
  -4   0 -24    9.59    1.42
   4   0  24   10.85    1.23
  -5   0 -24    2.11    0.91
   5   0  24    1.68    0.71
  -6   0 -24    1.57    0.77
   6   0  24    1.14    0.72
   1  -1 -24   -0.48    0.45
   0  -1 -24    0.07    0.53
  -1  -1 -24    9.33    1.25
  -2  -1 -24    0.51    0.61
  -3  -1 -24    0.16    0.57
  -4  -1 -24    2.46    0.83
   4   1  24    3.23    0.82
  -5  -1 -24    0.26    0.69
   5   1  24   -0.04    0.55
  -6  -1 -24    1.71    0.80
   6   1  24    1.13    0.66
  -7  -1 -24    0.84    0.69
   7   1  24    0.39    0.63
   0  -2 -24    0.95    0.62
  -1  -2 -24    3.52    0.80
  -2  -2 -24    2.90    0.80
  -3  -2 -24    2.80    0.84
  -4  -2 -24    2.30    0.81
  -5  -2 -24    2.53    0.81
   5   2  24    4.52    0.91
  -6  -2 -24    4.35    1.04
   6   2  24    4.79    0.93
  -7  -2 -24    4.10    0.91
   7   2  24    3.74    0.83
   0  -3 -24   -0.04    0.50
  -1  -3 -24    0.52    0.56
  -2  -3 -24    0.50    0.59
  -3  -3 -24    0.90    0.63
  -4  -3 -24    0.96    0.64
  -5  -3 -24    2.48    0.79
  -6  -3 -24    0.63    0.64
  -7  -3 -24    1.43    0.66
   7   3  24    0.64    0.62
   1   4  24   -1.57    0.86
  -2  -4 -24    1.07    0.63
  -3  -4 -24   -0.01    0.49
  -4  -4 -24    3.15    0.86
  -5  -4 -24    1.19    0.70
  -6  -4 -24    6.44    1.06
  -7  -4 -24    1.22    0.64
  -8  -4 -24    3.31    0.81
   1   5  24    1.09    1.11
   2   5  24    1.30    1.12
   3   5  24   -0.19    0.97
  -4  -5 -24    0.04    0.56
  -5  -5 -24    0.51    0.57
  -6  -5 -24    1.31    0.65
  -7  -5 -24    1.24    0.62
   3   6  24    5.85    1.47
   4   6  24    0.07    1.02
  -5  -6 -24    0.10    0.59
  -6  -6 -24    1.61    0.71
  -7  -6 -24    0.66    0.57
   4   7  24   -0.06    0.97
   5   7  24    0.45    0.95
  -2  -1 -25   -0.42    0.50
  -3  -1 -25    0.24    0.58
  -4  -1 -25    5.57    1.12
  -2  -2 -25    1.91    0.65
  -3  -2 -25    0.82    0.65
  -4  -2 -25    0.48    0.63
  -5  -2 -25   -0.07    0.60
  -2  -3 -25    0.25    0.52
  -3  -3 -25    2.45    0.80
  -4  -3 -25    0.96    0.67
  -5  -3 -25    1.89    0.78
  -3  -4 -25    0.94    0.65
  -4  -4 -25   -0.01    0.56
  -5  -4 -25    1.11    0.69
   0   0   0    0.00    0.00
;
_shelx_hkl_checksum              79253
loop_
_space_group_symop_operation_xyz
'x, y, z'
'-x, -y, -z'
loop_
_atom_site_label
_atom_site_type_symbol
_atom_site_fract_x
_atom_site_fract_y
_atom_site_fract_z
_atom_site_U_iso_or_equiv
_atom_site_adp_type
_atom_site_occupancy
_atom_site_site_symmetry_order
_atom_site_calc_flag
_atom_site_refinement_flags_posn
_atom_site_refinement_flags_adp
_atom_site_refinement_flags_occupancy
_atom_site_disorder_assembly
_atom_site_disorder_group
Pt1 Pt 0.5000 0.5000 0.0000 0.01981(8) Uani 1 2 d S . P . .
Br1 Br 0.22846(8) 0.58158(7) 0.09197(4) 0.02097(13) Uani 1 1 d . . . . .
N1 N 0.5414(7) 0.6484(6) 0.0493(4) 0.0259(12) Uani 1 1 d . . . . .
C1 C 0.5701(8) 0.7348(8) 0.0765(5) 0.0253(14) Uani 1 1 d . . . . .
N2 N 0.6077(7) 0.8299(6) 0.1066(4) 0.0310(14) Uani 1 1 d D . . . .
C2 C 0.7698(18) 0.798(4) 0.120(2) 0.032(4) Uani 0.49(5) 1 d D U P A 1
H2A H 0.8414 0.6954 0.1043 0.049 Uiso 0.49(5) 1 calc R U P A 1
H2B H 0.7647 0.8082 0.1817 0.049 Uiso 0.49(5) 1 calc R U P A 1
H2C H 0.8118 0.8684 0.0826 0.049 Uiso 0.49(5) 1 calc R U P A 1
C3 C 0.506(4) 0.9890(15) 0.113(2) 0.032(4) Uani 0.49(5) 1 d D U P A 1
H3A H 0.3988 1.0073 0.1025 0.048 Uiso 0.49(5) 1 calc R U P A 1
H3B H 0.5548 1.0473 0.0680 0.048 Uiso 0.49(5) 1 calc R U P A 1
H3C H 0.4944 1.0192 0.1711 0.048 Uiso 0.49(5) 1 calc R U P A 1
C2' C 0.761(2) 0.759(3) 0.1376(19) 0.032(4) Uani 0.51(5) 1 d D . P A 2
H2'A H 0.8078 0.6519 0.1290 0.049 Uiso 0.51(5) 1 calc R U P A 2
H2'B H 0.7412 0.7747 0.2003 0.049 Uiso 0.51(5) 1 calc R U P A 2
H2'C H 0.8361 0.8046 0.1043 0.049 Uiso 0.51(5) 1 calc R U P A 2
C3' C 0.481(3) 0.9749(19) 0.133(2) 0.032(4) Uani 0.51(5) 1 d D . P A 2
H3'A H 0.4076 1.0123 0.0913 0.048 Uiso 0.51(5) 1 calc R U P A 2
H3'B H 0.5302 1.0463 0.1323 0.048 Uiso 0.51(5) 1 calc R U P A 2
H3'C H 0.4206 0.9631 0.1920 0.048 Uiso 0.51(5) 1 calc R U P A 2
Pt1A Pt 0.5000 0.0000 0.5000 0.01933(8) Uani 1 2 d S . P . .
Br1A Br 0.59632(8) -0.11812(8) 0.35934(4) 0.02411(14) Uani 1 1 d . . . . .
N1A N 0.6746(7) 0.0733(6) 0.4706(4) 0.0248(12) Uani 1 1 d . . . . .
C1A C 0.7712(8) 0.1220(7) 0.4451(4) 0.0220(13) Uani 1 1 d . . . . .
N2A N 0.8820(7) 0.1784(7) 0.4212(4) 0.0268(12) Uani 1 1 d . . . . .
C2A C 0.8376(10) 0.3406(9) 0.4144(5) 0.0345(17) Uani 1 1 d . . . . .
H2AA H 0.7295 0.3894 0.4499 0.052 Uiso 1 1 calc R U . . .
H2AB H 0.8379 0.3781 0.3529 0.052 Uiso 1 1 calc R U . . .
H2AC H 0.9156 0.3629 0.4360 0.052 Uiso 1 1 calc R U . . .
C3A C 1.0426(9) 0.0850(9) 0.3733(5) 0.0331(16) Uani 1 1 d . . . . .
H3AA H 1.0578 -0.0207 0.3839 0.050 Uiso 1 1 calc R U . . .
H3AB H 1.1259 0.1003 0.3941 0.050 Uiso 1 1 calc R U . . .
H3AC H 1.0510 0.1130 0.3103 0.050 Uiso 1 1 calc R U . . .
C1S C 0.9180(9) 0.1966(8) 0.1113(5) 0.0279(15) Uani 1 1 d . . . . .
H1SA H 0.8848 0.2215 0.0530 0.034 Uiso 1 1 calc R U . . .
I1S I 0.70252(6) 0.24240(5) 0.21005(3) 0.03041(11) Uani 1 1 d . . . . .
I2S I 1.04687(6) 0.33346(5) 0.11669(3) 0.02900(11) Uani 1 1 d . . . . .
I3S I 1.07211(6) -0.03778(5) 0.11607(3) 0.02983(11) Uani 1 1 d . . . . .
C2S C 0.2556(9) 0.5516(7) 0.3193(5) 0.0266(14) Uani 1 1 d . . . . .
H2SA H 0.2846 0.5313 0.2557 0.032 Uiso 1 1 calc R U . . .
I4S I 0.39171(5) 0.67668(5) 0.33479(3) 0.02697(10) Uani 1 1 d . . . . .
I5S I 0.33269(6) 0.33599(5) 0.39070(4) 0.03464(12) Uani 1 1 d . . . . .
I6S I 0.00355(5) 0.67401(5) 0.34802(3) 0.02706(11) Uani 1 1 d . . . . .
loop_
_atom_site_aniso_label
_atom_site_aniso_U_11
_atom_site_aniso_U_22
_atom_site_aniso_U_33
_atom_site_aniso_U_23
_atom_site_aniso_U_13
_atom_site_aniso_U_12
Pt1 0.02645(18) 0.01671(16) 0.02085(17) 0.00019(12) -0.00902(13) -0.01101(13)
Br1 0.0214(3) 0.0205(3) 0.0234(3) -0.0032(2) -0.0046(2) -0.0098(2)
N1 0.029(3) 0.023(3) 0.033(3) -0.004(2) -0.010(2) -0.014(2)
C1 0.025(3) 0.024(3) 0.026(3) 0.000(3) -0.005(3) -0.010(3)
N2 0.028(3) 0.030(3) 0.043(4) -0.010(3) -0.011(3) -0.014(3)
C2 0.026(4) 0.035(8) 0.045(8) -0.011(6) -0.007(4) -0.018(4)
C3 0.045(7) 0.022(4) 0.036(10) -0.001(5) -0.017(6) -0.016(5)
C2' 0.026(4) 0.035(8) 0.045(8) -0.011(6) -0.007(4) -0.018(4)
C3' 0.045(7) 0.022(4) 0.036(10) -0.001(5) -0.017(6) -0.016(5)
Pt1A 0.02023(17) 0.01927(17) 0.02184(17) 0.00398(13) -0.00699(13) -0.01128(13)
Br1A 0.0255(3) 0.0306(3) 0.0214(3) -0.0041(3) -0.0020(2) -0.0167(3)
N1A 0.022(3) 0.020(3) 0.034(3) -0.004(2) -0.004(2) -0.011(2)
C1A 0.027(3) 0.022(3) 0.017(3) 0.000(2) -0.002(2) -0.011(3)
N2A 0.028(3) 0.026(3) 0.035(3) 0.002(2) -0.008(2) -0.020(2)
C2A 0.044(5) 0.031(4) 0.037(4) 0.003(3) -0.009(3) -0.023(3)
C3A 0.028(4) 0.037(4) 0.037(4) -0.002(3) -0.007(3) -0.015(3)
C1S 0.041(4) 0.021(3) 0.026(3) 0.001(3) -0.007(3) -0.017(3)
I1S 0.0310(2) 0.0313(2) 0.0310(2) -0.00044(19) -0.00730(19) -0.01416(19)
I2S 0.0379(3) 0.0229(2) 0.0295(2) -0.00020(17) -0.00402(19) -0.01714(19)
I3S 0.0378(3) 0.0218(2) 0.0332(2) -0.00100(18) -0.0083(2) -0.01442(19)
C2S 0.030(4) 0.020(3) 0.026(3) 0.005(3) -0.010(3) -0.005(3)
I4S 0.0259(2) 0.0240(2) 0.0307(2) 0.00061(17) -0.00343(17) -0.01140(17)
I5S 0.0288(2) 0.0218(2) 0.0495(3) 0.0090(2) -0.0084(2) -0.00970(18)
I6S 0.0254(2) 0.0237(2) 0.0319(2) 0.00316(18) -0.00747(18) -0.01027(17)
loop_
_atom_type_symbol
_atom_type_description
_atom_type_scat_dispersion_real
_atom_type_scat_dispersion_imag
_atom_type_scat_source
C C 0.0033 0.0016 'International Tables Vol C Tables 4.2.6.8 and 6.1.1.4'
H H 0.0000 0.0000 'International Tables Vol C Tables 4.2.6.8 and 6.1.1.4'
N N 0.0061 0.0033 'International Tables Vol C Tables 4.2.6.8 and 6.1.1.4'
I I -0.4742 1.8119 'International Tables Vol C Tables 4.2.6.8 and 6.1.1.4'
Pt Pt -1.7033 8.3905 'International Tables Vol C Tables 4.2.6.8 and 6.1.1.4'
Br Br -0.2901 2.4595 'International Tables Vol C Tables 4.2.6.8 and 6.1.1.4'
loop_
_geom_angle_atom_site_label_1
_geom_angle_atom_site_label_2
_geom_angle_atom_site_label_3
_geom_angle
_geom_angle_site_symmetry_1
_geom_angle_site_symmetry_3
N1 Pt1 N1 180.0 2_665 .
N1 Pt1 Br1 90.24(18) 2_665 .
N1 Pt1 Br1 89.76(18) . .
N1 Pt1 Br1 89.76(18) 2_665 2_665
N1 Pt1 Br1 90.24(18) . 2_665
Br1 Pt1 Br1 180.0 . 2_665
C1 N1 Pt1 177.9(6) . .
N1 C1 N2 178.1(8) . .
C1 N2 C3 123.7(16) . .
C1 N2 C3' 119.1(16) . .
C1 N2 C2 123.7(13) . .
C3 N2 C2 111(2) . .
C1 N2 C2' 113.1(12) . .
C3' N2 C2' 124.6(19) . .
N2 C2 H2A 109.5 . .
N2 C2 H2B 109.5 . .
H2A C2 H2B 109.5 . .
N2 C2 H2C 109.5 . .
H2A C2 H2C 109.5 . .
H2B C2 H2C 109.5 . .
N2 C3 H3A 109.5 . .
N2 C3 H3B 109.5 . .
H3A C3 H3B 109.5 . .
N2 C3 H3C 109.5 . .
H3A C3 H3C 109.5 . .
H3B C3 H3C 109.5 . .
N2 C2' H2'A 109.5 . .
N2 C2' H2'B 109.5 . .
H2'A C2' H2'B 109.5 . .
N2 C2' H2'C 109.5 . .
H2'A C2' H2'C 109.5 . .
H2'B C2' H2'C 109.5 . .
N2 C3' H3'A 109.5 . .
N2 C3' H3'B 109.5 . .
H3'A C3' H3'B 109.5 . .
N2 C3' H3'C 109.5 . .
H3'A C3' H3'C 109.5 . .
H3'B C3' H3'C 109.5 . .
N1A Pt1A N1A 180.0 2_656 .
N1A Pt1A Br1A 89.79(18) 2_656 .
N1A Pt1A Br1A 90.21(18) . .
N1A Pt1A Br1A 90.20(18) 2_656 2_656
N1A Pt1A Br1A 89.80(18) . 2_656
Br1A Pt1A Br1A 180.0 . 2_656
C1A N1A Pt1A 172.6(6) . .
N1A C1A N2A 176.2(7) . .
C1A N2A C2A 120.9(6) . .
C1A N2A C3A 118.4(6) . .
C2A N2A C3A 117.6(6) . .
N2A C2A H2AA 109.5 . .
N2A C2A H2AB 109.5 . .
H2AA C2A H2AB 109.5 . .
N2A C2A H2AC 109.5 . .
H2AA C2A H2AC 109.5 . .
H2AB C2A H2AC 109.5 . .
N2A C3A H3AA 109.5 . .
N2A C3A H3AB 109.5 . .
H3AA C3A H3AB 109.5 . .
N2A C3A H3AC 109.5 . .
H3AA C3A H3AC 109.5 . .
H3AB C3A H3AC 109.5 . .
I1S C1S I3S 111.2(3) . .
I1S C1S I2S 112.9(3) . .
I3S C1S I2S 111.2(3) . .
I1S C1S H1SA 107.0 . .
I3S C1S H1SA 107.0 . .
I2S C1S H1SA 107.0 . .
I6S C2S I5S 113.6(3) . .
I6S C2S I4S 113.1(3) . .
I5S C2S I4S 110.5(3) . .
I6S C2S H2SA 106.3 . .
I5S C2S H2SA 106.3 . .
I4S C2S H2SA 106.3 . .
loop_
_geom_bond_atom_site_label_1
_geom_bond_atom_site_label_2
_geom_bond_distance
_geom_bond_site_symmetry_2
Pt1 N1 1.958(6) 2_665
Pt1 N1 1.958(6) .
Pt1 Br1 2.4494(6) .
Pt1 Br1 2.4494(6) 2_665
N1 C1 1.152(9) .
C1 N2 1.306(9) .
N2 C3 1.461(9) .
N2 C3' 1.466(9) .
N2 C2 1.466(9) .
N2 C2' 1.471(9) .
C2 H2A 0.9800 .
C2 H2B 0.9800 .
C2 H2C 0.9800 .
C3 H3A 0.9800 .
C3 H3B 0.9800 .
C3 H3C 0.9800 .
C2' H2'A 0.9800 .
C2' H2'B 0.9800 .
C2' H2'C 0.9800 .
C3' H3'A 0.9800 .
C3' H3'B 0.9800 .
C3' H3'C 0.9800 .
Pt1A N1A 1.961(6) 2_656
Pt1A N1A 1.961(6) .
Pt1A Br1A 2.4522(7) .
Pt1A Br1A 2.4522(7) 2_656
N1A C1A 1.145(9) .
C1A N2A 1.312(9) .
N2A C2A 1.465(9) .
N2A C3A 1.473(10) .
C2A H2AA 0.9800 .
C2A H2AB 0.9800 .
C2A H2AC 0.9800 .
C3A H3AA 0.9800 .
C3A H3AB 0.9800 .
C3A H3AC 0.9800 .
C1S I1S 2.138(8) .
C1S I3S 2.154(7) .
C1S I2S 2.156(7) .
C1S H1SA 1.0000 .
C2S I6S 2.112(7) .
C2S I5S 2.159(7) .
C2S I4S 2.164(8) .
C2S H2SA 1.0000 .
