#------------------------------------------------------------------------------
#$Date: 2016-05-31 10:54:22 +0300 (Tue, 31 May 2016) $
#$Revision: 183168 $
#$URL: svn://www.crystallography.net/cod/cif/7/11/89/7118965.cif $
#------------------------------------------------------------------------------
#
# This file is available in the Crystallography Open Database (COD),
# http://www.crystallography.net/
#
# All data on this site have been placed in the public domain by the
# contributors.
#
data_7118965
loop_
_publ_author_name
'Dhananjay Dey'
'Subhrajyoti Bhandary'
'Abhishek Sirohiwal'
'Venkatesha R. Hathwar'
'Deepak Chopra'
_publ_section_title
;
 'Conformational lock' via unusual intramolecular C-F^...^O[double bond,
 length as m-dash]C and C-H^...^Cl-C parallel dipoles observed in in situ
 cryocrystallized liquids
;
_journal_name_full               Chem.Commun.
_journal_page_first              7225
_journal_volume                  52
_journal_year                    2016
_chemical_formula_sum            'C7 H4 Cl F O'
_chemical_formula_weight         158.55
_chemical_melting_point          277.9
_space_group_crystal_system      orthorhombic
_space_group_IT_number           33
_space_group_name_Hall           'P 2c -2n'
_space_group_name_H-M_alt        'P n a 21'
_symmetry_space_group_name_Hall  'P 2c -2n'
_symmetry_space_group_name_H-M   'P n a 21'
_atom_sites_solution_hydrogens   geom
_audit_creation_method           SHELXL-2014/7
_audit_update_record
;
2016-04-14 deposited with the CCDC.
2016-04-18 downloaded from the CCDC.
;
_cell_angle_alpha                90
_cell_angle_beta                 90
_cell_angle_gamma                90
_cell_formula_units_Z            4
_cell_length_a                   13.8205(6)
_cell_length_b                   12.5452(6)
_cell_length_c                   3.8197(2)
_cell_measurement_reflns_used    2249
_cell_measurement_temperature    110(2)
_cell_measurement_theta_max      30.58
_cell_measurement_theta_min      2.19
_cell_volume                     662.26(6)
_computing_cell_refinement       'Bruker SAINT'
_computing_data_collection       'Bruker APEX2'
_computing_data_reduction        'Bruker SAINT'
_computing_molecular_graphics
'PLATON (Spek, 2009) and Mercury (Macrae <i>et al.</i>, 2008)'
_computing_publication_material  'WINGX (Farrugia, 2014) and PLATON'
_computing_structure_refinement  'SHELXL-2014/7 (Sheldrick, 2014)'
_computing_structure_solution    'SIR2014 (Burla <i>et al.</i>, 2014)'
_diffrn_ambient_temperature      110(2)
_diffrn_measured_fraction_theta_full 0.795
_diffrn_measured_fraction_theta_max 0.734
_diffrn_measurement_device_type  'Bruker APEX-II CCD'
_diffrn_measurement_method       '\w scans'
_diffrn_radiation_type           MoK\a
_diffrn_radiation_wavelength     0.71073
_diffrn_reflns_av_R_equivalents  0.0403
_diffrn_reflns_av_unetI/netI     0.0355
_diffrn_reflns_Laue_measured_fraction_full 0.795
_diffrn_reflns_Laue_measured_fraction_max 0.734
_diffrn_reflns_limit_h_max       19
_diffrn_reflns_limit_h_min       -19
_diffrn_reflns_limit_k_max       17
_diffrn_reflns_limit_k_min       -16
_diffrn_reflns_limit_l_max       2
_diffrn_reflns_limit_l_min       -3
_diffrn_reflns_number            3137
_diffrn_reflns_point_group_measured_fraction_full 0.720
_diffrn_reflns_point_group_measured_fraction_max 0.647
_diffrn_reflns_theta_full        25.242
_diffrn_reflns_theta_max         30.575
_diffrn_reflns_theta_min         2.192
_exptl_absorpt_coefficient_mu    0.510
_exptl_absorpt_correction_T_max  0.858
_exptl_absorpt_correction_T_min  0.858
_exptl_absorpt_correction_type   multi-scan
_exptl_absorpt_process_details   SADABS
_exptl_crystal_colour            colourless
_exptl_crystal_density_diffrn    1.590
_exptl_crystal_description       block
_exptl_crystal_F_000             320
_exptl_crystal_size_max          0.300
_exptl_crystal_size_mid          0.300
_exptl_crystal_size_min          0.300
_refine_diff_density_max         0.277
_refine_diff_density_min         -0.272
_refine_diff_density_rms         0.055
_refine_ls_abs_structure_details
;
 Flack x determined using 440 quotients [(I+)-(I-)]/[(I+)+(I-)]
 (Parsons, Flack and Wagner, Acta Cryst. B69 (2013) 249-259).
;
_refine_ls_abs_structure_Flack   0.03(3)
_refine_ls_extinction_coef       .
_refine_ls_extinction_method     none
_refine_ls_goodness_of_fit_ref   1.096
_refine_ls_hydrogen_treatment    constr
_refine_ls_matrix_type           full
_refine_ls_number_parameters     91
_refine_ls_number_reflns         1324
_refine_ls_number_restraints     1
_refine_ls_restrained_S_all      1.096
_refine_ls_R_factor_all          0.0323
_refine_ls_R_factor_gt           0.0268
_refine_ls_shift/su_max          0.001
_refine_ls_shift/su_mean         0.000
_refine_ls_structure_factor_coef Fsqd
_refine_ls_weighting_details
'w=1/[\s^2^(Fo^2^)+(0.0167P)^2^+0.2508P] where P=(Fo^2^+2Fc^2^)/3'
_refine_ls_weighting_scheme      calc
_refine_ls_wR_factor_gt          0.0601
_refine_ls_wR_factor_ref         0.0673
_reflns_Friedel_coverage         0.554
_reflns_Friedel_fraction_full    0.617
_reflns_Friedel_fraction_max     0.533
_reflns_number_gt                1236
_reflns_number_total             1324
_reflns_threshold_expression     'I > 2\s(I)'
_cod_data_source_file            c6cc02535h2.cif
_cod_data_source_block           2fbc
_cod_database_code               7118965
_shelx_shelxl_version_number     2014/7
_shelx_space_group_comment
;
The symmetry employed for this shelxl refinement is uniquely defined
by the following loop, which should always be used as a source of
symmetry information in preference to the above space-group names.
They are only intended as comments.
;
_shelx_estimated_absorpt_t_min   0.862
_shelx_estimated_absorpt_t_max   0.862
_shelx_res_file
;

    shelxl.res created by SHELXL-2014/7


TITL 2DFBC in Pna2(1)
CELL 0.71073 13.8205 12.5452 3.8197 90.000 90.000 90.000
ZERR 4.00 0.0006 0.0006 0.0002 0.000 0.000 0.000
LATT -1
SYMM -x, -y, z+1/2
SYMM -x+1/2, y+1/2, z+1/2
SYMM x+1/2, -y+1/2, z
SFAC C H O F CL
UNIT 28 16 4 4 4
MERG 2
L.S. 12
OMIT 0 4 0
OMIT 3 7 1
OMIT 12 9 -3
OMIT 11 10 -3
OMIT 1 7 0
OMIT 8 5 -3
OMIT 0 7 1
OMIT 11 8 -3
OMIT 7 5 -3
ACTA
BOND $H
CONF
HTAB
SIZE 0.3 0.3 0.3
TEMP -163
OMIT -2 -2 6
FMAP 2
PLAN 5
WGHT    0.016700    0.250800
FVAR       0.22588
CL1   5    0.580926    0.922695   -0.303093    11.00000    0.02106    0.03548 =
         0.03506    0.00329   -0.00409    0.00609
F1    4    0.788629    0.647336   -0.070740    11.00000    0.04635    0.01653 =
         0.05177   -0.00590   -0.01046    0.00349
O1    3    0.629662    0.726278   -0.350687    11.00000    0.03510    0.03166 =
         0.06168   -0.00645   -0.01731   -0.00790
C4    1    0.929952    0.867206    0.245562    11.00000    0.01889    0.04017 =
         0.02275   -0.00123   -0.00041   -0.00123
AFIX  43
H4    2    0.991307    0.879715    0.349905    11.00000   -1.20000
AFIX   0
C3    1    0.902502    0.763929    0.163583    11.00000    0.02473    0.03116 =
         0.02342    0.00075   -0.00145    0.00982
AFIX  43
H3    2    0.943954    0.705501    0.213955    11.00000   -1.20000
AFIX   0
C2    1    0.814004    0.747801    0.007798    11.00000    0.02711    0.01745 =
         0.02256   -0.00169    0.00101    0.00266
C1    1    0.750820    0.831522   -0.069682    11.00000    0.01774    0.01849 =
         0.01549    0.00036    0.00045   -0.00041
C7    1    0.657651    0.809171   -0.243627    11.00000    0.02029    0.02654 =
         0.02273    0.00300    0.00029   -0.00172
C5    1    0.869001    0.952538    0.177230    11.00000    0.02421    0.02488 =
         0.02024   -0.00166    0.00287   -0.00644
AFIX  43
H5    2    0.888035    1.022851    0.238750    11.00000   -1.20000
AFIX   0
C6    1    0.780368    0.934861    0.019114    11.00000    0.02134    0.01740 =
         0.01904    0.00006    0.00015    0.00073
AFIX  43
H6    2    0.739049    0.993515   -0.029827    11.00000   -1.20000
AFIX   0
HKLF 4

REM  2DFBC in Pna2(1)
REM R1 =  0.0268 for    1236 Fo > 4sig(Fo)  and  0.0323 for all    1324 data
REM     91 parameters refined using      1 restraints

END

WGHT      0.0167      0.2526

REM No hydrogen bonds found for HTAB generation

REM Highest difference peak  0.277,  deepest hole -0.272,  1-sigma level  0.055
Q1    1   0.7727  0.7861 -0.0559  11.00000  0.05    0.28
Q2    1   0.9076  0.8166  0.1839  11.00000  0.05    0.26
Q3    1   0.5205  0.9024 -0.3045  11.00000  0.05    0.26
Q4    1   0.7687  0.8797 -0.0111  11.00000  0.05    0.26
Q5    1   0.6028  0.8715 -0.3218  11.00000  0.05    0.25
;
_shelx_res_checksum              66577
_shelx_hkl_file
;
   0   1  -1  194.43    4.17
   0   2   1   -0.03    0.01
   0  -2  -1   -0.05    0.01
   0   2   0   77.36    1.72
   0   2  -1   -0.04    0.01
   0   2  -2    9.15    0.22
   0   3   2    0.01    0.01
   0   3   0    0.03    0.01
   0  -3   0    0.00    0.01
   0   3  -1   17.74    0.42
   0   3  -2    0.00    0.01
   0   4   2   31.00    0.68
   0  -4  -1    0.00    0.01
   0  -4   0    0.00    0.01
   0   4  -1   -0.03    0.02
   0  -4   1    0.00    0.01
   0   4  -2   32.00    0.73
   0   5   2    0.04    0.02
   0   5   0    0.00    0.02
   0  -5   0    0.00    0.01
   0   5  -2    0.03    0.03
   0  -5   2    0.02    0.02
   0   6   2  103.11    2.22
   0   6   1    0.02    0.02
   0  -6  -1    0.01    0.02
   0   6  -1   -0.03    0.02
   0  -6   1    0.00    0.02
   0   6  -2  106.73    2.32
   0   7   2    0.01    0.02
   0  -7  -2    0.03    0.03
   0   7   0    0.00    0.02
   0  -7   0    0.00    0.01
   0  -7   1    0.00    0.02
   0   7  -2    0.00    0.03
   0   7  -3    4.36    0.19
   0   8   1    0.00    0.03
   0  -8  -1    0.00    0.02
   0   8  -1    0.06    0.03
   0  -8   1    0.01    0.02
   0   8  -2   13.78    0.40
   0   8  -3   -0.02    0.03
   0   9   2    0.01    0.03
   0  -9  -2    0.05    0.04
   0   9   0    0.09    0.04
   0  -9   0    0.02    0.02
   0   9  -2    0.01    0.04
   0   9  -3   21.38    0.58
   0  10   1    0.00    0.03
   0 -10  -1    0.01    0.03
   0  10  -1   -0.04    0.03
   0 -10   1    0.02    0.03
   0  10  -2    9.35    0.33
   0  10  -3   -0.03    0.04
   0  11   2   -0.03    0.04
   0 -11  -2   -0.01    0.03
   0  11   0   -0.04    0.04
   0 -11   0    0.01    0.03
   0  11  -1   21.49    0.61
   0  11  -2   -0.04    0.04
   0  11  -3    8.31    0.32
   0  12   1   -0.05    0.03
   0 -12  -1   -0.01    0.03
   0  12  -1    0.02    0.04
   0  12  -2    1.35    0.13
   0  12  -3   -0.03    0.04
   0  13   2   -0.01    0.04
   0 -13  -2    0.03    0.05
   0  13   1    0.88    0.12
   0  13   0   -0.02    0.04
   0 -13   0    0.00    0.04
   0  13  -1    0.73    0.11
   0  13  -2   -0.03    0.04
   0  13  -3    0.04    0.05
   0  14   1   -0.02    0.04
   0 -14  -1    0.02    0.04
   0  14   0    8.16    0.34
   0  14  -1   -0.04    0.04
   0  14  -2    1.42    0.15
   0  14  -3   -0.01    0.05
   0  15   2   -0.03    0.04
   0 -15  -2    0.07    0.07
   0  15   1    9.67    0.39
   0  15   0    0.00    0.05
   0  15  -1   10.00    0.40
   0  15  -2   -0.04    0.05
   0  15  -3    1.78    0.17
   0  16   1   -0.04    0.05
   0  16   0    2.02    0.19
   0  16  -1    0.04    0.06
   0  16  -2    0.47    0.11
   0  17   1    1.50    0.16
   0  17   0   -0.02    0.05
   0  17  -1    1.57    0.17
   1  17  -1    4.27    0.27
   1  17   0    2.12    0.19
   1  17   1    3.99    0.25
   1  16  -2    2.38    0.19
   1  16  -1    2.01    0.18
   1  16   0    0.28    0.09
   1  16   1    1.94    0.17
  -1 -16  -2    0.01    0.07
   1  15  -2    2.15    0.18
   1  15  -1    1.31    0.16
   1  15   0    2.78    0.20
   1  15   1    1.28    0.14
   1  14  -3    0.69    0.12
   1  14  -2    0.09    0.06
   1  14  -1    0.01    0.05
  -1 -14  -1    0.05    0.05
   1  14   1   -0.02    0.04
  -1 -14  -2   -0.01    0.05
   1  14   2    0.12    0.06
   1  13  -3    1.17    0.14
   1  13  -2    1.54    0.14
   1  13  -1    0.43    0.09
   1  13   1    0.41    0.08
   1  12  -3    0.97    0.12
   1  12  -2    3.10    0.19
   1  12  -1    2.38    0.16
   1  11  -3    4.24    0.22
   1  11  -2   19.64    0.58
   1  10  -3    3.14    0.18
   1  10  -2    0.70    0.10
   1  10   2    0.50    0.07
   1   9  -3    2.56    0.15
   1   9  -2    4.04    0.19
   1   8  -3    2.57    0.14
   1   8  -2    0.40    0.07
   1   7  -3    4.01    0.18
   1   7  -2   22.84    0.59
  -1  -7   0    0.00    0.02
  -1  -6   2    1.42    0.10
   1   6  -2    1.27    0.09
  -1  -5   2   20.44    0.54
   1   5  -2   21.95    0.52
  -1  -5   1   14.26    0.37
   1   5  -1   14.22    0.37
  -1  -4   2   18.11    0.47
   1   4  -2   17.85    0.44
  -1  -4   1   84.63    1.82
   1   4  -1   82.45    1.80
   1   4   0   92.40    1.98
   1   4   2   18.10    0.42
  -1  -3   2    3.57    0.17
   1   3  -2    3.21    0.11
  -1  -3   1    7.35    0.21
   1   3  -1    7.31    0.20
  -1  -3   0    0.60    0.04
   1   3   0    0.70    0.04
   1   3   2    3.46    0.10
   1   2  -2   31.21    0.69
  -1  -2   1  202.51    4.29
   1   2  -1  186.32    6.29
  -1  -2   0  139.62    2.93
   1   2   0  129.05    2.93
   1   1  -2    8.81    0.21
   1   1  -1    6.30    0.15
   1   1   0   19.79    0.43
   1   1   1    6.79    0.16
   1   0  -1   -0.15    0.01
  -1   0  -1   -0.12    0.01
  -1   1   1    6.56    0.15
  -1   1   0   17.94    0.39
  -1   1  -1    6.20    0.15
  -1   1  -2    8.68    0.20
  -1   2   1  203.96    4.38
  -1   2   0  125.02    2.75
  -1   2  -1  198.62    4.32
  -1   2  -2   31.23    0.69
  -1   3   2    3.34    0.09
  -1   3   1    7.63    0.19
   1  -3   0    0.00    0.01
  -1   3  -1    7.35    0.20
  -1   3  -2    3.54    0.12
  -1   4   2   17.27    0.40
  -1   4  -1   83.70    1.81
  -1   4  -2   18.91    0.46
  -1   5   2   21.58    0.50
  -1   5  -2   22.97    0.56
  -1   6   2    1.27    0.07
  -1   6  -2    1.31    0.09
  -1   7   2   22.30    0.55
  -1   7  -2   21.94    0.56
  -1   7  -3    3.75    0.18
  -1   8   2    0.52    0.07
  -1   8  -2    0.64    0.08
  -1   8  -3    2.91    0.16
  -1   9  -2    3.89    0.18
  -1   9  -3    2.50    0.15
  -1  10   2    0.40    0.07
  -1  10  -1   14.73    0.44
  -1  10  -2    0.57    0.09
  -1  10  -3    3.20    0.18
  -1  11  -1   22.49    0.63
  -1  11  -2   18.58    0.55
  -1  11  -3    4.09    0.22
  -1  12  -1    2.37    0.16
  -1  12  -2    2.88    0.18
  -1  12  -3    1.07    0.14
  -1  13   1    0.32    0.07
   1 -13  -1    0.01    0.04
  -1  13   0    3.39    0.20
  -1  13  -1    0.41    0.08
  -1  13  -2    1.55    0.14
  -1  13  -3    1.26    0.14
  -1  14   2    0.16    0.07
   1 -14  -2    0.02    0.05
  -1  14   1    0.00    0.05
   1 -14  -1    0.00    0.05
  -1  14   0    1.69    0.15
  -1  14  -1   -0.05    0.04
  -1  14  -2    0.18    0.07
  -1  14  -3    0.35    0.09
  -1  15   2    1.96    0.17
  -1  15   1    1.15    0.14
  -1  15   0    3.23    0.21
  -1  15  -1    0.94    0.13
  -1  15  -2    2.08    0.18
  -1  16   1    1.98    0.18
  -1  16   0    0.49    0.11
  -1  16  -1    1.88    0.18
  -1  16  -2    2.21    0.20
  -1  17   1    4.86    0.28
  -1  17   0    2.11    0.19
  -1  17  -1    4.24    0.27
   2  17  -1    0.73    0.13
   2  17   0    0.58    0.12
   2  17   1    0.73    0.14
   2  16  -2    1.00    0.15
   2  16  -1    0.95    0.14
   2  16   0    0.06    0.06
   2  16   1    0.83    0.13
  -2 -16  -2    0.04    0.07
   2  15  -2    4.82    0.27
   2  15  -1    0.54    0.11
   2  15   1    0.56    0.10
   2  14  -3    1.67    0.16
   2  14  -2    2.35    0.18
   2  14  -1    1.77    0.16
   2  14   0    0.41    0.09
   2  13  -3    0.51    0.10
   2  13  -2    0.34    0.08
   2  13  -1    0.12    0.06
  -2 -13   0    0.00    0.03
   2  13   0    0.25    0.07
  -2 -13  -1    0.02    0.04
   2  13   1   -0.02    0.04
  -2 -13  -2    0.01    0.05
   2  13   2    0.38    0.08
   2  12  -3    0.15    0.07
   2  12  -2    8.17    0.32
   2  12   0    0.42    0.08
   2  11  -3    3.19    0.19
   2  11  -2    6.38    0.27
   2  11   0    0.38    0.08
   2  10  -3    0.01    0.04
   2  10  -2    8.96    0.32
   2   9  -3    3.21    0.18
   2   9  -2   16.74    0.48
   2   8  -3    6.04    0.24
   2   8  -2    0.38    0.06
  -2  -8   0   -0.01    0.02
   2   8   0    0.06    0.03
   2   8   2    0.39    0.06
   2   7  -3    0.69    0.09
  -2  -7   2    2.23    0.13
   2   7  -2    2.15    0.12
  -2  -7   1    4.42    0.18
   2   7  -1    4.38    0.18
  -2  -7   0    0.00    0.02
   2   7   0    0.03    0.02
  -2  -6   2    8.11    0.27
   2   6  -2    7.40    0.24
  -2  -6   1   94.49    2.10
   2   6  -1   96.96    2.09
   2   6   0   57.64    1.29
  -2  -5   2   10.08    0.31
   2   5  -2   10.07    0.29
  -2  -5   1   46.29    1.07
   2   5  -1   48.33    1.06
  -2  -5   0   15.75    0.39
   2   5   0   15.77    0.40
  -2  -4   2   15.14    0.41
   2   4  -2   15.46    0.39
  -2  -4   1   15.24    0.38
   2   4  -1   14.52    0.37
  -2  -4   0    0.31    0.03
   2   4   0    0.36    0.04
  -2  -3   2    8.77    0.27
   2   3  -2    9.30    0.24
  -2  -3   1   49.94    1.09
   2   3  -1   48.63    1.08
  -2  -3   0    9.59    0.23
   2   3   0    9.11    0.24
   2   3   2    9.28    0.23
  -2  -2   2    1.69    0.09
   2   2  -2    1.49    0.07
  -2  -2   1   16.86    0.40
   2   2  -1   15.67    0.38
   2   2   0   48.42    1.05
   2   2   1   17.46    0.40
  -2  -2  -2    1.35    0.05
   2   2   2    1.49    0.05
  -2  -1   2   34.68    0.81
   2   1  -2   34.37    0.75
   2   1  -1  156.86    3.43
   2   1   0    0.14    0.02
   2   1   1  154.88    3.35
  -2   0   2  187.36    3.96
   2   0  -2  184.85    3.95
   2   0  -1 1000.00   23.76
   2   0   0   93.60    2.07
  -2   0  -1  940.03   21.22
   2   0   1  889.98   21.54
  -2   0  -2  179.87    3.83
  -2   1   2   32.15    0.69
  -2   1   1  154.39    3.37
   2  -1  -1  157.07    3.36
   2  -1   0    0.40    0.03
  -2   1  -1  145.72    3.17
  -2   1  -2   33.73    0.73
  -2   2   2    1.59    0.06
  -2   2   1   15.98    0.36
  -2   2   0   43.23    0.94
  -2   2  -1   15.85    0.37
  -2   2  -2    1.51    0.07
  -2   3   2    8.59    0.21
  -2   3   1   49.36    1.07
  -2   3   0    9.02    0.23
  -2   3  -1   50.85    1.11
  -2   3  -2    8.84    0.24
  -2   4   2   15.46    0.37
  -2   4   1   15.63    0.38
  -2   4   0    0.35    0.04
  -2   4  -1   15.47    0.38
  -2   4  -2   15.47    0.39
  -2   5   2   10.35    0.27
  -2   5  -1   49.04    1.10
  -2   5  -2    9.89    0.28
  -2   6   2    8.38    0.24
  -2   6  -2    8.04    0.25
  -2   7   2    2.23    0.11
  -2   7   0    0.01    0.02
   2  -7   0    0.01    0.02
  -2   7  -2    2.23    0.12
  -2   7  -3    0.61    0.08
  -2   8   2    0.41    0.06
  -2   8   0    0.10    0.03
   2  -8   0    0.00    0.02
  -2   8  -2    0.42    0.07
  -2   8  -3    5.50    0.22
  -2   9   2   17.12    0.47
  -2   9  -1   13.43    0.40
  -2   9  -2   16.56    0.48
  -2   9  -3    3.45    0.18
  -2  10   2    8.88    0.30
  -2  10  -1    9.33    0.32
  -2  10  -2    8.67    0.31
  -2  10  -3   -0.01    0.04
  -2  11   2    6.30    0.25
  -2  11   0    0.46    0.08
  -2  11  -1   18.07    0.53
  -2  11  -2    6.38    0.27
  -2  11  -3    3.36    0.19
  -2  12   2    8.14    0.30
  -2  12   0    0.35    0.07
  -2  12  -1    3.15    0.18
  -2  12  -2    7.87    0.32
  -2  12  -3    0.15    0.07
  -2  13   2    0.35    0.08
  -2  13   1   -0.01    0.04
   2 -13  -1   -0.02    0.04
  -2  13   0    0.17    0.06
  -2  13  -1    0.01    0.05
  -2  13  -2    0.40    0.09
  -2  13  -3    0.53    0.10
  -2  14   2    2.38    0.17
  -2  14   1    2.17    0.17
  -2  14   0    0.55    0.10
  -2  14  -1    2.01    0.16
  -2  14  -2    2.08    0.17
  -2  14  -3    1.74    0.17
  -2  15   2    5.37    0.27
  -2  15   1    0.56    0.11
  -2  15   0    5.70    0.29
  -2  15  -1    0.72    0.12
  -2  15  -2    5.40    0.29
  -2  16   1    0.75    0.12
  -2  16   0    0.00    0.06
  -2  16  -1    1.08    0.15
  -2  16  -2    0.91    0.14
  -2  17   1    0.74    0.13
  -2  17   0    0.70    0.13
  -2  17  -1    0.65    0.12
   3  17  -1    2.89    0.23
   3  17   0    1.38    0.18
   3  16  -2    0.46    0.11
   3  16  -1    0.18    0.08
   3  16   0    7.29    0.35
  -3 -16  -1   -0.01    0.06
   3  16   1    0.11    0.07
  -3 -16  -2    0.01    0.07
   3  15  -2    1.16    0.16
   3  15  -1    4.66    0.26
   3  15   0    0.69    0.12
   3  15   2    0.99    0.14
   3  14  -3    0.28    0.09
   3  14  -2    0.85    0.13
   3  14  -1    2.64    0.19
   3  14   0    0.22    0.07
   3  14   2    0.72    0.11
   3  13  -3    1.83    0.17
   3  13  -2    1.61    0.15
  -3 -13   0    0.01    0.04
   3  13   0    0.26    0.07
  -3 -13  -3   -0.02    0.05
   3  12  -3    1.14    0.14
   3  12  -2    1.97    0.16
   3  12  -1    0.78    0.11
   3  12   1    0.76    0.10
  -3 -12  -3    0.00    0.05
   3  11  -3   10.50    0.39
   3  11  -2    4.65    0.23
  -3 -11  -3    0.04    0.05
   3  10  -3    0.32    0.08
   3  10  -2   22.03    0.62
   3   9  -3    1.38    0.12
   3   9  -2    0.27    0.06
   3   9   2    0.29    0.06
   3   8  -3    2.08    0.14
  -3  -8   2    6.57    0.26
   3   8  -2    6.40    0.24
   3   7  -3    9.30    0.31
  -3  -7   2    1.31    0.11
   3   7  -2    1.32    0.10
  -3  -7   1   18.28    0.49
  -3  -7   0   36.41    0.91
   3   7   0   41.92    0.92
   3   6  -3    3.67    0.24
  -3  -6   2    7.17    0.25
   3   6  -2    7.31    0.24
  -3  -6   1    4.89    0.19
   3   6  -1    5.98    0.19
  -3  -6   0   12.26    0.33
   3   6   0   12.12    0.33
  -3  -5   2    1.35    0.10
   3   5  -2    1.32    0.09
  -3  -5   1   50.45    1.18
   3   5  -1   54.49    1.18
  -3  -5   0    0.01    0.02
   3   5   0    0.01    0.02
  -3  -4   2   54.02    1.23
   3   4  -2   53.05    1.19
  -3  -4   1   22.10    0.55
   3   4  -1   23.75    0.55
  -3  -4   0   81.67    1.72
   3   4   0   78.52    1.73
  -3  -3   2    4.40    0.17
   3   3  -2    4.49    0.15
  -3  -3   1   11.49    0.33
   3   3  -1   13.67    0.32
  -3  -3   0   75.84    1.58
   3   3   0   70.80    1.58
   3   3   1   14.21    0.35
  -3  -2   2   74.88    1.66
   3   2  -2   74.79    1.62
   3   2  -1   10.87    0.27
   3   2   0  214.23    4.72
   3   2   1   11.02    0.27
  -3  -2  -2   73.17    1.54
   3   2   2   70.81    1.54
  -3  -1   2   11.19    0.32
   3   1  -2   11.16    0.28
   3   1  -1   41.88    0.92
   3   1   0    2.33    0.08
   3   1   1   41.86    0.91
  -3  -1  -2   11.03    0.26
  -3  -1  -2   11.03    0.28
   3   1   2   11.10    0.26
  -3   0   2   -0.01    0.01
   3   0  -2    0.00    0.01
   3   0  -1   -0.04    0.02
   3   0   0   -0.16    0.02
  -3   0  -1   -0.01    0.02
   3   0   1   -0.01    0.02
  -3   0  -2    0.05    0.03
  -3   1   2   10.60    0.25
  -3   1   1   39.24    0.87
   3  -1  -1   40.47    0.87
  -3   1   0    2.04    0.08
   3  -1   0    2.17    0.08
  -3   1  -2   10.30    0.25
  -3   2   2   69.40    1.48
  -3   2   1    9.81    0.24
  -3   2   0  180.78    3.99
  -3   2  -1   10.09    0.25
  -3   2  -2   68.76    1.48
  -3   3   2    4.26    0.13
  -3   3   1   12.98    0.32
  -3   3   0   65.79    1.43
  -3   3  -1   13.43    0.34
  -3   3  -2    4.46    0.15
  -3   4   2   50.30    1.10
  -3   4   1   24.16    0.56
  -3   4   0   75.05    1.63
  -3   4  -1   23.79    0.56
  -3   4  -2   50.67    1.13
  -3   5   2    1.43    0.08
  -3   5   1   55.30    1.23
  -3   5   0    0.08    0.03
  -3   5  -1   53.76    1.20
  -3   5  -2    1.39    0.08
  -3   6   2    7.13    0.22
  -3   6   1    6.45    0.21
  -3   6  -1    6.22    0.21
  -3   6  -2    6.94    0.23
  -3   7   2    1.18    0.08
  -3   7  -1   30.42    0.74
  -3   7  -2    1.22    0.09
  -3   7  -3    8.88    0.30
  -3   8   2    6.23    0.22
  -3   8  -1    6.21    0.23
  -3   8  -2    6.88    0.25
  -3   8  -3    1.91    0.13
  -3   9   2    0.25    0.06
  -3   9  -1   14.89    0.44
  -3   9  -2    0.23    0.06
  -3   9  -3    1.24    0.11
  -3  10   2   21.93    0.59
  -3  10  -1    3.61    0.18
  -3  10  -2   20.98    0.59
  -3  10  -3    0.24    0.07
  -3  11   2    4.85    0.22
  -3  11   0    1.91    0.14
  -3  11  -1   27.85    0.74
  -3  11  -2    4.68    0.23
  -3  11  -3    9.32    0.35
  -3  12   2    2.31    0.15
  -3  12   1    0.74    0.10
  -3  12   0    7.97    0.31
  -3  12  -1    0.62    0.09
  -3  12  -2    2.07    0.16
  -3  12  -3    1.12    0.14
  -3  13   2    1.36    0.13
  -3  13   1    5.08    0.24
  -3  13   0    0.25    0.07
  -3  13  -1    4.83    0.25
  -3  13  -2    1.33    0.14
  -3  13  -3    1.46    0.15
  -3  14   2    0.84    0.12
  -3  14   1    2.97    0.20
  -3  14   0    0.33    0.09
  -3  14  -1    2.88    0.20
  -3  14  -2    0.78    0.12
  -3  14  -3    0.18    0.08
  -3  15   2    1.24    0.15
  -3  15   1    4.47    0.25
  -3  15   0    0.78    0.13
  -3  15  -1    4.57    0.26
  -3  15  -2    0.93    0.14
  -3  16   1    0.14    0.08
  -3  16   0    7.30    0.34
  -3  16  -1    0.11    0.07
  -3  16  -2    0.34    0.10
  -3  17   1    2.69    0.21
  -3  17   0    0.93    0.14
  -3  17  -1    2.74    0.22
   4  17  -1    1.40    0.18
   4  17   0    2.14    0.20
   4  17   1    1.38    0.18
   4  16  -2    0.80    0.14
   4  16  -1    0.49    0.11
  -4 -16   0    0.07    0.07
   4  16   0    0.12    0.07
   4  16   1    0.55    0.11
  -4 -16  -2    0.00    0.07
   4  15  -2    2.76    0.21
   4  15  -1    3.11    0.22
   4  14  -3    1.23    0.16
   4  14  -2    1.06    0.14
   4  14  -1    7.19    0.33
  -4 -14   0    0.00    0.04
   4  14   0    0.00    0.05
   4  14   2    1.15    0.14
  -4 -14  -3    0.05    0.07
   4  13  -3    0.65    0.12
   4  13  -2    0.35    0.09
   4  13  -1    0.27    0.07
  -4 -13   0    0.00    0.04
   4  13   0    0.10    0.05
  -4 -13  -1    0.03    0.05
   4  13   1    0.22    0.07
  -4 -13  -2    0.06    0.06
   4  13   2    0.40    0.08
  -4 -13  -3    0.08    0.07
   4  12  -3    6.48    0.30
   4  12  -2    1.67    0.15
   4  12   0    0.85    0.11
  -4 -12  -3    0.00    0.05
   4  11  -3    0.75    0.11
   4  11  -2    0.57    0.09
   4  11   2    0.62    0.09
  -4 -11  -3   -0.01    0.04
   4  10  -3    1.02    0.12
   4  10  -2    6.42    0.27
   4  10   0    0.80    0.10
  -4 -10  -3   -0.01    0.03
   4   9  -3    3.19    0.18
  -4  -9   2   27.26    0.75
   4   9  -2   28.79    0.74
  -4  -9   1   15.95    0.45
   4   9  -1   14.59    0.45
  -4  -9  -3   -0.01    0.03
   4   8  -3    0.85    0.10
  -4  -8   2    8.48    0.31
   4   8  -2    8.31    0.29
  -4  -8   1    4.02    0.18
   4   8  -1    4.53    0.19
  -4  -8   0    1.15    0.09
   4   8   0    1.05    0.09
  -4  -8  -3    0.00    0.03
   4   7  -3    4.64    0.20
  -4  -7   2    0.32    0.08
   4   7  -2    0.21    0.05
  -4  -7   1    3.13    0.15
   4   7  -1    3.19    0.15
  -4  -7   0    3.79    0.15
   4   7   0    3.64    0.16
   4   7   2    0.15    0.04
   4   6  -3   33.51    0.93
  -4  -6   2    3.05    0.16
   4   6  -2    3.14    0.15
  -4  -6   1   29.64    0.72
   4   6  -1   29.47    0.72
  -4  -6   0   84.42    1.83
   4   6   0   83.75    1.85
  -4  -5   2   20.03    0.54
   4   5  -2   19.78    0.51
  -4  -5   1   10.64    0.31
   4   5  -1   10.60    0.30
  -4  -5   0   43.10    0.97
   4   5   0   43.57    0.99
   4   5   1   11.39    0.31
  -4  -4   2    1.49    0.10
   4   4  -2    1.44    0.09
  -4  -4   1   31.30    0.74
   4   4  -1   31.87    0.74
  -4  -4   0   98.78    2.10
   4   4   0   97.96    2.13
  -4  -4  -1   30.94    0.68
   4   4   1   31.70    0.72
  -4  -3   2   43.63    1.03
   4   3  -2   44.42    0.99
   4   3  -1    4.82    0.16
   4   3   0  161.75    3.60
   4   3   1    4.67    0.15
  -4  -2   2    5.29    0.20
   4   2  -2    5.12    0.16
   4   2  -1   23.44    0.55
   4   2   1   22.81    0.53
  -4  -2  -2    4.92    0.15
  -4  -2  -2    5.07    0.14
   4   2   2    5.23    0.15
   4   1  -2   25.45    0.59
   4   1  -1   55.87    1.22
   4   1   0   30.11    0.68
   4   1   1   58.66    1.28
  -4  -1  -2   23.95    0.53
  -4  -1  -2   24.11    0.54
   4   1   2   23.48    0.54
  -4   0   2  228.72    4.92
   4   0  -2  229.82    4.92
   4   0  -1  195.64    4.28
   4   0   0  109.74    2.44
  -4   0  -1  184.36    4.08
   4   0   1  184.15    4.08
  -4   0  -2  213.79    4.69
  -4   0  -2  218.77    4.67
  -4   1   2   24.22    0.55
   4  -1  -2   23.81    0.55
  -4   1   1   54.15    1.19
   4  -1  -1   55.03    1.19
  -4   1   0   27.66    0.63
   4  -1   0   28.31    0.63
  -4   1  -1   55.12    1.18
   4  -1   1   53.22    1.18
  -4   1  -2   22.59    0.52
  -4   1  -2   22.50    0.53
  -4   2   2    4.92    0.15
  -4   2   1   22.38    0.52
  -4   2   0    7.45    0.20
  -4   2  -1   21.99    0.51
  -4   2  -2    4.79    0.15
  -4   3   2   40.76    0.90
  -4   3   1    4.18    0.14
  -4   3   0  139.11    3.06
  -4   3  -1    4.66    0.15
  -4   3  -2   40.82    0.92
  -4   4   2    1.52    0.08
  -4   4   1   29.98    0.69
  -4   4   0   87.10    1.89
  -4   4  -1   30.43    0.71
  -4   4  -2    1.52    0.08
  -4   5   2   18.97    0.47
  -4   5   1   10.83    0.30
  -4   5   0   40.20    0.92
  -4   5  -1   10.32    0.29
  -4   5  -2   18.99    0.48
  -4   6   2    3.03    0.13
  -4   6   1   28.65    0.69
  -4   6  -1   28.10    0.68
  -4   6  -2    3.09    0.14
  -4   7   2    0.13    0.04
  -4   7   1    2.88    0.13
  -4   7  -1    3.15    0.15
  -4   7  -2    0.17    0.05
  -4   7  -3    4.32    0.20
  -4   8   2    8.04    0.26
  -4   8   1    3.88    0.17
  -4   8  -1    4.50    0.19
  -4   8  -2    7.72    0.27
  -4   8  -3    0.77    0.09
  -4   9   2   27.83    0.70
  -4   9   1   14.62    0.42
  -4   9   0    2.63    0.14
  -4   9  -1   14.37    0.43
  -4   9  -2   27.58    0.72
  -4   9  -3    2.98    0.17
  -4  10   2    6.16    0.24
  -4  10   1   13.02    0.40
  -4  10   0    0.61    0.08
  -4  10  -1   13.07    0.41
  -4  10  -2    6.12    0.25
  -4  10  -3    0.93    0.11
  -4  11   2    0.62    0.09
  -4  11   1    4.98    0.22
  -4  11   0   41.95    1.04
  -4  11  -1    5.46    0.24
  -4  11  -2    0.66    0.10
  -4  11  -3    0.60    0.10
  -4  12   2    1.40    0.13
  -4  12   1    6.33    0.27
  -4  12   0    0.73    0.10
  -4  12  -1    5.82    0.26
  -4  12  -2    1.41    0.14
  -4  12  -3    5.96    0.28
  -4  13   2    0.26    0.07
  -4  13   1    0.16    0.06
  -4  13   0    0.17    0.07
  -4  13  -1    0.17    0.07
  -4  13  -2    0.25    0.08
  -4  13  -3    0.75    0.12
  -4  14   2    0.90    0.13
  -4  14   1    6.80    0.30
  -4  14   0   -0.05    0.05
  -4  14  -1    6.63    0.31
  -4  14  -2    0.70    0.12
  -4  14  -3    1.27    0.16
  -4  15   2    2.76    0.20
  -4  15   1    2.86    0.20
  -4  15   0    3.90    0.24
  -4  15  -1    2.81    0.21
  -4  15  -2    2.65    0.20
  -4  16   1    0.56    0.11
  -4  16   0    0.34    0.09
  -4  16  -1    0.35    0.10
  -4  16  -2    0.71    0.13
  -4  17   1    1.28    0.17
  -4  17   0    1.91    0.19
  -4  17  -1    1.27    0.17
   5  17  -1    1.10    0.17
   5  17   0    0.00    0.07
   5  16  -2    3.78    0.26
   5  16  -1    0.76    0.14
  -5 -16   0    0.04    0.05
   5  16   0    0.07    0.07
   5  16   1    0.58    0.12
  -5 -16  -2    0.00    0.07
   5  15  -2    2.14    0.19
   5  15  -1    1.11    0.15
   5  15   1    1.23    0.16
   5  14  -3    0.06    0.07
   5  14  -2    1.43    0.17
   5  14  -1    1.24    0.15
   5  14   2    1.25    0.14
  -5 -14  -3    0.06    0.07
   5  13  -3    1.69    0.17
   5  13  -2    4.72    0.26
   5  13   0    0.61    0.11
  -5 -13  -3    0.00    0.05
   5  12  -3    5.10    0.27
   5  12  -2    2.74    0.19
  -5 -12  -3    0.00    0.05
   5  11  -3    0.13    0.07
   5  11  -2    5.52    0.26
  -5 -11  -3    0.05    0.05
   5  10  -3    6.55    0.29
  -5 -10   2    1.15    0.16
   5  10  -2    0.71    0.10
  -5 -10   1    6.35    0.26
   5  10  -1    5.94    0.26
   5  10   2    0.70    0.09
  -5 -10  -3    0.04    0.04
   5   9  -3    1.31    0.12
  -5  -9   2    6.05    0.27
   5   9  -2    6.17    0.26
  -5  -9   1    3.20    0.17
   5   9  -1    3.00    0.17
  -5  -9   0    8.58    0.29
   5   9   0    8.40    0.30
  -5  -9  -3    0.03    0.04
   5   8  -3    2.96    0.17
  -5  -8   2   11.68    0.39
   5   8  -2   12.13    0.38
  -5  -8   1    9.16    0.30
   5   8  -1    9.34    0.31
  -5  -8   0   15.56    0.43
   5   8   0   15.50    0.44
  -5  -8  -3    0.02    0.03
   5   7  -3   11.40    0.36
  -5  -7   2    0.41    0.09
   5   7  -2    0.16    0.05
  -5  -7   1   25.17    0.64
   5   7  -1   25.70    0.65
  -5  -7   0   53.73    1.22
   5   7   0   54.94    1.25
   5   7   2    0.34    0.06
  -5  -7  -3    0.01    0.03
   5   6  -3    3.92    0.22
  -5  -6   2    8.95    0.31
   5   6  -2    8.62    0.28
  -5  -6   1    5.79    0.21
   5   6  -1    5.56    0.21
  -5  -6   0    0.06    0.03
   5   6   0    0.02    0.03
  -5  -6  -1    4.90    0.16
   5   6   1    5.79    0.19
  -5  -5   2   19.04    0.53
   5   5  -2   19.43    0.50
  -5  -5   1    4.03    0.16
   5   5  -1    4.16    0.16
  -5  -5   0   72.27    1.57
  -5  -5  -1    4.15    0.12
   5   5   1    4.07    0.16
  -5  -4   2    6.99    0.25
   5   4  -2    7.22    0.23
  -5  -4   1   62.04    1.37
   5   4  -1   59.87    1.36
   5   4   0    9.24    0.27
   5   4   1   64.36    1.43
  -5  -3   2    1.09    0.09
   5   3  -2    0.97    0.07
   5   3  -1   12.66    0.34
   5   3   0   72.78    1.60
   5   3   1   13.08    0.34
   5   3   2    1.13    0.07
   5   2  -2    3.49    0.13
   5   2  -1   50.47    1.13
   5   2   0   61.45    1.35
   5   2   1   49.27    1.09
  -5  -2  -2    3.45    0.12
   5   2   2    3.35    0.12
   5   1  -2   16.14    0.41
   5   1  -1   21.85    0.52
   5   1   0    9.00    0.25
   5   1   1   21.88    0.52
  -5  -1  -2   15.11    0.37
   5   1   2   14.59    0.37
  -5   0   2   -0.01    0.02
   5   0  -2    0.01    0.02
   5   0  -1    0.00    0.02
  -5   0   0    0.01    0.02
   5   0   0    0.07    0.02
  -5   0  -1    0.00    0.02
   5   0   1    0.01    0.02
  -5   0  -2    0.00    0.02
  -5   1   2   14.97    0.38
   5  -1  -2   15.22    0.38
  -5   1   1   20.40    0.49
   5  -1  -1   20.76    0.49
  -5   1   0    8.61    0.23
   5  -1   0    8.25    0.23
  -5   1  -1   21.19    0.51
   5  -1   1   21.32    0.50
  -5   2   2    3.21    0.12
  -5   2   1   48.14    1.07
   5  -2  -1   48.12    1.07
  -5   2   0   53.20    1.19
   5  -2   0   54.10    1.19
  -5   3   2    0.98    0.06
  -5   3   1   11.68    0.31
  -5   3   0   63.25    1.39
  -5   3  -1   11.57    0.31
  -5   3  -2    0.91    0.07
  -5   4   2    6.86    0.21
  -5   4   1   59.19    1.31
  -5   4   0    7.93    0.23
  -5   4  -1   59.12    1.32
  -5   4  -2    6.88    0.22
  -5   5   2   17.98    0.45
  -5   5   1    4.06    0.15
  -5   5   0   64.10    1.43
  -5   5  -1    4.03    0.16
  -5   5  -2   18.08    0.47
  -5   6   2    8.29    0.26
  -5   6   1    5.88    0.20
  -5   6   0    0.04    0.03
  -5   6  -1    5.50    0.20
  -5   6  -2    8.43    0.27
  -5   7   2    0.27    0.05
  -5   7   1   24.77    0.62
  -5   7   0   51.85    1.20
  -5   7  -1   24.96    0.63
  -5   7  -2    0.16    0.05
  -5   7  -3   10.91    0.37
  -5   8   2   11.66    0.35
  -5   8   1    9.38    0.30
  -5   8   0   14.68    0.42
  -5   8  -1    8.87    0.30
  -5   8  -2   11.74    0.37
  -5   8  -3    2.48    0.15
  -5   9   2    5.68    0.22
  -5   9   1    2.86    0.15
  -5   9   0    8.11    0.29
  -5   9  -1    2.92    0.16
  -5   9  -2    6.02    0.25
  -5   9  -3    1.12    0.11
  -5  10   2    0.52    0.08
  -5  10   1    6.48    0.25
  -5  10   0    3.19    0.17
  -5  10  -1    6.41    0.26
  -5  10  -2    0.69    0.10
  -5  10  -3    5.93    0.26
  -5  11   2    4.64    0.22
  -5  11   1    1.84    0.14
  -5  11   0   25.18    0.69
  -5  11  -1    1.50    0.13
  -5  11  -2    4.70    0.23
  -5  11  -3    0.15    0.07
  -5  12   2    2.76    0.17
  -5  12   1    2.77    0.17
  -5  12   0    5.04    0.24
  -5  12  -1    2.70    0.18
  -5  12  -2    2.72    0.18
  -5  12  -3    4.53    0.24
  -5  13   2    4.41    0.23
  -5  13   1    4.49    0.23
  -5  13   0    0.63    0.10
  -5  13  -1    4.65    0.25
  -5  13  -2    4.54    0.25
  -5  13  -3    1.20    0.14
  -5  14   2    1.38    0.14
  -5  14   1    1.34    0.14
  -5  14   0    6.09    0.29
  -5  14  -1    1.53    0.15
  -5  14  -2    1.29    0.15
  -5  14  -3    0.01    0.06
  -5  15   2    2.03    0.18
  -5  15   1    1.16    0.15
  -5  15   0    4.77    0.27
  -5  15  -1    0.97    0.14
  -5  15  -2    2.21    0.19
  -5  16   1    0.56    0.11
  -5  16   0    0.15    0.07
  -5  16  -1    0.48    0.11
  -5  16  -2    3.88    0.26
  -5  17   1    0.93    0.15
  -5  17   0   -0.02    0.06
  -5  17  -1    1.12    0.17
   6  17   0    1.02    0.16
   6  16  -1    0.35    0.11
  -6 -16   0    0.04    0.06
   6  16   0    0.10    0.08
  -6 -16  -1    0.04    0.06
   6  16   1    0.51    0.12
   6  15  -2    0.02    0.06
   6  15  -1    3.26    0.24
   6  15   0    1.12    0.16
  -6 -15  -2   -0.02    0.06
   6  14  -2    3.76    0.25
   6  14  -1    1.36    0.17
   6  14   1    1.29    0.15
   6  13  -3    0.77    0.13
   6  13  -2    0.04    0.06
   6  13  -1    0.59    0.11
   6  13   1    0.53    0.10
  -6 -13  -2    0.02    0.05
   6  13   2    0.02    0.05
  -6 -13  -3    0.01    0.05
   6  12  -3    0.05    0.06
   6  12  -2    4.62    0.25
  -6 -12  -3   -0.02    0.05
   6  11  -3    2.21    0.17
   6  11  -2    7.43    0.32
  -6 -11   1   13.10    0.43
   6  11  -1   12.43    0.44
  -6 -11  -3   -0.02    0.04
   6  10  -3    5.77    0.27
  -6 -10   2    1.45    0.14
   6  10  -2    1.34    0.13
  -6 -10   1    7.55    0.29
   6  10  -1    7.44    0.30
  -6 -10   0    0.90    0.10
   6  10   0    0.83    0.10
  -6 -10  -3    0.02    0.04
   6   9  -3   12.60    0.42
  -6  -9   2    2.41    0.16
   6   9  -2    2.51    0.16
  -6  -9   1   13.99    0.42
   6   9  -1   13.57    0.43
  -6  -9   0    5.84    0.23
   6   9   0    5.96    0.24
  -6  -9  -3    0.02    0.04
   6   8  -3    1.95    0.15
  -6  -8   2    2.17    0.15
   6   8  -2    2.49    0.15
  -6  -8   1   -0.01    0.04
   6   8  -1    0.00    0.03
  -6  -8   0    8.52    0.27
   6   8   0    8.04    0.29
  -6  -8  -1    0.03    0.04
   6   8   1    0.03    0.03
  -6  -8  -3   -0.02    0.03
   6   7  -3    3.58    0.19
  -6  -7   2    1.13    0.11
   6   7  -2    1.17    0.11
  -6  -7   1    5.02    0.20
   6   7  -1    5.21    0.21
  -6  -7   0    0.95    0.07
   6   7   0    0.88    0.08
  -6  -7  -1    5.16    0.18
   6   7   1    4.95    0.20
  -6  -7  -3   -0.01    0.03
   6   6  -3    4.51    0.23
  -6  -6   2   60.15    1.42
   6   6  -2   61.47    1.40
  -6  -6   1    0.92    0.08
   6   6  -1    0.95    0.08
  -6  -6   0   23.97    0.58
   6   6   0   24.06    0.61
  -6  -6  -1    1.15    0.06
   6   6   1    1.08    0.09
  -6  -6  -3    0.01    0.02
  -6  -5   2    7.92    0.28
   6   5  -2    7.89    0.27
  -6  -5   1   28.67    0.71
   6   5  -1   29.68    0.72
  -6  -5   0    6.71    0.20
   6   5   0    6.56    0.22
  -6  -5  -1   29.65    0.66
   6   5   1   29.86    0.72
   6   5   2    7.24    0.23
  -6  -4   2    0.48    0.08
   6   4  -2    0.43    0.06
   6   4  -1   28.34    0.69
   6   4   0   46.70    1.07
   6   4   1   29.08    0.70
   6   4   2    0.52    0.06
  -6  -3   2   10.26    0.33
   6   3  -2   10.15    0.30
   6   3  -1   85.26    1.87
   6   3   1   87.78    1.92
   6   3   2   11.13    0.31
   6   2  -2    5.95    0.20
   6   2  -1    8.08    0.24
   6   2   0   39.77    0.91
   6   2   1    8.33    0.25
  -6  -2  -2    5.89    0.19
   6   2   2    5.99    0.19
   6   1  -2    5.41    0.18
   6   1  -1    3.15    0.13
   6   1   0  119.51    2.58
  -6  -1  -1    2.94    0.12
   6   1   1    3.12    0.12
  -6  -1  -2    5.34    0.17
   6   1   2    5.12    0.17
  -6   0   2   30.70    0.71
   6   0  -2   30.26    0.71
  -6   0   1   53.96    1.21
   6   0  -1   54.89    1.21
  -6   0   0  188.24    4.12
   6   0   0  182.53    4.15
  -6   0  -1   54.02    1.20
   6   0   1   54.01    1.20
  -6   0  -2   29.79    0.69
   6   0   2   29.81    0.69
  -6   1   2    5.14    0.17
   6  -1  -2    5.25    0.17
  -6   1   1    3.62    0.13
   6  -1  -1    3.02    0.12
  -6   1   0  107.03    2.31
   6  -1   0  106.85    2.31
  -6   1  -1    2.67    0.11
   6  -1   1    2.92    0.12
  -6   2   2    6.01    0.19
  -6   2   1    7.78    0.23
   6  -2  -1    8.16    0.24
  -6   2   0   37.41    0.85
   6  -2   0   36.90    0.85
  -6   2  -1    7.26    0.22
  -6   3   2    9.30    0.26
  -6   3   1   80.49    1.76
  -6   3   0    5.03    0.17
  -6   3  -1   78.97    1.73
  -6   3  -2    9.88    0.29
  -6   4   2    0.56    0.06
  -6   4   1   26.36    0.63
  -6   4   0   39.67    0.91
  -6   4  -1   26.36    0.64
  -6   4  -2    0.84    0.07
  -6   5   2    7.52    0.24
  -6   5   1   27.55    0.67
  -6   5   0    5.61    0.20
  -6   5  -1   27.81    0.68
  -6   5  -2    7.72    0.25
  -6   6   2   57.36    1.30
  -6   6   1    0.89    0.08
  -6   6   0   21.72    0.56
  -6   6  -1    0.87    0.08
  -6   6  -2   56.66    1.30
  -6   7   2    1.25    0.10
  -6   7   1    4.74    0.19
  -6   7   0    0.89    0.08
  -6   7  -1    4.99    0.20
  -6   7  -2    1.19    0.10
  -6   7  -3    3.53    0.21
  -6   8   2    2.21    0.13
  -6   8   1    0.00    0.03
  -6   8   0    8.07    0.28
  -6   8  -1   -0.03    0.03
  -6   8  -2    2.41    0.15
  -6   8  -3    2.00    0.14
  -6   9   2    2.36    0.14
  -6   9   1   13.81    0.42
  -6   9   0    5.80    0.23
  -6   9  -1   13.25    0.41
  -6   9  -2    2.27    0.15
  -6   9  -3   10.52    0.36
  -6  10   2    1.15    0.11
  -6  10   1    7.07    0.27
  -6  10   0    0.84    0.10
  -6  10  -1    6.86    0.28
  -6  10  -2    1.25    0.12
  -6  10  -3    5.50    0.25
  -6  11   2    6.68    0.27
  -6  11   1   11.94    0.40
  -6  11   0    3.20    0.18
  -6  11  -1   11.50    0.40
  -6  11  -2    6.66    0.29
  -6  11  -3    2.24    0.17
  -6  12   2    4.49    0.23
  -6  12   1    1.67    0.14
  -6  12   0   11.65    0.41
  -6  12  -1    1.90    0.16
  -6  12  -2    4.23    0.23
  -6  12  -3    0.01    0.06
  -6  13   2    0.05    0.06
  -6  13   1    0.63    0.11
  -6  13   0    1.99    0.16
  -6  13  -1    0.56    0.10
  -6  13  -2    0.00    0.05
  -6  13  -3    0.63    0.11
  -6  14   2    3.08    0.20
  -6  14   1    1.46    0.15
  -6  14   0    9.83    0.39
  -6  14  -1    1.13    0.14
  -6  14  -2    3.18    0.22
  -6  15   2    0.04    0.06
  -6  15   1    3.03    0.21
  -6  15   0    1.12    0.15
  -6  15  -1    3.12    0.22
  -6  15  -2    0.07    0.07
  -6  16   1    0.48    0.11
  -6  16   0    0.17    0.08
  -6  16  -1    0.56    0.12
  -6  17   0    0.77    0.14
   7  16  -1    3.84    0.27
   7  16   0    0.42    0.11
   7  15  -2    0.45    0.12
   7  15   0    0.42    0.11
  -7 -15  -2   -0.02    0.06
   7  14  -2    0.27    0.10
  -7 -14  -2    0.03    0.06
   7  14   2    0.14    0.07
   7  13  -3    0.17    0.08
   7  13  -2    2.95    0.22
   7  13  -1    1.58    0.16
  -7 -13  -3   -0.02    0.05
   7  12  -3    0.16    0.08
   7  12  -2    1.04    0.14
   7  12   2    1.19    0.14
  -7 -12  -3    0.27    0.07
   7  11  -3    2.46    0.19
  -7 -11   2    2.59    0.20
   7  11  -2    2.75    0.19
  -7 -11   1    2.74    0.18
   7  11  -1    2.56    0.18
  -7 -11   0    0.06    0.06
   7  11   0    0.06    0.05
  -7 -11  -3    0.03    0.05
   7  10  -3    0.55    0.11
  -7 -10   2    0.01    0.06
   7  10  -2    0.04    0.05
  -7 -10   1    4.61    0.22
   7  10  -1    4.65    0.23
  -7 -10   0    7.29    0.27
   7  10   0    6.94    0.29
  -7 -10  -2    0.01    0.03
   7  10   2    0.00    0.04
  -7 -10  -3    0.02    0.04
   7   9  -3    1.85    0.16
  -7  -9   2    2.03    0.15
  -7  -9   1    4.77    0.21
   7   9  -1    4.35    0.21
  -7  -9   0    1.62    0.11
   7   9   0    1.44    0.12
  -7  -9  -3    0.01    0.04
   7   8  -3    8.24    0.32
  -7  -8   1   28.45    0.73
   7   8  -1   27.91    0.73
  -7  -8   0    0.65    0.09
   7   8   0    0.38    0.07
  -7  -8  -1   28.10    0.68
   7   8   1   27.70    0.72
  -7  -8  -3    0.11    0.04
   7   7  -3    0.79    0.10
  -7  -7   1    0.73    0.08
   7   7  -1    0.89    0.09
  -7  -7   0   10.85    0.32
   7   7   0   10.90    0.34
  -7  -7  -1    1.24    0.08
   7   7   1    1.18    0.10
  -7  -7  -3    0.00    0.03
   7   6  -3    0.99    0.12
   7   6  -2    1.17    0.11
  -7  -6   1   11.19    0.34
   7   6  -1   10.69    0.34
  -7  -6   0    1.01    0.07
   7   6   0    0.92    0.09
  -7  -6  -1   10.87    0.28
   7   6   1   10.56    0.33
  -7  -6  -3    0.00    0.02
  -7  -5   1   17.65    0.47
   7   5  -1   17.38    0.48
   7   5   0   11.31    0.34
   7   5   1   17.73    0.48
   7   5   2   12.66    0.36
  -7  -5  -3    0.02    0.02
   7   4  -1   24.22    0.61
   7   4   0   11.79    0.34
   7   4   1   23.86    0.60
   7   4   2   21.03    0.54
   7   3  -2   24.21    0.61
   7   3  -1    5.55    0.20
   7   3   0    0.02    0.02
   7   3   1    5.09    0.18
   7   3   2   24.63    0.61
   7   2  -2    0.46    0.06
   7   2  -1   56.76    1.28
   7   2   0   27.53    0.67
   7   2   1   61.10    1.37
  -7  -2  -2    0.35    0.05
   7   2   2    0.36    0.05
   7   1  -2   19.96    0.51
   7   1  -1    4.34    0.17
   7   1   0   64.46    1.44
  -7  -1  -1    4.04    0.16
   7   1   1    4.31    0.16
  -7  -1  -2   18.81    0.48
   7   1   2   18.77    0.47
   7   0  -2    0.14    0.04
  -7   0   1   -0.02    0.02
   7   0  -1   -0.03    0.02
  -7   0   0   -0.07    0.02
   7   0   0   -0.05    0.02
  -7   0  -1    0.00    0.02
   7   0   1   -0.02    0.02
  -7   0  -2    0.01    0.03
   7   0   2    0.02    0.03
  -7   1   2   19.24    0.49
   7  -1  -2   19.35    0.49
  -7   1   1    4.54    0.16
   7  -1  -1    4.05    0.16
  -7   1   0   58.11    1.30
   7  -1   0   57.88    1.30
  -7   1  -1    3.89    0.15
   7  -1   1    4.37    0.16
  -7   1  -2   18.43    0.47
  -7   2   2    0.34    0.05
   7  -2  -2    0.40    0.05
  -7   2   1   55.81    1.26
   7  -2  -1   55.73    1.25
  -7   2   0   25.87    0.63
   7  -2   0   26.34    0.63
  -7   2  -1   53.69    1.21
  -7   2  -2    0.35    0.05
  -7   3   2   22.73    0.56
  -7   3   1    4.78    0.17
  -7   3   0    0.01    0.02
  -7   3  -2   22.70    0.57
  -7   4   2   18.97    0.49
  -7   4   1   21.85    0.55
  -7   4   0    9.44    0.28
  -7   4  -1   22.08    0.56
  -7   4  -2   18.94    0.50
  -7   5   2   12.07    0.35
  -7   5   1   16.30    0.44
  -7   5   0    9.44    0.29
  -7   5  -1   16.43    0.45
  -7   5  -2   12.46    0.37
  -7   6   2    1.01    0.09
  -7   6   1   10.39    0.32
  -7   6   0    0.86    0.08
  -7   6  -1   10.13    0.32
  -7   6  -2    1.04    0.10
  -7   7   2   51.49    1.20
  -7   7   1    0.70    0.08
  -7   7   0    9.92    0.32
  -7   7  -1    0.78    0.09
  -7   7  -2   50.85    1.20
  -7   7  -3    0.83    0.15
  -7   8   2    2.83    0.15
  -7   8   1   25.51    0.67
  -7   8   0    0.44    0.07
  -7   8  -1   27.14    0.71
  -7   8  -2    2.66    0.16
  -7   8  -3    7.77    0.31
  -7   9   2    3.61    0.18
  -7   9   1    4.45    0.21
  -7   9   0    1.41    0.12
  -7   9  -1    4.48    0.21
  -7   9  -2    3.76    0.20
  -7   9  -3    1.33    0.13
  -7  10   2    0.10    0.05
  -7  10   1    3.86    0.20
  -7  10   0    6.37    0.26
  -7  10  -1    4.10    0.21
  -7  10  -2    0.05    0.05
  -7  10  -3    0.51    0.09
  -7  11   2    2.68    0.17
  -7  11   1    2.50    0.17
  -7  11   0    0.14    0.06
  -7  11  -1    2.66    0.17
  -7  11  -2    2.57    0.18
  -7  11  -3    2.20    0.17
  -7  12   2    1.10    0.13
  -7  12   1    9.99    0.37
  -7  12   0    3.67    0.21
  -7  12  -1    9.49    0.37
  -7  12  -2    0.97    0.13
  -7  12  -3    0.17    0.07
  -7  13   2    2.93    0.19
  -7  13   1    1.43    0.14
  -7  13   0   12.21    0.44
  -7  13  -1    1.23    0.15
  -7  13  -2    2.88    0.21
  -7  13  -3    0.17    0.08
  -7  14   2    0.33    0.09
  -7  14   1    4.48    0.25
  -7  14   0    1.64    0.16
  -7  14  -1    4.42    0.26
  -7  14  -2    0.28    0.09
  -7  15   2    0.22    0.10
  -7  15   1    1.89    0.18
  -7  15   0    0.49    0.11
  -7  15  -1    2.10    0.19
  -7  15  -2    0.28    0.09
  -7  16   1    3.59    0.24
  -7  16   0    0.37    0.10
  -7  16  -1    3.39    0.24
   8  16  -1    0.28    0.10
   8  16   0    0.95    0.15
   8  16   1    0.28    0.09
   8  15  -2    2.75    0.23
  -8 -15   1    0.13    0.06
   8  15  -1    0.26    0.09
  -8 -15   0    0.04    0.05
   8  15   0    0.35    0.10
  -8 -15  -1    0.06    0.06
   8  15   1    0.16    0.08
   8  14  -2    1.66    0.18
   8  13  -3    1.75    0.18
   8  13  -2    1.57    0.17
  -8 -13   1    0.09    0.05
   8  13  -1    0.08    0.06
   8  13   0    1.14    0.15
  -8 -13  -1    0.02    0.04
   8  13   1    0.07    0.06
  -8 -13  -3    0.00    0.06
   8  12  -3    2.80    0.22
   8  12  -2    3.89    0.24
  -8 -12   1    7.06    0.31
   8  12  -1    6.87    0.31
  -8 -12  -3    0.01    0.05
   8  11  -3    3.79    0.24
  -8 -11   1    2.98    0.19
   8  11  -1    2.69    0.19
  -8 -11   0    0.68    0.11
   8  11   0    0.58    0.09
  -8 -11  -3    0.01    0.04
   8  10  -3    1.43    0.15
  -8 -10   2    2.87    0.19
   8  10  -2    3.70    0.21
  -8 -10   1    3.25    0.18
   8  10  -1    3.38    0.20
  -8 -10   0    0.15    0.06
   8  10   0    0.24    0.07
  -8 -10  -3    0.02    0.04
   8   9  -3    2.58    0.18
  -8  -9   2    2.61    0.17
   8   9  -2    2.96    0.18
  -8  -9   1   11.71    0.38
   8   9  -1   11.79    0.40
  -8  -9   0   12.15    0.37
   8   9   0   11.75    0.40
  -8  -9  -1   11.74    0.35
   8   9   1   11.87    0.39
  -8  -9  -3    0.00    0.03
   8   8  -3    0.59    0.10
  -8  -8   2    4.53    0.23
   8   8  -2    4.79    0.23
  -8  -8   1    1.84    0.13
   8   8  -1    1.85    0.14
  -8  -8   0    0.61    0.07
   8   8   0    0.66    0.09
  -8  -8  -1    1.98    0.11
   8   8   1    1.88    0.14
  -8  -8  -3   -0.01    0.03
   8   7  -3    1.14    0.12
  -8  -7   2    0.79    0.13
   8   7  -2    0.53    0.09
  -8  -7   1    6.40    0.24
   8   7  -1    6.27    0.25
  -8  -7   0    1.48    0.10
   8   7   0    1.39    0.11
  -8  -7  -1    6.74    0.21
   8   7   1    6.72    0.26
   8   7   2    0.52    0.08
  -8  -7  -3    0.01    0.03
   8   6  -3    6.45    0.32
  -8  -6   2    0.36    0.08
  -8  -6   1   38.15    0.92
   8   6  -1   37.86    0.93
  -8  -6   0   11.48    0.33
   8   6   0   12.25    0.37
  -8  -6  -1   37.84    0.86
   8   6   1   39.15    0.94
   8   6   2    0.03    0.04
  -8  -6  -3    0.01    0.03
  -8  -5   2    7.22    0.28
   8   5  -2    6.67    0.26
   8   5  -1   12.47    0.38
   8   5   0   22.22    0.58
   8   5   1   12.59    0.38
   8   5   2    6.77    0.24
  -8  -5  -3    0.01    0.02
  -8  -4   2   23.48    0.63
   8   4  -2   23.09    0.61
   8   4  -1    8.21    0.28
   8   4   0   22.45    0.58
   8   4   1    7.37    0.25
   8   4   2   25.48    0.65
   8   3  -2   52.25    1.21
   8   3  -1   48.10    1.12
   8   3   0   35.06    0.84
   8   3   1   50.46    1.17
  -8  -3  -2   51.20    1.17
   8   3   2   50.69    1.17
   8   2  -2    6.07    0.23
   8   2  -1   12.50    0.36
   8   2   0    3.20    0.15
   8   2   1   13.16    0.37
  -8  -2  -2    5.80    0.21
   8   2   2    5.60    0.20
  -8  -1   2    1.69    0.11
   8   1  -2    1.64    0.10
   8   1  -1    2.93    0.14
   8   1   0   30.24    0.73
  -8  -1  -1    2.84    0.13
   8   1   1    2.79    0.13
  -8  -1  -2    1.64    0.10
   8   1   2    1.68    0.10
  -8   0   2    4.80    0.18
   8   0  -2    4.50    0.18
  -8   0   1   55.02    1.27
   8   0  -1   56.98    1.27
  -8   0   0    3.67    0.15
   8   0   0    3.80    0.15
  -8   0  -1   56.18    1.26
   8   0   1   54.43    1.25
  -8   0  -2    4.60    0.18
   8   0   2    4.99    0.18
  -8   1   2    1.71    0.11
   8  -1  -2    1.69    0.10
  -8   1   1    2.84    0.13
   8  -1  -1    2.68    0.13
  -8   1   0   27.47    0.68
   8  -1   0   28.28    0.68
  -8   1  -1    3.09    0.14
   8  -1   1    2.96    0.13
  -8   1  -2    1.72    0.10
  -8   2   2    5.85    0.21
   8  -2  -2    5.96    0.21
  -8   2   1   12.37    0.35
   8  -2  -1   11.96    0.35
  -8   2   0    3.01    0.14
  -8   2  -1   11.94    0.34
   8  -2   1   11.41    0.33
  -8   2  -2    5.63    0.20
  -8   3   2   48.31    1.11
  -8   3   1   45.62    1.06
  -8   3   0   31.89    0.77
  -8   3  -2   47.96    1.11
  -8   4   2   21.91    0.56
  -8   4   1    6.90    0.24
  -8   4   0   18.79    0.49
  -8   4  -1    7.05    0.24
  -8   4  -2   21.51    0.56
  -8   5   2    6.58    0.23
  -8   5   1   11.50    0.34
  -8   5   0   19.22    0.51
  -8   5  -1   11.72    0.35
  -8   5  -2    6.12    0.23
  -8   6   2    0.08    0.04
  -8   6   1   36.78    0.89
  -8   6   0   11.12    0.34
  -8   6  -1   36.38    0.89
  -8   6  -2    0.20    0.05
  -8   7   2    0.52    0.08
  -8   7   1    6.38    0.24
  -8   7   0    1.33    0.11
  -8   7  -1    6.28    0.25
  -8   7  -2    0.52    0.08
  -8   8   2    4.62    0.21
  -8   8   1    1.64    0.12
  -8   8   0    0.56    0.09
  -8   8  -1    1.82    0.13
  -8   8  -2    4.37    0.21
  -8   8  -3    0.69    0.14
  -8   9   2    2.71    0.16
  -8   9   1   10.82    0.36
  -8   9   0   10.41    0.36
  -8   9  -1   11.44    0.39
  -8   9  -2    2.57    0.17
  -8   9  -3    2.39    0.18
  -8  10   2    3.44    0.19
  -8  10   1    3.12    0.18
  -8  10   0    0.21    0.07
  -8  10  -1    3.17    0.19
  -8  10  -2    3.63    0.21
  -8  10  -3    1.25    0.15
  -8  11   2    9.74    0.36
  -8  11   1    2.71    0.18
  -8  11   0    0.54    0.10
  -8  11  -1    2.71    0.18
  -8  11  -2    9.14    0.36
  -8  11  -3    3.59    0.23
  -8  12   2    3.76    0.22
  -8  12   1    6.65    0.30
  -8  12   0    3.76    0.22
  -8  12  -1    6.72    0.30
  -8  12  -2    4.21    0.24
  -8  12  -3    2.55    0.21
  -8  13   2    1.58    0.15
  -8  13   1    0.07    0.06
  -8  13   0    1.34    0.15
  -8  13  -1    0.13    0.07
  -8  13  -2    1.51    0.16
  -8  13  -3    1.59    0.27
  -8  14   2    1.74    0.17
  -8  14   1    5.51    0.29
  -8  14   0    2.16    0.19
  -8  14  -1    5.58    0.29
  -8  14  -2    1.66    0.17
  -8  15   1    0.14    0.07
  -8  15   0    0.47    0.11
  -8  15  -1    0.16    0.08
  -8  15  -2    2.89    0.22
  -8  16   1    0.24    0.09
  -8  16   0    1.04    0.16
  -8  16  -1    0.41    0.11
   9  15  -1    0.90    0.15
  -9 -15   0    0.07    0.06
   9  15   0    0.07    0.07
   9  15   1    1.12    0.16
   9  14  -2    6.52    0.35
   9  14  -1    0.85    0.15
   9  14   0    1.18    0.17
   9  14   1    0.53    0.12
   9  13  -2    1.12    0.16
  -9 -13   1    4.83    0.28
   9  13  -1    5.07    0.28
  -9 -13   0    0.06    0.04
   9  13   0    0.02    0.06
   9  13   2    0.85    0.13
   9  12  -3    0.18    0.09
  -9 -12   2    5.32    0.31
   9  12  -2    5.44    0.29
  -9 -12   1    1.31    0.17
   9  12  -1    1.07    0.14
  -9 -12   0    4.98    0.25
   9  12   0    5.20    0.27
   9  12   1    1.35    0.14
  -9 -12  -3    0.00    0.05
   9  11  -3    0.96    0.14
  -9 -11   2    1.45    0.15
   9  11  -2    1.20    0.15
  -9 -11   1    0.79    0.13
   9  11  -1    0.55    0.10
  -9 -11   0    1.15    0.12
   9  11   0    1.19    0.13
   9  11   1    0.81    0.12
  -9 -11  -3    0.00    0.04
   9  10  -3    0.59    0.11
  -9 -10   2    4.85    0.26
   9  10  -2    5.34    0.27
  -9 -10   1    0.98    0.11
   9  10  -1    1.08    0.13
  -9 -10   0    1.25    0.11
   9  10   0    0.76    0.11
  -9 -10  -1    1.09    0.10
   9  10   1    0.88    0.12
  -9 -10  -3    0.05    0.04
   9   9  -3    5.53    0.27
  -9  -9   2    0.32    0.09
   9   9  -2    0.22    0.07
  -9  -9   1    3.17    0.18
   9   9  -1    2.86    0.18
  -9  -9   0    0.15    0.06
   9   9   0    0.06    0.05
  -9  -9  -1    2.69    0.14
   9   9   1    3.10    0.18
   9   9   2    0.38    0.08
  -9  -9  -3    0.01    0.04
   9   8  -3    0.46    0.09
  -9  -8   2    5.80    0.27
   9   8  -2    5.78    0.26
  -9  -8   1    2.85    0.16
   9   8  -1    2.77    0.18
  -9  -8   0   47.12    1.13
   9   8   0   49.62    1.18
  -9  -8  -1    2.82    0.13
   9   8   1    2.90    0.17
  -9  -8  -3    0.01    0.03
   9   7  -3    9.23    0.36
  -9  -7   2    0.53    0.11
   9   7  -2    0.40    0.08
  -9  -7   1   37.91    0.94
   9   7  -1   37.75    0.95
  -9  -7   0   39.28    0.93
   9   7   0   39.46    0.98
  -9  -7  -1   36.05    0.85
   9   7   1   37.83    0.93
  -9  -7  -2    0.05    0.04
   9   7   2    0.34    0.07
  -9  -7  -3   -0.01    0.03
   9   6  -3   -0.01    0.06
  -9  -6   2    0.89    0.13
   9   6  -2    0.71    0.10
  -9  -6   1    4.81    0.20
   9   6  -1    4.57    0.21
   9   6   0    1.60    0.12
   9   6   1    4.72    0.21
   9   6   2    0.55    0.08
  -9  -6  -3    0.00    0.02
  -9  -5   2    2.32    0.15
   9   5  -2    2.27    0.15
   9   5  -1   12.90    0.40
   9   5   0    2.13    0.13
   9   5   1   13.66    0.41
   9   5   2    2.36    0.14
   9   4  -2    2.92    0.16
   9   4  -1    6.23    0.24
   9   4   0   37.84    0.92
   9   4   1    6.46    0.24
   9   4   2    3.40    0.17
   9   3  -2    2.62    0.15
   9   3  -1   20.27    0.54
   9   3   0    2.22    0.13
   9   3   1   21.57    0.57
  -9  -3  -2    2.80    0.15
   9   3   2    2.91    0.14
   9   2  -2   44.02    1.05
   9   2  -1    2.92    0.15
   9   2   0   11.73    0.36
   9   2   1    2.45    0.13
  -9  -2  -2   40.77    0.96
   9   2   2   39.97    0.95
  -9  -1   2    1.88    0.12
   9   1  -2    2.11    0.12
   9   1  -1   38.78    0.93
  -9  -1   0    4.10    0.17
   9   1   0    3.80    0.17
  -9  -1  -1   35.98    0.87
   9   1   1   36.06    0.86
  -9  -1  -2    2.06    0.12
   9   1   2    2.28    0.12
  -9   0   2    0.00    0.03
   9   0  -2   -0.03    0.03
  -9   0   1   -0.03    0.03
   9   0  -1   -0.03    0.03
  -9   0   0   -0.01    0.03
   9   0   0    0.01    0.03
  -9   0  -1   -0.02    0.03
   9   0   1   -0.02    0.03
  -9   0  -2   -0.01    0.03
   9   0   2   -0.03    0.03
  -9   1   2    2.03    0.12
   9  -1  -2    2.14    0.12
  -9   1   1   36.03    0.87
   9  -1  -1   36.48    0.87
  -9   1   0    3.91    0.17
   9  -1   0    4.11    0.17
  -9   1  -1   36.90    0.87
   9  -1   1   35.67    0.87
  -9   1  -2    2.00    0.12
  -9   2   2   41.32    0.98
   9  -2  -2   41.08    0.98
  -9   2   1    2.30    0.13
   9  -2  -1    2.23    0.12
  -9   2   0   10.51    0.32
   9  -2   0   10.58    0.32
  -9   2  -1    2.29    0.13
   9  -2   1    2.23    0.12
  -9   2  -2   37.91    0.90
  -9   3   2    2.64    0.14
  -9   3   1   18.93    0.51
  -9   3   0    2.04    0.12
  -9   3  -1   17.39    0.47
  -9   3  -2    2.57    0.14
  -9   4   2    3.05    0.15
  -9   4   1    5.82    0.22
  -9   4   0   32.00    0.78
  -9   4  -1    5.71    0.22
  -9   4  -2    2.66    0.14
  -9   5   2    2.04    0.13
  -9   5   1   12.86    0.38
  -9   5   0    3.62    0.17
  -9   5  -1   12.00    0.37
  -9   5  -2    2.13    0.13
  -9   6   2    0.59    0.08
  -9   6   1    4.62    0.20
  -9   6   0    1.29    0.11
  -9   6  -1    4.48    0.20
  -9   6  -2    0.57    0.08
  -9   7   2    0.30    0.06
  -9   7   1   35.50    0.89
  -9   7   0   35.28    0.88
  -9   7  -1   35.09    0.88
  -9   7  -2    0.28    0.07
  -9   8   2    5.52    0.24
  -9   8   1    2.66    0.16
  -9   8   0   43.21    1.06
  -9   8  -1    2.61    0.16
  -9   8  -2    5.58    0.25
  -9   9   2    0.34    0.07
  -9   9   1    2.82    0.17
  -9   9   0    0.02    0.05
  -9   9  -1    2.70    0.17
  -9   9  -2    0.29    0.07
  -9  10   2    4.77    0.23
  -9  10   1    1.07    0.12
  -9  10   0    0.90    0.11
  -9  10  -1    1.01    0.12
  -9  10  -2    4.48    0.24
  -9  10  -3    0.60    0.15
  -9  11   2    1.22    0.13
  -9  11   1    0.75    0.11
  -9  11   0    0.86    0.12
  -9  11  -1    0.64    0.11
  -9  11  -2    1.04    0.14
  -9  11  -3    0.89    0.20
  -9  12   2    4.67    0.25
  -9  12   1    1.27    0.14
  -9  12   0    4.80    0.25
  -9  12  -1    1.18    0.14
  -9  12  -2    4.80    0.26
  -9  13   2    0.91    0.13
  -9  13   1    4.71    0.26
  -9  13   0    0.00    0.06
  -9  13  -1    4.76    0.27
  -9  13  -2    0.92    0.14
  -9  14   2    6.17    0.31
  -9  14   1    0.57    0.11
  -9  14   0    1.17    0.15
  -9  14  -1    0.71    0.13
  -9  14  -2    6.02    0.32
  -9  15   1    1.12    0.16
  -9  15   0    0.01    0.06
  -9  15  -1    0.71    0.13
 -10 -15   1    0.29    0.06
  10  15  -1    0.52    0.12
  10  15   0    1.37    0.18
  10  15   1    0.79    0.15
  10  14  -2    0.32    0.11
  10  13  -2    2.49    0.22
 -10 -13   1    1.87    0.19
  10  13  -1    1.70    0.18
  10  13   0    1.07    0.15
 -10 -12   2    3.71    0.25
  10  12  -2    3.52    0.24
 -10 -12   1    6.09    0.30
  10  12  -1    6.69    0.33
 -10 -12   0    2.64    0.19
  10  12   0    2.43    0.20
  10  11  -3    1.22    0.17
 -10 -11   2    2.83    0.20
  10  11  -2    2.63    0.20
 -10 -11   1    1.15    0.13
  10  11  -1    0.85    0.13
 -10 -11   0    8.96    0.34
  10  11   0    8.94    0.37
  10  11   1    1.03    0.13
 -10 -11  -3   -0.01    0.04
  10  10  -3    1.08    0.15
 -10 -10   2    0.02    0.07
  10  10  -2   -0.05    0.05
 -10 -10   1    2.83    0.18
  10  10  -1    2.83    0.19
 -10 -10   0    6.19    0.25
  10  10   0    5.51    0.27
 -10 -10  -1    2.92    0.16
  10  10   1    2.58    0.18
 -10 -10  -2   -0.01    0.03
  10  10   2    0.00    0.05
 -10 -10  -3    0.00    0.04
  10   9  -3    0.33    0.09
 -10  -9   2   10.08    0.39
  10   9  -2   10.30    0.39
 -10  -9   1    3.38    0.19
  10   9  -1    3.38    0.20
 -10  -9   0   26.43    0.69
  10   9   0   26.45    0.74
 -10  -9  -1    3.55    0.16
  10   9   1    3.56    0.20
 -10  -9  -3   -0.02    0.04
  10   8  -3    5.52    0.29
 -10  -8   2    1.00    0.12
  10   8  -2    1.11    0.13
 -10  -8   1    3.07    0.17
  10   8  -1    2.77    0.18
 -10  -8   0    2.46    0.14
  10   8   0    2.59    0.17
 -10  -8  -1    3.05    0.14
  10   8   1    3.19    0.18
  10   8   2    1.00    0.11
 -10  -8  -3    0.00    0.03
  10   7  -3   -0.02    0.06
 -10  -7   2    0.55    0.11
  10   7  -2    0.34    0.08
 -10  -7   1    3.62    0.19
  10   7  -1    3.52    0.19
 -10  -7   0    5.93    0.22
  10   7   0    5.87    0.25
 -10  -7  -1    3.58    0.14
  10   7   1    3.45    0.19
 -10  -7  -2    0.51    0.06
  10   7   2    0.54    0.09
 -10  -7  -3    0.01    0.03
 -10  -6   2    2.51    0.17
  10   6  -2    2.41    0.16
 -10  -6   1    7.25    0.27
  10   6  -1    7.70    0.29
  10   6   0   22.42    0.62
  10   6   1    7.03    0.27
  10   6   2    2.34    0.15
 -10  -5   2   15.93    0.50
  10   5  -2   16.68    0.49
  10   5  -1    1.14    0.11
  10   5   0    6.96    0.27
  10   5   1    1.41    0.12
  10   5   2   18.06    0.52
  10   4  -2    0.12    0.05
  10   4  -1   20.32    0.56
  10   4   0    0.28    0.06
  10   4   1   22.21    0.60
  10   4   2    0.18    0.05
  10   3  -2   21.77    0.60
  10   3  -1   22.45    0.61
  10   3   0  108.19    2.41
  10   3   1   23.23    0.62
 -10  -3  -2   19.85    0.53
  10   3   2   18.48    0.52
  10   2  -2    1.06    0.10
  10   2  -1    4.28    0.20
  10   2   0    0.80    0.09
 -10  -2  -1    4.01    0.18
  10   2   1    4.09    0.18
 -10  -2  -2    1.10    0.10
  10   2   2    1.17    0.10
 -10  -1   2    0.72    0.09
  10   1  -2    0.65    0.09
 -10  -1   1    3.93    0.18
  10   1  -1    4.11    0.18
 -10  -1   0    1.81    0.12
  10   1   0    1.87    0.12
 -10  -1  -1    3.87    0.18
  10   1   1    3.85    0.17
 -10  -1  -2    0.65    0.08
  10   1   2    0.79    0.09
 -10   0   2    2.67    0.15
  10   0  -2    2.64    0.14
 -10   0   1   27.87    0.70
  10   0  -1   26.86    0.69
 -10   0   0    6.24    0.23
  10   0   0    6.23    0.23
 -10   0  -1   26.62    0.69
  10   0   1   27.71    0.69
 -10   0  -2    2.75    0.15
  10   0   2    2.70    0.14
 -10   1   2    0.66    0.08
  10  -1  -2    0.53    0.07
 -10   1   1    3.88    0.18
  10  -1  -1    3.92    0.18
 -10   1   0    1.77    0.11
  10  -1   0    1.67    0.11
 -10   1  -1    4.49    0.19
  10  -1   1    4.54    0.19
 -10   1  -2    0.65    0.08
 -10   2   2    1.18    0.10
  10  -2  -2    1.24    0.10
 -10   2   1    4.18    0.18
  10  -2  -1    3.81    0.18
 -10   2   0    0.86    0.09
  10  -2   0    0.86    0.09
 -10   2  -1    3.72    0.18
  10  -2   1    4.07    0.18
 -10   2  -2    0.99    0.09
 -10   3   2   18.03    0.50
 -10   3   1   20.63    0.56
 -10   3   0   96.72    2.15
 -10   3  -1   19.31    0.52
 -10   3  -2   18.46    0.51
 -10   4   2    0.13    0.05
 -10   4   1   18.93    0.52
 -10   4   0    0.09    0.05
 -10   4  -1   18.54    0.51
 -10   4  -2    0.13    0.05
 -10   5   2   16.45    0.47
 -10   5   1    1.29    0.11
 -10   5   0    5.85    0.23
 -10   5  -1    1.14    0.10
 -10   5  -2   16.01    0.47
 -10   6   2    2.73    0.16
 -10   6   1    6.79    0.26
 -10   6   0   18.68    0.53
 -10   6  -1    7.01    0.27
 -10   6  -2    2.34    0.15
 -10   7   2    0.42    0.08
 -10   7   1    3.36    0.18
 -10   7   0    5.56    0.24
 -10   7  -1    3.37    0.18
 -10   7  -2    0.45    0.08
 -10   8   2    1.00    0.11
 -10   8   1    2.96    0.18
 -10   8   0    2.07    0.15
 -10   8  -1    2.55    0.16
 -10   8  -2    1.15    0.12
 -10   9   2   10.06    0.36
 -10   9   1    3.07    0.18
 -10   9   0   22.86    0.65
 -10   9  -1    3.22    0.19
 -10   9  -2    9.31    0.36
 -10  10   2   -0.06    0.04
 -10  10   1    2.74    0.18
 -10  10   0    5.43    0.26
 -10  10  -1    2.55    0.18
 -10  10  -2    0.00    0.05
 -10  11   2    2.66    0.19
 -10  11   1    1.02    0.13
 -10  11   0    8.20    0.34
 -10  11  -1    0.87    0.13
 -10  11  -2    2.34    0.19
 -10  12   2    3.12    0.21
 -10  12   1    6.02    0.29
 -10  12   0    2.38    0.19
 -10  12  -1    6.07    0.30
 -10  12  -2    3.16    0.22
 -10  13   2    2.45    0.19
 -10  13   1    2.09    0.18
 -10  13   0    0.74    0.12
 -10  13  -1    1.83    0.18
 -10  13  -2    2.52    0.21
 -10  14   2    0.31    0.10
 -10  14   1    3.96    0.25
 -10  14   0    2.25    0.20
 -10  14  -1    3.66    0.25
 -10  14  -2    0.23    0.09
 -10  15   1    0.57    0.12
 -10  15   0    1.45    0.18
 -10  15  -1    0.70    0.14
  11  13  -2    0.76    0.14
 -11 -13   1    2.36    0.20
  11  13  -1    2.33    0.21
 -11 -13   0    1.38    0.17
  11  13   0    1.92    0.19
  11  13   2    0.71    0.13
 -11 -12   2    0.09    0.09
  11  12  -2    0.15    0.08
 -11 -12   1    2.42    0.19
  11  12  -1    2.28    0.20
 -11 -12   0    0.18    0.09
  11  12   0    0.14    0.08
 -11 -12  -2    0.03    0.05
  11  12   2    0.02    0.06
 -11 -11   2    0.08    0.08
  11  11  -2    0.09    0.07
 -11 -11   1    2.79    0.19
  11  11  -1    3.09    0.22
 -11 -11   0    0.05    0.07
  11  11   0    0.09    0.07
 -11 -11  -1    3.12    0.18
  11  11   1    3.18    0.21
 -11 -11  -2    0.04    0.04
  11  11   2    0.07    0.06
 -11 -11  -3    0.01    0.05
 -11 -10   2    1.24    0.18
  11  10  -2    0.95    0.14
 -11 -10   1    1.92    0.15
  11  10  -1    1.64    0.16
 -11 -10   0    3.14    0.18
  11  10   0    3.46    0.21
 -11 -10  -1    1.37    0.12
  11  10   1    1.57    0.15
  11  10   2    1.03    0.13
 -11 -10  -3    0.04    0.05
 -11  -9   2    1.73    0.16
  11   9  -2    1.86    0.16
 -11  -9   1    2.24    0.16
  11   9  -1    2.17    0.17
 -11  -9   0    4.42    0.20
  11   9   0    4.63    0.24
 -11  -9  -1    2.13    0.13
  11   9   1    2.41    0.17
 -11  -9  -3    0.00    0.04
 -11  -8   2    9.75    0.38
  11   8  -2    9.68    0.38
 -11  -8   1   12.15    0.41
  11   8  -1   12.30    0.43
 -11  -8   0    0.08    0.05
  11   8   0    0.03    0.05
 -11  -8  -1   12.20    0.35
  11   8   1   12.47    0.42
 -11  -8  -2    9.74    0.29
  11   8   2    9.90    0.36
 -11  -8  -3    0.00    0.03
 -11  -7   2    5.13    0.26
  11   7  -2    5.06    0.25
 -11  -7   1   21.34    0.60
  11   7  -1   21.19    0.62
 -11  -7   0   32.83    0.82
  11   7   0   34.15    0.88
 -11  -7  -1   21.95    0.54
  11   7   1   21.51    0.62
  11   7   2    5.06    0.24
 -11  -6   2    0.60    0.12
  11   6  -2    0.47    0.09
  11   6  -1    1.25    0.12
  11   6   0    0.84    0.11
  11   6   1    1.32    0.12
  11   6   2    0.49    0.09
 -11  -5   2    3.44    0.19
  11   5  -2    3.33    0.19
  11   5  -1    2.19    0.15
  11   5   0    6.57    0.27
  11   5   1    2.05    0.14
  11   5   2    3.62    0.19
  11   4  -2    8.20    0.31
  11   4  -1    3.68    0.19
  11   4   0    2.96    0.17
  11   4   1    4.36    0.21
 -11  -4  -2    7.19    0.28
  11   4   2    7.43    0.28
  11   3  -2    0.40    0.08
  11   3  -1    8.34    0.31
  11   3   0    5.94    0.25
  11   3   1    8.20    0.30
 -11  -3  -2    0.33    0.07
  11   3   2    0.28    0.06
 -11  -2   2    7.84    0.29
  11   2  -2    7.25    0.28
  11   2  -1    9.88    0.34
  11   2   0   55.25    1.31
 -11  -2  -1    9.76    0.33
  11   2   1    9.65    0.32
 -11  -2  -2    7.38    0.28
  11   2   2    7.69    0.28
 -11  -1   2   13.95    0.43
  11   1  -2   14.55    0.43
 -11  -1   1   14.71    0.44
  11   1  -1   14.51    0.43
 -11  -1   0   29.72    0.75
  11   1   0   28.94    0.75
 -11  -1  -1   14.82    0.44
  11   1   1   14.57    0.43
 -11  -1  -2   13.91    0.42
  11   1   2   13.87    0.42
 -11   0   2   -0.01    0.04
  11   0  -2   -0.02    0.03
 -11   0   1   -0.02    0.03
  11   0  -1    0.00    0.03
 -11   0   0   -0.05    0.03
  11   0   0   -0.01    0.03
 -11   0  -1   -0.02    0.03
  11   0   1   -0.02    0.03
 -11   0  -2    0.02    0.04
  11   0   2    0.00    0.03
 -11   1   2   14.31    0.43
  11  -1  -2   14.16    0.43
 -11   1   1   14.89    0.44
  11  -1  -1   14.50    0.44
 -11   1   0   27.82    0.72
  11  -1   0   28.14    0.72
 -11   1  -1   14.50    0.43
  11  -1   1   14.51    0.43
 -11   1  -2   13.53    0.41
 -11   2   2    7.92    0.29
  11  -2  -2    7.84    0.29
 -11   2   1    9.73    0.33
  11  -2  -1    9.76    0.33
 -11   2   0   50.58    1.20
  11  -2   0   50.32    1.20
 -11   2  -1    9.60    0.32
  11  -2   1    9.37    0.32
 -11   2  -2    6.83    0.26
 -11   3   2    0.33    0.07
 -11   3   1    7.54    0.28
  11  -3  -1    7.68    0.28
 -11   3   0    4.53    0.20
 -11   3  -1    7.37    0.27
 -11   3  -2    0.37    0.07
 -11   4   2    7.05    0.27
 -11   4   1    3.48    0.17
 -11   4   0    2.37    0.14
 -11   4  -1    3.01    0.16
 -11   4  -2    7.04    0.27
 -11   5   2    3.26    0.17
 -11   5   1    1.65    0.12
 -11   5   0    5.98    0.24
 -11   5  -1    2.01    0.14
 -11   5  -2    3.33    0.18
 -11   6   2    0.46    0.08
 -11   6   1    1.22    0.12
 -11   6   0    0.72    0.09
 -11   6  -2    0.56    0.09
 -11   7   2    5.07    0.23
 -11   7   1   20.60    0.59
 -11   7   0   29.95    0.79
 -11   7  -1   20.18    0.58
 -11   7  -2    5.33    0.25
 -11   8   2    9.78    0.36
 -11   8   1   11.96    0.41
 -11   8   0    0.06    0.05
 -11   8  -1   11.62    0.40
 -11   8  -2    9.52    0.36
 -11   9   2    1.44    0.14
 -11   9   1    2.36    0.17
 -11   9   0    4.42    0.23
 -11   9  -1    2.09    0.16
 -11   9  -2    1.65    0.16
 -11  10   2    0.92    0.12
 -11  10   1    1.51    0.15
 -11  10   0    2.66    0.18
 -11  10  -1    1.24    0.15
 -11  10  -2    0.98    0.14
 -11  11   2    0.05    0.06
 -11  11   1    2.96    0.20
 -11  11   0    0.17    0.07
 -11  11  -1    2.87    0.20
 -11  11  -2    0.12    0.07
 -11  12   2    0.20    0.08
 -11  12   1    2.36    0.19
 -11  12   0    0.15    0.07
 -11  12  -1    1.96    0.18
 -11  12  -2    0.20    0.09
 -11  13   2    0.61    0.12
 -11  13   1    2.26    0.19
 -11  13   0    1.84    0.18
 -11  13  -1    2.41    0.21
 -11  13  -2    0.70    0.13
 -11  14   1    2.83    0.22
 -11  14   0    2.26    0.21
 -11  14  -1    3.04    0.23
 -12 -14   0    0.24    0.05
  12  14   0   -0.05    0.06
 -12 -13   1    2.21    0.20
  12  13  -1    2.02    0.20
 -12 -13   0    5.87    0.29
  12  13   0    5.65    0.32
 -12 -12   2    1.56    0.18
  12  12  -2    1.34    0.18
 -12 -12   1    1.30    0.18
  12  12  -1    0.97    0.15
 -12 -12   0    8.82    0.36
  12  12   0    9.55    0.41
  12  12   1    0.91    0.14
 -12 -11   2    0.10    0.09
  12  11  -2    0.07    0.08
 -12 -11   1    4.46    0.24
  12  11  -1    4.13    0.26
 -12 -11   0    0.23    0.09
  12  11   0    0.19    0.08
 -12 -11  -1    4.54    0.22
  12  11   1    4.27    0.25
 -12 -11  -2    0.02    0.04
  12  11   2    0.08    0.06
 -12 -10   2    0.42    0.12
  12  10  -2    0.35    0.10
 -12 -10   1    1.24    0.17
  12  10  -1    0.79    0.13
 -12 -10   0    4.73    0.22
  12  10   0    4.71    0.26
 -12 -10  -1    0.97    0.10
  12  10   1    0.77    0.12
  12  10   2    0.49    0.10
 -12 -10  -3   -0.01    0.04
 -12  -9   2    5.42    0.28
  12   9  -2    5.99    0.29
 -12  -9   1   17.21    0.53
  12   9  -1   16.73    0.56
 -12  -9   0    0.89    0.12
  12   9   0    0.68    0.11
 -12  -9  -1   17.26    0.48
  12   9   1   17.18    0.55
 -12  -9  -3    0.00    0.04
 -12  -8   2    2.75    0.20
  12   8  -2    3.05    0.21
 -12  -8   1    3.29    0.19
  12   8  -1    3.49    0.21
 -12  -8   0    7.90    0.29
  12   8   0    8.03    0.33
 -12  -8  -1    3.62    0.16
  12   8   1    3.58    0.21
 -12  -8  -2    2.97    0.14
  12   8   2    3.04    0.20
 -12  -8  -3    0.00    0.03
 -12  -7   2    2.23    0.17
  12   7  -2    1.93    0.17
 -12  -7   1    1.95    0.14
  12   7  -1    2.13    0.16
 -12  -7   0    4.52    0.19
  12   7   0    4.44    0.23
 -12  -7  -1    2.15    0.11
  12   7   1    2.07    0.16
  12   7   2    2.22    0.17
 -12  -6   2    9.95    0.38
  12   6  -2    9.99    0.38
  12   6  -1    0.36    0.08
  12   6   0    5.16    0.24
  12   6   1    0.46    0.09
  12   6   2   10.18    0.37
  12   5  -2    0.25    0.07
  12   5  -1    9.77    0.36
  12   5   0    4.05    0.21
  12   5   1   10.06    0.37
  12   5   2    0.16    0.06
  12   4  -2    6.66    0.29
  12   4  -1    6.12    0.27
  12   4   0    6.53    0.28
  12   4   1    5.97    0.26
 -12  -4  -2    6.12    0.26
  12   4   2    6.21    0.26
  12   3  -2    3.05    0.18
  12   3  -1   45.19    1.12
  12   3   0   13.49    0.43
 -12  -3  -1   43.60    1.08
  12   3   1   43.19    1.07
 -12  -3  -2    2.97    0.17
  12   3   2    3.08    0.17
 -12  -2   2    3.58    0.19
  12   2  -2    3.63    0.19
 -12  -2   1    3.14    0.18
  12   2  -1    3.26    0.18
 -12  -2   0    1.75    0.13
  12   2   0    1.25    0.11
 -12  -2  -1    3.59    0.19
  12   2   1    3.29    0.18
 -12  -2  -2    3.47    0.19
  12   2   2    3.55    0.18
 -12  -1   2    1.26    0.12
  12   1  -2    1.34    0.12
 -12  -1   1    1.42    0.12
  12   1  -1    1.41    0.12
 -12  -1   0    4.15    0.20
  12   1   0    4.54    0.21
 -12  -1  -1    1.47    0.12
  12   1   1    1.43    0.12
 -12  -1  -2    1.02    0.11
  12   1   2    1.18    0.11
 -12   0   2   18.73    0.54
  12   0  -2   18.40    0.54
 -12   0   1    5.82    0.24
  12   0  -1    5.82    0.24
 -12   0   0   15.95    0.48
  12   0   0   16.32    0.48
 -12   0  -1    5.92    0.25
  12   0   1    5.73    0.24
 -12   0  -2   18.11    0.53
  12   0   2   18.37    0.52
 -12   1   2    1.13    0.12
  12  -1  -2    1.18    0.11
 -12   1   1    1.48    0.12
  12  -1  -1    1.27    0.11
 -12   1   0    4.12    0.20
  12  -1   0    4.24    0.20
 -12   1  -1    1.29    0.12
  12  -1   1    1.48    0.12
 -12   1  -2    1.19    0.11
 -12   2   2    3.72    0.19
  12  -2  -2    3.69    0.19
 -12   2   1    3.09    0.18
  12  -2  -1    3.36    0.18
 -12   2   0    1.53    0.13
  12  -2   0    1.43    0.12
 -12   2  -1    3.09    0.17
  12  -2   1    2.90    0.16
 -12   2  -2    3.23    0.17
 -12   3   2    2.83    0.17
 -12   3   1   41.05    1.02
 -12   3   0   12.26    0.40
 -12   3  -1   39.28    0.97
 -12   3  -2    2.62    0.16
 -12   4   2    5.72    0.24
 -12   4   1    5.04    0.23
 -12   4   0    5.21    0.23
 -12   4  -1    5.40    0.24
 -12   4  -2    5.87    0.25
 -12   5   2    0.20    0.06
 -12   5   1    8.90    0.32
 -12   5   0    3.65    0.19
 -12   5  -1    9.06    0.33
 -12   5  -2    0.16    0.06
 -12   6   2    9.51    0.35
 -12   6   1    0.51    0.09
 -12   6   0    4.50    0.22
 -12   6  -1    0.45    0.08
 -12   6  -2    9.52    0.35
 -12   7   2    1.89    0.15
 -12   7   1    1.95    0.15
 -12   7   0    4.17    0.22
 -12   7  -1    1.96    0.15
 -12   7  -2    2.17    0.16
 -12   8   2    2.82    0.19
 -12   8   1    3.37    0.20
 -12   8   0    7.06    0.30
 -12   8  -1    3.47    0.21
 -12   8  -2    2.73    0.19
 -12   9   2    5.82    0.28
 -12   9   1   16.16    0.52
 -12   9   0    0.58    0.10
 -12   9  -1   15.78    0.52
 -12   9  -2    5.32    0.27
 -12  10   2    0.45    0.10
 -12  10   1    0.81    0.12
 -12  10   0    4.21    0.24
 -12  10  -1    0.87    0.13
 -12  10  -2    0.52    0.11
 -12  11   2    0.06    0.07
 -12  11   1    4.27    0.25
 -12  11   0    0.17    0.08
 -12  11  -1    3.94    0.25
 -12  11  -2    0.03    0.06
 -12  12   2    1.63    0.17
 -12  12   1    1.00    0.14
 -12  12   0    8.21    0.37
 -12  12  -1    0.82    0.14
 -12  12  -2    1.63    0.17
 -12  13   1    2.38    0.20
 -12  13   0    5.55    0.31
 -12  13  -1    2.15    0.20
 -12  14   0    0.02    0.07
 -13 -13   1    0.13    0.10
  13  13  -1    0.04    0.08
 -13 -13   0    1.21    0.17
  13  13   0    1.36    0.19
 -13 -13  -1    0.20    0.05
  13  13   1    0.03    0.07
 -13 -12   1    0.96    0.17
  13  12  -1    0.76    0.14
 -13 -12   0    1.31    0.15
  13  12   0    1.15    0.17
 -13 -12  -1    0.67    0.13
  13  12   1    0.76    0.13
 -13 -11   2    2.24    0.19
  13  11  -2    2.11    0.20
 -13 -11   1    0.59    0.13
  13  11  -1    0.42    0.11
 -13 -11   0    5.22    0.25
  13  11   0    5.62    0.30
 -13 -11  -1    0.45    0.10
  13  11   1    0.53    0.12
 -13 -10   2    1.24    0.20
  13  10  -2    0.68    0.13
 -13 -10   1    4.44    0.24
  13  10  -1    4.31    0.26
 -13 -10   0    0.33    0.10
  13  10   0    0.13    0.07
 -13 -10  -1    4.37    0.20
  13  10   1    4.28    0.25
  13  10   2    0.94    0.14
 -13  -9   2    1.37    0.16
  13   9  -2    1.68    0.17
 -13  -9   1    2.81    0.19
  13   9  -1    2.69    0.20
 -13  -9   0    0.75    0.12
  13   9   0    0.56    0.11
 -13  -9  -1    2.87    0.16
  13   9   1    2.90    0.20
 -13  -9  -2    1.16    0.10
  13   9   2    1.41    0.16
 -13  -9  -3    0.02    0.04
 -13  -8   2    9.64    0.39
  13   8  -2    9.43    0.39
 -13  -8   1    6.69    0.29
  13   8  -1    6.87    0.32
 -13  -8   0    0.67    0.11
  13   8   0    0.58    0.11
 -13  -8  -1    6.74    0.24
  13   8   1    7.25    0.32
 -13  -8  -2   11.40    0.31
  13   8   2    9.91    0.40
 -13  -7   2   18.68    0.60
  13   7  -2   18.50    0.59
 -13  -7   1    6.78    0.29
  13   7  -1    7.33    0.32
  13   7   0   17.21    0.55
 -13  -7  -1    7.33    0.24
  13   7   1    7.41    0.32
  13   7   2   19.24    0.60
 -13  -6   2    3.11    0.20
  13   6  -2    3.22    0.21
  13   6  -1    1.09    0.14
  13   6   0    0.47    0.09
  13   6   1    1.04    0.13
  13   6   2    3.31    0.20
  13   5  -2    3.28    0.21
  13   5  -1    0.89    0.12
  13   5   0    2.21    0.17
  13   5   1    0.95    0.12
 -13  -5  -2    2.99    0.19
  13   5   2    3.15    0.19
  13   4  -2    2.07    0.16
  13   4  -1    6.44    0.29
  13   4   0    8.76    0.34
  13   4   1    5.72    0.26
 -13  -4  -2    1.87    0.15
  13   4   2    1.96    0.15
 -13  -3   2    0.06    0.06
  13   3  -2    0.07    0.05
  13   3  -1    5.91    0.26
  13   3   0    0.13    0.05
 -13  -3  -1    5.55    0.26
  13   3   1    5.63    0.25
 -13  -3  -2    0.08    0.05
  13   3   2    0.12    0.05
 -13  -2   2    0.67    0.11
  13   2  -2    0.63    0.10
 -13  -2   1   24.53    0.68
  13   2  -1   24.03    0.67
 -13  -2   0    5.60    0.25
  13   2   0    5.74    0.25
 -13  -2  -1   24.66    0.69
  13   2   1   24.98    0.68
 -13  -2  -2    0.64    0.10
  13   2   2    0.69    0.10
 -13  -1   2   12.48    0.42
  13   1  -2   12.68    0.42
 -13  -1   1    9.31    0.34
  13   1  -1    9.57    0.34
 -13  -1   0   11.75    0.40
  13   1   0   11.63    0.39
 -13  -1  -1    9.50    0.35
  13   1   1    9.82    0.35
 -13  -1  -2   12.96    0.43
  13   1   2   12.93    0.42
 -13   0   2   -0.05    0.04
  13   0  -2   -0.04    0.04
 -13   0   1   -0.06    0.04
  13   0  -1   -0.05    0.04
 -13   0   0    0.03    0.04
  13   0   0    0.00    0.04
 -13   0  -1   -0.04    0.04
  13   0   1   -0.05    0.03
 -13   0  -2    0.05    0.05
  13   0   2    0.02    0.04
 -13   1   2   13.11    0.43
  13  -1  -2   13.14    0.43
 -13   1   1    9.86    0.35
  13  -1  -1    9.87    0.35
 -13   1   0   11.53    0.39
  13  -1   0   11.27    0.38
 -13   1  -1    9.53    0.35
  13  -1   1    9.55    0.34
 -13   1  -2   12.16    0.40
 -13   2   2    0.43    0.09
  13  -2  -2    0.62    0.10
 -13   2   1   24.57    0.68
  13  -2  -1   24.33    0.68
 -13   2   0    5.79    0.25
  13  -2   0    5.42    0.24
 -13   2  -1   23.92    0.67
  13  -2   1   24.64    0.67
 -13   2  -2    0.60    0.09
 -13   3   2    0.06    0.05
 -13   3   1    5.55    0.25
 -13   3   0    0.18    0.06
 -13   3  -1    5.35    0.24
 -13   3  -2    0.03    0.05
 -13   4   2    1.94    0.15
 -13   4   1    5.49    0.25
 -13   4   0    7.58    0.30
 -13   4  -1    5.92    0.26
 -13   4  -2    1.79    0.14
 -13   5   2    2.77    0.18
 -13   5   1    0.80    0.11
 -13   5   0    1.92    0.15
 -13   5  -1    0.78    0.10
 -13   5  -2    2.85    0.18
 -13   6   2    2.86    0.19
 -13   6   1    0.87    0.12
 -13   6   0    0.44    0.09
 -13   6  -1    0.95    0.12
 -13   6  -2    2.75    0.19
 -13   7   2   17.99    0.56
 -13   7   1    6.81    0.30
 -13   7   0   15.09    0.49
 -13   7  -1    6.80    0.30
 -13   7  -2   16.10    0.52
 -13   8   2   10.04    0.39
 -13   8   1    6.63    0.30
 -13   8   0    0.46    0.09
 -13   8  -1    6.41    0.30
 -13   8  -2    8.94    0.37
 -13   9   2    1.26    0.15
 -13   9   1    2.63    0.19
 -13   9   0    0.48    0.10
 -13   9  -1    2.77    0.20
 -13   9  -2    1.23    0.15
 -13  10   2    0.90    0.14
 -13  10   1    4.05    0.24
 -13  10   0    0.18    0.08
 -13  10  -1    4.25    0.25
 -13  10  -2    0.79    0.13
 -13  11   2    2.18    0.19
 -13  11   1    0.55    0.11
 -13  11   0    4.98    0.28
 -13  11  -1    0.47    0.11
 -13  11  -2    2.14    0.19
 -13  12   1    0.72    0.13
 -13  12   0    1.17    0.16
 -13  12  -1    0.74    0.13
 -13  13   1    0.11    0.08
 -13  13   0    1.16    0.17
 -13  13  -1    0.14    0.08
 -14 -12   1    2.38    0.20
  14  12  -1    2.19    0.21
 -14 -12   0    0.45    0.11
  14  12   0    0.57    0.12
 -14 -12  -1    2.24    0.18
  14  12   1    2.26    0.20
 -14 -11   1    1.43    0.15
  14  11  -1    1.45    0.18
 -14 -11   0    1.60    0.15
  14  11   0    1.75    0.18
 -14 -11  -1    1.46    0.14
  14  11   1    1.54    0.17
 -14 -10   2    0.41    0.14
  14  10  -2    0.28    0.10
 -14 -10   1    1.15    0.17
  14  10  -1    0.79    0.14
 -14 -10   0    0.32    0.10
  14  10   0    0.23    0.09
 -14 -10  -1    0.92    0.10
  14  10   1    0.83    0.13
 -14 -10  -2    0.38    0.04
  14  10   2    0.27    0.09
 -14  -9   2    5.61    0.30
  14   9  -2    5.21    0.29
 -14  -9   1    4.96    0.26
  14   9  -1    4.79    0.27
 -14  -9   0    3.84    0.20
  14   9   0    3.90    0.24
 -14  -9  -1    4.80    0.21
  14   9   1    4.86    0.27
 -14  -9  -2    5.64    0.21
  14   9   2    5.46    0.30
 -14  -8   2    2.18    0.19
  14   8  -2    2.31    0.19
 -14  -8   1    5.29    0.26
  14   8  -1    5.22    0.28
 -14  -8   0    3.84    0.20
  14   8   0    3.58    0.23
 -14  -8  -1    5.62    0.22
  14   8   1    5.43    0.28
 -14  -8  -2    2.50    0.12
  14   8   2    2.44    0.19
 -14  -7   2    2.14    0.18
  14   7  -2    2.33    0.19
 -14  -7   1    2.33    0.17
  14   7  -1    2.48    0.19
  14   7   0    1.03    0.14
  14   7   1    2.57    0.19
  14   7   2    2.37    0.18
 -14  -6   2    1.25    0.19
  14   6  -2    1.01    0.14
  14   6  -1    2.71    0.20
  14   6   0    3.79    0.23
  14   6   1    3.05    0.21
 -14  -6  -2    0.82    0.13
  14   6   2    0.92    0.13
  14   5  -2    1.27    0.15
  14   5  -1    4.50    0.25
  14   5   0    1.32    0.14
  14   5   1    4.62    0.24
 -14  -5  -2    1.35    0.14
  14   5   2    1.25    0.13
 -14  -4   2    1.66    0.16
  14   4  -2    1.47    0.15
  14   4  -1    2.12    0.16
  14   4   0   10.68    0.40
 -14  -4  -1    1.99    0.16
  14   4   1    2.07    0.16
 -14  -4  -2    1.45    0.14
  14   4   2    1.52    0.14
 -14  -3   2   17.76    0.55
  14   3  -2   17.28    0.55
 -14  -3   1    3.50    0.21
  14   3  -1    3.31    0.20
 -14  -3   0   14.72    0.48
  14   3   0   14.02    0.47
 -14  -3  -1    3.23    0.20
  14   3   1    3.45    0.20
 -14  -3  -2   18.04    0.56
  14   3   2   18.48    0.56
 -14  -2   2    0.85    0.12
  14   2  -2    1.00    0.13
 -14  -2   1    1.96    0.16
  14   2  -1    2.01    0.16
 -14  -2   0   10.31    0.38
  14   2   0   10.08    0.37
 -14  -2  -1    2.04    0.16
  14   2   1    1.71    0.14
 -14  -2  -2    0.88    0.12
  14   2   2    0.70    0.10
 -14  -1   2    1.15    0.14
  14   1  -2    1.22    0.13
 -14  -1   1    3.37    0.20
  14   1  -1    3.46    0.20
 -14  -1   0    2.40    0.17
  14   1   0    2.40    0.16
 -14  -1  -1    3.64    0.21
  14   1   1    3.39    0.20
 -14  -1  -2    0.96    0.12
  14   1   2    1.09    0.12
 -14   0   2   11.40    0.40
  14   0  -2   11.23    0.40
 -14   0   1    8.58    0.34
  14   0  -1    9.04    0.34
 -14   0   0   20.19    0.60
  14   0   0   20.28    0.60
 -14   0  -1    8.96    0.35
  14   0   1    9.19    0.34
 -14   0  -2   11.26    0.40
  14   0   2   11.04    0.39
 -14   1   2    1.16    0.14
  14  -1  -2    1.05    0.13
 -14   1   1    3.16    0.19
  14  -1  -1    3.40    0.20
 -14   1   0    2.24    0.17
  14  -1   0    2.41    0.17
 -14   1  -1    3.71    0.21
  14  -1   1    3.37    0.19
 -14   1  -2    1.13    0.13
 -14   2   2    0.73    0.11
  14  -2  -2    0.91    0.12
 -14   2   1    1.93    0.15
  14  -2  -1    1.90    0.15
 -14   2   0   10.06    0.37
  14  -2   0   10.57    0.37
 -14   2  -1    1.79    0.15
  14  -2   1    1.80    0.14
 -14   2  -2    0.77    0.11
 -14   3   2   17.00    0.53
 -14   3   1    3.74    0.21
 -14   3   0   13.37    0.44
 -14   3  -1    3.11    0.19
 -14   3  -2   16.75    0.52
 -14   4   2    1.56    0.14
 -14   4   1    1.97    0.15
 -14   4   0    9.63    0.36
 -14   4  -1    2.08    0.15
 -14   4  -2    1.51    0.14
 -14   5   2    1.22    0.13
 -14   5   1    3.82    0.21
 -14   5   0    1.54    0.14
 -14   5  -1    4.08    0.22
 -14   5  -2    1.16    0.14
 -14   6   2    0.73    0.11
 -14   6   1    2.72    0.19
 -14   6   0    3.62    0.21
 -14   6  -1    2.71    0.18
 -14   6  -2    0.78    0.12
 -14   7   2    2.04    0.17
 -14   7   1    2.28    0.18
 -14   7   0    1.08    0.13
 -14   7  -1    2.28    0.18
 -14   7  -2    2.31    0.18
 -14   8   2    2.15    0.18
 -14   8   1    5.00    0.26
 -14   8   0    3.97    0.23
 -14   8  -1    5.20    0.27
 -14   8  -2    2.34    0.19
 -14   9   2    5.41    0.28
 -14   9   1    5.02    0.27
 -14   9   0    3.55    0.23
 -14   9  -1    4.54    0.26
 -14   9  -2    5.10    0.28
 -14  10   2    0.18    0.08
 -14  10   1    0.85    0.13
 -14  10   0    0.15    0.08
 -14  10  -1    0.85    0.14
 -14  10  -2    0.27    0.09
 -14  11   1    1.24    0.16
 -14  11   0    1.50    0.18
 -14  11  -1    1.12    0.16
 -14  12   1    2.36    0.21
 -14  12   0    0.53    0.12
 -14  12  -1    2.39    0.21
 -15 -11   1    1.97    0.18
  15  11  -1    2.26    0.21
 -15 -11   0    1.60    0.15
  15  11   0    1.25    0.17
 -15 -11  -1    1.77    0.15
  15  11   1    1.96    0.19
 -15 -10   1    0.39    0.12
  15  10  -1    0.27    0.10
 -15 -10   0    3.46    0.21
  15  10   0    3.74    0.25
 -15 -10  -1    0.47    0.10
  15  10   1    0.35    0.10
 -15  -9   2    0.64    0.15
  15   9  -2    0.46    0.11
 -15  -9   1    1.22    0.18
  15   9  -1    1.06    0.16
 -15  -9   0    0.01    0.06
  15   9   0   -0.02    0.06
 -15  -9  -1    1.07    0.11
  15   9   1    1.21    0.16
 -15  -9  -2    0.46    0.08
  15   9   2    0.67    0.12
 -15  -8   2    0.95    0.17
  15   8  -2    0.67    0.13
 -15  -8   1    1.37    0.18
  15   8  -1    1.05    0.15
 -15  -8   0   12.48    0.41
  15   8   0   12.54    0.48
 -15  -8  -1    0.97    0.10
  15   8   1    1.31    0.17
  15   8   2    0.59    0.12
 -15  -7   2    0.38    0.12
  15   7  -2    0.38    0.10
 -15  -7   1   11.90    0.42
  15   7  -1   12.19    0.47
  15   7   0    0.21    0.08
  15   7   1   13.25    0.49
 -15  -7  -2    0.21    0.09
  15   7   2    0.29    0.08
 -15  -6   2    0.23    0.10
  15   6  -2    0.19    0.08
  15   6  -1    2.23    0.19
  15   6   0    5.07    0.28
  15   6   1    2.33    0.18
 -15  -6  -2    0.14    0.07
  15   6   2    0.11    0.06
  15   5  -2    0.59    0.11
  15   5  -1    2.82    0.20
  15   5   0    1.39    0.15
 -15  -5  -1    2.87    0.20
  15   5   1    3.22    0.21
 -15  -5  -2    0.68    0.12
  15   5   2    0.62    0.11
 -15  -4   2    0.72    0.12
  15   4  -2    0.84    0.12
 -15  -4   1    4.55    0.25
  15   4  -1    4.49    0.25
 -15  -4   0   17.01    0.55
  15   4   0   16.39    0.54
 -15  -4  -1    4.28    0.24
  15   4   1    4.28    0.24
 -15  -4  -2    1.05    0.14
  15   4   2    0.70    0.11
 -15  -3   2    0.54    0.10
  15   3  -2    0.45    0.09
 -15  -3   1    2.06    0.17
  15   3  -1    2.17    0.17
 -15  -3   0    0.07    0.06
  15   3   0    0.07    0.06
 -15  -3  -1    2.40    0.18
  15   3   1    2.54    0.18
 -15  -3  -2    0.64    0.11
  15   3   2    0.55    0.10
 -15  -2   2   14.16    0.48
  15   2  -2   14.08    0.48
 -15  -2   1    2.55    0.19
  15   2  -1    2.37    0.17
 -15  -2   0    8.77    0.36
  15   2   0    9.29    0.36
 -15  -2  -1    2.53    0.18
  15   2   1    2.66    0.18
 -15  -2  -2   14.63    0.49
  15   2   2   14.03    0.48
 -15  -1   2    0.70    0.12
  15   1  -2    0.81    0.12
 -15  -1   1    9.04    0.36
  15   1  -1    9.06    0.36
 -15  -1   0    0.12    0.07
  15   1   0    0.12    0.06
 -15  -1  -1    9.23    0.36
  15   1   1    9.28    0.36
 -15  -1  -2    0.92    0.13
  15   1   2    0.81    0.12
 -15   0   2   -0.02    0.05
  15   0  -2   -0.04    0.04
 -15   0   1   -0.04    0.04
  15   0  -1   -0.02    0.04
 -15   0   0    0.02    0.05
  15   0   0    0.06    0.05
 -15   0  -1   -0.06    0.04
  15   0   1   -0.04    0.04
 -15   0  -2    0.02    0.05
  15   0   2   -0.02    0.04
 -15   1   2    0.93    0.13
  15  -1  -2    0.76    0.12
 -15   1   1    9.13    0.36
  15  -1  -1    9.37    0.36
 -15   1   0    0.22    0.07
  15  -1   0    0.13    0.06
 -15   1  -1    9.34    0.37
  15  -1   1    9.58    0.36
 -15   1  -2    0.63    0.11
 -15   2   2   13.77    0.47
 -15   2   1    2.50    0.18
  15  -2  -1    2.46    0.18
 -15   2   0    8.77    0.35
  15  -2   0    8.66    0.34
 -15   2  -1    2.49    0.18
 -15   2  -2   12.86    0.44
 -15   3   2    0.46    0.10
 -15   3   1    2.28    0.17
 -15   3   0    0.05    0.05
 -15   3  -1    2.05    0.16
 -15   3  -2    0.46    0.10
 -15   4   2    0.57    0.10
 -15   4   1    4.05    0.22
 -15   4   0   15.20    0.50
 -15   4  -1    3.98    0.22
 -15   4  -2    0.95    0.13
 -15   5   2    0.81    0.12
 -15   5   1    2.98    0.20
 -15   5   0    1.44    0.14
 -15   5  -1    2.49    0.18
 -15   5  -2    0.78    0.12
 -15   6   2    0.24    0.08
 -15   6   1    2.34    0.18
 -15   6   0    4.39    0.24
 -15   6  -1    1.89    0.17
 -15   6  -2    0.12    0.07
 -15   7   2    0.15    0.07
 -15   7   1   11.51    0.43
 -15   7   0    0.07    0.07
 -15   7  -1   11.31    0.43
 -15   7  -2    0.30    0.09
 -15   8   2    0.64    0.12
 -15   8   1    0.88    0.13
 -15   8   0   11.71    0.44
 -15   8  -1    0.82    0.13
 -15   8  -2    0.59    0.12
 -15   9   2    0.63    0.12
 -15   9   1    0.94    0.14
 -15   9   0   -0.01    0.06
 -15   9  -1    1.18    0.16
 -15   9  -2    0.62    0.12
 -15  10   1    0.27    0.09
 -15  10   0    2.95    0.22
 -15  10  -1    0.18    0.08
 -15  11   1    2.48    0.21
 -15  11   0    1.22    0.16
 -15  11  -1    1.96    0.19
 -16 -10   1    0.09    0.09
  16  10  -1    0.05    0.07
 -16 -10   0    0.92    0.16
  16  10   0    0.40    0.11
 -16 -10  -1    0.14    0.07
  16  10   1    0.09    0.07
 -16  -9   1    0.50    0.13
  16   9  -1    0.38    0.10
 -16  -9   0    7.55    0.31
  16   9   0    7.24    0.36
 -16  -9  -1    0.43    0.10
  16   9   1    0.26    0.09
 -16  -8   2    0.64    0.15
  16   8  -2    0.52    0.12
 -16  -8   1    2.69    0.20
  16   8  -1    2.85    0.23
 -16  -8   0    4.00    0.22
  16   8   0    4.51    0.28
 -16  -8  -1    2.64    0.16
  16   8   1    2.84    0.22
 -16  -8  -2    0.44    0.11
  16   8   2    0.38    0.10
 -16  -7   2    1.27    0.20
  16   7  -2    1.09    0.16
 -16  -7   1    1.74    0.16
  16   7  -1    1.52    0.18
  16   7   0    2.14    0.20
  16   7   1    1.70    0.17
 -16  -7  -2    0.93    0.15
  16   7   2    1.00    0.14
 -16  -6   2    0.07    0.09
  16   6  -2    0.09    0.07
  16   6  -1    5.86    0.31
  16   6   0    0.57    0.11
 -16  -6  -1    5.65    0.30
  16   6   1    6.05    0.30
 -16  -6  -2    0.10    0.07
  16   6   2    0.11    0.07
 -16  -5   2    1.94    0.19
  16   5  -2    1.85    0.17
 -16  -5   1   -0.01    0.06
  16   5  -1    0.07    0.07
 -16  -5   0    7.55    0.35
  16   5   0    8.13    0.35
 -16  -5  -1    0.03    0.06
  16   5   1    0.04    0.06
 -16  -5  -2    1.71    0.17
  16   5   2    1.75    0.16
 -16  -4   2    1.36    0.17
  16   4  -2    1.23    0.15
 -16  -4   1    2.44    0.20
  16   4  -1    2.39    0.19
 -16  -4   0    0.08    0.06
  16   4   0    0.13    0.06
 -16  -4  -1    2.26    0.19
  16   4   1    2.55    0.19
 -16  -4  -2    1.50    0.16
  16   4   2    1.48    0.15
 -16  -3   2    4.17    0.25
  16   3  -2    4.40    0.25
 -16  -3   1    4.72    0.26
  16   3  -1    4.32    0.25
 -16  -3   0    4.13    0.24
  16   3   0    4.24    0.24
 -16  -3  -1    4.69    0.26
  16   3   1    4.58    0.25
 -16  -3  -2    4.32    0.25
  16   3   2    4.17    0.24
 -16  -2   2    2.72    0.20
  16   2  -2    3.05    0.21
 -16  -2   1    4.51    0.25
  16   2  -1    4.79    0.26
 -16  -2   0    1.23    0.15
  16   2   0    1.33    0.14
 -16  -2  -1    4.79    0.26
  16   2   1    4.50    0.25
 -16  -2  -2    2.89    0.21
  16   2   2    2.55    0.19
 -16  -1   2    1.76    0.17
  16   1  -2    2.04    0.17
 -16  -1   1    0.24    0.08
  16   1  -1    0.18    0.07
 -16  -1   0    1.77    0.16
  16   1   0    1.78    0.16
 -16  -1  -1    0.27    0.09
  16   1   1    0.40    0.09
 -16  -1  -2    1.92    0.17
  16   1   2    2.02    0.17
 -16   0   2    0.83    0.13
  16   0  -2    0.94    0.13
 -16   0   1   14.77    0.51
  16   0  -1   15.18    0.51
 -16   0   0    0.05    0.05
  16   0   0    0.00    0.05
 -16   0  -1   15.07    0.51
  16   0   1   14.30    0.50
 -16   0  -2    0.86    0.13
  16   0   2    0.87    0.12
 -16   1   2    2.18    0.18
  16  -1  -2    2.14    0.17
 -16   1   1    0.24    0.08
  16  -1  -1    0.28    0.08
 -16   1   0    1.91    0.16
  16  -1   0    1.77    0.16
 -16   1  -1    0.20    0.08
  16  -1   1    0.21    0.07
 -16   1  -2    1.85    0.16
 -16   2   2    2.64    0.20
 -16   2   1    4.68    0.26
  16  -2  -1    4.59    0.25
 -16   2   0    1.29    0.14
  16  -2   0    1.32    0.14
 -16   2  -1    4.68    0.25
 -16   2  -2    2.89    0.20
 -16   3   2    3.83    0.23
 -16   3   1    4.37    0.25
 -16   3   0    4.23    0.24
 -16   3  -1    4.55    0.25
 -16   3  -2    3.96    0.23
 -16   4   2    1.43    0.15
 -16   4   1    2.31    0.18
 -16   4   0    0.01    0.06
 -16   4  -1    2.50    0.18
 -16   4  -2    1.27    0.15
 -16   5   2    1.84    0.17
 -16   5   1    0.05    0.06
 -16   5   0    7.74    0.34
 -16   5  -1    0.05    0.06
 -16   5  -2    1.88    0.17
 -16   6   2    0.07    0.07
 -16   6   1    5.72    0.29
 -16   6   0    0.63    0.11
 -16   6  -1    5.41    0.28
 -16   6  -2    0.25    0.09
 -16   7   2    1.06    0.15
 -16   7   1    1.50    0.16
 -16   7   0    2.04    0.18
 -16   7  -1    1.60    0.17
 -16   7  -2    1.00    0.15
 -16   8   2    0.47    0.11
 -16   8   1    2.48    0.20
 -16   8   0    3.92    0.25
 -16   8  -1    2.50    0.20
 -16   8  -2    0.42    0.11
 -16   9   1    0.27    0.10
 -16   9   0    7.39    0.35
 -16   9  -1    0.22    0.09
 -16  10   1    0.05    0.07
 -16  10   0    0.53    0.12
 -16  10  -1    0.17    0.08
 -17  -9   0    1.62    0.15
  17   9   0    1.61    0.21
 -17  -8   1    1.59    0.17
  17   8  -1    1.36    0.18
 -17  -8   0    1.26    0.17
  17   8   0    1.07    0.17
 -17  -8  -1    1.76    0.13
  17   8   1    1.35    0.17
 -17  -7   1    3.30    0.22
  17   7  -1    3.75    0.25
  17   7   0    1.36    0.17
 -17  -7  -1    3.27    0.24
  17   7   1    3.29    0.23
 -17  -6   2   -0.03    0.06
 -17  -6   2   -0.05    0.07
  17   6  -2   -0.02    0.06
 -17  -6   1    1.38    0.18
  17   6  -1    1.72    0.18
 -17  -6   0    2.37    0.20
  17   6   0    2.11    0.19
 -17  -6  -1    1.52    0.18
  17   6   1    1.82    0.17
 -17  -6  -2   -0.09    0.06
  17   6   2    0.02    0.06
 -17  -5   2    1.52    0.19
  17   5  -2    1.61    0.17
 -17  -5   1    4.91    0.29
  17   5  -1    4.78    0.27
 -17  -5   0    1.99    0.19
  17   5   0    1.73    0.17
 -17  -5  -1    5.16    0.29
  17   5   1    4.64    0.27
 -17  -5  -2    1.66    0.18
  17   5   2    1.90    0.18
 -17  -4   2   13.51    0.51
  17   4  -2   13.83    0.51
 -17  -4   1    2.03    0.19
  17   4  -1    1.98    0.18
 -17  -4   0    3.55    0.24
  17   4   0    3.44    0.23
 -17  -4  -1    1.72    0.17
  17   4   1    1.93    0.18
 -17  -4  -2   14.60    0.52
  17   4   2   14.20    0.51
 -17  -3   2    0.47    0.11
  17   3  -2    0.42    0.10
 -17  -3   1    1.09    0.15
  17   3  -1    1.61    0.16
 -17  -3   0    0.24    0.09
  17   3   0    0.23    0.08
 -17  -3  -1    1.18    0.16
  17   3   1    1.23    0.16
 -17  -3  -2    0.48    0.11
  17   3   2    0.31    0.09
 -17  -2   2    2.33    0.20
  17   2  -2    2.35    0.20
 -17  -2   1    3.45    0.23
  17   2  -1    3.47    0.23
 -17  -2   0    6.88    0.33
  17   2   0    7.42    0.34
 -17  -2  -1    3.33    0.23
  17   2   1    3.20    0.22
 -17  -2  -2    2.21    0.19
  17   2   2    2.28    0.19
 -17  -1   2    3.53    0.23
  17   1  -2    2.99    0.22
 -17  -1   1    0.61    0.12
  17   1  -1    0.74    0.13
 -17  -1   0    7.56    0.35
  17   1   0    7.51    0.34
 -17  -1  -1    0.68    0.12
  17   1   1    0.71    0.12
 -17  -1  -2    3.44    0.23
  17   1   2    3.34    0.22
 -17   0   2    0.04    0.07
  17   0  -2   -0.04    0.05
 -17   0   1    0.02    0.06
  17   0  -1   -0.01    0.05
 -17   0   0   -0.02    0.06
  17   0   0    0.01    0.05
 -17   0  -1    0.00    0.05
  17   0   1    0.00    0.05
 -17   0  -2    0.01    0.06
 -17   1   2    3.05    0.22
  17  -1  -2    2.99    0.21
 -17   1   1    0.83    0.14
  17  -1  -1    0.85    0.13
 -17   1   0    6.76    0.33
  17  -1   0    7.31    0.33
 -17   1  -1    0.85    0.13
  17  -1   1    0.59    0.11
 -17   1  -2    2.80    0.20
 -17   2   2    2.55    0.20
 -17   2   1    3.28    0.22
  17  -2  -1    3.13    0.21
 -17   2   0    6.94    0.33
  17  -2   0    7.05    0.32
 -17   2  -1    3.44    0.22
 -17   2  -2    2.20    0.18
 -17   3   2    0.48    0.11
 -17   3   1    1.19    0.15
 -17   3   0    0.28    0.09
 -17   3  -1    1.05    0.14
 -17   3  -2    0.27    0.09
 -17   4   2   13.04    0.48
 -17   4   1    1.85    0.17
 -17   4   0    3.24    0.22
 -17   4  -1    1.96    0.17
 -17   4  -2   12.65    0.47
 -17   5   2    1.61    0.17
 -17   5   1    4.25    0.26
 -17   5   0    1.99    0.18
 -17   5  -1    4.53    0.26
 -17   5  -2    1.66    0.18
 -17   6   2   -0.05    0.07
 -17   6   1    1.59    0.17
 -17   6   0    2.31    0.20
 -17   6  -1    1.31    0.17
 -17   6  -2    0.04    0.07
 -17   7   1    3.18    0.23
 -17   7   0    1.28    0.17
 -17   7  -1    3.44    0.24
 -17   8   1    1.41    0.18
 -17   8   0    0.74    0.13
 -17   8  -1    1.49    0.19
 -17   9   0    1.47    0.19
 -18  -7   0    1.48    0.19
  18   7   0    1.28    0.17
 -18  -6   1    0.63    0.14
  18   6  -1    0.54    0.12
 -18  -6   0    2.82    0.23
  18   6   0    2.84    0.22
 -18  -6  -1    0.80    0.14
  18   6   1    0.82    0.14
 -18  -5   1    2.11    0.20
  18   5  -1    2.38    0.21
 -18  -5   0    0.45    0.11
  18   5   0    0.47    0.11
 -18  -5  -1    2.62    0.21
  18   5   1    2.28    0.20
 -18  -4   1    1.88    0.19
  18   4  -1    1.74    0.18
 -18  -4   0    0.24    0.09
  18   4   0    0.24    0.09
 -18  -4  -1    2.04    0.20
  18   4   1    1.76    0.18
 -18  -3   2    1.09    0.17
  18   3  -2    1.02    0.15
 -18  -3   1    7.14    0.35
  18   3  -1    7.65    0.36
 -18  -3   0    0.02    0.06
  18   3   0   -0.02    0.06
 -18  -3  -1    7.68    0.37
  18   3   1    7.41    0.35
 -18  -3  -2    1.31    0.18
  18   3   2    1.26    0.17
 -18  -2   2    6.53    0.34
  18   2  -2    6.74    0.34
 -18  -2   1    1.15    0.17
  18   2  -1    1.24    0.16
 -18  -2   0    0.72    0.14
  18   2   0    0.62    0.12
 -18  -2  -1    0.94    0.15
  18   2   1    1.04    0.14
 -18  -2  -2    6.80    0.34
  18   2   2    6.52    0.33
 -18  -1   2    0.37    0.11
  18   1  -2    0.45    0.11
 -18  -1   1    1.41    0.18
  18   1  -1    1.14    0.16
 -18  -1   0    0.00    0.06
  18   1   0   -0.03    0.05
 -18  -1  -1    1.37    0.18
  18   1   1    1.35    0.17
 -18  -1  -2    0.26    0.10
  18   1   2    0.22    0.09
 -18   0   2    4.04    0.26
  18   0  -2    3.90    0.25
 -18   0   1    1.31    0.17
  18   0  -1    1.72    0.17
 -18   0   0   12.26    0.47
  18   0   0   11.83    0.46
 -18   0  -1    1.68    0.17
  18   0   1    1.35    0.17
 -18   0  -2    3.63    0.24
 -18   1   2    0.30    0.10
  18  -1  -2    0.28    0.10
 -18   1   1    1.25    0.17
  18  -1  -1    1.30    0.17
 -18   1   0   -0.02    0.06
  18  -1   0    0.03    0.06
 -18   1  -1    1.38    0.17
 -18   1  -2    0.46    0.11
 -18   2   2    6.27    0.32
 -18   2   1    1.15    0.16
 -18   2   0    0.61    0.12
 -18   2  -1    1.22    0.16
 -18   2  -2    6.22    0.32
 -18   3   2    1.18    0.16
 -18   3   1    6.85    0.33
 -18   3   0    0.00    0.05
 -18   3  -1    7.20    0.34
 -18   3  -2    1.18    0.16
 -18   4   1    1.98    0.19
 -18   4   0    0.16    0.08
 -18   4  -1    1.53    0.18
 -18   5   1    2.07    0.19
 -18   5   0    0.68    0.13
 -18   5  -1    2.37    0.21
 -18   6   1    0.70    0.13
 -18   6   0    2.70    0.22
 -18   6  -1    0.79    0.14
 -18   7   0    1.44    0.18
  19   5   0    6.24    0.34
 -19  -4   0    0.51    0.12
  19   4   0    0.52    0.12
 -19  -3   1    0.99    0.16
  19   3  -1    1.02    0.15
 -19  -3   0    1.51    0.19
  19   3   0    1.54    0.19
 -19  -3  -1    1.11    0.16
  19   3   1    1.17    0.16
 -19  -2   1    3.29    0.25
  19   2  -1    3.13    0.24
 -19  -2   0    0.06    0.07
  19   2   0    0.07    0.07
 -19  -2  -1    3.61    0.26
  19   2   1    3.42    0.25
 -19  -1   1    1.22    0.17
  19   1  -1    1.37    0.17
 -19  -1   0    1.45    0.19
  19   1   0    1.51    0.18
 -19  -1  -1    1.48    0.19
  19   1   1    1.02    0.15
 -19   0   1    0.03    0.07
  19   0  -1    0.02    0.06
 -19   0   0    0.09    0.07
  19   0   0    0.05    0.06
 -19   0  -1   -0.01    0.06
  19   0   1   -0.03    0.06
 -19   1   1    1.35    0.18
  19  -1  -1    1.35    0.17
 -19   1   0    1.17    0.16
  19  -1   0    1.65    0.17
 -19   1  -1    1.20    0.16
 -19   2   1    3.36    0.24
 -19   2   0   -0.01    0.06
 -19   2  -1    3.88    0.26
 -19   3   1    1.12    0.16
 -19   3   0    1.03    0.15
 -19   3  -1    1.10    0.16
 -19   4   0    0.48    0.11
 -19   5   0    5.91    0.33
   0   0   0    0.00    0.00
;
_shelx_hkl_checksum              9963
loop_
_space_group_symop_operation_xyz
'x, y, z'
'-x, -y, z+1/2'
'-x+1/2, y+1/2, z+1/2'
'x+1/2, -y+1/2, z'
loop_
_atom_site_label
_atom_site_type_symbol
_atom_site_fract_x
_atom_site_fract_y
_atom_site_fract_z
_atom_site_U_iso_or_equiv
_atom_site_adp_type
_atom_site_occupancy
_atom_site_site_symmetry_order
_atom_site_calc_flag
_atom_site_refinement_flags_posn
_atom_site_refinement_flags_adp
_atom_site_refinement_flags_occupancy
_atom_site_disorder_assembly
_atom_site_disorder_group
Cl1 Cl 0.58093(3) 0.92269(4) -0.3031(3) 0.0305(2) Uani 1 1 d . . . . .
F1 F 0.78863(12) 0.64734(11) -0.0707(6) 0.0382(5) Uani 1 1 d . . . . .
O1 O 0.62966(12) 0.72628(15) -0.3507(8) 0.0428(7) Uani 1 1 d . . . . .
C4 C 0.92995(14) 0.8672(2) 0.2456(13) 0.0273(8) Uani 1 1 d . . . . .
H4 H 0.9913 0.8797 0.3499 0.033 Uiso 1 1 calc R U . . .
C3 C 0.90250(14) 0.76393(19) 0.1636(11) 0.0264(7) Uani 1 1 d . . . . .
H3 H 0.9440 0.7055 0.2140 0.032 Uiso 1 1 calc R U . . .
C2 C 0.81400(16) 0.74780(18) 0.0078(9) 0.0224(7) Uani 1 1 d . . . . .
C1 C 0.75082(14) 0.83152(16) -0.0697(9) 0.0172(6) Uani 1 1 d . . . . .
C7 C 0.65765(14) 0.80917(18) -0.2436(9) 0.0232(8) Uani 1 1 d . . . . .
C5 C 0.86900(13) 0.95254(17) 0.1772(9) 0.0231(6) Uani 1 1 d . . . . .
H5 H 0.8880 1.0229 0.2388 0.028 Uiso 1 1 calc R U . . .
C6 C 0.78037(15) 0.93486(16) 0.0191(8) 0.0193(7) Uani 1 1 d . . . . .
H6 H 0.7390 0.9935 -0.0298 0.023 Uiso 1 1 calc R U . . .
loop_
_atom_site_aniso_label
_atom_site_aniso_U_11
_atom_site_aniso_U_22
_atom_site_aniso_U_33
_atom_site_aniso_U_23
_atom_site_aniso_U_13
_atom_site_aniso_U_12
Cl1 0.02106(19) 0.0355(3) 0.0351(7) 0.0033(4) -0.0041(3) 0.00609(17)
F1 0.0464(8) 0.0165(6) 0.0518(16) -0.0059(8) -0.0105(9) 0.0035(5)
O1 0.0351(8) 0.0317(9) 0.062(2) -0.0064(12) -0.0173(12) -0.0079(6)
C4 0.0189(8) 0.0402(12) 0.023(3) -0.0012(14) -0.0004(11) -0.0012(7)
C3 0.0247(8) 0.0312(10) 0.023(2) 0.0008(14) -0.0014(14) 0.0098(7)
C2 0.0271(9) 0.0175(9) 0.023(2) -0.0017(10) 0.0010(10) 0.0027(7)
C1 0.0177(7) 0.0185(9) 0.015(2) 0.0004(10) 0.0005(9) -0.0004(6)
C7 0.0203(8) 0.0265(10) 0.023(3) 0.0030(12) 0.0003(10) -0.0017(7)
C5 0.0242(8) 0.0249(9) 0.020(2) -0.0017(14) 0.0029(13) -0.0064(7)
C6 0.0213(9) 0.0174(9) 0.019(2) 0.0001(9) 0.0001(9) 0.0007(7)
loop_
_atom_type_symbol
_atom_type_description
_atom_type_scat_dispersion_real
_atom_type_scat_dispersion_imag
_atom_type_scat_source
C C 0.0033 0.0016 'International Tables Vol C Tables 4.2.6.8 and 6.1.1.4'
H H 0.0000 0.0000 'International Tables Vol C Tables 4.2.6.8 and 6.1.1.4'
O O 0.0106 0.0060 'International Tables Vol C Tables 4.2.6.8 and 6.1.1.4'
F F 0.0171 0.0103 'International Tables Vol C Tables 4.2.6.8 and 6.1.1.4'
Cl Cl 0.1484 0.1585 'International Tables Vol C Tables 4.2.6.8 and 6.1.1.4'
loop_
_geom_angle_atom_site_label_1
_geom_angle_atom_site_label_2
_geom_angle_atom_site_label_3
_geom_angle
_geom_angle_site_symmetry_1
_geom_angle_site_symmetry_3
C3 C4 C5 120.9(2) . .
C3 C4 H4 119.6 . .
C5 C4 H4 119.6 . .
C2 C3 C4 118.6(2) . .
C2 C3 H3 120.7 . .
C4 C3 H3 120.7 . .
F1 C2 C3 117.9(2) . .
F1 C2 C1 119.7(2) . .
C3 C2 C1 122.5(2) . .
C2 C1 C6 117.5(2) . .
C2 C1 C7 119.8(2) . .
C6 C1 C7 122.63(19) . .
O1 C7 C1 127.5(2) . .
O1 C7 Cl1 117.52(18) . .
C1 C7 Cl1 115.01(16) . .
C6 C5 C4 119.7(2) . .
C6 C5 H5 120.1 . .
C4 C5 H5 120.1 . .
C5 C6 C1 120.80(19) . .
C5 C6 H6 119.6 . .
C1 C6 H6 119.6 . .
loop_
_geom_bond_atom_site_label_1
_geom_bond_atom_site_label_2
_geom_bond_distance
_geom_bond_site_symmetry_2
Cl1 C7 1.790(2) .
F1 C2 1.342(3) .
O1 C7 1.182(3) .
C4 C3 1.386(3) .
C4 C5 1.387(3) .
C4 H4 0.9500 .
C3 C2 1.375(3) .
C3 H3 0.9500 .
C2 C1 1.398(3) .
C1 C6 1.401(3) .
C1 C7 1.476(3) .
C5 C6 1.384(3) .
C5 H5 0.9500 .
C6 H6 0.9500 .
loop_
_geom_torsion_atom_site_label_1
_geom_torsion_atom_site_label_2
_geom_torsion_atom_site_label_3
_geom_torsion_atom_site_label_4
_geom_torsion
_geom_torsion_site_symmetry_1
_geom_torsion_site_symmetry_2
_geom_torsion_site_symmetry_3
_geom_torsion_site_symmetry_4
C5 C4 C3 C2 1.0(6) . . . .
C4 C3 C2 F1 179.8(4) . . . .
C4 C3 C2 C1 -0.2(5) . . . .
F1 C2 C1 C6 179.7(3) . . . .
C3 C2 C1 C6 -0.3(5) . . . .
F1 C2 C1 C7 -1.3(4) . . . .
C3 C2 C1 C7 178.8(3) . . . .
C2 C1 C7 O1 -4.9(5) . . . .
C6 C1 C7 O1 174.1(3) . . . .
C2 C1 C7 Cl1 176.4(2) . . . .
C6 C1 C7 Cl1 -4.5(4) . . . .
C3 C4 C5 C6 -1.2(6) . . . .
C4 C5 C6 C1 0.7(5) . . . .
C2 C1 C6 C5 0.1(5) . . . .
C7 C1 C6 C5 -179.0(3) . . . .
