#------------------------------------------------------------------------------
#$Date: 2017-03-05 06:34:16 +0200 (Sun, 05 Mar 2017) $
#$Revision: 193697 $
#$URL: file:///home/coder/svn-repositories/cod/cif/7/11/95/7119534.cif $
#------------------------------------------------------------------------------
#
# This file is available in the Crystallography Open Database (COD),
# http://www.crystallography.net/
#
# All data on this site have been placed in the public domain by the
# contributors.
#
data_7119534
loop_
_publ_author_name
'Garc\'ia-Glez, Jorge'
'Amghouz, Zakariae'
'da Silva, Iv\'an'
'Ania, Conchi O.'
'Parra, Jos\'e B'
'Trobajo, Camino'
'Garc\'ia-Granda, Santiago'
_publ_section_title
;
 The ability of a fibrous titanium oxophosphate for nitrogen-adsorption
 above room temperature.
;
_journal_issue                   14
_journal_name_full
'Chemical communications (Cambridge, England)'
_journal_page_first              2249
_journal_page_last               2251
_journal_paper_doi               10.1039/c6cc07518e
_journal_volume                  53
_journal_year                    2017
_chemical_formula_moiety         'O9 P2 Ti2'
_chemical_formula_sum            'O9 P2 Ti2'
_chemical_formula_weight         603.352
_space_group_IT_number           2
_symmetry_space_group_name_Hall  '-P 1'
_symmetry_space_group_name_H-M   'P -1'
_cell_angle_alpha                74.5011(19)
_cell_angle_beta                 76.1455(18)
_cell_angle_gamma                74.488(3)
_cell_formula_units_Z            4
_cell_length_a                   5.08431(14)
_cell_length_b                   8.61210(17)
_cell_length_c                   9.6766(2)
_cell_volume                     386.933(17)
_diffrn_measurement_device_type  'Panalytical X'Pert Pro'
_diffrn_radiation_type           Cu\a~1~
_diffrn_radiation_wavelength     1.540596
_diffrn_source                   'sealed X-ray tube'
_exptl_crystal_density_diffrn    2.58932
_pd_meas_scan_method             cont
_pd_proc_ls_prof_R_factor        8.91293675
_pd_proc_ls_prof_wR_expected     4.99375429
_pd_proc_ls_prof_wR_factor       11.5654074
_pd_spec_mount_mode              reflection
_refine_ls_goodness_of_fit_all   2.31597445
_refine_ls_R_factor_all          2.64843231
_refine_ls_shift/su_max          0.001
_cod_data_source_file            c6cc07518e2.cif
_cod_data_source_block           ro-TiP_HT
_cod_depositor_comments          'Adding full bibliography for 7119534.cif.'
_cod_original_cell_volume        386.932(17)
_cod_original_sg_symbol_H-M      P-1
_cod_database_code               7119534
loop_
_symmetry_equiv_pos_as_xyz
'x, y, z '
'-x, -y, -z '
loop_
_atom_site_label
_atom_site_type_symbol
_atom_site_symmetry_multiplicity
_atom_site_fract_x
_atom_site_fract_y
_atom_site_fract_z
_atom_site_occupancy
_atom_site_B_iso_or_equiv
Ti1 Ti 2 0.2180(10) 0.7279(5) 0.3534(4) 1 1.47(5)
Ti2 Ti 2 0.6463(9) 0.8753(4) 0.8188(4) 1 1.47(5)
P1 P 2 0.6326(16) 0.6865(7) 0.5715(7) 1 1.47(5)
P2 P 2 0.8077(16) 0.7922(6) 0.1298(6) 1 1.47(5)
O1 O 2 0.633(3) 0.6864(14) 0.2415(13) 1 1.47(5)
O2 O 2 0.717(3) 0.9576(13) 0.1277(13) 1 1.47(5)
O3 O 2 0.373(3) 0.7235(14) 0.5190(13) 1 1.47(5)
O4 O 2 0.265(3) 0.4999(14) 0.3850(11) 1 1.47(5)
O5 O 2 0.108(3) 0.7306(14) 0.1722(13) 1 1.47(5)
O6 O 2 0.842(3) 0.7794(14) 0.4529(13) 1 1.47(5)
O7 O 2 0.808(3) 0.7698(13) 0.9778(12) 1 1.47(5)
O8 O 2 0.601(3) 0.7273(14) 0.7234(12) 1 1.47(5)
O9 O 2 0.836(3) 0.0116(15) 0.7081(14) 1 1.47(5)
loop_
_pd_meas_2theta_scan
_pd_proc_intensity_total
_pd_calc_intensity_total
8.00527 304.00000 192.21732
8.01840 266.00000 190.77859
8.03153 274.00000 189.34966
8.04466 264.00000 187.93052
8.05779 255.00000 186.52115
8.07092 210.00000 185.12152
8.08405 240.00000 183.73162
8.09718 242.00000 182.35142
8.11031 219.00000 180.98092
8.12344 272.00000 179.62008
8.13657 232.00000 178.26891
8.14970 217.00000 176.92738
8.16283 240.00000 175.59548
8.17596 212.00000 174.27320
8.18909 189.00000 172.96052
8.20222 189.00000 171.65745
8.21535 201.00000 170.36396
8.22848 191.00000 169.08006
8.24161 216.00000 167.80573
8.25474 183.00000 166.54098
8.26788 187.00000 165.28581
8.28101 182.00000 164.04020
8.29414 195.00000 162.80417
8.30727 187.00000 161.57772
8.32040 175.00000 160.36085
8.33353 195.00000 159.15358
8.34666 181.00000 157.95590
8.35979 184.00000 156.76784
8.37292 169.00000 155.58941
8.38605 164.00000 154.42063
8.39918 166.00000 153.26151
8.41231 175.00000 152.11209
8.42544 170.00000 150.97239
8.43857 164.00000 149.84244
8.45170 174.00000 148.72228
8.46483 175.00000 147.61194
8.47796 155.00000 146.51148
8.49109 147.00000 145.42093
8.50422 143.00000 144.34034
8.51735 146.00000 143.26979
8.53048 153.00000 142.20933
8.54361 139.00000 141.15903
8.55674 128.00000 140.11896
8.56987 150.00000 139.08922
8.58300 136.00000 138.06989
8.59613 132.00000 137.06107
8.60926 125.00000 136.06288
8.62239 121.00000 135.07543
8.63552 127.00000 134.09884
8.64865 129.00000 133.13327
8.66178 134.00000 132.17885
8.67491 113.00000 131.23577
8.68804 118.00000 130.30420
8.70117 116.00000 129.38434
8.71430 135.00000 128.47641
8.72744 124.00000 127.58064
8.74057 115.00000 126.69730
8.75370 118.00000 125.82665
8.76683 115.00000 124.96902
8.77996 133.00000 124.12475
8.79309 108.00000 123.29420
8.80622 105.00000 122.47779
8.81935 126.00000 121.67597
8.83248 109.00000 120.88925
8.84561 104.00000 120.11818
8.85874 107.00000 119.36338
8.87187 110.00000 118.62556
8.88500 93.00000 117.90549
8.89813 118.00000 117.20408
8.91126 101.00000 116.52237
8.92439 105.00000 115.86160
8.93752 91.00000 115.22326
8.95065 110.00000 114.60918
8.96378 108.00000 114.02166
8.97691 78.00000 113.46354
8.99004 99.00000 112.93838
9.00317 101.00000 112.45050
9.01630 85.00000 112.00503
9.02943 96.00000 111.60799
9.04256 93.00000 111.26630
9.05569 89.00000 110.98780
9.06882 93.00000 110.78137
9.08195 97.00000 110.65693
9.09508 96.00000 110.62557
9.10821 84.00000 110.69965
9.12134 89.00000 110.89294
9.13447 89.00000 111.22075
9.14760 89.00000 111.70011
9.16073 88.00000 112.34990
9.17386 99.00000 113.19104
9.18700 99.00000 114.24671
9.20013 94.00000 115.54254
9.21326 104.00000 117.10686
9.22639 99.00000 118.97102
9.23952 98.00000 121.16973
9.25265 88.00000 123.74153
9.26578 106.00000 126.72936
9.27891 98.00000 130.18131
9.29204 116.00000 134.15146
9.30517 106.00000 138.70081
9.31830 122.00000 143.89815
9.33143 120.00000 149.82080
9.34456 139.00000 156.55503
9.35769 134.00000 164.19613
9.37082 135.00000 172.84836
9.38395 157.00000 182.62560
9.39708 144.00000 193.65344
9.41021 163.00000 206.07291
9.42334 182.00000 220.04488
9.43647 218.00000 235.75521
9.44960 236.00000 253.42053
9.46273 224.00000 273.29538
9.47586 268.00000 295.68128
9.48899 283.00000 320.93876
9.50212 322.00000 349.50374
9.51525 355.00000 381.91075
9.52838 376.00000 418.82676
9.54151 412.00000 461.10228
9.55464 480.00000 509.84836
9.56777 523.00000 566.54580
9.58090 562.00000 633.17530
9.59403 691.00000 712.30833
9.60716 771.00000 807.00775
9.62029 882.00000 920.28122
9.63342 1000.00000 1053.79485
9.64655 1180.00000 1205.71947
9.65969 1298.00000 1367.99006
9.67282 1454.00000 1523.75274
9.68595 1523.00000 1646.21634
9.69908 1608.00000 1701.14622
9.71221 1720.00000 1657.24144
9.72534 1591.00000 1505.73282
9.73847 1457.00000 1274.67217
9.75160 1161.00000 1016.17027
9.76473 908.00000 776.32750
9.77786 634.00000 579.64956
9.79099 419.00000 432.03243
9.80412 368.00000 328.45311
9.81725 243.00000 259.15514
9.83038 233.00000 213.82648
9.84351 197.00000 183.92534
9.85664 193.00000 163.42920
9.86977 191.00000 148.57172
9.88290 148.00000 137.18695
9.89603 132.00000 128.07840
9.90916 148.00000 120.57579
9.92229 147.00000 114.27819
9.93542 122.00000 108.92308
9.94855 125.00000 104.32440
9.96168 84.00000 100.34310
9.97481 116.00000 96.87206
9.98794 87.00000 93.82722
10.00107 74.00000 91.14181
10.01420 74.00000 88.76227
10.02733 72.00000 86.64528
10.04046 81.00000 84.75554
10.05359 92.00000 83.06413
10.06672 63.00000 81.54718
10.07985 64.00000 80.18493
10.09298 65.00000 78.96095
10.10611 66.00000 77.86157
10.11925 69.00000 76.87538
10.13238 49.00000 75.99287
10.14551 76.00000 75.20614
10.15864 59.00000 74.50868
10.17177 56.00000 73.89517
10.18490 75.00000 73.36132
10.19803 77.00000 72.90379
10.21116 76.00000 72.52010
10.22429 73.00000 72.20854
10.23742 67.00000 71.96820
10.25055 63.00000 71.79888
10.26368 64.00000 71.70122
10.27681 72.00000 71.67669
10.28994 75.00000 71.72782
10.30307 60.00000 71.85831
10.31620 59.00000 72.07340
10.32933 57.00000 72.38020
10.34246 58.00000 72.78808
10.35559 69.00000 73.30913
10.36872 77.00000 73.95849
10.38185 71.00000 74.75461
10.39498 84.00000 75.71946
10.40811 76.00000 76.87877
10.42124 78.00000 78.26224
10.43437 84.00000 79.90384
10.44750 86.00000 81.84220
10.46063 85.00000 84.12111
10.47376 87.00000 86.79001
10.48689 100.00000 89.90471
10.50002 105.00000 93.52802
10.51315 120.00000 97.73058
10.52628 118.00000 102.59167
10.53941 127.00000 108.20019
10.55254 127.00000 114.65581
10.56567 134.00000 122.07042
10.57880 138.00000 130.56989
10.59194 162.00000 140.29629
10.60507 170.00000 151.41059
10.61820 178.00000 164.09574
10.63133 204.00000 178.56002
10.64446 201.00000 195.04040
10.65759 193.00000 213.80629
10.67072 258.00000 235.16077
10.68385 295.00000 259.43593
10.69698 289.00000 287.00514
10.71011 337.00000 318.29878
10.72324 348.00000 353.80041
10.73637 374.00000 394.06947
10.74950 420.00000 439.76354
10.76263 505.00000 491.66584
10.77576 551.00000 550.72157
10.78889 624.00000 618.08839
10.80202 673.00000 695.20996
10.81515 786.00000 783.92546
10.82828 860.00000 886.63117
10.84141 948.00000 1006.50230
10.85454 1086.00000 1147.74497
10.86767 1202.00000 1315.75343
10.88080 1440.00000 1516.88570
10.89393 1611.00000 1757.39338
10.90706 1829.00000 2040.99915
10.92019 2094.00000 2364.91285
10.93332 2207.00000 2714.76937
10.94645 2412.00000 3059.76631
10.95958 2703.00000 3349.82201
10.97271 2810.00000 3517.82430
10.98584 2840.00000 3494.40646
10.99897 2813.00000 3243.74628
11.01210 2622.00000 2802.57753
11.02523 2341.00000 2270.62931
11.03836 1945.00000 1750.25669
11.05150 1467.00000 1304.23071
11.06463 1133.00000 955.40035
11.07776 914.00000 700.95665
11.09089 776.00000 524.95869
11.10402 610.00000 407.25693
11.11715 578.00000 329.21590
11.13028 444.00000 276.44455
11.14341 391.00000 239.19555
11.15654 368.00000 211.48335
11.16967 342.00000 189.85901
11.18280 312.00000 172.37572
11.19593 278.00000 157.90181
11.20906 230.00000 145.73125
11.22219 223.00000 135.38501
11.23532 190.00000 126.51499
11.24845 183.00000 118.85659
11.26158 170.00000 112.20334
11.27471 145.00000 106.39147
11.28784 157.00000 101.28958
11.30097 112.00000 96.79121
11.31410 131.00000 92.80942
11.32723 108.00000 89.27266
11.34036 105.00000 86.12162
11.35349 96.00000 83.30682
11.36662 105.00000 80.78674
11.37975 89.00000 78.52634
11.39288 86.00000 76.49587
11.40601 89.00000 74.66998
11.41914 92.00000 73.02696
11.43227 86.00000 71.54814
11.44540 86.00000 70.21742
11.45853 89.00000 69.02083
11.47166 68.00000 67.94624
11.48479 76.00000 66.98309
11.49792 77.00000 66.12214
11.51106 73.00000 65.35531
11.52419 72.00000 64.67551
11.53732 84.00000 64.07652
11.55045 91.00000 63.55284
11.56358 74.00000 63.09968
11.57671 66.00000 62.71278
11.58984 54.00000 62.38841
11.60297 93.00000 62.12330
11.61610 77.00000 61.91457
11.62923 71.00000 61.75970
11.64236 83.00000 61.65651
11.65549 79.00000 61.60310
11.66862 69.00000 61.59784
11.68175 75.00000 61.63934
11.69488 86.00000 61.72644
11.70801 78.00000 61.85817
11.72114 69.00000 62.03378
11.73427 77.00000 62.25268
11.74740 72.00000 62.51446
11.76053 80.00000 62.81887
11.77366 75.00000 63.16580
11.78679 80.00000 63.55532
11.79992 57.00000 63.98761
11.81305 74.00000 64.46304
11.82618 78.00000 64.98207
11.83931 85.00000 65.54534
11.85244 88.00000 66.15361
11.86557 82.00000 66.80780
11.87870 90.00000 67.50898
11.89183 82.00000 68.25834
11.90496 78.00000 69.05727
11.91809 76.00000 69.90729
11.93122 83.00000 70.81010
11.94435 75.00000 71.76759
11.95748 79.00000 72.78182
11.97061 91.00000 73.85507
11.98375 85.00000 74.98982
11.99688 84.00000 76.18878
12.01001 93.00000 77.45492
12.02314 94.00000 78.79145
12.03627 107.00000 80.20191
12.04940 92.00000 81.69009
12.06253 104.00000 83.26018
12.07566 86.00000 84.91670
12.08879 107.00000 86.66458
12.10192 85.00000 88.50920
12.11505 82.00000 90.45644
12.12818 85.00000 92.51268
12.14131 116.00000 94.68492
12.15444 117.00000 96.98081
12.16757 124.00000 99.40873
12.18070 116.00000 101.97788
12.19383 116.00000 104.69835
12.20696 129.00000 107.58127
12.22009 132.00000 110.63890
12.23322 129.00000 113.88481
12.24635 120.00000 117.33402
12.25948 120.00000 121.00322
12.27261 124.00000 124.91102
12.28574 150.00000 129.07820
12.29887 132.00000 133.52811
12.31200 151.00000 138.28705
12.32513 135.00000 143.38491
12.33826 139.00000 148.85588
12.35139 173.00000 154.73955
12.36452 182.00000 161.08232
12.37765 165.00000 167.93948
12.39078 172.00000 175.37789
12.40391 167.00000 183.47959
12.41704 193.00000 192.34620
12.43017 192.00000 202.10406
12.44331 209.00000 212.90988
12.45644 226.00000 224.95621
12.46957 222.00000 238.47655
12.48270 240.00000 253.75006
12.49583 243.00000 271.10634
12.50896 296.00000 290.93051
12.52209 314.00000 313.66926
12.53522 313.00000 339.83792
12.54835 331.00000 370.02888
12.56148 383.00000 404.92146
12.57461 407.00000 445.29345
12.58774 484.00000 492.03456
12.60087 522.00000 546.16237
12.61400 541.00000 608.84134
12.62713 617.00000 681.40607
12.64026 696.00000 765.38961
12.65339 795.00000 862.55714
12.66652 891.00000 974.94517
12.67965 1008.00000 1104.90655
12.69278 1115.00000 1255.15378
12.70591 1299.00000 1428.80163
12.71904 1469.00000 1629.46376
12.73217 1723.00000 1861.30420
12.74530 1850.00000 2129.16480
12.75843 2199.00000 2438.76169
12.77156 2609.00000 2796.98084
12.78469 2840.00000 3212.30915
12.79782 3322.00000 3695.45508
12.81095 3958.00000 4260.21848
12.82408 4509.00000 4924.61394
12.83721 5168.00000 5712.05885
12.85034 6277.00000 6652.02199
12.86347 7533.00000 7778.88827
12.87660 8736.00000 9127.15035
12.88973 10546.00000 10720.90446
12.90287 12296.00000 12556.65600
12.91600 14404.00000 14580.81720
12.92913 16673.00000 16666.14538
12.94226 18670.00000 18593.63579
12.95539 20495.00000 20050.45328
12.96852 21498.00000 20668.38562
12.98165 21829.00000 20142.51138
12.99478 20683.00000 18419.93633
13.00791 18122.00000 15806.33168
13.02104 14421.00000 12829.12396
13.03417 10256.00000 9969.32970
13.04730 7159.00000 7513.66268
13.06043 4933.00000 5566.44499
13.07356 3635.00000 4113.86629
13.08669 2716.00000 3080.00689
13.09982 2220.00000 2366.85889
13.11295 1796.00000 1880.57706
13.12608 1625.00000 1545.24299
13.13921 1335.00000 1306.49936
13.15234 1259.00000 1128.89972
13.16547 1079.00000 990.81660
13.17860 995.00000 879.49917
13.19173 884.00000 787.39375
13.20486 737.00000 709.82362
13.21799 658.00000 643.68661
13.23112 583.00000 586.77631
13.24425 492.00000 537.43714
13.25738 444.00000 494.38308
13.27051 418.00000 456.59376
13.28364 373.00000 423.24838
13.29677 317.00000 393.67998
13.30990 288.00000 367.34204
13.32303 270.00000 343.78349
13.33616 222.00000 322.62957
13.34929 205.00000 303.56742
13.36242 169.00000 286.33639
13.37556 159.00000 270.71522
13.38869 178.00000 256.49675
13.40182 173.00000 243.51101
13.41495 143.00000 231.63316
13.42808 173.00000 220.74554
13.44121 158.00000 210.75111
13.45434 137.00000 201.55650
13.46747 139.00000 193.03819
13.48060 124.00000 185.15613
13.49373 130.00000 177.85297
13.50686 109.00000 171.07592
13.51999 99.00000 164.77738
13.53312 117.00000 158.90797
13.54625 117.00000 153.42984
13.55938 93.00000 148.31272
13.57251 110.00000 143.52658
13.58564 99.00000 139.04423
13.59877 83.00000 134.84123
13.61190 88.00000 130.89555
13.62503 110.00000 127.18729
13.63816 70.00000 123.69845
13.65129 97.00000 120.41271
13.66442 79.00000 117.31525
13.67755 73.00000 114.39258
13.69068 70.00000 111.63238
13.70381 106.00000 109.02344
13.71694 91.00000 106.55546
13.73007 79.00000 104.21905
13.74320 71.00000 102.00555
13.75633 71.00000 99.90704
13.76946 73.00000 97.91620
13.78259 63.00000 96.02631
13.79572 85.00000 94.23116
13.80885 75.00000 92.52501
13.82198 100.00000 90.90254
13.83512 74.00000 89.35885
13.84825 61.00000 87.88938
13.86138 77.00000 86.48989
13.87451 62.00000 85.15645
13.88764 63.00000 83.88542
13.90077 74.00000 82.67338
13.91390 74.00000 81.51716
13.92703 71.00000 80.41382
13.94016 79.00000 79.36059
13.95329 65.00000 78.35490
13.96642 67.00000 77.39436
13.97955 67.00000 76.47673
13.99268 89.00000 75.59992
14.00581 75.00000 74.76199
14.01894 64.00000 73.96115
14.03207 75.00000 73.19572
14.04520 49.00000 72.46419
14.05833 75.00000 71.76517
14.07146 62.00000 71.09749
14.08459 69.00000 70.46023
14.09772 66.00000 69.85288
14.11085 74.00000 69.27596
14.12398 54.00000 68.73436
14.13711 59.00000 68.22835
14.15024 64.00000 67.72553
14.16337 65.00000 67.22898
14.17650 45.00000 66.75140
14.18963 59.00000 66.29238
14.20276 69.00000 65.85003
14.21589 56.00000 65.42038
14.22902 70.00000 64.99934
14.24215 80.00000 64.60096
14.25528 61.00000 64.24013
14.26841 60.00000 63.89759
14.28154 60.00000 63.57044
14.29467 63.00000 63.25810
14.30781 68.00000 62.96001
14.32094 66.00000 62.67564
14.33407 62.00000 62.40449
14.34720 73.00000 62.14608
14.36033 67.00000 61.89996
14.37346 66.00000 61.66568
14.38659 60.00000 61.44284
14.39972 64.00000 61.23104
14.41285 68.00000 61.02989
14.42598 66.00000 60.83903
14.43911 78.00000 60.65813
14.45224 68.00000 60.48684
14.46537 68.00000 60.32486
14.47850 78.00000 60.17187
14.49163 73.00000 60.02760
14.50476 65.00000 59.89176
14.51789 72.00000 59.76409
14.53102 73.00000 59.64433
14.54415 66.00000 59.53225
14.55728 74.00000 59.42760
14.57041 74.00000 59.33017
14.58354 82.00000 59.23975
14.59667 84.00000 59.15612
14.60980 91.00000 59.07910
14.62293 72.00000 59.00849
14.63606 81.00000 58.94411
14.64919 88.00000 58.88580
14.66232 96.00000 58.83338
14.67545 77.00000 58.78670
14.68858 85.00000 58.74561
14.70171 81.00000 58.70996
14.71484 85.00000 58.67961
14.72797 82.00000 58.65443
14.74110 111.00000 58.63429
14.75423 125.00000 58.61907
14.76737 104.00000 58.60865
14.78050 88.00000 58.60292
14.79363 89.00000 58.60178
14.80676 87.00000 58.60512
14.81989 108.00000 58.61284
14.83302 94.00000 58.62486
14.84615 103.00000 58.64109
14.85928 104.00000 58.66144
14.87241 128.00000 58.68584
14.88554 101.00000 58.71421
14.89867 95.00000 58.74648
14.91180 98.00000 58.78258
14.92493 95.00000 58.82246
14.93806 111.00000 58.86605
14.95119 102.00000 58.91330
14.96432 103.00000 58.96417
14.97745 99.00000 59.01861
14.99058 104.00000 59.07657
15.00371 112.00000 59.13802
15.01684 109.00000 59.20294
15.02997 95.00000 59.27128
15.04310 105.00000 59.34302
15.05623 113.00000 59.41815
15.06936 109.00000 59.49665
15.08249 110.00000 59.57852
15.09562 83.00000 59.66374
15.10875 99.00000 59.75232
15.12188 102.00000 59.84426
15.13501 112.00000 59.93957
15.14814 97.00000 60.03827
15.16127 88.00000 60.14038
15.17440 90.00000 60.24593
15.18753 95.00000 60.35496
15.20066 93.00000 60.46750
15.21379 89.00000 60.58361
15.22693 87.00000 60.70335
15.24006 93.00000 60.82679
15.25319 94.00000 60.95399
15.26632 104.00000 61.08505
15.27945 103.00000 61.22006
15.29258 78.00000 61.35913
15.30571 76.00000 61.50239
15.31884 86.00000 61.64996
15.33197 86.00000 61.80201
15.34510 76.00000 61.95869
15.35823 72.00000 62.12019
15.37136 80.00000 62.28672
15.38449 70.00000 62.45851
15.39762 81.00000 62.63581
15.41075 76.00000 62.81889
15.42388 66.00000 63.00807
15.43701 76.00000 63.20368
15.45014 64.00000 63.40611
15.46327 67.00000 63.61579
15.47640 65.00000 63.83318
15.48953 70.00000 64.05881
15.50266 76.00000 64.29328
15.51579 83.00000 64.53725
15.52892 68.00000 64.79149
15.54205 73.00000 65.05685
15.55518 67.00000 65.33430
15.56831 83.00000 65.62497
15.58144 73.00000 65.93014
15.59457 91.00000 66.25128
15.60770 72.00000 66.59009
15.62083 87.00000 66.94855
15.63396 74.00000 67.32899
15.64709 66.00000 67.73414
15.66022 68.00000 68.16726
15.67335 59.00000 68.63215
15.68648 64.00000 69.13298
15.69962 80.00000 69.67325
15.71275 79.00000 70.24822
15.72588 81.00000 70.87951
15.73901 70.00000 71.66325
15.75214 67.00000 72.55926
15.76527 87.00000 73.59274
15.77840 62.00000 74.81948
15.79153 79.00000 76.31951
15.80466 78.00000 78.00691
15.81779 87.00000 79.66024
15.83092 83.00000 81.56066
15.84405 76.00000 83.77974
15.85718 74.00000 86.37856
15.87031 86.00000 89.42913
15.88344 82.00000 93.01660
15.89657 74.00000 97.24183
15.90970 91.00000 102.22480
15.92283 101.00000 108.10884
15.93596 120.00000 115.06656
15.94909 119.00000 123.30787
15.96222 115.00000 133.09162
15.97535 117.00000 144.74187
15.98848 105.00000 158.66924
16.00161 150.00000 175.39382
16.01474 172.00000 195.56002
16.02787 218.00000 219.92415
16.04100 247.00000 249.28631
16.05413 268.00000 284.33459
16.06726 283.00000 325.37937
16.08039 349.00000 371.98295
16.09352 362.00000 422.52759
16.10665 408.00000 473.79678
16.11978 463.00000 520.67621
16.13291 541.00000 556.19285
16.14604 502.00000 572.37932
16.15918 555.00000 562.75673
16.17231 523.00000 526.28568
16.18544 491.00000 469.12429
16.19857 413.00000 402.09873
16.21170 343.00000 335.57750
16.22483 246.00000 276.31909
16.23796 220.00000 227.36350
16.25109 192.00000 189.16422
16.26422 155.00000 160.67390
16.27735 156.00000 140.13577
16.29048 139.00000 125.63430
16.30361 109.00000 115.44247
16.31674 106.00000 108.18825
16.32987 98.00000 102.88193
16.34300 97.00000 98.86113
16.35613 106.00000 95.70539
16.36926 99.00000 93.15502
16.38239 90.00000 91.04902
16.39552 85.00000 89.28410
16.40865 78.00000 87.79028
16.42178 70.00000 86.51719
16.43491 77.00000 85.42681
16.44804 93.00000 84.48938
16.46117 80.00000 83.68112
16.47430 89.00000 82.98272
16.48743 79.00000 82.37838
16.50056 79.00000 81.85502
16.51369 70.00000 81.40178
16.52682 58.00000 81.00954
16.53995 75.00000 80.67065
16.55308 85.00000 80.37862
16.56621 72.00000 80.12794
16.57934 61.00000 79.91387
16.59247 68.00000 79.73237
16.60560 72.00000 79.57997
16.61874 67.00000 79.45365
16.63187 82.00000 79.35081
16.64500 82.00000 79.26922
16.65813 74.00000 79.20701
16.67126 68.00000 79.16269
16.68439 74.00000 79.13577
16.69752 59.00000 79.12490
16.71065 56.00000 79.12290
16.72378 69.00000 79.13154
16.73691 76.00000 79.15103
16.75004 61.00000 79.18060
16.76317 67.00000 79.21945
16.77630 68.00000 79.26688
16.78943 81.00000 79.32228
16.80256 70.00000 79.38506
16.81569 63.00000 79.45473
16.82882 84.00000 79.53081
16.84195 73.00000 79.61289
16.85508 67.00000 79.70058
16.86821 75.00000 79.79356
16.88134 84.00000 79.89149
16.89447 74.00000 79.99412
16.90760 58.00000 80.10117
16.92073 75.00000 80.21242
16.93386 80.00000 80.32767
16.94699 84.00000 80.44674
16.96012 77.00000 80.56945
16.97325 90.00000 80.69568
16.98638 82.00000 80.82531
16.99951 73.00000 80.95824
17.01264 71.00000 81.09442
17.02577 79.00000 81.23380
17.03890 68.00000 81.37640
17.05203 65.00000 81.52227
17.06516 82.00000 81.67156
17.07829 63.00000 81.82459
17.09143 73.00000 81.98200
17.10456 70.00000 82.14557
17.11769 90.00000 82.31957
17.13082 85.00000 82.49953
17.14395 84.00000 82.66241
17.15708 69.00000 82.82601
17.17021 67.00000 82.99184
17.18334 79.00000 83.15989
17.19647 75.00000 83.33014
17.20960 68.00000 83.50257
17.22273 97.00000 83.67717
17.23586 71.00000 83.85395
17.24899 63.00000 84.03290
17.26212 87.00000 84.21402
17.27525 65.00000 84.39733
17.28838 85.00000 84.58284
17.30151 77.00000 84.77057
17.31464 63.00000 84.96054
17.32777 88.00000 85.15278
17.34090 94.00000 85.34733
17.35403 81.00000 85.54421
17.36716 91.00000 85.74348
17.38029 81.00000 85.94517
17.39342 88.00000 86.14935
17.40655 93.00000 86.35607
17.41968 79.00000 86.56540
17.43281 90.00000 86.77741
17.44594 94.00000 86.99219
17.45907 91.00000 87.20986
17.47220 88.00000 87.43052
17.48533 116.00000 87.65432
17.49846 89.00000 87.88142
17.51159 92.00000 88.11201
17.52472 83.00000 88.34633
17.53785 94.00000 88.58464
17.55099 69.00000 88.82732
17.56412 90.00000 89.07479
17.57725 96.00000 89.32760
17.59038 78.00000 89.58645
17.60351 90.00000 89.85232
17.61664 81.00000 90.12662
17.62977 77.00000 90.41162
17.64290 64.00000 90.71159
17.65603 86.00000 91.03841
17.66916 75.00000 91.40871
17.68229 81.00000 91.78039
17.69542 75.00000 92.08113
17.70855 92.00000 92.38267
17.72168 78.00000 92.69175
17.73481 83.00000 93.00924
17.74794 89.00000 93.33641
17.76107 95.00000 93.67588
17.77420 82.00000 94.02816
17.78733 78.00000 94.38534
17.80046 84.00000 94.75695
17.81359 85.00000 95.14865
17.82672 111.00000 95.57604
17.83985 85.00000 96.04738
17.85298 81.00000 96.49199
17.86611 78.00000 96.90512
17.87924 85.00000 97.32973
17.89237 85.00000 97.75869
17.90550 85.00000 98.19989
17.91863 85.00000 98.65481
17.93176 99.00000 99.12384
17.94489 91.00000 99.60704
17.95802 106.00000 100.10385
17.97115 87.00000 100.61249
17.98428 109.00000 101.12849
17.99741 106.00000 101.64011
18.01054 96.00000 102.10381
18.02368 80.00000 102.48587
18.03681 104.00000 103.02264
18.04994 97.00000 103.87202
18.06307 101.00000 104.82507
18.07620 81.00000 105.86329
18.08933 85.00000 107.00280
18.10246 100.00000 108.26383
18.11559 106.00000 109.67168
18.12872 96.00000 111.25772
18.14185 114.00000 113.06055
18.15498 100.00000 115.12730
18.16811 114.00000 117.51520
18.18124 103.00000 120.29344
18.19437 116.00000 123.54549
18.20750 134.00000 127.37203
18.22063 141.00000 131.89464
18.23376 131.00000 137.26077
18.24689 141.00000 143.65024
18.26002 146.00000 151.28429
18.27315 169.00000 160.43776
18.28628 194.00000 171.45506
18.29941 196.00000 184.76943
18.31254 197.00000 200.92226
18.32567 223.00000 220.57436
18.33880 259.00000 244.49362
18.35193 298.00000 273.49565
18.36506 301.00000 308.31126
18.37819 362.00000 349.36219
18.39132 382.00000 396.44685
18.40445 484.00000 448.36498
18.41758 512.00000 502.53185
18.43071 540.00000 554.64523
18.44384 600.00000 598.52656
18.45697 686.00000 626.49533
18.47010 670.00000 631.03274
18.48324 621.00000 608.17156
18.49637 601.00000 560.78777
18.50950 473.00000 498.08504
18.52263 451.00000 430.97767
18.53576 328.00000 367.82771
18.54889 309.00000 313.27296
18.56202 219.00000 269.01408
18.57515 221.00000 234.89243
18.58828 204.00000 209.70856
18.60141 182.00000 191.81074
18.61454 177.00000 179.50241
18.62767 151.00000 171.29468
18.64080 150.00000 166.02191
18.65393 150.00000 162.85425
18.66706 173.00000 161.25051
18.68019 156.00000 160.88989
18.69332 139.00000 161.60830
18.70645 157.00000 163.35064
18.71958 157.00000 166.14024
18.73271 162.00000 170.06105
18.74584 163.00000 175.24562
18.75897 172.00000 181.86075
18.77210 188.00000 190.08246
18.78523 188.00000 200.05358
18.79836 193.00000 211.82036
18.81149 216.00000 225.25072
18.82462 215.00000 239.94263
18.83775 234.00000 255.13541
18.85088 269.00000 269.64344
18.86401 293.00000 281.86043
18.87714 285.00000 289.95405
18.89027 278.00000 292.41244
18.90340 323.00000 288.87579
18.91653 285.00000 280.65381
18.92966 245.00000 270.26566
18.94280 210.00000 260.32861
18.95593 175.00000 252.79749
18.96906 197.00000 248.80502
18.98219 168.00000 248.90234
18.99532 182.00000 253.31553
19.00845 194.00000 262.14055
19.02158 224.00000 275.48837
19.03471 230.00000 293.59525
19.04784 262.00000 316.90525
19.06097 275.00000 346.13172
19.07410 347.00000 382.30611
19.08723 341.00000 426.81961
19.10036 394.00000 481.45294
19.11349 457.00000 548.37450
19.12662 522.00000 630.06939
19.13975 692.00000 729.15069
19.15288 792.00000 848.00875
19.16601 943.00000 988.27948
19.17914 1185.00000 1150.15176
19.19227 1393.00000 1331.56862
19.20540 1586.00000 1527.36167
19.21853 1858.00000 1728.42906
19.23166 2051.00000 1921.62812
19.24479 2327.00000 2091.22241
19.25792 2336.00000 2223.36817
19.27105 2446.00000 2312.34992
19.28418 2418.00000 2362.72866
19.29731 2282.00000 2383.10537
19.31044 2221.00000 2376.25654
19.32357 2204.00000 2334.89321
19.33670 2056.00000 2246.91218
19.34983 1963.00000 2106.83034
19.36296 1854.00000 1924.15855
19.37609 1768.00000 1720.25446
19.38922 1543.00000 1516.41519
19.40235 1393.00000 1325.07026
19.41549 1195.00000 1149.62521
19.42862 1088.00000 989.46171
19.44175 953.00000 844.60213
19.45488 866.00000 716.90346
19.46801 728.00000 608.26028
19.48114 604.00000 518.89704
19.49427 506.00000 447.31034
19.50740 420.00000 391.05450
19.52053 384.00000 347.43041
19.53366 394.00000 313.86265
19.54679 302.00000 288.07366
19.55992 309.00000 268.15872
19.57305 291.00000 252.60441
19.58618 295.00000 240.26543
19.59931 248.00000 230.31192
19.61244 234.00000 222.16263
19.62557 250.00000 215.41852
19.63870 207.00000 209.80659
19.65183 207.00000 205.13784
19.66496 215.00000 201.27860
19.67809 207.00000 198.13237
19.69122 206.00000 195.62896
19.70435 229.00000 193.71833
19.71748 211.00000 192.36720
19.73061 215.00000 191.55757
19.74374 231.00000 191.28644
19.75687 202.00000 191.56661
19.77000 214.00000 192.42835
19.78313 200.00000 193.92195
19.79626 203.00000 196.12108
19.80939 213.00000 199.12691
19.82252 194.00000 203.07306
19.83565 241.00000 208.13149
19.84878 257.00000 214.51968
19.86191 223.00000 222.50965
19.87505 234.00000 232.43952
19.88818 267.00000 244.72872
19.90131 290.00000 259.89830
19.91444 271.00000 278.59851
19.92757 319.00000 301.64544
19.94070 335.00000 330.06783
19.95383 354.00000 365.16096
19.96696 428.00000 408.53672
19.98009 469.00000 462.14616
19.99322 530.00000 528.23435
20.00635 642.00000 609.17107
20.01948 709.00000 707.09446
20.03261 854.00000 823.33003
20.04574 1017.00000 957.58572
20.05887 1189.00000 1106.96758
20.07200 1264.00000 1264.94250
20.08513 1401.00000 1420.37983
20.09826 1613.00000 1556.96617
20.11139 1740.00000 1653.84818
20.12452 1804.00000 1689.30105
20.13765 1760.00000 1648.78460
20.15078 1685.00000 1534.14700
20.16391 1462.00000 1365.52125
20.17704 1238.00000 1172.23128
20.19017 981.00000 980.59446
20.20330 731.00000 807.69138
20.21643 537.00000 661.61835
20.22956 449.00000 544.17100
20.24269 373.00000 453.36078
20.25582 344.00000 385.23828
20.26895 322.00000 335.16940
20.28208 294.00000 298.69117
20.29521 285.00000 272.00249
20.30834 286.00000 252.15038
20.32147 257.00000 237.00158
20.33461 245.00000 225.09905
20.34774 264.00000 215.48474
20.36087 279.00000 207.53923
20.37400 269.00000 200.85924
20.38713 226.00000 195.17429
20.40026 229.00000 190.29470
20.41339 246.00000 186.08088
20.42652 264.00000 182.42578
20.43965 257.00000 179.24473
20.45278 221.00000 176.46936
20.46591 259.00000 174.04368
20.47904 260.00000 171.92139
20.49217 232.00000 170.06394
20.50530 235.00000 168.43897
20.51843 229.00000 167.01925
20.53156 234.00000 165.78169
20.54469 232.00000 164.70666
20.55782 241.00000 163.77737
20.57095 237.00000 162.97944
20.58408 214.00000 162.30050
20.59721 223.00000 161.72986
20.61034 241.00000 161.25830
20.62347 231.00000 160.87778
20.63660 208.00000 160.58138
20.64973 209.00000 160.36303
20.66286 224.00000 160.21748
20.67599 230.00000 160.14017
20.68912 206.00000 160.12710
20.70225 219.00000 160.17484
20.71538 203.00000 160.28040
20.72851 231.00000 160.44121
20.74164 180.00000 160.65508
20.75477 197.00000 160.92012
20.76790 182.00000 161.23478
20.78103 211.00000 161.59775
20.79416 170.00000 162.00798
20.80730 180.00000 162.46467
20.82043 185.00000 162.96720
20.83356 181.00000 163.51518
20.84669 165.00000 164.10839
20.85982 175.00000 164.74680
20.87295 177.00000 165.43055
20.88608 181.00000 166.15996
20.89921 164.00000 166.93549
20.91234 164.00000 167.75780
20.92547 190.00000 168.62767
20.93860 158.00000 169.54607
20.95173 172.00000 170.51413
20.96486 176.00000 171.53313
20.97799 187.00000 172.60455
20.99112 166.00000 173.73004
21.00425 167.00000 174.91141
21.01738 195.00000 176.15069
21.03051 161.00000 177.45010
21.04364 189.00000 178.81209
21.05677 181.00000 180.23933
21.06990 182.00000 181.73471
21.08303 163.00000 183.30142
21.09616 192.00000 184.94291
21.10929 185.00000 186.66292
21.12242 201.00000 188.46554
21.13555 187.00000 190.35518
21.14868 152.00000 192.33666
21.16181 167.00000 194.41521
21.17494 202.00000 196.59650
21.18807 180.00000 198.88671
21.20120 164.00000 201.29256
21.21433 185.00000 203.82138
21.22746 150.00000 206.48113
21.24059 206.00000 209.28054
21.25372 179.00000 212.22911
21.26686 177.00000 215.33725
21.27999 188.00000 218.61636
21.29312 180.00000 222.07893
21.30625 185.00000 225.73870
21.31938 209.00000 229.61078
21.33251 206.00000 233.71182
21.34564 215.00000 238.06021
21.35877 198.00000 242.67631
21.37190 226.00000 247.58268
21.38503 208.00000 252.80438
21.39816 210.00000 258.36933
21.41129 264.00000 264.30869
21.42442 223.00000 270.65732
21.43755 275.00000 277.45436
21.45068 245.00000 284.74384
21.46381 260.00000 292.57543
21.47694 269.00000 301.00541
21.49007 287.00000 310.09769
21.50320 275.00000 319.92517
21.51633 286.00000 330.57135
21.52946 297.00000 342.13232
21.54259 340.00000 354.71932
21.55572 298.00000 368.46203
21.56885 353.00000 383.51280
21.58198 388.00000 400.05250
21.59511 413.00000 418.29812
21.60824 408.00000 438.51325
21.62137 425.00000 461.02205
21.63450 515.00000 486.22782
21.64763 524.00000 514.63686
21.66076 605.00000 546.89130
21.67389 641.00000 583.81614
21.68702 703.00000 626.46001
21.70015 815.00000 676.14767
21.71328 867.00000 734.56680
21.72641 922.00000 803.85090
21.73955 1061.00000 886.68548
21.75268 1258.00000 986.44394
21.76581 1413.00000 1107.36506
21.77894 1705.00000 1254.78734
21.79207 1871.00000 1435.45533
21.80520 2303.00000 1657.90399
21.81833 2569.00000 1932.89985
21.83146 3009.00000 2273.86048
21.84459 3540.00000 2697.07985
21.85772 4236.00000 3221.46903
21.87085 4834.00000 3867.41384
21.88398 5605.00000 4654.31516
21.89711 6472.00000 5596.47703
21.91024 7497.00000 6697.26579
21.92337 8375.00000 7941.82662
21.93650 9547.00000 9288.96143
21.94963 10223.00000 10662.98305
21.96276 11141.00000 11947.05874
21.97589 11686.00000 12982.54201
21.98902 12062.00000 13585.47235
22.00215 11934.00000 13595.31813
22.01528 11527.00000 12951.86090
22.02841 10695.00000 11749.46663
22.04154 9921.00000 10206.36554
22.05467 8606.00000 8564.98130
22.06780 7386.00000 7009.41854
22.08093 6345.00000 5644.21230
22.09406 5429.00000 4510.79940
22.10719 4631.00000 3610.16101
22.12032 3867.00000 2920.16289
22.13345 3409.00000 2407.57672
22.14658 2938.00000 2036.45355
22.15971 2609.00000 1773.65276
22.17284 2389.00000 1591.88982
22.18597 2212.00000 1470.76772
22.19911 2086.00000 1396.44306
22.21224 1918.00000 1360.59876
22.22537 1961.00000 1359.24093
22.23850 1790.00000 1391.60147
22.25163 1862.00000 1459.20605
22.26476 1936.00000 1565.01289
22.27789 2031.00000 1712.45934
22.29102 2196.00000 1904.25594
22.30415 2266.00000 2140.82915
22.31728 2532.00000 2418.48346
22.33041 2756.00000 2727.40364
22.34354 3011.00000 3049.51391
22.35667 3364.00000 3356.67577
22.36980 3482.00000 3610.04458
22.38293 3613.00000 3763.14609
22.39606 3643.00000 3772.79175
22.40919 3434.00000 3618.40255
22.42232 3182.00000 3318.23794
22.43545 2726.00000 2924.73286
22.44858 2260.00000 2499.74705
22.46171 1846.00000 2091.90031
22.47484 1515.00000 1729.63385
22.48797 1211.00000 1424.88348
22.50110 1049.00000 1178.84991
22.51423 904.00000 986.49161
22.52736 760.00000 839.62470
22.54049 676.00000 729.08244
22.55362 628.00000 646.16517
22.56675 577.00000 583.47012
22.57988 555.00000 535.20194
22.59301 598.00000 497.11505
22.60614 478.00000 466.25443
22.61927 451.00000 440.63359
22.63240 424.00000 418.93803
22.64553 366.00000 400.29352
22.65867 375.00000 384.10438
22.67180 332.00000 369.94961
22.68493 302.00000 357.52005
22.69806 304.00000 346.58180
22.71119 305.00000 336.95504
22.72432 303.00000 328.50182
22.73745 273.00000 321.11877
22.75058 272.00000 314.73295
22.76371 260.00000 309.29961
22.77684 245.00000 304.80174
22.78997 270.00000 301.25112
22.80310 249.00000 298.69099
22.81623 241.00000 297.20038
22.82936 247.00000 296.89965
22.84249 259.00000 297.95625
22.85562 265.00000 300.58824
22.86875 276.00000 305.06158
22.88188 275.00000 311.67573
22.89501 292.00000 320.73131
22.90814 309.00000 332.47652
22.92127 325.00000 347.04670
22.93440 347.00000 364.29705
22.94753 382.00000 383.48894
22.96066 390.00000 403.72021
22.97379 435.00000 423.39834
22.98692 430.00000 440.22418
23.00005 460.00000 451.36177
23.01318 483.00000 454.02938
23.02631 439.00000 446.63537
23.03944 413.00000 429.87142
23.05257 382.00000 406.66994
23.06570 329.00000 380.84923
23.07883 320.00000 355.64439
23.09196 274.00000 333.10405
23.10509 242.00000 314.19446
23.11822 245.00000 299.08557
23.13136 234.00000 287.59576
23.14449 268.00000 279.30694
23.15762 210.00000 273.70406
23.17075 234.00000 270.28841
23.18388 263.00000 268.64132
23.19701 222.00000 268.45485
23.21014 240.00000 269.53902
23.22327 255.00000 271.81532
23.23640 236.00000 275.30570
23.24953 238.00000 280.12361
23.26266 302.00000 286.47090
23.27579 278.00000 294.64258
23.28892 298.00000 305.03965
23.30205 312.00000 318.18941
23.31518 324.00000 334.77050
23.32831 380.00000 355.63690
23.34144 376.00000 381.82945
23.35457 416.00000 414.55712
23.36770 469.00000 455.12435
23.38083 539.00000 504.77941
23.39396 602.00000 564.46580
23.40709 603.00000 634.47347
23.42022 697.00000 714.00537
23.43335 757.00000 800.68932
23.44648 849.00000 890.07252
23.45961 931.00000 975.17153
23.47274 1004.00000 1046.31847
23.48587 947.00000 1091.95501
23.49900 1061.00000 1101.37620
23.51213 1060.00000 1069.49376
23.52526 976.00000 1000.77696
23.53839 969.00000 908.12508
23.55152 825.00000 806.88304
23.56465 759.00000 709.27464
23.57778 627.00000 622.59659
23.59092 608.00000 550.04978
23.60405 527.00000 492.14697
23.61718 461.00000 447.82477
23.63031 482.00000 415.20677
23.64344 415.00000 392.13206
23.65657 421.00000 376.51438
23.66970 386.00000 366.55675
23.68283 395.00000 360.84328
23.69596 403.00000 358.34073
23.70909 373.00000 358.34729
23.72222 378.00000 360.42162
23.73535 360.00000 364.31508
23.74848 367.00000 369.91840
23.76161 352.00000 377.22636
23.77474 383.00000 386.31878
23.78787 348.00000 397.35489
23.80100 409.00000 410.57827
23.81413 420.00000 426.33053
23.82726 425.00000 445.07284
23.84039 497.00000 467.41551
23.85352 501.00000 494.15651
23.86665 557.00000 526.33113
23.87978 608.00000 565.27605
23.89291 691.00000 612.71190
23.90604 746.00000 670.84755
23.91917 841.00000 742.50454
23.93230 906.00000 831.25009
23.94543 1080.00000 941.50814
23.95856 1283.00000 1078.59196
23.97169 1366.00000 1248.57180
23.98482 1592.00000 1457.87009
23.99795 1882.00000 1712.48013
24.01108 2144.00000 2016.74476
24.02421 2517.00000 2371.70250
24.03734 2810.00000 2773.08395
24.05048 3268.00000 3209.08976
24.06361 3839.00000 3658.13171
24.07674 4248.00000 4087.00340
24.08987 4365.00000 4450.97624
24.10300 4678.00000 4699.22993
24.11613 4833.00000 4789.51820
24.12926 4441.00000 4709.72654
24.14239 4228.00000 4491.71728
24.15552 4006.00000 4201.66952
24.16865 3474.00000 3912.41628
24.18178 3368.00000 3680.25186
24.19491 3216.00000 3537.73877
24.20804 3235.00000 3496.85453
24.22117 3387.00000 3554.38676
24.23430 3663.00000 3696.36007
24.24743 3981.00000 3900.64734
24.26056 4352.00000 4137.02229
24.27369 4635.00000 4365.38799
24.28682 4967.00000 4535.77480
24.29995 5114.00000 4595.10238
24.31308 5010.00000 4503.03384
24.32621 4795.00000 4250.75329
24.33934 4163.00000 3867.52890
24.35247 3420.00000 3407.11490
24.36560 2676.00000 2925.30392
24.37873 2184.00000 2465.07253
24.39186 1661.00000 2053.02993
24.40499 1350.00000 1701.73490
24.41812 1084.00000 1413.46032
24.43125 974.00000 1183.84359
24.44438 853.00000 1004.93357
24.45751 763.00000 867.46839
24.47064 697.00000 762.40612
24.48377 641.00000 681.81396
24.49690 619.00000 619.25105
24.51003 556.00000 569.79455
24.52317 510.00000 529.85502
24.53630 475.00000 496.90318
24.54943 435.00000 469.19212
24.56256 425.00000 445.52077
24.57569 391.00000 425.05476
24.58882 424.00000 407.19963
24.60195 352.00000 391.51072
24.61508 349.00000 377.64970
24.62821 306.00000 365.35905
24.64134 303.00000 354.42821
24.65447 321.00000 344.68503
24.66760 339.00000 335.98852
24.68073 287.00000 328.22169
24.69386 280.00000 321.27936
24.70699 294.00000 315.07766
24.72012 293.00000 309.55403
24.73325 281.00000 304.65410
24.74638 304.00000 300.33460
24.75951 271.00000 296.56504
24.77264 284.00000 293.32673
24.78577 307.00000 290.60889
24.79890 314.00000 288.41528
24.81203 282.00000 286.76466
24.82516 288.00000 285.69330
24.83829 296.00000 285.25865
24.85142 320.00000 285.54438
24.86455 300.00000 286.66670
24.87768 309.00000 288.78235
24.89081 331.00000 292.09758
24.90394 341.00000 296.87690
24.91707 298.00000 303.44861
24.93020 334.00000 312.20236
24.94333 354.00000 323.57193
24.95646 353.00000 337.99583
24.96959 419.00000 355.84928
24.98273 397.00000 377.34606
24.99586 400.00000 402.40630
25.00899 496.00000 430.49077
25.02212 453.00000 460.46547
25.03525 487.00000 490.42374
25.04838 510.00000 517.56269
25.06151 536.00000 538.27469
25.07464 514.00000 548.72240
25.08777 531.00000 546.09777
25.10090 506.00000 530.11901
25.11403 489.00000 503.57141
25.12716 512.00000 471.17424
25.14029 446.00000 437.64336
25.15342 413.00000 406.40420
25.16655 415.00000 379.39148
25.17968 401.00000 357.37158
25.19281 353.00000 340.36067
25.20594 324.00000 327.97260
25.21907 359.00000 319.63130
25.23220 326.00000 314.72055
25.24533 282.00000 312.70182
25.25846 311.00000 313.19675
25.27159 297.00000 315.88387
25.28472 301.00000 320.57611
25.29785 338.00000 327.42540
25.31098 323.00000 336.67796
25.32411 321.00000 348.73708
25.33724 334.00000 364.18100
25.35037 390.00000 383.77302
25.36350 369.00000 408.43569
25.37663 392.00000 439.22907
25.38976 468.00000 477.26916
25.40289 474.00000 523.58229
25.41602 563.00000 578.88502
25.42915 602.00000 643.29650
25.44228 669.00000 715.96889
25.45542 812.00000 794.63731
25.46855 844.00000 875.35603
25.48168 974.00000 952.04349
25.49481 1088.00000 1016.47440
25.50794 1107.00000 1059.20258
25.52107 1086.00000 1072.10723
25.53420 1109.00000 1052.21578
25.54733 1012.00000 1004.31499
25.56046 967.00000 939.53344
25.57359 875.00000 870.65251
25.58672 809.00000 808.03474
25.59985 749.00000 758.38025
25.61298 730.00000 725.44186
25.62611 697.00000 711.19453
25.63924 770.00000 716.78648
25.65237 816.00000 743.20175
25.66550 849.00000 791.69735
25.67863 916.00000 864.03029
25.69176 939.00000 962.44672
25.70489 1168.00000 1089.39533
25.71802 1275.00000 1246.94889
25.73115 1425.00000 1435.95507
25.74428 1584.00000 1654.97175
25.75741 1795.00000 1899.05400
25.77054 2123.00000 2158.45656
25.78367 2320.00000 2417.39455
25.79680 2509.00000 2653.42628
25.80993 2473.00000 2839.04359
25.82306 2766.00000 2947.98927
25.83619 2823.00000 2966.79835
25.84932 2978.00000 2905.15581
25.86245 2781.00000 2794.49147
25.87558 2773.00000 2673.71061
25.88871 2685.00000 2573.89316
25.90184 2555.00000 2511.38596
25.91498 2587.00000 2488.10359
25.92811 2541.00000 2494.32598
25.94124 2618.00000 2512.12572
25.95437 2601.00000 2520.39607
25.96750 2612.00000 2502.31205
25.98063 2582.00000 2452.31230
25.99376 2609.00000 2376.75921
26.00689 2616.00000 2286.70771
26.02002 2476.00000 2188.88414
26.03315 2343.00000 2081.62609
26.04628 2136.00000 1957.35448
26.05941 2116.00000 1809.32481
26.07254 1754.00000 1638.26901
26.08567 1652.00000 1453.86455
26.09880 1486.00000 1270.05074
26.11193 1118.00000 1098.93361
26.12506 963.00000 947.80229
26.13819 845.00000 819.39224
26.15132 696.00000 713.38311
26.16445 628.00000 627.77773
26.17758 531.00000 559.72001
26.19071 508.00000 506.11836
26.20384 465.00000 464.00667
26.21697 417.00000 430.76570
26.23010 372.00000 404.22856
26.24323 381.00000 382.69024
26.25636 368.00000 364.87245
26.26949 337.00000 349.86434
26.28262 310.00000 337.01602
26.29575 312.00000 325.86955
26.30888 299.00000 316.09955
26.32201 295.00000 307.46971
26.33514 305.00000 299.80317
26.34827 280.00000 292.96353
26.36140 255.00000 286.84286
26.37454 232.00000 281.35432
26.38767 220.00000 276.42737
26.40080 234.00000 272.00485
26.41393 243.00000 268.04101
26.42706 234.00000 264.50035
26.44019 231.00000 261.35707
26.45332 225.00000 258.59492
26.46645 220.00000 256.20800
26.47958 245.00000 254.20192
26.49271 232.00000 252.59548
26.50584 232.00000 251.42326
26.51897 235.00000 250.73885
26.53210 221.00000 250.61874
26.54523 233.00000 251.16629
26.55836 212.00000 252.51718
26.57149 244.00000 254.83070
26.58462 233.00000 258.25545
26.59775 228.00000 262.99025
26.61088 269.00000 269.20387
26.62401 255.00000 277.00032
26.63714 310.00000 286.37218
26.65027 293.00000 297.13952
26.66340 247.00000 308.88077
26.67653 333.00000 320.86027
26.68966 316.00000 331.96908
26.70279 307.00000 340.73160
26.71592 341.00000 345.48742
26.72905 339.00000 344.85423
26.74218 302.00000 338.37124
26.75531 324.00000 326.88314
26.76844 298.00000 312.24262
26.78157 292.00000 296.51557
26.79470 264.00000 281.31902
26.80783 264.00000 267.62050
26.82096 256.00000 255.85002
26.83409 226.00000 246.08332
26.84723 229.00000 238.18785
26.86036 247.00000 231.92166
26.87349 247.00000 227.00015
26.88662 216.00000 223.14108
26.89975 199.00000 220.09262
26.91288 240.00000 217.64705
26.92601 217.00000 215.64351
26.93914 256.00000 213.96352
26.95227 219.00000 212.52305
26.96540 266.00000 211.26387
26.97853 242.00000 210.14602
26.99166 273.00000 209.14196
27.00479 245.00000 208.23295
27.01792 208.00000 207.40640
27.03105 220.00000 206.64709
27.04418 219.00000 205.93717
27.05731 205.00000 205.27708
27.07044 234.00000 204.66157
27.08357 198.00000 204.08560
27.09670 214.00000 203.54491
27.10983 238.00000 203.03587
27.12296 219.00000 202.55533
27.13609 226.00000 202.10061
27.14922 239.00000 201.66934
27.16235 228.00000 201.25950
27.17548 209.00000 200.86927
27.18861 221.00000 200.49709
27.20174 228.00000 200.14155
27.21487 218.00000 199.80141
27.22800 208.00000 199.47559
27.24113 194.00000 199.16311
27.25426 231.00000 198.86311
27.26739 220.00000 198.57485
27.28052 211.00000 198.29768
27.29365 228.00000 198.03115
27.30679 213.00000 197.77530
27.31992 215.00000 197.53009
27.33305 240.00000 197.29207
27.34618 227.00000 197.06027
27.35931 238.00000 196.83606
27.37244 231.00000 196.61923
27.38557 238.00000 196.40943
27.39870 227.00000 196.20635
27.41183 210.00000 196.00970
27.42496 237.00000 195.81923
27.43809 216.00000 195.63468
27.45122 236.00000 195.45584
27.46435 232.00000 195.28250
27.47748 239.00000 195.11448
27.49061 216.00000 194.95160
27.50374 226.00000 194.79371
27.51687 229.00000 194.64066
27.53000 240.00000 194.49232
27.54313 216.00000 194.34858
27.55626 234.00000 194.20932
27.56939 222.00000 194.07446
27.58252 227.00000 193.94390
27.59565 204.00000 193.81757
27.60878 211.00000 193.69540
27.62191 238.00000 193.57733
27.63504 221.00000 193.46331
27.64817 199.00000 193.35330
27.66130 225.00000 193.24726
27.67443 224.00000 193.14518
27.68756 194.00000 193.04702
27.70069 201.00000 192.95279
27.71382 214.00000 192.86247
27.72695 213.00000 192.77609
27.74008 196.00000 192.69366
27.75321 198.00000 192.61522
27.76635 198.00000 192.54083
27.77948 198.00000 192.47056
27.79261 205.00000 192.40455
27.80574 193.00000 192.34297
27.81887 205.00000 192.28607
27.83200 200.00000 192.23428
27.84513 176.00000 192.18848
27.85826 214.00000 192.15147
27.87139 184.00000 192.12501
27.88452 203.00000 192.09599
27.89765 187.00000 192.06482
27.91078 172.00000 192.03782
27.92391 171.00000 192.01569
27.93704 182.00000 191.99853
27.95017 205.00000 191.98649
27.96330 183.00000 191.97970
27.97643 176.00000 191.97828
27.98956 200.00000 191.98237
28.00269 199.00000 191.99209
28.01582 211.00000 192.00754
28.02895 190.00000 192.02883
28.04208 170.00000 192.05600
28.05521 191.00000 192.08911
28.06834 219.00000 192.12812
28.08147 190.00000 192.17294
28.09460 195.00000 192.22335
28.10773 191.00000 192.27899
28.12086 200.00000 192.33935
28.13399 198.00000 192.40365
28.14712 230.00000 192.47069
28.16025 202.00000 192.53864
28.17338 196.00000 192.60447
28.18651 216.00000 192.66293
28.19964 182.00000 192.70370
28.21277 206.00000 192.69885
28.22590 208.00000 192.58775
28.23904 192.00000 192.45565
28.25217 187.00000 192.61470
28.26530 211.00000 192.81425
28.27843 194.00000 193.02879
28.29156 184.00000 193.25933
28.30469 198.00000 193.50677
28.31782 213.00000 193.77220
28.33095 209.00000 194.05678
28.34408 204.00000 194.36179
28.35721 191.00000 194.68865
28.37034 199.00000 195.03890
28.38347 193.00000 195.41424
28.39660 197.00000 195.81654
28.40973 193.00000 196.24789
28.42286 218.00000 196.71058
28.43599 200.00000 197.20717
28.44912 200.00000 197.74051
28.46225 178.00000 198.31380
28.47538 182.00000 198.93063
28.48851 203.00000 199.59503
28.50164 194.00000 200.31158
28.51477 196.00000 201.08548
28.52790 186.00000 201.92268
28.54103 194.00000 202.82999
28.55416 194.00000 203.81531
28.56729 202.00000 204.88786
28.58042 195.00000 206.05847
28.59355 193.00000 207.34008
28.60668 207.00000 208.74821
28.61981 181.00000 210.30180
28.63294 201.00000 212.02409
28.64607 203.00000 213.94378
28.65920 212.00000 216.09546
28.67233 209.00000 218.51158
28.68546 202.00000 221.26383
28.69860 208.00000 224.55782
28.71173 197.00000 228.41402
28.72486 185.00000 233.00024
28.73799 233.00000 238.51158
28.75112 217.00000 245.20719
28.76425 284.00000 253.41186
28.77738 214.00000 263.51877
28.79051 278.00000 275.98170
28.80364 267.00000 291.29045
28.81677 275.00000 309.92345
28.82990 313.00000 332.27294
28.84303 330.00000 358.54123
28.85616 331.00000 388.60953
28.86929 382.00000 421.88191
28.88242 444.00000 457.10833
28.89555 464.00000 492.20301
28.90868 495.00000 524.12851
28.92181 520.00000 549.03736
28.93494 544.00000 562.97796
28.94807 580.00000 563.28358
28.96120 543.00000 550.03975
28.97433 552.00000 526.42302
28.98746 519.00000 497.41868
29.00059 498.00000 467.93275
29.01372 442.00000 441.61996
29.02685 391.00000 420.72602
29.03998 390.00000 406.45780
29.05311 408.00000 399.43922
29.06624 408.00000 400.05188
29.07937 460.00000 408.66814
29.09250 450.00000 425.80991
29.10563 522.00000 452.23350
29.11876 524.00000 488.93425
29.13189 611.00000 537.05659
29.14502 666.00000 597.69853
29.15815 779.00000 671.60749
29.17129 839.00000 758.77452
29.18442 990.00000 857.94177
29.19755 1059.00000 966.03288
29.21068 1239.00000 1077.53180
29.22381 1296.00000 1183.92695
29.23694 1408.00000 1273.54620
29.25007 1575.00000 1332.64171
29.26320 1532.00000 1348.69346
29.27633 1447.00000 1315.65248
29.28946 1443.00000 1238.01413
29.30259 1223.00000 1129.68669
29.31572 1095.00000 1007.91049
29.32885 960.00000 887.16929
29.34198 785.00000 776.72348
29.35511 644.00000 681.14601
29.36824 583.00000 601.80679
29.38137 479.00000 538.15656
29.39450 443.00000 488.57603
29.40763 437.00000 450.96453
29.42076 380.00000 423.11877
29.43389 367.00000 402.98715
29.44702 359.00000 388.81415
29.46015 355.00000 379.19693
29.47328 313.00000 373.07891
29.48641 343.00000 369.70719
29.49954 346.00000 368.56260
29.51267 313.00000 369.30541
29.52580 291.00000 371.73138
29.53893 335.00000 375.72875
29.55206 351.00000 381.25271
29.56519 333.00000 388.31167
29.57832 334.00000 396.95858
29.59145 353.00000 407.28852
29.60458 356.00000 419.44053
29.61771 350.00000 433.60335
29.63085 354.00000 450.02538
29.64398 381.00000 469.02984
29.65711 452.00000 491.03678
29.67024 437.00000 516.59450
29.68337 489.00000 546.42359
29.69650 498.00000 581.47824
29.70963 552.00000 623.02980
29.72276 630.00000 672.77847
29.73589 638.00000 732.99699
29.74902 751.00000 806.70898
29.76215 802.00000 897.87344
29.77528 918.00000 1011.53279
29.78841 1084.00000 1154.05385
29.80154 1230.00000 1333.06994
29.81467 1521.00000 1557.26647
29.82780 1722.00000 1835.83086
29.84093 2119.00000 2177.45399
29.85406 2553.00000 2588.81719
29.86719 2976.00000 3072.54798
29.88032 3696.00000 3624.66681
29.89345 4427.00000 4231.55154
29.90658 5109.00000 4866.50124
29.91971 5879.00000 5486.27283
29.93284 6580.00000 6029.27395
29.94597 7347.00000 6419.94983
29.95910 7494.00000 6585.29299
29.97223 7288.00000 6483.97613
29.98536 6907.00000 6132.42892
29.99849 5943.00000 5603.63663
30.01162 5068.00000 4995.66713
30.02475 3967.00000 4395.85302
30.03788 3202.00000 3863.33916
30.05101 2637.00000 3429.53568
30.06414 2257.00000 3105.35611
30.07727 2187.00000 2887.88242
30.09041 2369.00000 2764.61454
30.10354 2483.00000 2715.78095
30.11667 2566.00000 2715.51089
30.12980 2806.00000 2732.78126
30.14293 3015.00000 2733.66481
30.15606 3136.00000 2686.88257
30.16919 3112.00000 2572.85901
30.18232 2870.00000 2391.50912
30.19545 2648.00000 2161.43531
30.20858 2276.00000 1909.83839
30.22171 1784.00000 1661.24651
30.23484 1459.00000 1432.02695
30.24797 1117.00000 1230.49565
30.26110 1017.00000 1059.24003
30.27423 788.00000 917.34387
30.28736 681.00000 801.94619
30.30049 601.00000 709.26646
30.31362 534.00000 635.28533
30.32675 499.00000 576.19353
30.33988 490.00000 528.65819
30.35301 432.00000 489.94000
30.36614 393.00000 457.89825
30.37927 362.00000 430.92475
30.39240 371.00000 407.84462
30.40553 329.00000 387.81235
30.41866 338.00000 370.22020
30.43179 302.00000 354.62597
30.44492 295.00000 340.70048
30.45805 303.00000 328.19157
30.47118 295.00000 316.90034
30.48431 318.00000 306.66587
30.49744 242.00000 297.35522
30.51057 261.00000 288.85679
30.52370 247.00000 281.07563
30.53683 288.00000 273.92982
30.54996 248.00000 267.34707
30.56310 204.00000 261.25821
30.57623 222.00000 255.59393
30.58936 217.00000 250.34256
30.60249 228.00000 245.55039
30.61562 217.00000 241.11157
30.62875 241.00000 236.98910
30.64188 217.00000 233.16232
30.65501 240.00000 229.61011
30.66814 211.00000 226.28003
30.68127 248.00000 223.17287
30.69440 202.00000 220.27375
30.70753 215.00000 217.55374
30.72066 208.00000 215.01778
30.73379 212.00000 212.65137
30.74692 199.00000 210.44291
30.76005 206.00000 208.38242
30.77318 196.00000 206.45825
30.78631 209.00000 204.64198
30.79944 216.00000 202.92572
30.81257 187.00000 201.38147
30.82570 179.00000 200.00003
30.83883 212.00000 198.74781
30.85196 184.00000 197.61864
30.86509 238.00000 196.62130
30.87822 195.00000 195.75189
30.89135 224.00000 195.01647
30.90448 195.00000 194.42212
30.91761 208.00000 193.95646
30.93074 222.00000 193.63186
30.94387 179.00000 193.46820
30.95700 196.00000 193.48332
30.97013 203.00000 193.70026
30.98326 197.00000 194.15001
30.99639 223.00000 194.87439
31.00952 200.00000 195.92996
31.02266 194.00000 197.39358
31.03579 206.00000 199.36878
31.04892 194.00000 201.98457
31.06205 234.00000 205.40156
31.07518 241.00000 209.84463
31.08831 239.00000 215.57542
31.10144 259.00000 222.89330
31.11457 221.00000 232.11926
31.12770 243.00000 243.56482
31.14083 291.00000 257.48428
31.15396 317.00000 274.00942
31.16709 294.00000 293.06640
31.18022 324.00000 314.27470
31.19335 343.00000 336.82904
31.20648 356.00000 359.37671
31.21961 383.00000 379.94520
31.23274 361.00000 396.05867
31.24587 413.00000 405.24360
31.25900 431.00000 405.95956
31.27213 427.00000 398.49782
31.28526 421.00000 385.06875
31.29839 367.00000 368.86367
31.31152 383.00000 352.81748
31.32465 368.00000 338.87522
31.33778 335.00000 327.87634
31.35091 352.00000 319.74134
31.36404 301.00000 313.70605
31.37717 351.00000 308.55993
31.39030 327.00000 302.96869
31.40343 306.00000 295.91658
31.41656 297.00000 287.10635
31.42969 307.00000 277.02759
31.44282 275.00000 266.62170
31.45595 296.00000 256.82701
31.46908 275.00000 248.31150
31.48222 233.00000 241.44764
31.49535 283.00000 236.39016
31.50848 264.00000 233.17292
31.52161 247.00000 231.78160
31.53474 242.00000 232.20471
31.54787 256.00000 234.47118
31.56100 234.00000 238.67906
31.57413 284.00000 245.01560
31.58726 297.00000 253.76710
31.60039 300.00000 265.31336
31.61352 317.00000 280.10115
31.62665 347.00000 298.61550
31.63978 337.00000 321.30537
31.65291 388.00000 348.49647
31.66604 436.00000 380.28236
31.67917 455.00000 416.36542
31.69230 540.00000 455.87944
31.70543 557.00000 497.19656
31.71856 627.00000 537.78928
31.73169 661.00000 574.36099
31.74482 708.00000 603.54872
31.75795 757.00000 623.22209
31.77108 753.00000 633.65129
31.78421 724.00000 637.40982
31.79734 639.00000 637.76935
31.81047 617.00000 636.76472
31.82360 607.00000 634.16900
31.83673 554.00000 627.68816
31.84986 565.00000 614.17089
31.86299 564.00000 591.42745
31.87612 602.00000 559.76762
31.88925 592.00000 522.22157
31.90238 510.00000 482.99694
31.91551 493.00000 445.79660
31.92864 477.00000 413.00512
31.94177 454.00000 385.75813
31.95491 470.00000 364.35928
31.96804 444.00000 348.65079
31.98117 414.00000 338.23131
31.99430 416.00000 332.68228
32.00743 419.00000 331.64914
32.02056 406.00000 334.91336
32.03369 412.00000 342.43659
32.04682 390.00000 354.37704
32.05995 390.00000 371.07591
32.07308 456.00000 393.01163
32.08621 466.00000 420.71953
32.09934 512.00000 454.67519
32.11247 488.00000 495.14058
32.12560 509.00000 541.97177
32.13873 598.00000 594.38683
32.15186 601.00000 650.70611
32.16499 713.00000 708.07249
32.17812 734.00000 762.22294
32.19125 770.00000 807.74688
32.20438 893.00000 839.11566
32.21751 869.00000 852.67589
32.23064 877.00000 848.72023
32.24377 886.00000 831.99273
32.25690 929.00000 809.98363
32.27003 976.00000 790.37051
32.28316 983.00000 779.39757
32.29629 1009.00000 781.66735
32.30942 1101.00000 800.72113
32.32255 1250.00000 839.74956
32.33568 1320.00000 902.14174
32.34881 1509.00000 991.81715
32.36194 1734.00000 1113.33639
32.37507 1879.00000 1271.76678
32.38820 2131.00000 1472.26003
32.40133 2351.00000 1719.30141
32.41447 2589.00000 2015.60725
32.42760 2833.00000 2360.66220
32.44073 3103.00000 2748.88889
32.45386 3378.00000 3167.45295
32.46699 3548.00000 3593.86193
32.48012 3811.00000 3994.12747
32.49325 4032.00000 4323.43108
32.50638 4032.00000 4532.62965
32.51951 4001.00000 4583.07035
32.53264 3870.00000 4464.69050
32.54577 3834.00000 4204.99305
32.55890 3566.00000 3859.44013
32.57203 3461.00000 3489.53526
32.58516 3123.00000 3144.43776
32.59829 3006.00000 2854.36006
32.61142 2864.00000 2632.46735
32.62455 2642.00000 2479.10411
32.63768 2560.00000 2385.11782
32.65081 2440.00000 2333.70295
32.66394 2463.00000 2302.04131
32.67707 2376.00000 2263.97275
32.69020 2426.00000 2195.33639
32.70333 2167.00000 2081.42700
32.71646 1983.00000 1922.49498
32.72959 1823.00000 1732.36149
32.74272 1513.00000 1530.64323
32.75585 1268.00000 1334.56326
32.76898 1105.00000 1155.32652
32.78211 939.00000 998.34341
32.79524 744.00000 864.98861
32.80837 686.00000 754.23826
32.82150 574.00000 663.79034
32.83463 534.00000 590.76974
32.84776 470.00000 532.17702
32.86089 461.00000 485.17392
32.87402 406.00000 447.24921
32.88716 398.00000 416.29020
32.90029 401.00000 390.58503
32.91342 378.00000 368.80621
32.92655 361.00000 349.98135
32.93968 299.00000 333.45095
32.95281 296.00000 318.81436
32.96594 298.00000 305.84809
32.97907 288.00000 294.42388
32.99220 276.00000 284.45558
33.00533 256.00000 275.87959
33.01846 240.00000 268.65402
33.03159 245.00000 262.76213
33.04472 259.00000 258.22383
33.05785 219.00000 255.09437
33.07098 236.00000 253.46230
33.08411 220.00000 253.44199
33.09724 218.00000 255.15791
33.11037 231.00000 258.71960
33.12350 240.00000 264.18603
33.13663 223.00000 271.51869
33.14976 220.00000 280.52351
33.16289 230.00000 290.78006
33.17602 224.00000 301.56293
33.18915 235.00000 311.77882
33.20228 220.00000 319.98259
33.21541 213.00000 324.57958
33.22854 236.00000 324.28435
33.24167 205.00000 318.69752
33.25480 200.00000 308.60899
33.26793 204.00000 295.72023
33.28106 212.00000 281.96664
33.29419 191.00000 268.93987
33.30732 206.00000 257.68683
33.32045 204.00000 248.79347
33.33358 222.00000 242.55612
33.34672 201.00000 239.13058
33.35985 204.00000 238.63630
33.37298 208.00000 241.22461
33.38611 229.00000 247.11973
33.39924 259.00000 256.63423
33.41237 241.00000 270.15620
33.42550 255.00000 288.10425
33.43863 278.00000 310.84725
33.45176 332.00000 338.58695
33.46489 369.00000 371.20239
33.47802 389.00000 408.05531
33.49115 454.00000 447.75021
33.50428 527.00000 487.86750
33.51741 533.00000 524.78079
33.53054 556.00000 553.77838
33.54367 621.00000 569.86413
33.55680 643.00000 569.38109
33.56993 592.00000 551.79329
33.58306 537.00000 520.26672
33.59619 513.00000 480.40416
33.60932 457.00000 438.00321
33.62245 370.00000 397.48269
33.63558 326.00000 361.49315
33.64871 288.00000 331.26606
33.66184 260.00000 307.12523
33.67497 226.00000 288.89339
33.68810 226.00000 276.16236
33.70123 233.00000 268.46744
33.71436 246.00000 265.41387
33.72749 219.00000 266.75477
33.74062 264.00000 272.45202
33.75375 285.00000 282.70607
33.76688 296.00000 297.95513
33.78001 315.00000 318.85820
33.79314 324.00000 346.24893
33.80628 377.00000 381.04736
33.81941 393.00000 424.10685
33.83254 524.00000 475.98157
33.84567 575.00000 536.61905
33.85880 674.00000 604.98815
33.87193 715.00000 678.64500
33.88506 882.00000 753.26377
33.89819 918.00000 822.28292
33.91132 1006.00000 877.07821
33.92445 1042.00000 908.31268
33.93758 1064.00000 908.78763
33.95071 989.00000 876.76687
33.96384 897.00000 817.38600
33.97697 827.00000 740.64101
33.99010 652.00000 657.37337
34.00323 530.00000 576.10996
34.01636 461.00000 502.07605
34.02949 406.00000 437.71882
34.04262 307.00000 383.64106
34.05575 294.00000 339.37229
34.06888 263.00000 303.88014
34.08201 250.00000 275.89198
34.09514 213.00000 254.10007
34.10827 236.00000 237.29149
34.12140 182.00000 224.42296
34.13453 188.00000 214.65322
34.14766 193.00000 207.34511
34.16079 190.00000 202.04921
34.17392 194.00000 198.47999
34.18705 168.00000 196.49236
34.20018 215.00000 196.06308
34.21331 191.00000 197.27830
34.22644 167.00000 200.32537
34.23957 173.00000 205.48528
34.25270 186.00000 213.11964
34.26583 183.00000 223.64682
34.27897 212.00000 237.50096
34.29210 246.00000 255.06892
34.30523 244.00000 276.60113
34.31836 305.00000 302.09217
34.33149 309.00000 331.12672
34.34462 347.00000 362.68726
34.35775 427.00000 394.93626
34.37088 458.00000 425.04063
34.38401 477.00000 449.22144
34.39714 480.00000 463.32369
34.41027 495.00000 464.06971
34.42340 500.00000 450.56305
34.43653 487.00000 424.97294
34.44966 399.00000 391.68044
34.46279 405.00000 355.48914
34.47592 335.00000 320.19485
34.48905 325.00000 288.13106
34.50218 248.00000 260.40107
34.51531 228.00000 237.29946
34.52844 217.00000 218.66121
34.54157 220.00000 204.09274
34.55470 230.00000 193.11661
34.56783 218.00000 185.26254
34.58096 223.00000 180.12309
34.59409 199.00000 177.38208
34.60722 182.00000 176.81931
34.62035 222.00000 178.29572
34.63348 217.00000 181.72305
34.64661 229.00000 187.01854
34.65974 247.00000 194.04968
34.67287 222.00000 202.56824
34.68600 248.00000 212.13358
34.69913 305.00000 222.03117
34.71226 295.00000 231.21242
34.72539 283.00000 238.32291
34.73853 296.00000 241.92036
34.75166 284.00000 240.92264
34.76479 301.00000 235.10792
34.77792 286.00000 225.29973
34.79105 278.00000 213.03648
34.80418 247.00000 199.94337
34.81731 247.00000 187.25869
34.83044 213.00000 175.75139
34.84357 217.00000 165.77039
34.85670 192.00000 157.39139
34.86983 203.00000 150.53458
34.88296 213.00000 145.04041
34.89609 219.00000 140.71651
34.90922 161.00000 137.36716
34.92235 159.00000 134.81168
34.93548 165.00000 132.89469
34.94861 192.00000 131.49030
34.96174 158.00000 130.50188
34.97487 156.00000 129.85906
34.98800 153.00000 129.51353
35.00113 164.00000 129.43474
35.01426 154.00000 129.60614
35.02739 147.00000 130.02253
35.04052 155.00000 130.68834
35.05365 156.00000 131.61705
35.06678 158.00000 132.83159
35.07991 139.00000 134.36584
35.09304 157.00000 136.26732
35.10617 173.00000 138.60130
35.11930 172.00000 141.45675
35.13243 167.00000 144.95428
35.14556 185.00000 149.25649
35.15869 164.00000 154.58034
35.17182 181.00000 161.21082
35.18495 185.00000 169.51457
35.19809 193.00000 179.94705
35.21122 216.00000 193.04065
35.22435 192.00000 209.40301
35.23748 222.00000 229.68494
35.25061 224.00000 254.49862
35.26374 247.00000 284.32404
35.27687 260.00000 319.40068
35.29000 298.00000 359.48246
35.30313 378.00000 403.61607
35.31626 429.00000 449.91689
35.32939 504.00000 495.25575
35.34252 527.00000 535.11054
35.35565 592.00000 563.89249
35.36878 596.00000 576.15899
35.38191 629.00000 568.66661
35.39504 612.00000 542.16584
35.40817 570.00000 501.36029
35.42130 493.00000 452.86431
35.43443 418.00000 402.76266
35.44756 320.00000 355.30445
35.46069 267.00000 312.83141
35.47382 242.00000 276.27520
35.48695 187.00000 245.69126
35.50008 166.00000 220.64545
35.51321 176.00000 200.45960
35.52634 176.00000 184.36574
35.53947 150.00000 171.60436
35.55260 151.00000 161.48381
35.56573 158.00000 153.41243
35.57886 131.00000 146.90903
35.59199 142.00000 141.59801
35.60512 131.00000 137.19563
35.61825 134.00000 133.49241
35.63138 139.00000 130.33565
35.64451 120.00000 127.61428
35.65764 126.00000 125.24678
35.67078 129.00000 123.17231
35.68391 128.00000 121.34454
35.69704 107.00000 119.72759
35.71017 116.00000 118.29417
35.72330 147.00000 117.02375
35.73643 132.00000 115.89070
35.74956 111.00000 114.86717
35.76269 126.00000 113.94716
35.77582 121.00000 113.12130
35.78895 117.00000 112.37967
35.80208 132.00000 111.71364
35.81521 103.00000 111.11580
35.82834 123.00000 110.57975
35.84147 115.00000 110.09995
35.85460 118.00000 109.67149
35.86773 126.00000 109.28993
35.88086 149.00000 108.95040
35.89399 122.00000 108.64943
35.90712 119.00000 108.39220
35.92025 156.00000 108.17377
35.93338 136.00000 107.99105
35.94651 131.00000 107.84184
35.95964 102.00000 107.72503
35.97277 133.00000 107.63909
35.98590 127.00000 107.58329
35.99903 125.00000 107.55747
36.01216 107.00000 107.56148
36.02529 125.00000 107.59543
36.03842 120.00000 107.65977
36.05155 113.00000 107.75545
36.06468 130.00000 107.88450
36.07781 115.00000 108.05128
36.09094 120.00000 108.25537
36.10407 113.00000 108.48091
36.11720 134.00000 108.74136
36.13034 104.00000 109.04032
36.14347 120.00000 109.38034
36.15660 127.00000 109.76443
36.16973 114.00000 110.19612
36.18286 128.00000 110.67951
36.19599 126.00000 111.21941
36.20912 134.00000 111.82135
36.22225 123.00000 112.49163
36.23538 148.00000 113.23690
36.24851 135.00000 114.06060
36.26164 117.00000 114.97478
36.27477 129.00000 116.03611
36.28790 141.00000 117.23618
36.30103 105.00000 118.60156
36.31416 124.00000 120.16192
36.32729 135.00000 121.95975
36.34042 149.00000 124.05099
36.35355 150.00000 126.50921
36.36668 137.00000 129.43045
36.37981 121.00000 132.93809
36.39294 134.00000 137.18686
36.40607 146.00000 142.36438
36.41920 138.00000 148.68839
36.43233 180.00000 156.39744
36.44546 158.00000 165.73268
36.45859 170.00000 176.90900
36.47172 160.00000 190.07317
36.48485 196.00000 205.24658
36.49798 215.00000 222.24940
36.51111 221.00000 240.60423
36.52424 273.00000 259.42899
36.53737 257.00000 277.36187
36.55050 288.00000 292.62223
36.56363 326.00000 303.35290
36.57676 336.00000 308.28262
36.58989 327.00000 307.42741
36.60303 355.00000 302.29531
36.61616 326.00000 295.35032
36.62929 315.00000 289.12305
36.64242 309.00000 285.55582
36.65555 309.00000 285.79204
36.66868 279.00000 290.23274
36.68181 285.00000 298.62037
36.69494 272.00000 310.12862
36.70807 345.00000 323.37622
36.72120 330.00000 336.48853
36.73433 348.00000 347.29229
36.74746 351.00000 353.75215
36.76059 356.00000 354.57029
36.77372 332.00000 349.70664
36.78685 332.00000 340.44392
36.79998 359.00000 328.80740
36.81311 353.00000 316.63852
36.82624 322.00000 305.07816
36.83937 325.00000 294.32918
36.85250 301.00000 283.91510
36.86563 328.00000 273.16391
36.87876 321.00000 261.70036
36.89189 311.00000 249.71976
36.90502 295.00000 237.88221
36.91815 290.00000 226.96672
36.93128 234.00000 217.57065
36.94441 241.00000 210.00251
36.95754 215.00000 204.31876
36.97067 209.00000 200.39476
36.98380 226.00000 197.97198
36.99693 202.00000 196.72383
37.01006 212.00000 196.26730
37.02319 194.00000 196.28869
37.03632 195.00000 196.81601
37.04945 210.00000 197.52769
37.06259 216.00000 198.47635
37.07572 216.00000 199.81986
37.08885 204.00000 201.84616
37.10198 200.00000 204.89274
37.11511 214.00000 209.29791
37.12824 191.00000 215.39668
37.14137 212.00000 223.55302
37.15450 236.00000 234.20655
37.16763 229.00000 247.91952
37.18076 255.00000 265.41773
37.19389 283.00000 287.61884
37.20702 276.00000 315.63672
37.22015 328.00000 350.76563
37.23328 330.00000 394.40928
37.24641 398.00000 447.97399
37.25954 456.00000 512.70178
37.27267 530.00000 589.24357
37.28580 570.00000 677.39521
37.29893 738.00000 775.53472
37.31206 811.00000 879.94545
37.32519 872.00000 984.07994
37.33832 1069.00000 1078.09539
37.35145 1173.00000 1149.41676
37.36458 1328.00000 1185.28686
37.37771 1298.00000 1177.32984
37.39084 1235.00000 1125.85468
37.40397 1210.00000 1040.37431
37.41710 1030.00000 935.46966
37.43023 964.00000 825.25211
37.44336 744.00000 720.00715
37.45649 616.00000 625.62768
37.46962 508.00000 544.62945
37.48275 440.00000 477.40408
37.49588 355.00000 423.16756
37.50901 319.00000 380.55856
37.52215 260.00000 347.99181
37.53528 287.00000 323.86129
37.54841 266.00000 306.64698
37.56154 229.00000 294.95188
37.57467 258.00000 287.48508
37.58780 203.00000 283.00998
37.60093 246.00000 280.29073
37.61406 215.00000 278.09496
37.62719 235.00000 275.32201
37.64032 245.00000 271.26317
37.65345 219.00000 265.85319
37.66658 188.00000 259.69357
37.67971 199.00000 253.78565
37.69284 233.00000 249.16922
37.70597 210.00000 246.69180
37.71910 208.00000 246.95418
37.73223 192.00000 250.34596
37.74536 211.00000 257.08356
37.75849 230.00000 267.22245
37.77162 238.00000 280.57733
37.78475 258.00000 296.66203
37.79788 239.00000 314.55535
37.81101 293.00000 332.75601
37.82414 309.00000 349.10870
37.83727 304.00000 360.97162
37.85040 294.00000 365.81630
37.86353 354.00000 362.20138
37.87666 285.00000 350.56391
37.88979 304.00000 333.12025
37.90292 288.00000 312.86684
37.91605 244.00000 292.47304
37.92918 233.00000 273.73632
37.94231 195.00000 257.60113
37.95544 215.00000 244.41309
37.96857 205.00000 234.16865
37.98170 223.00000 226.68737
37.99484 202.00000 221.71679
38.00797 208.00000 218.99603
38.02110 196.00000 218.29770
38.03423 201.00000 219.45585
38.04736 228.00000 222.35312
38.06049 207.00000 226.91759
38.07362 235.00000 233.25380
38.08675 255.00000 241.53345
38.09988 264.00000 252.03143
38.11301 298.00000 265.14184
38.12614 299.00000 281.39053
38.13927 344.00000 301.44600
38.15240 343.00000 326.12264
38.16553 407.00000 356.36776
38.17866 431.00000 393.22192
38.19179 438.00000 437.74390
38.20492 501.00000 490.89925
38.21805 616.00000 553.42616
38.23118 641.00000 625.69623
38.24431 711.00000 707.55048
38.25744 777.00000 798.00675
38.27057 844.00000 894.71137
38.28370 905.00000 993.19297
38.29683 1091.00000 1086.33724
38.30996 1103.00000 1164.78837
38.32309 1180.00000 1218.85477
38.33622 1225.00000 1241.58244
38.34935 1238.00000 1231.31371
38.36248 1252.00000 1191.96881
38.37561 1308.00000 1131.24561
38.38874 1200.00000 1058.40760
38.40187 1118.00000 982.46661
38.41500 1024.00000 910.62666
38.42813 938.00000 847.28312
38.44126 915.00000 794.04560
38.45440 790.00000 750.76796
38.46753 735.00000 716.93707
38.48066 739.00000 692.72200
38.49379 744.00000 679.16007
38.50692 719.00000 677.56545
38.52005 732.00000 688.74472
38.53318 731.00000 712.46712
38.54631 758.00000 747.18493
38.55944 760.00000 789.81897
38.57257 820.00000 835.58903
38.58570 904.00000 878.17054
38.59883 895.00000 910.65184
38.61196 968.00000 927.51145
38.62509 948.00000 926.86214
38.63822 969.00000 911.29726
38.65135 916.00000 886.31340
38.66448 938.00000 857.26565
38.67761 836.00000 826.89991
38.69074 791.00000 794.69285
38.70387 757.00000 757.96105
38.71700 674.00000 714.03335
38.73013 648.00000 662.33922
38.74326 552.00000 605.11330
38.75639 458.00000 546.33784
38.76952 423.00000 489.96667
38.78265 355.00000 438.74502
38.79578 323.00000 393.99966
38.80891 277.00000 355.99044
38.82204 284.00000 324.35570
38.83517 235.00000 298.44281
38.84830 240.00000 277.50502
38.86143 227.00000 260.80630
38.87456 209.00000 247.67387
38.88769 199.00000 237.52534
38.90082 193.00000 229.86698
38.91396 185.00000 224.26551
38.92709 161.00000 220.36968
38.94022 198.00000 217.86251
38.95335 162.00000 216.42215
38.96648 183.00000 215.68687
38.97961 205.00000 215.26771
38.99274 172.00000 214.79217
39.00587 170.00000 214.00652
39.01900 184.00000 212.88749
39.03213 180.00000 211.67366
39.04526 179.00000 210.77625
39.05839 152.00000 210.63395
39.07152 173.00000 211.58439
39.08465 204.00000 213.81050
39.09778 186.00000 217.34647
39.11091 192.00000 222.07468
39.12404 196.00000 227.71309
39.13717 210.00000 233.80647
39.15030 245.00000 239.75464
39.16343 223.00000 244.93447
39.17656 236.00000 248.92909
39.18969 264.00000 251.77056
39.20282 236.00000 254.01713
39.21595 297.00000 256.57655
39.22908 262.00000 260.39622
39.24221 291.00000 266.21743
39.25534 266.00000 274.47231
39.26847 342.00000 285.27087
39.28160 315.00000 298.40068
39.29473 380.00000 313.30851
39.30786 364.00000 329.09467
39.32099 426.00000 344.60993
39.33412 425.00000 358.76333
39.34725 464.00000 371.03858
39.36038 475.00000 381.96414
39.37351 488.00000 393.15720
39.38665 514.00000 406.85825
39.39978 496.00000 425.30509
39.41291 541.00000 450.31804
39.42604 612.00000 483.15628
39.43917 599.00000 524.50337
39.45230 653.00000 574.48733
39.46543 704.00000 632.76412
39.47856 738.00000 698.66126
39.49169 776.00000 771.41881
39.50482 855.00000 850.09560
39.51795 916.00000 932.81064
39.53108 1009.00000 1015.41548
39.54421 1192.00000 1090.34045
39.55734 1214.00000 1146.68272
39.57047 1322.00000 1172.48323
39.58360 1279.00000 1159.15725
39.59673 1262.00000 1105.93952
39.60986 1178.00000 1020.93487
39.62299 1000.00000 917.56458
39.63612 822.00000 809.19977
39.64925 685.00000 705.63542
39.66238 562.00000 612.39521
39.67551 455.00000 531.68619
39.68864 350.00000 463.66153
39.70177 326.00000 407.38331
39.71490 277.00000 361.41911
39.72803 232.00000 324.18302
39.74116 204.00000 294.12721
39.75429 190.00000 269.84741
39.76742 203.00000 250.13331
39.78055 181.00000 233.97437
39.79368 177.00000 220.56527
39.80681 162.00000 209.38398
39.81994 162.00000 199.99812
39.83307 159.00000 192.01048
39.84621 145.00000 185.15361
39.85934 170.00000 179.23671
39.87247 153.00000 174.11565
39.88560 150.00000 169.67719
39.89873 146.00000 165.82739
39.91186 149.00000 162.48721
39.92499 136.00000 159.58490
39.93812 130.00000 157.04566
39.95125 159.00000 154.77172
39.96438 122.00000 152.67339
39.97751 141.00000 150.69538
39.99064 155.00000 148.79676
40.00377 137.00000 146.92972
40.01690 149.00000 145.10609
40.03003 138.00000 143.36977
40.04316 126.00000 141.77020
40.05629 132.00000 140.34495
40.06942 116.00000 139.10628
40.08255 138.00000 138.06787
40.09568 110.00000 137.23749
40.10881 119.00000 136.59257
40.12194 129.00000 136.14134
40.13507 124.00000 135.88629
40.14820 121.00000 135.83401
40.16133 134.00000 135.99891
40.17446 140.00000 136.39907
40.18759 146.00000 137.05847
40.20072 122.00000 138.00553
40.21385 137.00000 139.27785
40.22698 142.00000 140.91922
40.24011 147.00000 142.97782
40.25324 163.00000 145.50313
40.26637 144.00000 148.54286
40.27950 144.00000 152.13918
40.29263 156.00000 156.33078
40.30576 146.00000 161.16568
40.31890 177.00000 166.72227
40.33203 161.00000 173.11799
40.34516 163.00000 180.47772
40.35829 183.00000 188.85528
40.37142 186.00000 198.13118
40.38455 196.00000 207.91623
40.39768 191.00000 217.47677
40.41081 188.00000 225.71055
40.42394 223.00000 231.36218
40.43707 209.00000 233.38342
40.45020 196.00000 231.38543
40.46333 232.00000 225.90637
40.47646 223.00000 218.22206
40.48959 198.00000 209.83504
40.50272 167.00000 202.01770
40.51585 176.00000 195.63437
40.52898 172.00000 191.19069
40.54211 162.00000 188.96045
40.55524 161.00000 189.09081
40.56837 166.00000 191.66820
40.58150 182.00000 196.74665
40.59463 195.00000 204.33458
40.60776 189.00000 214.35415
40.62089 210.00000 226.57854
40.63402 260.00000 240.54021
40.64715 316.00000 255.41297
40.66028 299.00000 269.90940
40.67341 343.00000 282.29621
40.68654 321.00000 290.66426
40.69967 360.00000 293.51400
40.71280 347.00000 290.43695
40.72593 328.00000 282.41230
40.73906 328.00000 271.41714
40.75219 264.00000 259.61462
40.76532 274.00000 248.67455
40.77846 216.00000 239.50810
40.79159 218.00000 232.31532
40.80472 177.00000 226.74407
40.81785 199.00000 222.06884
40.83098 178.00000 217.40962
40.84411 190.00000 212.01734
40.85724 171.00000 205.55056
40.87037 187.00000 198.17843
40.88350 227.00000 190.42488
40.89663 194.00000 182.87825
40.90976 197.00000 175.99263
40.92289 186.00000 169.96823
40.93602 194.00000 164.81885
40.94915 193.00000 160.43765
40.96228 198.00000 156.67719
40.97541 227.00000 153.41178
40.98854 214.00000 150.57201
41.00167 182.00000 148.14176
41.01480 186.00000 146.12997
41.02793 155.00000 144.54325
41.04106 177.00000 143.37470
41.05419 163.00000 142.60648
41.06732 132.00000 142.21701
41.08045 138.00000 142.18726
41.09358 157.00000 142.50463
41.10671 162.00000 143.16531
41.11984 148.00000 144.17602
41.13297 139.00000 145.55592
41.14610 177.00000 147.33911
41.15923 130.00000 149.57811
41.17236 161.00000 152.34843
41.18549 149.00000 155.75384
41.19862 177.00000 159.93275
41.21175 174.00000 165.06466
41.22488 186.00000 171.37547
41.23802 174.00000 179.13970
41.25115 192.00000 188.67739
41.26428 216.00000 200.34224
41.27741 236.00000 214.49737
41.29054 238.00000 231.47387
41.30367 288.00000 251.50513
41.31680 310.00000 274.62673
41.32993 324.00000 300.55046
41.34306 336.00000 328.49366
41.35619 407.00000 356.90381
41.36932 425.00000 383.40771
41.38245 428.00000 404.98690
41.39558 477.00000 418.70963
41.40871 473.00000 422.94529
41.42184 481.00000 418.37827
41.43497 516.00000 407.93274
41.44810 520.00000 395.53709
41.46123 477.00000 384.66762
41.47436 417.00000 377.52527
41.48749 396.00000 374.90433
41.50062 380.00000 376.36952
41.51375 381.00000 380.47273
41.52688 319.00000 384.99264
41.54001 402.00000 387.30645
41.55314 366.00000 384.95183
41.56627 353.00000 376.28145
41.57940 340.00000 360.98486
41.59253 344.00000 340.21696
41.60566 314.00000 316.17554
41.61879 302.00000 291.29776
41.63192 271.00000 267.54283
41.64505 257.00000 246.10966
41.65818 235.00000 227.52556
41.67131 217.00000 211.85830
41.68444 189.00000 198.92694
41.69757 180.00000 188.43220
41.71071 181.00000 180.03168
41.72384 184.00000 173.37809
41.73697 156.00000 168.13468
41.75010 153.00000 163.97947
41.76323 131.00000 160.60327
41.77636 170.00000 157.71455
41.78949 155.00000 155.06028
41.80262 151.00000 152.46256
41.81575 129.00000 149.85025
41.82888 146.00000 147.25585
41.84201 128.00000 144.76311
41.85514 135.00000 142.45579
41.86827 149.00000 140.38417
41.88140 145.00000 138.56913
41.89453 145.00000 137.00975
41.90766 120.00000 135.69145
41.92079 127.00000 134.59410
41.93392 148.00000 133.69612
41.94705 148.00000 132.97653
41.96018 132.00000 132.41555
41.97331 147.00000 131.99448
41.98644 139.00000 131.69473
41.99957 131.00000 131.49646
42.01270 135.00000 131.37710
42.02583 173.00000 131.31072
42.03896 151.00000 131.27035
42.05209 133.00000 131.23266
42.06522 137.00000 131.18112
42.07835 151.00000 131.12255
42.09148 136.00000 131.07538
42.10461 148.00000 131.06278
42.11774 129.00000 131.10484
42.13087 122.00000 131.21503
42.14400 142.00000 131.40075
42.15713 141.00000 131.66556
42.17027 129.00000 132.01117
42.18340 131.00000 132.43855
42.19653 154.00000 132.94960
42.20966 146.00000 133.55157
42.22279 161.00000 134.25129
42.23592 151.00000 135.06369
42.24905 145.00000 136.00667
42.26218 163.00000 137.04091
42.27531 160.00000 138.18236
42.28844 167.00000 139.46671
42.30157 158.00000 140.91545
42.31470 178.00000 142.55109
42.32783 171.00000 144.39926
42.34096 169.00000 146.48813
42.35409 189.00000 148.84739
42.36722 199.00000 151.50652
42.38035 183.00000 154.49298
42.39348 206.00000 157.83125
42.40661 230.00000 161.54423
42.41974 186.00000 165.65758
42.43287 206.00000 170.20384
42.44600 208.00000 175.22122
42.45913 236.00000 180.74726
42.47226 241.00000 186.81902
42.48539 210.00000 193.49765
42.49852 235.00000 200.92306
42.51165 239.00000 209.37616
42.52478 236.00000 219.30695
42.53791 224.00000 231.30731
42.55104 279.00000 246.05005
42.56417 275.00000 264.23007
42.57730 296.00000 286.51653
42.59043 320.00000 313.49644
42.60356 384.00000 345.58301
42.61669 379.00000 382.87044
42.62983 408.00000 424.93284
42.64296 479.00000 470.59206
42.65609 509.00000 517.71663
42.66922 578.00000 563.13786
42.68235 552.00000 602.75221
42.69548 607.00000 631.86980
42.70861 592.00000 645.95569
42.72174 629.00000 641.91055
42.73487 587.00000 619.53458
42.74800 592.00000 582.12584
42.76113 474.00000 535.44743
42.77426 527.00000 485.65321
42.78739 439.00000 437.57755
42.80052 398.00000 394.14798
42.81365 362.00000 356.65989
42.82678 347.00000 325.34285
42.83991 271.00000 299.85503
42.85304 276.00000 279.60182
42.86617 239.00000 263.91567
42.87930 245.00000 252.16705
42.89243 246.00000 243.81683
42.90556 211.00000 238.45087
42.91869 197.00000 235.79736
42.93182 227.00000 235.69698
42.94495 230.00000 238.13161
42.95808 199.00000 243.20541
42.97121 234.00000 251.12402
42.98434 267.00000 262.16481
42.99747 280.00000 276.63173
43.01060 288.00000 294.78721
43.02373 287.00000 316.74994
43.03686 305.00000 342.34416
43.04999 330.00000 370.88872
43.06312 348.00000 400.93735
43.07625 371.00000 430.04894
43.08938 400.00000 454.78671
43.10252 419.00000 471.24071
43.11565 427.00000 476.21415
43.12878 438.00000 468.65239
43.14191 409.00000 450.34086
43.15504 370.00000 425.21415
43.16817 376.00000 397.75913
43.18130 376.00000 371.64400
43.19443 301.00000 349.19699
43.20756 333.00000 331.55295
43.22069 314.00000 319.01862
43.23382 333.00000 311.37271
43.24695 346.00000 308.02429
43.26008 340.00000 308.05635
43.27321 316.00000 310.21890
43.28634 392.00000 312.95993
43.29947 361.00000 314.59355
43.31260 366.00000 313.65222
43.32573 381.00000 309.32225
43.33886 424.00000 301.71944
43.35199 400.00000 291.80224
43.36512 365.00000 280.95791
43.37825 300.00000 270.51426
43.39138 321.00000 261.42784
43.40451 298.00000 254.21689
43.41764 291.00000 249.04984
43.43077 246.00000 245.88019
43.44390 263.00000 244.57752
43.45703 264.00000 245.04653
43.47016 286.00000 247.32401
43.48329 327.00000 251.62647
43.49642 289.00000 258.33428
43.50955 296.00000 267.93608
43.52268 315.00000 280.97156
43.53581 336.00000 297.98929
43.54894 364.00000 319.50177
43.56208 384.00000 345.90639
43.57521 428.00000 377.35105
43.58834 392.00000 413.51824
43.60147 453.00000 453.31401
43.61460 496.00000 494.47791
43.62773 488.00000 533.29986
43.64086 565.00000 564.74278
43.65399 551.00000 583.38180
43.66712 586.00000 585.26071
43.68025 563.00000 569.79985
43.69338 586.00000 540.30707
43.70651 494.00000 502.53045
43.71964 513.00000 462.35985
43.73277 453.00000 424.21502
43.74590 435.00000 390.65780
43.75903 426.00000 362.76397
43.77216 366.00000 340.65626
43.78529 399.00000 323.92901
43.79842 347.00000 311.88995
43.81155 357.00000 303.69103
43.82468 321.00000 298.42223
43.83781 351.00000 295.23646
43.85094 287.00000 293.52212
43.86407 300.00000 293.05039
43.87720 326.00000 293.98161
43.89033 304.00000 296.71161
43.90346 294.00000 301.68484
43.91659 291.00000 309.31170
43.92972 285.00000 320.00600
43.94285 330.00000 334.24465
43.95598 315.00000 352.53473
43.96911 369.00000 375.24924
43.98224 412.00000 402.37353
43.99537 404.00000 433.21287
44.00850 425.00000 466.08049
44.02163 480.00000 498.04065
44.03477 502.00000 524.92798
44.04790 516.00000 541.98688
44.06103 539.00000 545.29382
44.07416 550.00000 533.45641
44.08729 580.00000 508.43640
44.10042 541.00000 474.72873
44.11355 535.00000 437.47188
44.12668 474.00000 400.82633
44.13981 478.00000 367.36530
44.15294 423.00000 338.27565
44.16607 368.00000 313.81857
44.17920 348.00000 293.75701
44.19233 338.00000 277.63059
44.20546 304.00000 264.90840
44.21859 286.00000 255.06174
44.23172 295.00000 247.62401
44.24485 256.00000 242.19272
44.25798 271.00000 238.43777
44.27111 232.00000 236.10001
44.28424 293.00000 234.98497
44.29737 298.00000 234.95474
44.31050 275.00000 235.91958
44.32363 282.00000 237.83045
44.33676 286.00000 240.67580
44.34989 279.00000 244.46867
44.36302 283.00000 249.25566
44.37615 295.00000 255.12159
44.38928 303.00000 262.18567
44.40241 306.00000 270.60484
44.41554 329.00000 280.59756
44.42867 371.00000 292.44835
44.44180 376.00000 306.52689
44.45493 385.00000 323.30781
44.46806 440.00000 343.38938
44.48119 448.00000 367.52083
44.49433 531.00000 396.60743
44.50746 551.00000 431.71349
44.52059 604.00000 474.03849
44.53372 621.00000 524.85587
44.54685 720.00000 585.39092
44.55998 711.00000 656.60709
44.57311 847.00000 738.85899
44.58624 935.00000 831.37418
44.59937 1009.00000 931.57719
44.61250 1020.00000 1034.42684
44.62563 1112.00000 1132.22675
44.63876 1218.00000 1215.63335
44.65189 1287.00000 1276.30514
44.66502 1293.00000 1310.44289
44.67815 1345.00000 1321.11360
44.69128 1364.00000 1317.50019
44.70441 1406.00000 1311.32058
44.71754 1424.00000 1312.52785
44.73067 1362.00000 1326.30566
44.74380 1439.00000 1351.84526
44.75693 1375.00000 1382.43003
44.77006 1300.00000 1406.71761
44.78319 1312.00000 1411.69600
44.79632 1329.00000 1387.34863
44.80945 1259.00000 1331.22633
44.82258 1198.00000 1249.52116
44.83571 1166.00000 1153.69000
44.84884 1092.00000 1055.30937
44.86197 1045.00000 962.71366
44.87510 1047.00000 880.49755
44.88823 1025.00000 810.64273
44.90136 965.00000 753.69174
44.91449 867.00000 709.27326
44.92762 850.00000 676.10613
44.94075 835.00000 651.92715
44.95389 773.00000 633.56212
44.96702 758.00000 617.28404
44.98015 715.00000 599.61844
44.99328 706.00000 578.42578
45.00641 649.00000 553.62260
45.01954 629.00000 527.05994
45.03267 660.00000 501.38150
45.04580 577.00000 479.06391
45.05893 573.00000 461.82537
45.07206 510.00000 450.62904
45.08519 470.00000 445.89488
45.09832 491.00000 447.70971
45.11145 518.00000 455.88651
45.12458 468.00000 469.92655
45.13771 517.00000 488.90298
45.15084 536.00000 511.34403
45.16397 519.00000 535.22755
45.17710 517.00000 558.16964
45.19023 580.00000 577.74472
45.20336 549.00000 591.73862
45.21649 544.00000 598.28956
45.22962 542.00000 596.21375
45.24275 560.00000 585.69903
45.25588 557.00000 568.86443
45.26901 525.00000 549.44169
45.28214 505.00000 531.62213
45.29527 464.00000 518.90707
45.30840 466.00000 513.58420
45.32153 531.00000 516.73629
45.33466 508.00000 528.41972
45.34779 519.00000 547.73815
45.36092 501.00000 572.66324
45.37405 505.00000 599.77469
45.38718 603.00000 624.17693
45.40031 620.00000 640.03066
45.41344 657.00000 642.02845
45.42658 628.00000 627.45387
45.43971 637.00000 597.54714
45.45284 609.00000 556.97009
45.46597 512.00000 511.67113
45.47910 455.00000 466.74426
45.49223 378.00000 425.45054
45.50536 383.00000 389.33480
45.51849 338.00000 358.77082
45.53162 322.00000 333.48902
45.54475 298.00000 312.93424
45.55788 272.00000 296.45660
45.57101 264.00000 283.40064
45.58414 236.00000 273.13896
45.59727 270.00000 265.08003
45.61040 256.00000 258.67393
45.62353 233.00000 253.43568
45.63666 246.00000 248.99265
45.64979 273.00000 245.13171
45.66292 213.00000 241.81513
45.67605 241.00000 239.12130
45.68918 225.00000 237.10628
45.70231 259.00000 235.88408
45.71544 211.00000 235.52230
45.72857 236.00000 236.05564
45.74170 263.00000 237.50922
45.75483 268.00000 239.91320
45.76796 247.00000 243.31268
45.78109 268.00000 247.77509
45.79422 255.00000 253.39724
45.80735 243.00000 260.31399
45.82048 268.00000 268.71009
45.83361 284.00000 278.83605
45.84674 286.00000 291.02726
45.85987 323.00000 305.72395
45.87300 344.00000 323.49311
45.88614 332.00000 345.05789
45.89927 393.00000 371.31819
45.91240 405.00000 403.37140
45.92553 468.00000 442.51835
45.93866 521.00000 490.24143
45.95179 604.00000 548.12596
45.96492 637.00000 617.70485
45.97805 691.00000 700.14710
45.99118 797.00000 795.74937
46.00431 850.00000 903.21464
46.01744 1003.00000 1018.53461
46.03057 1070.00000 1133.85733
46.04370 1155.00000 1236.86040
46.05683 1220.00000 1311.89429
46.06996 1364.00000 1343.96607
46.08309 1321.00000 1324.79845
46.09622 1289.00000 1257.32834
46.10935 1238.00000 1154.86616
46.12248 1135.00000 1035.06467
46.13561 1023.00000 913.41059
46.14874 825.00000 800.02050
46.16187 723.00000 699.80155
46.17500 671.00000 614.07978
46.18813 564.00000 542.20855
46.20126 467.00000 482.65390
46.21439 419.00000 433.61617
46.22752 378.00000 393.33250
46.24065 335.00000 360.21204
46.25378 302.00000 332.88578
46.26691 301.00000 310.21326
46.28004 258.00000 291.26741
46.29317 265.00000 275.30863
46.30630 222.00000 261.75470
46.31943 217.00000 250.14969
46.33256 226.00000 240.13692
46.34570 207.00000 231.44965
46.35883 211.00000 223.88418
46.37196 231.00000 217.25826
46.38509 170.00000 211.43161
46.39822 164.00000 206.29096
46.41135 171.00000 201.75054
46.42448 187.00000 197.74554
46.43761 165.00000 194.20649
46.45074 191.00000 191.08090
46.46387 180.00000 188.32629
46.47700 197.00000 185.90738
46.49013 154.00000 183.79510
46.50326 155.00000 181.96574
46.51639 170.00000 180.40036
46.52952 163.00000 179.08441
46.54265 162.00000 178.00821
46.55578 176.00000 177.16554
46.56891 172.00000 176.54556
46.58204 156.00000 176.15096
46.59517 197.00000 175.98666
46.60830 165.00000 176.06066
46.62143 180.00000 176.38590
46.63456 170.00000 176.98192
46.64769 146.00000 177.87322
46.66082 179.00000 179.08326
46.67395 171.00000 180.65166
46.68708 184.00000 182.63457
46.70021 183.00000 185.10085
46.71334 162.00000 188.13052
46.72647 194.00000 191.83859
46.73960 176.00000 196.36852
46.75273 193.00000 201.89953
46.76586 182.00000 208.65564
46.77899 217.00000 216.91182
46.79212 219.00000 226.99689
46.80525 209.00000 239.28978
46.81839 241.00000 254.20384
46.83152 273.00000 272.15062
46.84465 293.00000 293.47228
46.85778 339.00000 318.32966
46.87091 390.00000 346.53705
46.88404 468.00000 377.34664
46.89717 458.00000 409.21033
46.91030 595.00000 439.58500
46.92343 620.00000 464.92438
46.93656 646.00000 481.17120
46.94969 694.00000 484.88943
46.96282 712.00000 474.76039
46.97595 687.00000 452.44813
46.98908 631.00000 422.01284
47.00221 593.00000 388.20926
47.01534 502.00000 354.92137
47.02847 404.00000 324.53297
47.04160 330.00000 298.09167
47.05473 289.00000 275.78341
47.06786 234.00000 257.33582
47.08099 213.00000 242.28830
47.09412 224.00000 230.13515
47.10725 219.00000 220.39149
47.12038 170.00000 212.61871
47.13351 189.00000 206.40848
47.14664 174.00000 201.38708
47.15977 171.00000 197.20854
47.17290 174.00000 193.56525
47.18603 190.00000 190.22134
47.19916 171.00000 187.06573
47.21229 169.00000 184.09337
47.22542 170.00000 181.36395
47.23855 159.00000 178.94545
47.25168 169.00000 176.88093
47.26481 174.00000 175.18280
47.27795 175.00000 173.84752
47.29108 158.00000 172.84969
47.30421 155.00000 172.16256
47.31734 167.00000 171.75916
47.33047 151.00000 171.64584
47.34360 153.00000 171.82743
47.35673 155.00000 172.28401
47.36986 153.00000 173.01597
47.38299 170.00000 174.03499
47.39612 152.00000 175.36127
47.40925 149.00000 177.02495
47.42238 179.00000 179.06791
47.43551 176.00000 181.54575
47.44864 174.00000 184.53229
47.46177 188.00000 188.12284
47.47490 177.00000 192.43864
47.48803 191.00000 197.63152
47.50116 195.00000 203.88790
47.51429 225.00000 211.43050
47.52742 174.00000 220.51530
47.54055 220.00000 231.41913
47.55368 229.00000 244.41079
47.56681 258.00000 259.69476
47.57994 285.00000 277.31338
47.59307 294.00000 296.99445
47.60620 333.00000 317.94801
47.61933 314.00000 338.66603
47.63246 323.00000 356.87055
47.64559 368.00000 369.83462
47.65872 391.00000 375.20212
47.67185 407.00000 372.03068
47.68498 454.00000 361.35727
47.69811 402.00000 345.76981
47.71124 359.00000 328.28409
47.72437 328.00000 311.35788
47.73750 311.00000 296.50539
47.75064 288.00000 284.41093
47.76377 259.00000 275.23551
47.77690 292.00000 268.87551
47.79003 234.00000 265.13556
47.80316 244.00000 263.82257
47.81629 274.00000 264.79275
47.82942 274.00000 267.97371
47.84255 290.00000 273.37504
47.85568 283.00000 281.09364
47.86881 322.00000 291.31597
47.88194 330.00000 304.31684
47.89507 322.00000 320.45207
47.90820 371.00000 340.14029
47.92133 400.00000 363.82720
47.93446 388.00000 391.92567
47.94759 410.00000 424.73138
47.96072 450.00000 462.32764
47.97385 497.00000 504.50888
47.98698 525.00000 550.74385
48.00011 650.00000 600.15121
48.01324 607.00000 651.43969
48.02637 727.00000 702.89125
48.03950 748.00000 752.65084
48.05263 853.00000 799.42878
48.06576 864.00000 843.06759
48.07889 897.00000 884.15395
48.09202 893.00000 922.70415
48.10515 1002.00000 956.98752
48.11828 986.00000 983.38002
48.13141 997.00000 997.16834
48.14454 976.00000 993.87928
48.15767 933.00000 970.94099
48.17080 1008.00000 929.14506
48.18393 881.00000 872.83836
48.19706 844.00000 808.49392
48.21020 756.00000 742.63762
48.22333 654.00000 680.28605
48.23646 629.00000 624.40950
48.24959 519.00000 576.17605
48.26272 474.00000 535.67344
48.27585 475.00000 502.62927
48.28898 425.00000 476.78910
48.30211 418.00000 457.99083
48.31524 397.00000 446.15759
48.32837 406.00000 441.26183
48.34150 439.00000 443.36681
48.35463 470.00000 452.66552
48.36776 451.00000 469.47871
48.38089 452.00000 494.17923
48.39402 483.00000 526.99406
48.40715 576.00000 567.72760
48.42028 610.00000 615.26766
48.43341 666.00000 666.94727
48.44654 692.00000 717.96230
48.45967 716.00000 761.33012
48.47280 836.00000 789.06669
48.48593 791.00000 794.82634
48.49906 888.00000 776.89744
48.51219 826.00000 739.36220
48.52532 873.00000 690.28196
48.53845 764.00000 638.30297
48.55158 669.00000 590.04090
48.56471 657.00000 549.28292
48.57784 585.00000 517.43393
48.59097 479.00000 494.27248
48.60410 468.00000 478.51657
48.61723 406.00000 468.14560
48.63036 403.00000 460.65316
48.64349 356.00000 453.43557
48.65662 375.00000 444.37113
48.66976 344.00000 432.34149
48.68289 365.00000 417.33343
48.69602 336.00000 400.03304
48.70915 344.00000 381.26839
48.72228 339.00000 361.75665
48.73541 332.00000 342.20351
48.74854 326.00000 323.39612
48.76167 312.00000 306.16357
48.77480 301.00000 291.14273
48.78793 271.00000 278.68577
48.80106 277.00000 268.90095
48.81419 229.00000 261.73046
48.82732 224.00000 257.08782
48.84045 208.00000 254.89188
48.85358 200.00000 255.06144
48.86671 227.00000 257.48858
48.87984 228.00000 261.98053
48.89297 243.00000 268.10946
48.90610 237.00000 275.11823
48.91923 273.00000 281.79742
48.93236 243.00000 286.54303
48.94549 269.00000 287.71812
48.95862 269.00000 284.28619
48.97175 239.00000 276.35190
48.98488 243.00000 265.13344
48.99801 265.00000 252.36063
49.01114 194.00000 239.57448
49.02427 232.00000 227.76805
49.03740 212.00000 217.39567
49.05053 184.00000 208.54803
49.06366 180.00000 201.12523
49.07679 182.00000 194.94003
49.08992 185.00000 189.80402
49.10305 166.00000 185.54711
49.11618 171.00000 182.02340
49.12931 165.00000 179.11436
49.14245 159.00000 176.72551
49.15558 158.00000 174.77127
49.16871 145.00000 173.20025
49.18184 167.00000 171.97146
49.19497 183.00000 171.05465
49.20810 159.00000 170.43071
49.22123 186.00000 170.09153
49.23436 154.00000 170.03663
49.24749 179.00000 170.26716
49.26062 148.00000 170.80030
49.27375 168.00000 171.67533
49.28688 176.00000 172.91247
49.30001 195.00000 174.54249
49.31314 184.00000 176.58120
49.32627 195.00000 179.07009
49.33940 180.00000 182.02604
49.35253 181.00000 185.42533
49.36566 179.00000 189.17215
49.37879 184.00000 193.06736
49.39192 188.00000 196.80792
49.40505 198.00000 200.05334
49.41818 175.00000 202.56104
49.43131 210.00000 204.32910
49.44444 189.00000 205.60715
49.45757 205.00000 206.78247
49.47070 229.00000 208.19195
49.48383 193.00000 210.02512
49.49696 222.00000 212.32910
49.51009 244.00000 215.06361
49.52322 202.00000 218.15159
49.53635 220.00000 221.52532
49.54948 243.00000 225.19996
49.56261 239.00000 229.36084
49.57574 224.00000 234.39214
49.58887 209.00000 240.80615
49.60201 226.00000 249.11964
49.61514 217.00000 259.74299
49.62827 221.00000 272.89010
49.64140 269.00000 288.47125
49.65453 269.00000 305.94136
49.66766 259.00000 324.13690
49.68079 288.00000 341.22646
49.69392 314.00000 354.96293
49.70705 300.00000 363.32196
49.72018 291.00000 365.27663
49.73331 335.00000 361.20406
49.74644 350.00000 352.66507
49.75957 320.00000 341.80853
49.77270 334.00000 330.78424
49.78583 312.00000 321.34517
49.79896 294.00000 314.67648
49.81209 277.00000 311.43366
49.82522 279.00000 311.88711
49.83835 277.00000 316.02683
49.85148 281.00000 323.54857
49.86461 298.00000 333.71865
49.87774 312.00000 345.22241
49.89087 293.00000 356.15508
49.90400 306.00000 364.32996
49.91713 324.00000 367.92381
49.93026 330.00000 366.12066
49.94339 308.00000 359.24502
49.95652 285.00000 348.32221
49.96965 300.00000 334.57094
49.98278 310.00000 319.20892
49.99591 287.00000 303.46391
50.00904 274.00000 288.48249
50.02217 229.00000 275.14243
50.03530 279.00000 263.94893
50.04843 213.00000 255.07380
50.06157 211.00000 248.47612
50.07470 218.00000 244.02122
50.08783 224.00000 241.56023
50.10096 197.00000 240.96860
50.11409 216.00000 242.15323
50.12722 207.00000 245.03496
50.14035 228.00000 249.50764
50.15348 210.00000 255.37482
50.16661 236.00000 262.26915
50.17974 231.00000 269.58570
50.19287 248.00000 276.48775
50.20600 264.00000 282.07351
50.21913 239.00000 285.71069
50.23226 281.00000 287.37224
50.24539 255.00000 287.70710
50.25852 281.00000 287.76724
50.27165 276.00000 288.61364
50.28478 267.00000 291.06615
50.29791 278.00000 295.67746
50.31104 249.00000 302.81841
50.32417 265.00000 312.79330
50.33730 275.00000 325.93280
50.35043 278.00000 342.65915
50.36356 301.00000 363.53629
50.37669 357.00000 389.29944
50.38982 383.00000 420.82952
50.40295 427.00000 459.28235
50.41608 493.00000 506.00271
50.42921 560.00000 562.46368
50.44234 597.00000 630.09927
50.45547 699.00000 709.95652
50.46860 836.00000 802.08508
50.48173 903.00000 904.59012
50.49486 1058.00000 1012.42001
50.50799 1227.00000 1116.30395
50.52112 1252.00000 1202.79640
50.53426 1449.00000 1256.68317
50.54739 1430.00000 1266.05415
50.56052 1458.00000 1227.81730
50.57365 1388.00000 1149.65793
50.58678 1262.00000 1046.54162
50.59991 1129.00000 934.42424
50.61304 969.00000 825.50204
50.62617 868.00000 726.79143
50.63930 684.00000 641.04448
50.65243 592.00000 568.36911
50.66556 513.00000 507.57535
50.67869 445.00000 457.03089
50.69182 371.00000 415.02568
50.70495 349.00000 380.05479
50.71808 346.00000 350.82694
50.73121 303.00000 326.27595
50.74434 260.00000 305.53622
50.75747 227.00000 287.91165
50.77060 215.00000 272.84515
50.78373 226.00000 259.89154
50.79686 227.00000 248.69469
50.80999 207.00000 238.96892
50.82312 192.00000 230.48404
50.83625 196.00000 223.05367
50.84938 168.00000 216.52606
50.86251 176.00000 210.77705
50.87564 194.00000 205.70455
50.88877 159.00000 201.22439
50.90190 179.00000 197.26698
50.91503 178.00000 193.77486
50.92816 170.00000 190.70070
50.94129 203.00000 188.00585
50.95442 165.00000 185.65927
50.96755 158.00000 183.63714
50.98068 168.00000 181.92354
50.99382 155.00000 180.50615
51.00695 166.00000 179.36284
51.02008 145.00000 178.49919
51.03321 146.00000 177.91971
51.04634 164.00000 177.63369
51.05947 137.00000 177.66179
51.07260 183.00000 178.03644
51.08573 150.00000 178.78854
51.09886 170.00000 179.96535
51.11199 160.00000 181.62858
51.12512 172.00000 183.85598
51.13825 187.00000 186.74266
51.15138 208.00000 190.40149
51.16451 182.00000 194.96065
51.17764 198.00000 200.55579
51.19077 191.00000 207.31272
51.20390 182.00000 215.31562
51.21703 225.00000 224.55668
51.23016 217.00000 234.86817
51.24329 219.00000 245.85356
51.25642 256.00000 256.86960
51.26955 264.00000 267.11366
51.28268 275.00000 275.85053
51.29581 276.00000 282.70318
51.30894 305.00000 287.79186
51.32207 300.00000 291.58907
51.33520 297.00000 294.56653
51.34833 283.00000 296.87582
51.36146 293.00000 298.21725
51.37459 298.00000 297.90135
51.38772 278.00000 295.05745
51.40085 281.00000 288.99381
51.41398 296.00000 279.59810
51.42711 258.00000 267.50929
51.44024 266.00000 253.90157
51.45337 284.00000 240.03592
51.46651 287.00000 226.89234
51.47964 260.00000 215.03924
51.49277 222.00000 204.69062
51.50590 238.00000 195.83089
51.51903 204.00000 188.32664
51.53216 211.00000 182.00071
51.54529 181.00000 176.67265
51.55842 202.00000 172.17705
51.57155 191.00000 168.36947
51.58468 189.00000 165.12949
51.59781 186.00000 162.35569
51.61094 197.00000 159.96399
51.62407 177.00000 157.89658
51.63720 169.00000 156.10823
51.65033 162.00000 154.54988
51.66346 161.00000 153.18441
51.67659 167.00000 151.98362
51.68972 166.00000 150.92468
51.70285 157.00000 149.98888
51.71598 139.00000 149.16082
51.72911 164.00000 148.42771
51.74224 151.00000 147.77890
51.75537 151.00000 147.20550
51.76850 120.00000 146.70000
51.78163 154.00000 146.25609
51.79476 139.00000 145.86841
51.80789 158.00000 145.53220
51.82102 152.00000 145.24360
51.83415 159.00000 145.00144
51.84728 134.00000 144.80218
51.86041 126.00000 144.64357
51.87354 140.00000 144.52399
51.88667 144.00000 144.44220
51.89980 151.00000 144.39731
51.91293 130.00000 144.38943
51.92607 147.00000 144.41888
51.93920 120.00000 144.48580
51.95233 141.00000 144.59186
51.96546 153.00000 144.73746
51.97859 134.00000 144.92053
51.99172 147.00000 145.14523
52.00485 156.00000 145.41449
52.01798 148.00000 145.73163
52.03111 138.00000 146.09877
52.04424 148.00000 146.51483
52.05737 157.00000 146.98457
52.07050 139.00000 147.53348
52.08363 168.00000 148.16249
52.09676 142.00000 148.87854
52.10989 149.00000 149.68767
52.12302 176.00000 150.60574
52.13615 153.00000 151.65037
52.14928 148.00000 152.84220
52.16241 153.00000 154.20596
52.17554 161.00000 155.77153
52.18867 157.00000 157.57470
52.20180 162.00000 159.65789
52.21493 157.00000 162.07054
52.22806 163.00000 164.86881
52.24119 156.00000 168.11264
52.25432 184.00000 171.86034
52.26745 179.00000 176.16511
52.28058 166.00000 181.05612
52.29371 159.00000 186.52278
52.30684 176.00000 192.50159
52.31997 188.00000 198.87528
52.33310 184.00000 205.49848
52.34623 167.00000 212.26173
52.35936 196.00000 219.17166
52.37249 190.00000 226.37404
52.38563 220.00000 234.08706
52.39876 205.00000 242.45223
52.41189 196.00000 251.37111
52.42502 236.00000 260.39239
52.43815 268.00000 268.70610
52.45128 204.00000 275.28734
52.46441 229.00000 279.19151
52.47754 220.00000 279.93284
52.49067 234.00000 277.74512
52.50380 234.00000 273.55095
52.51693 237.00000 268.64467
52.53006 242.00000 264.29962
52.54319 228.00000 261.51559
52.55632 285.00000 260.94821
52.56945 278.00000 262.96398
52.58258 293.00000 267.70598
52.59571 313.00000 275.12319
52.60884 380.00000 284.94644
52.62197 368.00000 296.62230
52.63510 383.00000 309.23555
52.64823 401.00000 321.48458
52.66136 437.00000 331.78265
52.67449 434.00000 338.44469
52.68762 440.00000 340.09688
52.70075 454.00000 336.07978
52.71388 436.00000 326.73731
52.72701 399.00000 313.30629
52.74014 333.00000 297.47336
52.75327 344.00000 280.86874
52.76640 313.00000 264.74629
52.77953 291.00000 249.90313
52.79266 243.00000 236.73290
52.80579 243.00000 225.34612
52.81892 238.00000 215.72411
52.83205 236.00000 207.71641
52.84518 223.00000 201.12936
52.85832 193.00000 195.78022
52.87145 217.00000 191.50213
52.88458 190.00000 188.14953
52.89771 196.00000 185.60114
52.91084 217.00000 183.75537
52.92397 201.00000 182.52322
52.93710 211.00000 181.82427
52.95023 222.00000 181.56423
52.96336 219.00000 181.63954
52.97649 204.00000 181.92903
52.98962 221.00000 182.28934
53.00275 243.00000 182.57740
53.01588 232.00000 182.68938
53.02901 222.00000 182.60573
53.04214 222.00000 182.38420
53.05527 222.00000 182.14163
53.06840 222.00000 182.01623
53.08153 222.00000 182.12991
53.09466 236.00000 182.57384
53.10779 222.00000 183.41177
53.12092 202.00000 184.69096
53.13405 243.00000 186.45346
53.14718 212.00000 188.74496
53.16031 248.00000 191.62112
53.17344 223.00000 195.14885
53.18657 267.00000 199.40409
53.19970 243.00000 204.48847
53.21283 259.00000 210.50562
53.22596 242.00000 217.56252
53.23909 276.00000 225.75810
53.25222 272.00000 235.17703
53.26535 297.00000 245.84103
53.27848 325.00000 257.69478
53.29161 318.00000 270.58572
53.30474 356.00000 284.23736
53.31788 318.00000 298.22260
53.33101 354.00000 311.94378
53.34414 358.00000 324.66279
53.35727 408.00000 335.64412
53.37040 402.00000 344.43954
53.38353 422.00000 351.18781
53.39666 441.00000 356.70550
53.40979 464.00000 362.29780
53.42292 424.00000 369.38835
53.43605 456.00000 379.17690
53.44918 429.00000 392.44926
53.46231 415.00000 409.49315
53.47544 457.00000 430.01753
53.48857 458.00000 453.13921
53.50170 468.00000 477.32670
53.51483 480.00000 500.41909
53.52796 445.00000 519.82081
53.54109 531.00000 532.97031
53.55422 478.00000 538.03630
53.56735 459.00000 534.53027
53.58048 493.00000 523.42256
53.59361 498.00000 506.67030
53.60674 499.00000 486.51975
53.61987 497.00000 464.99987
53.63300 480.00000 443.70351
53.64613 431.00000 423.70529
53.65926 450.00000 405.52427
53.67239 383.00000 389.15212
53.68552 397.00000 374.20525
53.69865 357.00000 360.18923
53.71178 357.00000 346.77322
53.72491 378.00000 333.93734
53.73804 345.00000 321.95496
53.75117 321.00000 311.22760
53.76430 298.00000 302.11992
53.77744 283.00000 294.87690
53.79057 290.00000 289.62153
53.80370 325.00000 286.39542
53.81683 303.00000 285.20384
53.82996 302.00000 286.05033
53.84309 311.00000 288.96859
53.85622 307.00000 294.02792
53.86935 333.00000 301.33760
53.88248 330.00000 311.04215
53.89561 325.00000 323.29125
53.90874 318.00000 338.25800
53.92187 354.00000 356.08655
53.93500 381.00000 376.83453
53.94813 386.00000 400.38410
53.96126 425.00000 426.31311
53.97439 490.00000 453.75200
53.98752 456.00000 481.30379
54.00065 559.00000 507.15023
54.01378 555.00000 529.45035
54.02691 602.00000 546.98923
54.04004 522.00000 559.79040
54.05317 593.00000 569.29568
54.06630 584.00000 577.94819
54.07943 573.00000 588.41778
54.09256 615.00000 602.86962
54.10569 568.00000 622.49812
54.11882 621.00000 647.30514
54.13195 580.00000 676.00120
54.14508 623.00000 706.00655
54.15821 599.00000 733.48667
54.17134 608.00000 754.08933
54.18447 615.00000 764.02686
54.19760 625.00000 761.37498
54.21073 684.00000 746.91948
54.22386 654.00000 723.94705
54.23699 640.00000 697.08994
54.25013 642.00000 670.96473
54.26326 608.00000 649.27359
54.27639 665.00000 634.53829
54.28952 644.00000 628.24696
54.30265 598.00000 631.12870
54.31578 608.00000 643.33284
54.32891 649.00000 664.47470
54.34204 654.00000 693.52892
54.35517 682.00000 728.61147
54.36830 710.00000 766.73614
54.38143 767.00000 803.73821
54.39456 826.00000 834.56019
54.40769 831.00000 854.13286
54.42082 882.00000 858.76035
54.43395 818.00000 847.43848
54.44708 844.00000 822.29376
54.46021 798.00000 787.77989
54.47334 735.00000 749.07314
54.48647 713.00000 710.55939
54.49960 684.00000 674.99406
54.51273 576.00000 643.35642
54.52586 545.00000 615.15223
54.53899 551.00000 588.95643
54.55212 500.00000 563.08694
54.56525 470.00000 536.28144
54.57838 517.00000 508.15484
54.59151 448.00000 479.23795
54.60464 424.00000 450.62281
54.61777 390.00000 423.47655
54.63090 374.00000 398.69628
54.64403 399.00000 376.79446
54.65716 309.00000 357.93727
54.67029 369.00000 342.08266
54.68342 306.00000 329.05242
54.69655 296.00000 318.63760
54.70969 353.00000 310.63986
54.72282 316.00000 304.88591
54.73595 333.00000 301.24438
54.74908 299.00000 299.63126
54.76221 326.00000 300.00921
54.77534 334.00000 302.38405
54.78847 309.00000 306.80056
54.80160 348.00000 313.33957
54.81473 319.00000 322.11634
54.82786 306.00000 333.27680
54.84099 378.00000 346.98406
54.85412 349.00000 363.38557
54.86725 354.00000 382.55477
54.88038 414.00000 404.40142
54.89351 445.00000 428.54735
54.90664 492.00000 454.17356
54.91977 476.00000 479.87272
54.93290 557.00000 503.58603
54.94603 605.00000 522.75402
54.95916 632.00000 534.77600
54.97229 673.00000 537.72823
54.98542 632.00000 531.05617
54.99855 621.00000 515.82742
55.01168 609.00000 494.36690
55.02481 583.00000 469.49787
55.03794 508.00000 443.83047
55.05107 491.00000 419.29951
55.06420 487.00000 397.12946
55.07733 454.00000 377.94899
55.09046 432.00000 361.99440
55.10359 422.00000 349.25874
55.11672 392.00000 339.61392
55.12985 403.00000 332.88960
55.14298 444.00000 328.92159
55.15611 439.00000 327.58098
55.16924 435.00000 328.79709
55.18238 452.00000 332.56090
55.19551 475.00000 338.93140
55.20864 454.00000 348.07266
55.22177 491.00000 360.23766
55.23490 463.00000 375.77420
55.24803 558.00000 395.12647
55.26116 511.00000 418.83023
55.27429 548.00000 447.49937
55.28742 577.00000 481.80009
55.30055 614.00000 522.40336
55.31368 631.00000 569.90570
55.32681 685.00000 624.70062
55.33994 751.00000 686.78177
55.35307 703.00000 755.46420
55.36620 783.00000 829.02956
55.37933 723.00000 904.34819
55.39246 771.00000 976.61440
55.40559 811.00000 1039.43688
55.41872 737.00000 1085.59045
55.43185 822.00000 1108.58270
55.44498 790.00000 1104.67970
55.45811 775.00000 1074.41913
55.47124 807.00000 1022.60241
55.48437 798.00000 956.66721
55.49750 741.00000 884.42516
55.51063 762.00000 812.34396
55.52376 744.00000 744.86435
55.53689 718.00000 684.52763
55.55002 668.00000 632.47632
55.56315 722.00000 588.95579
55.57628 669.00000 553.70543
55.58941 615.00000 526.21048
55.60254 584.00000 505.84621
55.61567 575.00000 491.95156
55.62880 563.00000 483.86747
55.64194 600.00000 480.96964
55.65507 577.00000 482.71708
55.66820 591.00000 488.73181
55.68133 569.00000 498.87694
55.69446 573.00000 513.28248
55.70759 578.00000 532.27448
55.72072 619.00000 556.20208
55.73385 590.00000 585.19430
55.74698 614.00000 618.88538
55.76011 634.00000 656.15758
55.77324 684.00000 694.89645
55.78637 716.00000 731.89784
55.79950 709.00000 763.10955
55.81263 730.00000 784.32374
55.82576 780.00000 792.27714
55.83889 705.00000 785.73720
55.85202 721.00000 765.97833
55.86515 719.00000 736.30970
55.87828 682.00000 700.90756
55.89141 660.00000 663.61910
55.90454 627.00000 627.23910
55.91767 646.00000 593.35287
55.93080 600.00000 562.54165
55.94393 519.00000 534.70901
55.95706 519.00000 509.37789
55.97019 518.00000 485.92469
55.98332 424.00000 463.75024
55.99645 482.00000 442.38280
56.00958 451.00000 421.51523
56.02271 405.00000 401.00371
56.03584 378.00000 380.86394
56.04897 385.00000 361.26542
56.06210 358.00000 342.49020
56.07523 341.00000 324.85447
56.08836 327.00000 308.62403
56.10150 331.00000 293.96174
56.11463 339.00000 280.91994
56.12776 292.00000 269.46423
56.14089 278.00000 259.49582
56.15402 259.00000 250.88887
56.16715 262.00000 243.50676
56.18028 246.00000 237.22408
56.19341 242.00000 231.94109
56.20654 221.00000 227.53763
56.21967 247.00000 223.91837
56.23280 238.00000 221.01982
56.24593 232.00000 218.78486
56.25906 212.00000 217.14823
56.27219 285.00000 216.06710
56.28532 247.00000 215.48801
56.29845 234.00000 215.35075
56.31158 236.00000 215.58069
56.32471 244.00000 216.08193
56.33784 234.00000 216.73915
56.35097 230.00000 217.43277
56.36410 209.00000 218.05926
56.37723 260.00000 218.56522
56.39036 228.00000 218.97394
56.40349 222.00000 219.38039
56.41662 237.00000 219.92555
56.42975 267.00000 220.76318
56.44288 233.00000 222.03356
56.45601 226.00000 223.84906
56.46914 242.00000 226.31173
56.48227 225.00000 229.51734
56.49540 258.00000 233.56805
56.50853 259.00000 238.57714
56.52166 268.00000 244.67004
56.53479 233.00000 251.97500
56.54792 274.00000 260.60967
56.56105 299.00000 270.66286
56.57419 303.00000 282.16678
56.58732 348.00000 295.06509
56.60045 348.00000 309.19742
56.61358 378.00000 324.20025
56.62671 345.00000 339.50660
56.63984 386.00000 354.40537
56.65297 447.00000 368.16522
56.66610 412.00000 380.24647
56.67923 455.00000 390.51903
56.69236 539.00000 399.36674
56.70549 494.00000 407.60087
56.71862 474.00000 416.21848
56.73175 484.00000 426.12580
56.74488 464.00000 437.95163
56.75801 487.00000 451.98359
56.77114 469.00000 468.20408
56.78427 463.00000 486.35262
56.79740 468.00000 505.93567
56.81053 494.00000 526.16919
56.82366 467.00000 545.89028
56.83679 475.00000 563.54890
56.84992 485.00000 577.38546
56.86305 503.00000 585.78591
56.87618 493.00000 587.66903
56.88931 480.00000 582.72745
56.90244 506.00000 571.40798
56.91557 510.00000 554.72909
56.92870 480.00000 534.07617
56.94183 494.00000 511.03661
56.95496 437.00000 487.25044
56.96809 438.00000 464.24780
56.98122 448.00000 443.30421
56.99435 368.00000 425.36566
57.00748 391.00000 411.05824
57.02061 386.00000 400.75400
57.03375 345.00000 394.65572
57.04688 363.00000 392.87220
57.06001 378.00000 395.45907
57.07314 333.00000 402.44256
57.08627 352.00000 413.81866
57.09940 358.00000 429.52141
57.11253 416.00000 449.36339
57.12566 475.00000 472.94707
57.13879 470.00000 499.55417
57.15192 522.00000 528.04070
57.16505 550.00000 556.79877
57.17818 619.00000 583.84727
57.19131 663.00000 607.11073
57.20444 750.00000 624.84664
57.21757 815.00000 636.03847
57.23070 755.00000 640.54942
57.24383 791.00000 638.94761
57.25696 773.00000 632.15502
57.27009 728.00000 621.16204
57.28322 645.00000 606.92694
57.29635 601.00000 590.37932
57.30948 609.00000 572.39683
57.32261 563.00000 553.72971
57.33574 536.00000 534.93652
57.34887 524.00000 516.42289
57.36200 515.00000 498.58743
57.37513 437.00000 481.94009
57.38826 433.00000 467.11937
57.40139 458.00000 454.79986
57.41452 386.00000 445.56422
57.42765 411.00000 439.80095
57.44078 426.00000 437.65054
57.45391 437.00000 438.96467
57.46704 396.00000 443.26624
57.48017 348.00000 449.70540
57.49330 374.00000 457.04248
57.50644 366.00000 463.71262
57.51957 377.00000 468.02558
57.53270 381.00000 468.50263
57.54583 419.00000 464.25321
57.55896 395.00000 455.21418
57.57209 357.00000 442.09846
57.58522 358.00000 426.08102
57.59835 349.00000 408.39207
57.61148 374.00000 390.02444
57.62461 355.00000 371.63955
57.63774 386.00000 353.63165
57.65087 322.00000 336.24706
57.66400 353.00000 319.67944
57.67713 334.00000 304.10870
57.69026 318.00000 289.69854
57.70339 324.00000 276.57693
57.71652 327.00000 264.81795
57.72965 299.00000 254.43642
57.74278 299.00000 245.39099
57.75591 258.00000 237.59390
57.76904 262.00000 230.91964
57.78217 282.00000 225.22551
57.79530 226.00000 220.35876
57.80843 244.00000 216.17219
57.82156 241.00000 212.54508
57.83469 265.00000 209.37263
57.84782 216.00000 206.58663
57.86095 237.00000 204.14529
57.87408 206.00000 202.01314
57.88721 228.00000 200.14541
57.90034 222.00000 198.48640
57.91347 231.00000 196.96975
57.92660 215.00000 195.52895
57.93973 264.00000 194.11585
57.95286 211.00000 192.71225
57.96600 209.00000 191.33532
57.97913 203.00000 190.03689
57.99226 218.00000 188.88022
58.00539 219.00000 187.92678
58.01852 206.00000 187.22812
58.03165 222.00000 186.82490
58.04478 218.00000 186.75704
58.05791 212.00000 187.05066
58.07104 200.00000 187.73588
58.08417 194.00000 188.84428
58.09730 207.00000 190.41237
58.11043 244.00000 192.48620
58.12356 235.00000 195.11036
58.13669 225.00000 198.33410
58.14982 202.00000 202.20765
58.16295 230.00000 206.77790
58.17608 241.00000 212.08401
58.18921 244.00000 218.14863
58.20234 245.00000 224.96536
58.21547 246.00000 232.47945
58.22860 259.00000 240.56137
58.24173 255.00000 248.97746
58.25486 271.00000 257.36916
58.26799 287.00000 265.25993
58.28112 272.00000 272.10971
58.29425 282.00000 277.42346
58.30738 301.00000 280.88632
58.32051 317.00000 282.45457
58.33364 302.00000 282.37755
58.34677 281.00000 281.07917
58.35990 256.00000 278.97283
58.37303 245.00000 276.33653
58.38616 302.00000 273.26001
58.39929 272.00000 269.68112
58.41242 258.00000 265.48594
58.42556 259.00000 260.61209
58.43869 228.00000 255.12565
58.45182 230.00000 249.23032
58.46495 212.00000 243.21521
58.47808 234.00000 237.38069
58.49121 228.00000 231.97948
58.50434 222.00000 227.18993
58.51747 232.00000 223.11719
58.53060 208.00000 219.80931
58.54373 175.00000 217.27680
58.55686 199.00000 215.50943
58.56999 218.00000 214.48856
58.58312 219.00000 214.19525
58.59625 217.00000 214.61511
58.60938 256.00000 215.74112
58.62251 221.00000 217.57481
58.63564 224.00000 220.12649
58.64877 211.00000 223.41451
58.66190 240.00000 227.46152
58.67503 219.00000 232.29241
58.68816 214.00000 237.92981
58.70129 239.00000 244.38381
58.71442 242.00000 251.63997
58.72755 263.00000 259.64338
58.74068 257.00000 268.28077
58.75381 304.00000 277.36643
58.76694 289.00000 286.64259
58.78007 299.00000 295.80719
58.79320 305.00000 304.57761
58.80633 305.00000 312.78165
58.81946 349.00000 320.44437
58.83259 355.00000 327.82873
58.84572 359.00000 335.40192
58.85885 346.00000 343.76167
58.87198 342.00000 353.60568
58.88511 371.00000 365.51914
58.89825 387.00000 379.98871
58.91138 404.00000 397.42740
58.92451 399.00000 418.13060
58.93764 429.00000 442.25051
58.95077 456.00000 469.74976
58.96390 508.00000 500.33185
58.97703 482.00000 533.36113
58.99016 517.00000 567.80267
59.00329 602.00000 602.23246
59.01642 630.00000 634.97365
59.02955 709.00000 664.37818
59.04268 702.00000 689.18672
59.05581 784.00000 708.80802
59.06894 765.00000 723.35413
59.08207 732.00000 733.39656
59.09520 728.00000 739.58379
59.10833 752.00000 742.32535
59.12146 704.00000 741.74915
59.13459 671.00000 737.91869
59.14772 709.00000 731.13227
59.16085 643.00000 722.19817
59.17398 635.00000 712.48386
59.18711 639.00000 703.71349
59.20024 684.00000 697.62799
59.21337 598.00000 695.65712
59.22650 689.00000 698.69650
59.23963 633.00000 706.99324
59.25276 624.00000 720.08389
59.26589 681.00000 736.74989
59.27902 724.00000 755.00729
59.29215 812.00000 772.19318
59.30528 820.00000 785.23620
59.31841 876.00000 791.14908
59.33154 866.00000 787.68046
59.34467 916.00000 773.89304
59.35781 897.00000 750.38629
59.37094 827.00000 719.07404
59.38407 802.00000 682.61552
59.39720 754.00000 643.77536
59.41033 728.00000 604.94559
59.42346 645.00000 567.91948
59.43659 573.00000 533.87671
59.44972 558.00000 503.48735
59.46285 534.00000 477.05177
59.47598 492.00000 454.62885
59.48911 480.00000 436.13474
59.50224 434.00000 421.40914
59.51537 414.00000 410.26799
59.52850 392.00000 402.53238
59.54163 374.00000 398.05081
59.55476 426.00000 396.71741
59.56789 428.00000 398.46734
59.58102 413.00000 403.29737
59.59415 378.00000 411.25927
59.60728 411.00000 422.45120
59.62041 412.00000 437.00502
59.63354 416.00000 455.06961
59.64667 477.00000 476.78828
59.65980 491.00000 502.27055
59.67293 505.00000 531.56091
59.68606 548.00000 564.60565
59.69919 561.00000 601.21782
59.71232 608.00000 641.03624
59.72545 615.00000 683.47290
59.73858 614.00000 727.65399
59.75171 707.00000 772.38703
59.76484 770.00000 816.21042
59.77797 759.00000 857.57018
59.79110 754.00000 895.10783
59.80423 871.00000 927.92264
59.81737 892.00000 955.65156
59.83050 881.00000 978.29063
59.84363 917.00000 995.85620
59.85676 960.00000 1008.12854
59.86989 914.00000 1014.69738
59.88302 1044.00000 1015.30618
59.89615 1035.00000 1010.30134
59.90928 991.00000 1000.89348
59.92241 1045.00000 989.03967
59.93554 1049.00000 976.99782
59.94867 939.00000 966.76370
59.96180 946.00000 959.61518
59.97493 937.00000 955.88298
59.98806 917.00000 954.93475
60.00119 960.00000 955.35235
60.01432 877.00000 955.23685
60.02745 931.00000 952.58102
60.04058 940.00000 945.65893
60.05371 882.00000 933.36525
60.06684 939.00000 915.42571
60.07997 915.00000 892.40551
60.09310 895.00000 865.50231
60.10623 818.00000 836.21375
60.11936 828.00000 806.03438
60.13249 720.00000 776.29641
60.14562 782.00000 748.15574
60.15875 707.00000 722.63763
60.17188 681.00000 700.65350
60.18501 661.00000 682.95891
60.19814 660.00000 670.07670
60.21127 600.00000 662.22197
60.22440 618.00000 659.24808
60.23753 569.00000 660.61842
60.25066 632.00000 665.40736
60.26379 617.00000 672.35444
60.27692 629.00000 679.99846
60.29006 572.00000 686.90074
60.30319 683.00000 691.91793
60.31632 631.00000 694.42371
60.32945 646.00000 694.37019
60.34258 667.00000 692.15063
60.35571 619.00000 688.33648
60.36884 639.00000 683.42975
60.38197 678.00000 677.75058
60.39510 635.00000 671.49114
60.40823 575.00000 664.87184
60.42136 665.00000 658.28461
60.43449 555.00000 652.32971
60.44762 606.00000 647.72745
60.46075 586.00000 645.15534
60.47388 576.00000 645.11135
60.48701 551.00000 647.82120
60.50014 608.00000 653.20864
60.51327 587.00000 660.90749
60.52640 577.00000 670.28035
60.53953 604.00000 680.41785
60.55266 590.00000 690.11393
60.56579 646.00000 697.85905
60.57892 623.00000 701.93115
60.59205 671.00000 700.64584
60.60518 595.00000 692.73804
60.61831 632.00000 677.73480
60.63144 588.00000 656.13312
60.64457 620.00000 629.27839
60.65770 574.00000 598.99835
60.67083 549.00000 567.16093
60.68396 506.00000 535.33770
60.69709 513.00000 504.63416
60.71022 508.00000 475.67904
60.72335 435.00000 448.71345
60.73648 445.00000 423.72329
60.74962 390.00000 400.57137
60.76275 359.00000 379.09871
60.77588 380.00000 359.19528
60.78901 319.00000 340.81165
60.80214 315.00000 323.93950
60.81527 327.00000 308.57906
60.82840 286.00000 294.71150
60.84153 278.00000 282.28602
60.85466 281.00000 271.22096
60.86779 240.00000 261.41269
60.88092 227.00000 252.74606
60.89405 246.00000 245.10383
60.90718 244.00000 238.37436
60.92031 223.00000 232.45460
60.93344 227.00000 227.25171
60.94657 189.00000 222.68447
60.95970 210.00000 218.68264
60.97283 188.00000 215.18637
60.98596 205.00000 212.14569
60.99909 190.00000 209.51966
61.01222 206.00000 207.27283
61.02535 213.00000 205.37975
61.03848 195.00000 203.82131
61.05161 200.00000 202.58386
61.06474 207.00000 201.65995
61.07787 175.00000 201.04457
61.09100 205.00000 200.74162
61.10413 199.00000 200.75156
61.11726 211.00000 201.07211
61.13039 199.00000 201.71397
61.14352 212.00000 202.68253
61.15665 206.00000 203.97786
61.16978 182.00000 205.59238
61.18291 226.00000 207.50700
61.19604 208.00000 209.68903
61.20917 178.00000 212.09264
61.22231 227.00000 214.66240
61.23544 240.00000 217.34277
61.24857 223.00000 220.09630
61.26170 212.00000 222.91627
61.27483 232.00000 225.83080
61.28796 266.00000 228.89457
61.30109 239.00000 232.16802
61.31422 240.00000 235.69114
61.32735 259.00000 239.46142
61.34048 241.00000 243.42569
61.35361 248.00000 247.48490
61.36674 270.00000 251.52581
61.37987 284.00000 255.44431
61.39300 274.00000 259.20323
61.40613 287.00000 262.84963
61.41926 281.00000 266.50889
61.43239 271.00000 270.34819
61.44552 282.00000 274.52199
61.45865 293.00000 279.11851
61.47178 290.00000 284.12214
61.48491 245.00000 289.39689
61.49804 284.00000 294.69874
61.51117 293.00000 299.72640
61.52430 285.00000 304.18376
61.53743 305.00000 307.85496
61.55056 275.00000 310.65364
61.56369 320.00000 312.61974
61.57682 296.00000 313.86840
61.58995 303.00000 314.51491
61.60308 284.00000 314.60897
61.61621 273.00000 314.11725
61.62934 249.00000 312.95210
61.64247 279.00000 311.04664
61.65560 299.00000 308.41297
61.66873 283.00000 305.16105
61.68187 297.00000 301.49533
61.69500 301.00000 297.69019
61.70813 261.00000 294.02525
61.72126 240.00000 290.76699
61.73439 247.00000 288.14638
61.74752 269.00000 286.34655
61.76065 283.00000 285.49406
61.77378 277.00000 285.65752
61.78691 261.00000 286.84882
61.80004 245.00000 289.02694
61.81317 259.00000 292.10689
61.82630 303.00000 295.97494
61.83943 266.00000 300.51504
61.85256 272.00000 305.64199
61.86569 277.00000 311.33242
61.87882 295.00000 317.66047
61.89195 283.00000 324.80339
61.90508 300.00000 333.02914
61.91821 322.00000 342.66778
61.93134 320.00000 354.07569
61.94447 341.00000 367.59757
61.95760 338.00000 383.54996
61.97073 344.00000 402.20346
61.98386 362.00000 423.77583
61.99699 378.00000 448.43304
62.01012 412.00000 476.29891
62.02325 446.00000 507.47354
62.03638 448.00000 542.04133
62.04951 528.00000 580.05590
62.06264 558.00000 621.48806
62.07577 637.00000 666.11223
62.08890 679.00000 713.35211
62.10203 777.00000 762.10689
62.11516 765.00000 810.61038
62.12829 871.00000 856.38811
62.14143 923.00000 896.39399
62.15456 1089.00000 927.38972
62.16769 1108.00000 946.54646
62.18082 1220.00000 952.12098
62.19395 1208.00000 943.93883
62.20708 1123.00000 923.45704
62.22021 1087.00000 893.36796
62.23334 1010.00000 856.93329
62.24647 957.00000 817.33692
62.25960 846.00000 777.27588
62.27273 782.00000 738.78064
62.28586 694.00000 703.25002
62.29899 585.00000 671.56342
62.31212 561.00000 644.18126
62.32525 546.00000 621.20822
62.33838 508.00000 602.42531
62.35151 547.00000 587.30674
62.36464 484.00000 575.05354
62.37777 477.00000 564.66702
62.39090 494.00000 555.07258
62.40403 509.00000 545.30995
62.41716 471.00000 534.72087
62.43029 500.00000 523.08993
62.44342 464.00000 510.66301
62.45655 501.00000 498.04200
62.46968 467.00000 486.00687
62.48281 460.00000 475.33666
62.49594 411.00000 466.68163
62.50907 452.00000 460.50416
62.52220 441.00000 457.05265
62.53533 400.00000 456.36440
62.54846 408.00000 458.27261
62.56159 445.00000 462.40053
62.57472 452.00000 468.13998
62.58785 458.00000 474.63800
62.60098 460.00000 480.82673
62.61412 509.00000 485.50307
62.62725 510.00000 487.48271
62.64038 533.00000 485.80869
62.65351 525.00000 479.95517
62.66664 539.00000 469.94615
62.67977 509.00000 456.33378
62.69290 502.00000 440.04502
62.70603 446.00000 422.15852
62.71916 446.00000 403.71490
62.73229 388.00000 385.58748
62.74542 364.00000 368.43370
62.75855 320.00000 352.70368
62.77168 340.00000 338.67674
62.78481 322.00000 326.52672
62.79794 309.00000 316.34352
62.81107 289.00000 308.15747
62.82420 277.00000 301.97787
62.83733 284.00000 297.80380
62.85046 266.00000 295.63521
62.86359 271.00000 295.47868
62.87672 255.00000 297.34236
62.88985 276.00000 301.24403
62.90298 264.00000 307.20582
62.91611 277.00000 315.24796
62.92924 295.00000 325.37836
62.94237 312.00000 337.57036
62.95550 322.00000 351.74533
62.96863 324.00000 367.74593
62.98176 393.00000 385.28052
62.99489 404.00000 403.88787
63.00802 436.00000 422.89665
63.02115 418.00000 441.41251
63.03428 446.00000 458.35551
63.04741 451.00000 472.56681
63.06054 511.00000 482.97999
63.07368 523.00000 488.81375
63.08681 540.00000 489.71386
63.09994 586.00000 485.78285
63.11307 556.00000 477.49076
63.12620 521.00000 465.52296
63.13933 486.00000 450.64191
63.15246 472.00000 433.60752
63.16559 452.00000 415.14989
63.17872 406.00000 395.96051
63.19185 370.00000 376.67588
63.20498 361.00000 357.85088
63.21811 330.00000 339.93307
63.23124 310.00000 323.25200
63.24437 321.00000 308.02371
63.25750 309.00000 294.36462
63.27063 277.00000 282.30939
63.28376 308.00000 271.82886
63.29689 278.00000 262.84491
63.31002 229.00000 255.24246
63.32315 242.00000 248.87793
63.33628 227.00000 243.58640
63.34941 263.00000 239.18885
63.36254 264.00000 235.50681
63.37567 228.00000 232.39517
63.38880 255.00000 229.71901
63.40193 235.00000 227.39854
63.41506 232.00000 225.40947
63.42819 248.00000 223.77497
63.44132 232.00000 222.54933
63.45445 225.00000 221.79786
63.46758 215.00000 221.57878
63.48071 204.00000 221.92842
63.49384 213.00000 222.84757
63.50697 229.00000 224.30415
63.52010 214.00000 226.21883
63.53324 214.00000 228.45926
63.54637 224.00000 230.83556
63.55950 205.00000 233.10123
63.57263 241.00000 234.97025
63.58576 214.00000 236.14790
63.59889 260.00000 236.37559
63.61202 241.00000 235.48358
63.62515 244.00000 233.45325
63.63828 268.00000 230.37810
63.65141 237.00000 226.45810
63.66454 242.00000 221.96335
63.67767 248.00000 217.17691
63.69080 227.00000 212.35296
63.70393 231.00000 207.69570
63.71706 227.00000 203.35367
63.73019 226.00000 199.42485
63.74332 203.00000 195.96222
63.75645 186.00000 192.98474
63.76958 241.00000 190.49034
63.78271 194.00000 188.45521
63.79584 195.00000 186.83735
63.80897 190.00000 185.57708
63.82210 176.00000 184.59159
63.83523 187.00000 183.78961
63.84836 178.00000 183.06869
63.86149 215.00000 182.32631
63.87462 165.00000 181.47156
63.88775 195.00000 180.43835
63.90088 158.00000 179.20750
63.91401 178.00000 177.81322
63.92714 192.00000 176.29617
63.94027 194.00000 174.71210
63.95340 199.00000 173.12719
63.96653 192.00000 171.59930
63.97966 197.00000 170.17400
63.99279 186.00000 168.88393
64.00593 197.00000 167.74807
64.01906 170.00000 166.77581
64.03219 185.00000 165.97305
64.04532 180.00000 165.34067
64.05845 171.00000 164.87580
64.07158 189.00000 164.57664
64.08471 167.00000 164.45261
64.09784 198.00000 164.49442
64.11097 179.00000 164.70120
64.12410 150.00000 165.07620
64.13723 167.00000 165.62432
64.15036 190.00000 166.35362
64.16349 180.00000 167.27525
64.17662 187.00000 168.40417
64.18975 171.00000 169.75970
64.20288 175.00000 171.36546
64.21601 166.00000 173.24966
64.22914 190.00000 175.44521
64.24227 181.00000 177.98968
64.25540 188.00000 180.92458
64.26853 180.00000 184.29528
64.28166 192.00000 188.15035
64.29479 231.00000 192.53990
64.30792 188.00000 197.51383
64.32105 182.00000 203.11900
64.33418 227.00000 209.39545
64.34731 215.00000 216.37090
64.36044 240.00000 224.05336
64.37357 233.00000 232.42173
64.38670 235.00000 241.41455
64.39983 294.00000 250.91995
64.41296 220.00000 260.76773
64.42609 276.00000 270.72906
64.43922 301.00000 280.52972
64.45235 279.00000 289.87845
64.46549 316.00000 298.50781
64.47862 331.00000 306.21433
64.49175 320.00000 312.88831
64.50488 328.00000 318.51367
64.51801 334.00000 323.14025
64.53114 329.00000 326.84420
64.54427 329.00000 329.69583
64.55740 314.00000 331.74749
64.57053 325.00000 333.04063
64.58366 332.00000 333.61525
64.59679 366.00000 333.51013
64.60992 391.00000 332.74831
64.62305 320.00000 331.32354
64.63618 378.00000 329.20285
64.64931 351.00000 326.36387
64.66244 323.00000 322.83443
64.67557 337.00000 318.72147
64.68870 339.00000 314.23712
64.70183 313.00000 309.68126
64.71496 315.00000 305.39332
64.72809 295.00000 301.69894
64.74122 303.00000 298.86665
64.75435 274.00000 297.08172
64.76748 264.00000 296.43534
64.78061 239.00000 296.92315
64.79374 263.00000 298.45124
64.80687 284.00000 300.84329
64.82000 295.00000 303.85738
64.83313 302.00000 307.20641
64.84626 324.00000 310.58597
64.85939 304.00000 313.70572
64.87252 311.00000 316.31945
64.88565 355.00000 318.24999
64.89878 325.00000 319.40796
64.91191 311.00000 319.80108
64.92504 316.00000 319.52990
64.93818 295.00000 318.76533
64.95131 319.00000 317.71177
64.96444 307.00000 316.56084
64.97757 309.00000 315.45002
64.99070 301.00000 314.43263
65.00383 300.00000 313.47981
65.01696 274.00000 312.49330
65.03009 296.00000 311.32991
65.04322 289.00000 309.82876
65.05635 260.00000 307.83049
65.06948 259.00000 305.18609
65.08261 273.00000 301.76270
65.09574 269.00000 297.45593
65.10887 290.00000 292.20875
65.12200 293.00000 286.03454
65.13513 271.00000 279.03146
65.14826 275.00000 271.37845
65.16139 256.00000 263.31260
65.17452 287.00000 255.09669
65.18765 296.00000 246.97740
65.20078 268.00000 239.16046
65.21391 236.00000 231.79941
65.22704 216.00000 225.01586
65.24017 245.00000 218.91080
65.25330 259.00000 213.48872
65.26643 208.00000 208.75052
65.27956 222.00000 204.67311
65.29269 235.00000 201.22495
65.30582 224.00000 198.36757
65.31895 208.00000 196.05322
65.33208 217.00000 194.22694
65.34521 216.00000 192.82731
65.35834 183.00000 191.78776
65.37147 226.00000 191.03526
65.38460 206.00000 190.49314
65.39774 194.00000 190.08948
65.41087 195.00000 189.76010
65.42400 182.00000 189.45638
65.43713 189.00000 189.15081
65.45026 199.00000 188.84004
65.46339 177.00000 188.54358
65.47652 191.00000 188.29685
65.48965 192.00000 188.14268
65.50278 166.00000 188.12278
65.51591 184.00000 188.27398
65.52904 196.00000 188.62522
65.54217 191.00000 189.19304
65.55530 158.00000 189.98796
65.56843 163.00000 191.01393
65.58156 190.00000 192.27309
65.59469 201.00000 193.77885
65.60782 180.00000 195.55464
65.62095 194.00000 197.63805
65.63408 193.00000 200.08168
65.64721 214.00000 202.95056
65.66034 192.00000 206.31739
65.67347 189.00000 210.25633
65.68660 208.00000 214.83531
65.69973 220.00000 220.11652
65.71286 217.00000 226.18689
65.72599 198.00000 233.07806
65.73912 230.00000 240.80978
65.75225 241.00000 249.38662
65.76538 225.00000 258.79086
65.77851 250.00000 268.98045
65.79164 242.00000 279.88761
65.80477 278.00000 291.41567
65.81790 289.00000 303.42895
65.83103 296.00000 315.73534
65.84416 337.00000 328.06261
65.85730 302.00000 340.03603
65.87043 361.00000 351.17092
65.88356 391.00000 360.89615
65.89669 394.00000 368.61261
65.90982 397.00000 373.78988
65.92295 445.00000 376.07654
65.93608 454.00000 375.38901
65.94921 455.00000 371.94755
65.96234 430.00000 366.22929
65.97547 405.00000 358.87877
65.98860 363.00000 350.59650
66.00173 381.00000 342.04323
66.01486 349.00000 333.78330
66.02799 320.00000 326.26030
66.04112 326.00000 319.79980
66.05425 332.00000 314.63022
66.06738 296.00000 310.90273
66.08051 311.00000 308.70867
66.09364 279.00000 308.08721
66.10677 309.00000 309.02814
66.11990 273.00000 311.46882
66.13303 306.00000 315.28656
66.14616 293.00000 320.28812
66.15929 324.00000 326.19863
66.17242 321.00000 332.65490
66.18555 312.00000 339.21026
66.19868 318.00000 345.35871
66.21181 318.00000 350.58431
66.22494 322.00000 354.43144
66.23807 365.00000 356.58493
66.25120 336.00000 356.93636
66.26433 340.00000 355.60692
66.27746 343.00000 352.92259
66.29059 319.00000 349.34768
66.30372 342.00000 345.40043
66.31685 361.00000 341.57576
66.32999 350.00000 338.29102
66.34312 354.00000 335.85715
66.35625 341.00000 334.46893
66.36938 305.00000 334.20508
66.38251 323.00000 335.03056
66.39564 343.00000 336.79761
66.40877 323.00000 339.24671
66.42190 310.00000 342.01234
66.43503 343.00000 344.64201
66.44816 308.00000 346.63649
66.46129 320.00000 347.50949
66.47442 349.00000 346.86683
66.48755 364.00000 344.47924
66.50068 350.00000 340.32669
66.51381 346.00000 334.59732
66.52694 375.00000 327.64104
66.54007 359.00000 319.89654
66.55320 364.00000 311.81684
66.56633 347.00000 303.81229
66.57946 344.00000 296.22230
66.59259 346.00000 289.30802
66.60572 360.00000 283.25931
66.61885 380.00000 278.20927
66.63198 350.00000 274.24947
66.64511 361.00000 271.44334
66.65824 335.00000 269.83506
66.67137 333.00000 269.45819
66.68450 340.00000 270.34067
66.69763 317.00000 272.50649
66.71076 328.00000 275.97660
66.72389 343.00000 280.76827
66.73702 347.00000 286.89276
66.75015 348.00000 294.35055
66.76328 343.00000 303.12729
66.77641 382.00000 313.18761
66.78955 372.00000 324.46799
66.80268 355.00000 336.87285
66.81581 351.00000 350.28036
66.82894 401.00000 364.51833
66.84207 411.00000 379.37793
66.85520 435.00000 394.60719
66.86833 448.00000 409.90727
66.88146 454.00000 424.93283
66.89459 482.00000 439.30458
66.90772 442.00000 452.63744
66.92085 494.00000 464.58758
66.93398 519.00000 474.90062
66.94711 510.00000 483.44764
66.96024 473.00000 490.22517
66.97337 502.00000 495.32850
66.98650 490.00000 498.90529
66.99963 490.00000 501.11482
67.01276 465.00000 502.11147
67.02589 464.00000 502.06027
67.03902 435.00000 501.17098
67.05215 430.00000 499.72490
67.06528 428.00000 498.07252
67.07841 423.00000 496.59723
67.09154 419.00000 495.66061
67.10467 415.00000 495.55565
67.11780 411.00000 496.43667
67.13093 402.00000 498.33919
67.14406 410.00000 501.19097
67.15719 432.00000 504.85896
67.17032 445.00000 509.20415
67.18345 468.00000 514.10764
67.19658 496.00000 519.46995
67.20971 492.00000 525.18809
67.22284 480.00000 531.09836
67.23597 525.00000 536.91728
67.24911 491.00000 542.20344
67.26224 511.00000 546.36401
67.27537 583.00000 548.71176
67.28850 501.00000 548.57774
67.30163 545.00000 545.44799
67.31476 543.00000 539.08616
67.32789 517.00000 529.60289
67.34102 512.00000 517.44533
67.35415 506.00000 503.31285
67.36728 497.00000 488.03281
67.38041 457.00000 472.43644
67.39354 449.00000 457.26775
67.40667 417.00000 443.13633
67.41980 405.00000 430.50359
67.43293 449.00000 419.69217
67.44606 404.00000 410.90960
67.45919 390.00000 404.26861
67.47232 395.00000 399.80403
67.48545 382.00000 397.48381
67.49858 386.00000 397.21332
67.51171 416.00000 398.83935
67.52484 382.00000 402.16840
67.53797 442.00000 406.94848
67.55110 435.00000 412.89209
67.56423 473.00000 419.71539
67.57736 453.00000 427.16707
67.59049 484.00000 435.05947
67.60362 516.00000 443.28896
67.61675 509.00000 451.82874
67.62988 551.00000 460.67740
67.64301 559.00000 469.82620
67.65614 582.00000 479.20771
67.66927 591.00000 488.66532
67.68240 582.00000 497.95276
67.69553 613.00000 506.76798
67.70866 666.00000 514.81963
67.72180 600.00000 521.87987
67.73493 632.00000 527.85035
67.74806 594.00000 532.77906
67.76119 602.00000 536.83535
67.77432 593.00000 540.24827
67.78745 598.00000 543.23536
67.80058 582.00000 545.94831
67.81371 594.00000 548.45386
67.82684 564.00000 550.74772
67.83997 581.00000 552.79072
67.85310 540.00000 554.54275
67.86623 567.00000 555.97131
67.87936 553.00000 557.04463
67.89249 586.00000 557.70105
67.90562 576.00000 557.82615
67.91875 531.00000 557.24992
67.93188 592.00000 555.77397
67.94501 540.00000 553.21725
67.95814 573.00000 549.42953
67.97127 563.00000 544.34557
67.98440 582.00000 537.99438
67.99753 562.00000 530.49692
68.01066 531.00000 522.05462
68.02379 548.00000 512.93075
68.03692 588.00000 503.42366
68.05005 579.00000 493.83650
68.06318 516.00000 484.44268
68.07631 538.00000 475.45770
68.08944 466.00000 467.02806
68.10257 542.00000 459.24273
68.11570 481.00000 452.15545
68.12883 481.00000 445.82858
68.14196 472.00000 440.36843
68.15509 479.00000 435.94597
68.16822 466.00000 432.79556
68.18136 463.00000 431.19800
68.19449 457.00000 431.45261
68.20762 446.00000 433.84975
68.22075 515.00000 438.64977
68.23388 491.00000 446.06957
68.24701 476.00000 456.27566
68.26014 500.00000 469.37881
68.27327 477.00000 485.42745
68.28640 514.00000 504.39625
68.29953 482.00000 526.16659
68.31266 543.00000 550.50541
68.32579 596.00000 577.03028
68.33892 589.00000 605.17391
68.35205 619.00000 634.15091
68.36518 682.00000 662.93966
68.37831 682.00000 690.29232
68.39144 699.00000 714.78962
68.40457 741.00000 734.94742
68.41770 769.00000 749.37058
68.43083 741.00000 756.93242
68.44396 788.00000 756.94290
68.45709 748.00000 749.26436
68.47022 731.00000 734.34107
68.48335 733.00000 713.12863
68.49648 735.00000 686.94099
68.50961 667.00000 657.25807
68.52274 670.00000 625.54055
68.53587 650.00000 593.09422
68.54900 556.00000 560.99368
68.56213 519.00000 530.06175
68.57526 474.00000 500.88651
68.58839 446.00000 473.85803
68.60152 443.00000 449.21063
68.61465 380.00000 427.06182
68.62778 376.00000 407.44455
68.64091 351.00000 390.33236
68.65405 346.00000 375.65832
68.66718 369.00000 363.32887
68.68031 319.00000 353.23311
68.69344 319.00000 345.25119
68.70657 290.00000 339.25857
68.71970 285.00000 335.12969
68.73283 302.00000 332.72778
68.74596 316.00000 331.92103
68.75909 339.00000 332.57307
68.77222 294.00000 334.54203
68.78535 317.00000 337.68351
68.79848 293.00000 341.85722
68.81161 313.00000 346.93526
68.82474 325.00000 352.81926
68.83787 342.00000 359.45396
68.85100 338.00000 366.83404
68.86413 361.00000 375.00213
68.87726 381.00000 384.03396
68.89039 372.00000 394.01533
68.90352 419.00000 405.01462
68.91665 388.00000 417.05693
68.92978 418.00000 430.10744
68.94291 407.00000 444.05733
68.95604 451.00000 458.71483
68.96917 486.00000 473.81869
68.98230 520.00000 489.05691
68.99543 486.00000 504.10182
69.00856 521.00000 518.65788
69.02169 585.00000 532.50557
69.03482 507.00000 545.53675
69.04795 584.00000 557.75682
69.06108 594.00000 569.24179
69.07421 581.00000 580.06603
69.08734 612.00000 590.21787
69.10047 568.00000 599.52437
69.11361 614.00000 607.61096
69.12674 606.00000 613.90868
69.13987 544.00000 617.70674
69.15300 596.00000 618.25669
69.16613 623.00000 614.91017
69.17926 579.00000 607.25458
69.19239 605.00000 595.21318
69.20552 547.00000 579.07745
69.21865 560.00000 559.46415
69.23178 525.00000 537.21001
69.24491 491.00000 513.24149
69.25804 459.00000 488.45568
69.27117 513.00000 463.63691
69.28430 448.00000 439.41561
69.29743 430.00000 416.26046
69.31056 390.00000 394.49414
69.32369 375.00000 374.31849
69.33682 362.00000 355.84201
69.34995 360.00000 339.10458
69.36308 322.00000 324.09607
69.37621 282.00000 310.77385
69.38934 256.00000 299.07349
69.40247 289.00000 288.91677
69.41560 268.00000 280.21831
69.42873 244.00000 272.88844
69.44186 278.00000 266.83928
69.45499 298.00000 261.98505
69.46812 278.00000 258.24304
69.48125 248.00000 255.53459
69.49438 237.00000 253.78582
69.50751 248.00000 252.92658
69.52064 261.00000 252.89019
69.53377 227.00000 253.61310
69.54690 236.00000 255.03318
69.56003 255.00000 257.09115
69.57317 234.00000 259.72887
69.58630 220.00000 262.88682
69.59943 239.00000 266.50073
69.61256 258.00000 270.49990
69.62569 244.00000 274.79791
69.63882 246.00000 279.28028
69.65195 259.00000 283.81446
69.66508 269.00000 288.25029
69.67821 236.00000 292.43362
69.69134 281.00000 296.22633
69.70447 257.00000 299.53086
69.71760 296.00000 302.31079
69.73073 291.00000 304.60100
69.74386 307.00000 306.50414
69.75699 238.00000 308.16957
69.77012 269.00000 309.76761
69.78325 274.00000 311.46205
69.79638 293.00000 313.38581
69.80951 263.00000 315.62604
69.82264 300.00000 318.21731
69.83577 265.00000 321.14267
69.84890 288.00000 324.34137
69.86203 312.00000 327.72182
69.87516 296.00000 331.17565
69.88829 305.00000 334.59075
69.90142 309.00000 337.87712
69.91455 291.00000 340.95082
69.92768 323.00000 343.72663
69.94081 338.00000 346.13040
69.95394 354.00000 348.09607
69.96707 319.00000 349.57293
69.98020 335.00000 350.54071
69.99333 361.00000 351.01307
70.00646 373.00000 351.04574
70.01959 355.00000 350.72692
70.03272 321.00000 350.18194
70.04586 366.00000 349.51071
70.05899 351.00000 348.77764
70.07212 319.00000 347.99228
70.08525 329.00000 347.09439
70.09838 359.00000 345.95915
70.11151 357.00000 344.41889
70.12464 351.00000 342.29801
70.13777 358.00000 339.45319
70.15090 346.00000 335.80853
70.16403 350.00000 331.37548
70.17716 333.00000 326.25286
70.19029 330.00000 320.60613
70.20342 314.00000 314.63881
70.21655 301.00000 308.56532
70.22968 299.00000 302.58463
70.24281 274.00000 296.86587
70.25594 258.00000 291.54141
70.26907 308.00000 286.70486
70.28220 291.00000 282.41129
70.29533 282.00000 278.68879
70.30846 287.00000 275.55725
70.32159 266.00000 272.97941
70.33472 280.00000 270.91259
70.34785 287.00000 269.28604
70.36098 302.00000 268.01212
70.37411 283.00000 266.98723
70.38724 261.00000 266.09756
70.40037 285.00000 265.22931
70.41350 308.00000 264.28171
70.42663 315.00000 263.18013
70.43976 268.00000 261.88160
70.45289 299.00000 260.38297
70.46602 300.00000 258.71782
70.47915 258.00000 256.94475
70.49228 269.00000 255.13390
70.50542 259.00000 253.35158
70.51855 268.00000 251.64565
70.53168 264.00000 250.03452
70.54481 242.00000 248.50107
70.55794 273.00000 246.99248
70.57107 290.00000 245.42785
70.58420 227.00000 243.71170
70.59733 260.00000 241.75045
70.61046 256.00000 239.47158
70.62359 229.00000 236.83921
70.63672 263.00000 233.86256
70.64985 197.00000 230.59561
70.66298 221.00000 227.12780
70.67611 230.00000 223.57028
70.68924 224.00000 220.04158
70.70237 237.00000 216.65480
70.71550 201.00000 213.50947
70.72863 201.00000 210.68710
70.74176 230.00000 208.25282
70.75489 191.00000 206.25589
70.76802 220.00000 204.73307
70.78115 203.00000 203.71030
70.79428 208.00000 203.20744
70.80741 204.00000 203.23666
70.82054 217.00000 203.80484
70.83367 218.00000 204.91355
70.84680 184.00000 206.55790
70.85993 182.00000 208.72294
70.87306 206.00000 211.38481
70.88619 207.00000 214.53395
70.89932 225.00000 218.11309
70.91245 227.00000 222.05950
70.92558 220.00000 226.29747
70.93871 206.00000 230.73791
70.95184 243.00000 235.28230
70.96498 233.00000 239.82670
70.97811 220.00000 244.26727
70.99124 244.00000 248.51558
71.00437 224.00000 252.49416
71.01750 255.00000 256.10105
71.03063 239.00000 259.23804
71.04376 262.00000 261.80171
71.05689 302.00000 263.68649
71.07002 299.00000 264.79529
71.08315 295.00000 265.05586
71.09628 270.00000 264.43746
71.10941 310.00000 262.95843
71.12254 272.00000 260.68589
71.13567 292.00000 257.72696
71.14880 266.00000 254.21540
71.16193 309.00000 250.29780
71.17506 265.00000 246.12235
71.18819 290.00000 241.83039
71.20132 224.00000 237.55519
71.21445 246.00000 233.41782
71.22758 224.00000 229.50895
71.24071 214.00000 225.89831
71.25384 215.00000 222.63911
71.26697 215.00000 219.77653
71.28010 214.00000 217.31154
71.29323 209.00000 215.23946
71.30636 218.00000 213.54923
71.31949 189.00000 212.22521
71.33262 204.00000 211.25461
71.34575 201.00000 210.62823
71.35888 211.00000 210.34897
71.37201 216.00000 210.41070
71.38514 223.00000 210.80737
71.39827 180.00000 211.52841
71.41140 211.00000 212.55635
71.42453 200.00000 213.86594
71.43767 207.00000 215.42628
71.45080 214.00000 217.20416
71.46393 226.00000 219.16645
71.47706 179.00000 221.28241
71.49019 199.00000 223.52324
71.50332 220.00000 225.85942
71.51645 234.00000 228.25370
71.52958 214.00000 230.65754
71.54271 222.00000 233.00600
71.55584 244.00000 235.21792
71.56897 213.00000 237.21826
71.58210 235.00000 238.91548
71.59523 204.00000 240.22016
71.60836 247.00000 241.06479
71.62149 224.00000 241.40250
71.63462 244.00000 241.21007
71.64775 231.00000 240.48911
71.66088 244.00000 239.26563
71.67401 227.00000 237.59006
71.68714 243.00000 235.54255
71.70027 221.00000 233.22420
71.71340 221.00000 230.74386
71.72653 238.00000 228.22197
71.73966 228.00000 225.77821
71.75279 212.00000 223.52242
71.76592 221.00000 221.54997
71.77905 206.00000 219.93765
71.79218 212.00000 218.74256
71.80531 212.00000 218.00422
71.81844 218.00000 217.74549
71.83157 225.00000 217.97350
71.84470 207.00000 218.68590
71.85783 211.00000 219.86254
71.87096 216.00000 221.47094
71.88409 217.00000 223.46674
71.89723 260.00000 225.79531
71.91036 230.00000 228.39381
71.92349 261.00000 231.19385
71.93662 262.00000 234.13152
71.94975 277.00000 237.18203
71.96288 265.00000 240.30553
71.97601 264.00000 243.49392
71.98914 289.00000 246.77028
72.00227 298.00000 250.17967
72.01540 293.00000 253.78216
72.02853 295.00000 257.64312
72.04166 270.00000 261.82457
72.05479 284.00000 266.37969
72.06792 281.00000 271.35199
72.08105 306.00000 276.77882
72.09418 289.00000 282.69806
72.10731 273.00000 289.15322
72.12044 306.00000 296.19888
72.13357 303.00000 303.90360
72.14670 317.00000 312.33548
72.15983 309.00000 321.56214
72.17296 339.00000 331.63964
72.18609 333.00000 342.60085
72.19922 347.00000 354.44582
72.21235 333.00000 367.13156
72.22548 372.00000 380.56117
72.23861 401.00000 394.57288
72.25174 382.00000 408.93153
72.26487 402.00000 423.32643
72.27800 412.00000 437.38038
72.29113 391.00000 450.67300
72.30426 460.00000 462.77810
72.31739 466.00000 473.30964
72.33052 460.00000 481.96580
72.34365 521.00000 488.55697
72.35678 452.00000 493.01217
72.36992 478.00000 495.35985
72.38305 484.00000 495.68782
72.39618 503.00000 494.09976
72.40931 537.00000 490.68631
72.42244 517.00000 485.51755
72.43557 527.00000 478.65094
72.44870 519.00000 470.15602
72.46183 510.00000 460.14010
72.47496 507.00000 448.76425
72.48809 478.00000 436.24395
72.50122 467.00000 422.83566
72.51435 447.00000 408.81520
72.52748 472.00000 394.45583
72.54061 396.00000 380.01197
72.55374 416.00000 365.71062
72.56687 398.00000 351.74813
72.58000 373.00000 338.29043
72.59313 372.00000 325.47624
72.60626 338.00000 313.41499
72.61939 355.00000 302.18713
72.63252 357.00000 291.84124
72.64565 310.00000 282.39608
72.65878 297.00000 273.84369
72.67191 294.00000 266.15257
72.68504 249.00000 259.27301
72.69817 260.00000 253.14326
72.71130 281.00000 247.69601
72.72443 273.00000 242.86462
72.73756 300.00000 238.58824
72.75069 241.00000 234.81538
72.76382 261.00000 231.50587
72.77695 246.00000 228.63089
72.79008 257.00000 226.17179
72.80321 265.00000 224.12136
72.81634 239.00000 222.48099
72.82948 273.00000 221.25774
72.84261 275.00000 220.46348
72.85574 265.00000 220.11201
72.86887 228.00000 220.21632
72.88200 239.00000 220.78597
72.89513 240.00000 221.82475
72.90826 226.00000 223.32853
72.92139 219.00000 225.28322
72.93452 224.00000 227.66280
72.94765 233.00000 230.42771
72.96078 231.00000 233.52307
72.97391 244.00000 236.88383
72.98704 241.00000 240.43377
73.00017 211.00000 244.09283
73.01330 247.00000 247.78829
73.02643 283.00000 251.46499
73.03956 239.00000 255.09488
73.05269 265.00000 258.68314
73.06582 277.00000 262.26818
73.07895 270.00000 265.91444
73.09208 246.00000 269.69991
73.10521 276.00000 273.70411
73.11834 274.00000 277.99550
73.13147 311.00000 282.62051
73.14460 275.00000 287.59639
73.15773 290.00000 292.90981
73.17086 293.00000 298.50859
73.18399 310.00000 304.30166
73.19712 308.00000 310.16539
73.21025 283.00000 315.94926
73.22338 302.00000 321.48831
73.23651 283.00000 326.61626
73.24964 298.00000 331.17668
73.26277 346.00000 335.03129
73.27590 310.00000 338.06239
73.28904 346.00000 340.16979
73.30217 348.00000 341.26874
73.31530 347.00000 341.29065
73.32843 357.00000 340.19205
73.34156 346.00000 337.96372
73.35469 373.00000 334.63586
73.36782 327.00000 330.28381
73.38095 344.00000 325.02000
73.39408 344.00000 318.97920
73.40721 349.00000 312.30018
73.42034 326.00000 305.11341
73.43347 332.00000 297.53290
73.44660 308.00000 289.65841
73.45973 329.00000 281.58151
73.47286 321.00000 273.39257
73.48599 336.00000 265.18504
73.49912 244.00000 257.05498
73.51225 323.00000 249.09645
73.52538 265.00000 241.39505
73.53851 263.00000 234.02173
73.55164 231.00000 227.02803
73.56477 246.00000 220.44515
73.57790 237.00000 214.28527
73.59103 219.00000 208.54456
73.60416 204.00000 203.20885
73.61729 205.00000 198.25545
73.63042 204.00000 193.66102
73.64355 202.00000 189.40024
73.65668 189.00000 185.45180
73.66981 190.00000 181.79729
73.68294 188.00000 178.42067
73.69607 208.00000 175.30726
73.70920 183.00000 172.44284
73.72233 197.00000 169.81301
73.73546 183.00000 167.40297
73.74859 186.00000 165.19772
73.76173 158.00000 163.18247
73.77486 164.00000 161.34300
73.78799 178.00000 159.66586
73.80112 183.00000 158.13859
73.81425 170.00000 156.74963
73.82738 170.00000 155.49057
73.84051 158.00000 154.35262
73.85364 152.00000 153.32650
73.86677 164.00000 152.40484
73.87990 140.00000 151.58112
73.89303 177.00000 150.84947
73.90616 153.00000 150.20428
73.91929 164.00000 149.64047
73.93242 152.00000 149.15439
73.94555 138.00000 148.74274
73.95868 142.00000 148.40239
73.97181 152.00000 148.12912
73.98494 141.00000 147.91412
73.99807 140.00000 147.75596
74.01120 159.00000 147.69601
74.02433 160.00000 147.71289
74.03746 140.00000 147.80496
74.05059 123.00000 147.97578
74.06372 152.00000 148.22890
74.07685 128.00000 148.56922
74.08998 152.00000 149.00224
74.10311 136.00000 149.53409
74.11624 145.00000 150.17288
74.12937 140.00000 150.92579
74.14250 147.00000 151.80091
74.15563 154.00000 152.80582
74.16876 171.00000 153.94839
74.18189 135.00000 155.23634
74.19502 138.00000 156.67694
74.20815 154.00000 158.27659
74.22129 158.00000 160.04034
74.23442 150.00000 161.97134
74.24755 159.00000 164.07041
74.26068 139.00000 166.33399
74.27381 149.00000 168.75340
74.28694 137.00000 171.31367
74.30007 164.00000 174.00249
74.31320 130.00000 176.79092
74.32633 174.00000 179.63543
74.33946 166.00000 182.48868
74.35259 174.00000 185.29318
74.36572 169.00000 187.98667
74.37885 159.00000 190.51123
74.39198 150.00000 192.81776
74.40511 181.00000 194.87581
74.41824 190.00000 196.68087
74.43137 179.00000 198.25821
74.44450 204.00000 199.66228
74.45763 182.00000 200.97159
74.47076 187.00000 202.28041
74.48389 168.00000 203.68937
74.49702 165.00000 205.29678
74.51015 186.00000 207.19201
74.52328 184.00000 209.45105
74.53641 178.00000 212.13385
74.54954 156.00000 215.28326
74.56267 184.00000 218.92419
74.57580 178.00000 223.06220
74.58893 199.00000 227.68197
74.60206 188.00000 232.74437
74.61519 203.00000 238.18215
74.62832 226.00000 243.89516
74.64145 195.00000 249.75367
74.65458 238.00000 255.59664
74.66771 240.00000 261.20998
74.68085 293.00000 266.35458
74.69398 267.00000 270.77658
74.70711 292.00000 274.22683
74.72024 318.00000 276.48621
74.73337 337.00000 277.39664
74.74650 360.00000 276.88238
74.75963 368.00000 274.96128
74.77276 371.00000 271.74170
74.78589 386.00000 267.40577
74.79902 352.00000 262.18358
74.81215 338.00000 256.32486
74.82528 337.00000 250.07440
74.83841 288.00000 243.65451
74.85154 274.00000 237.25507
74.86467 287.00000 231.03045
74.87780 241.00000 225.10102
74.89093 216.00000 219.55677
74.90406 213.00000 214.46379
74.91719 209.00000 209.86836
74.93032 178.00000 205.80185
74.94345 181.00000 202.28489
74.95658 193.00000 199.33042
74.96971 182.00000 196.94365
74.98284 184.00000 195.12692
74.99597 184.00000 193.88069
75.00910 197.00000 193.20363
75.02223 175.00000 193.09343
75.03536 172.00000 193.54690
75.04849 178.00000 194.56077
75.06162 176.00000 196.13186
75.07475 165.00000 198.25605
75.08788 163.00000 200.92764
75.10101 189.00000 204.13833
75.11414 170.00000 207.87573
75.12727 165.00000 212.12205
75.14040 185.00000 216.85221
75.15354 197.00000 222.03107
75.16667 200.00000 227.61413
75.17980 172.00000 233.56391
75.19293 194.00000 239.81633
75.20606 197.00000 246.30240
75.21919 238.00000 252.95134
75.23232 263.00000 259.69117
75.24545 237.00000 266.45106
75.25858 243.00000 273.16311
75.27171 292.00000 279.76837
75.28484 280.00000 286.20484
75.29797 283.00000 292.40342
75.31110 315.00000 298.28174
75.32423 287.00000 303.73422
75.33736 312.00000 308.62635
75.35049 319.00000 312.79637
75.36362 308.00000 316.06417
75.37675 300.00000 318.24574
75.38988 310.00000 319.19069
75.40301 319.00000 318.80234
75.41614 335.00000 317.05490
75.42927 349.00000 314.00398
75.44240 335.00000 309.78262
75.45553 343.00000 304.58594
75.46866 305.00000 298.64693
75.48179 330.00000 292.21463
75.49492 324.00000 285.53150
75.50805 287.00000 278.81781
75.52118 301.00000 272.26101
75.53431 255.00000 266.01095
75.54744 259.00000 260.17891
75.56057 255.00000 254.83912
75.57370 249.00000 250.03194
75.58683 255.00000 245.76750
75.59996 264.00000 242.02663
75.61310 263.00000 238.76652
75.62623 261.00000 235.92354
75.63936 236.00000 233.42003
75.65249 227.00000 231.16812
75.66562 238.00000 229.08011
75.67875 246.00000 227.07517
75.69188 239.00000 225.08543
75.70501 228.00000 223.06183
75.71814 233.00000 220.97479
75.73127 216.00000 218.81226
75.74440 233.00000 216.57555
75.75753 210.00000 214.27329
75.77066 234.00000 211.91841
75.78379 197.00000 209.52632
75.79692 206.00000 207.11367
75.81005 236.00000 204.69901
75.82318 191.00000 202.30177
75.83631 210.00000 199.94605
75.84944 201.00000 197.65861
75.86257 207.00000 195.46812
75.87570 195.00000 193.40388
75.88883 173.00000 191.49755
75.90196 184.00000 189.77869
75.91509 189.00000 188.27338
75.92822 179.00000 187.00179
75.94135 163.00000 185.97836
75.95448 179.00000 185.21009
75.96761 157.00000 184.69530
75.98074 184.00000 184.42270
75.99387 196.00000 184.37183
76.00700 199.00000 184.51289
76.02013 191.00000 184.80732
76.03326 146.00000 185.20849
76.04639 167.00000 185.66386
76.05952 166.00000 186.11742
76.07265 141.00000 186.51204
76.08579 191.00000 186.79267
76.09892 184.00000 186.90961
76.11205 183.00000 186.82097
76.12518 178.00000 186.49592
76.13831 184.00000 185.91620
76.15144 216.00000 185.07735
76.16457 201.00000 183.98880
76.17770 191.00000 182.67284
76.19083 188.00000 181.16236
76.20396 188.00000 179.49766
76.21709 182.00000 177.72278
76.23022 195.00000 175.88222
76.24335 212.00000 174.01963
76.25648 192.00000 172.17256
76.26961 171.00000 170.37346
76.28274 170.00000 168.64883
76.29587 141.00000 167.01872
76.30900 178.00000 165.49607
76.32213 174.00000 164.08774
76.33526 159.00000 162.79398
76.34839 161.00000 161.60879
76.36152 157.00000 160.52072
76.37465 163.00000 159.51409
76.38778 161.00000 158.57025
76.40091 161.00000 157.66984
76.41404 149.00000 156.79466
76.42717 144.00000 155.93103
76.44030 152.00000 155.07066
76.45343 157.00000 154.20966
76.46656 150.00000 153.35171
76.47969 152.00000 152.50564
76.49282 153.00000 151.68418
76.50595 163.00000 150.90241
76.51908 133.00000 150.17502
76.53221 151.00000 149.51574
76.54535 147.00000 148.93740
76.55848 129.00000 148.45127
76.57161 151.00000 148.06628
76.58474 156.00000 147.78930
76.59787 164.00000 147.62545
76.61100 154.00000 147.57827
76.62413 143.00000 147.64989
76.63726 139.00000 147.84125
76.65039 124.00000 148.15210
76.66352 135.00000 148.58093
76.67665 137.00000 149.12504
76.68978 196.00000 149.78028
76.70291 133.00000 150.54022
76.71604 165.00000 151.39707
76.72917 149.00000 152.34150
76.74230 175.00000 153.36230
76.75543 147.00000 154.44658
76.76856 159.00000 155.58002
76.78169 166.00000 156.74765
76.79482 165.00000 157.93451
76.80795 181.00000 159.12478
76.82108 178.00000 160.30499
76.83421 185.00000 161.46529
76.84734 179.00000 162.60014
76.86047 154.00000 163.70913
76.87360 158.00000 164.80040
76.88673 155.00000 165.88951
76.89986 169.00000 166.99882
76.91299 150.00000 168.15594
76.92612 165.00000 169.39149
76.93925 184.00000 170.73542
76.95238 182.00000 172.21591
76.96551 182.00000 173.85778
76.97864 176.00000 175.67973
76.99177 162.00000 177.69291
77.00491 157.00000 179.90165
77.01804 171.00000 182.30312
77.03117 188.00000 184.88619
77.04430 169.00000 187.62561
77.05743 188.00000 190.48609
77.07056 207.00000 193.41967
77.08369 151.00000 196.36673
77.09682 189.00000 199.25666
77.10995 199.00000 202.01105
77.12308 163.00000 204.55086
77.13621 215.00000 206.80596
77.14934 201.00000 208.71866
77.16247 201.00000 210.25601
77.17560 209.00000 211.41589
77.18873 222.00000 212.22918
77.20186 228.00000 212.75651
77.21499 238.00000 213.08164
77.22812 229.00000 213.30174
77.24125 205.00000 213.51760
77.25438 240.00000 213.83363
77.26751 206.00000 214.33656
77.28064 245.00000 215.09996
77.29377 235.00000 216.18289
77.30690 219.00000 217.62749
77.32003 225.00000 219.45884
77.33316 232.00000 221.68494
77.34629 246.00000 224.29535
77.35942 248.00000 227.26212
77.37255 249.00000 230.53811
77.38568 238.00000 234.05817
77.39881 262.00000 237.73918
77.41194 239.00000 241.48316
77.42507 264.00000 245.18402
77.43820 268.00000 248.73308
77.45133 297.00000 252.02984
77.46446 281.00000 254.99147
77.47760 287.00000 257.56114
77.49073 317.00000 259.71527
77.50386 302.00000 261.45862
77.51699 282.00000 262.82070
77.53012 335.00000 263.84686
77.54325 317.00000 264.58673
77.55638 299.00000 265.08645
77.56951 303.00000 265.37340
77.58264 284.00000 265.45919
77.59577 276.00000 265.33607
77.60890 298.00000 264.98493
77.62203 285.00000 264.38462
77.63516 274.00000 263.51672
77.64829 292.00000 262.38549
77.66142 307.00000 261.02001
77.67455 280.00000 259.47088
77.68768 247.00000 257.81590
77.70081 255.00000 256.14954
77.71394 291.00000 254.57401
77.72707 256.00000 253.19129
77.74020 246.00000 252.09624
77.75333 266.00000 251.37180
77.76646 243.00000 251.09096
77.77959 233.00000 251.31000
77.79272 286.00000 252.07409
77.80585 241.00000 253.42006
77.81898 269.00000 255.37861
77.83211 226.00000 257.97665
77.84524 228.00000 261.23964
77.85837 267.00000 265.19396
77.87150 248.00000 269.86033
77.88463 231.00000 275.25794
77.89776 286.00000 281.39975
77.91089 282.00000 288.28855
77.92402 228.00000 295.91626
77.93716 285.00000 304.25711
77.95029 316.00000 313.27079
77.96342 311.00000 322.89806
77.97655 303.00000 333.06003
77.98968 273.00000 343.65794
78.00281 291.00000 354.57263
78.01594 323.00000 365.66324
78.02907 336.00000 376.76494
78.04220 363.00000 387.68551
78.05533 352.00000 398.20257
78.06846 366.00000 408.06433
78.08159 386.00000 416.99414
78.09472 387.00000 424.70156
78.10785 408.00000 430.90109
78.12098 444.00000 435.33717
78.13411 441.00000 437.81203
78.14724 467.00000 438.21182
78.16037 465.00000 436.52503
78.17350 454.00000 432.85065
78.18663 484.00000 427.38725
78.19976 506.00000 420.41294
78.21289 456.00000 412.25590
78.22602 473.00000 403.26076
78.23915 446.00000 393.75867
78.25228 428.00000 384.04463
78.26541 411.00000 374.36398
78.27854 453.00000 364.90583
78.29167 397.00000 355.80381
78.30480 358.00000 347.14231
78.31793 327.00000 338.96499
78.33106 343.00000 331.28610
78.34419 350.00000 324.10090
78.35732 327.00000 317.39627
78.37045 314.00000 311.15808
78.38358 283.00000 305.37742
78.39672 322.00000 300.05253
78.40985 256.00000 295.18694
78.42298 264.00000 290.78562
78.43611 290.00000 286.84960
78.44924 278.00000 283.37028
78.46237 261.00000 280.32497
78.47550 300.00000 277.67367
78.48863 264.00000 275.35803
78.50176 229.00000 273.30128
78.51489 259.00000 271.41195
78.52802 231.00000 269.58900
78.54115 226.00000 267.72935
78.55428 241.00000 265.73694
78.56741 226.00000 263.53111
78.58054 245.00000 261.05713
78.59367 189.00000 258.29214
78.60680 229.00000 255.24664
78.61993 229.00000 251.96203
78.63306 225.00000 248.50408
78.64619 210.00000 244.95430
78.65932 209.00000 241.40081
78.67245 208.00000 237.93047
78.68558 217.00000 234.62313
78.69871 200.00000 231.54812
78.71184 214.00000 228.76261
78.72497 215.00000 226.31135
78.73810 217.00000 224.22795
78.75123 205.00000 222.53445
78.76436 195.00000 221.24159
78.77749 217.00000 220.35004
78.79062 203.00000 219.85026
78.80375 228.00000 219.72282
78.81688 241.00000 219.93849
78.83001 220.00000 220.45903
78.84314 189.00000 221.23863
78.85627 229.00000 222.22102
78.86941 224.00000 223.35014
78.88254 215.00000 224.57002
78.89567 265.00000 225.82868
78.90880 282.00000 227.08103
78.92193 240.00000 228.29400
78.93506 231.00000 229.45949
78.94819 244.00000 230.56542
78.96132 248.00000 231.60876
78.97445 273.00000 232.59093
78.98758 261.00000 233.51129
79.00071 295.00000 234.36545
79.01384 265.00000 235.14420
79.02697 247.00000 235.83528
79.04010 293.00000 236.42669
79.05323 246.00000 236.91219
79.06636 239.00000 237.29457
79.07949 286.00000 237.58941
79.09262 241.00000 237.82511
79.10575 267.00000 238.04103
79.11888 264.00000 238.28436
79.13201 256.00000 238.60607
79.14514 248.00000 239.05669
79.15827 303.00000 239.68294
79.17140 283.00000 240.52517
79.18453 256.00000 241.61555
79.19766 272.00000 242.97722
79.21079 256.00000 244.62235
79.22392 261.00000 246.55021
79.23705 262.00000 248.74872
79.25018 270.00000 251.19254
79.26331 275.00000 253.84326
79.27644 261.00000 256.64991
79.28957 285.00000 259.55011
79.30270 243.00000 262.47618
79.31583 296.00000 265.35931
79.32897 271.00000 268.13391
79.34210 279.00000 270.74797
79.35523 273.00000 273.15047
79.36836 311.00000 275.30514
79.38149 301.00000 277.18666
79.39462 291.00000 278.77688
79.40775 305.00000 280.06111
79.42088 303.00000 281.02458
79.43401 296.00000 281.65183
79.44714 307.00000 281.92486
79.46027 323.00000 281.82915
79.47340 338.00000 281.35625
79.48653 300.00000 280.50459
79.49966 336.00000 279.28428
79.51279 283.00000 277.71481
79.52592 309.00000 275.82298
79.53905 327.00000 273.63904
79.55218 284.00000 271.19348
79.56531 285.00000 268.51563
79.57844 288.00000 265.63122
79.59157 259.00000 262.56334
79.60470 271.00000 259.33398
79.61783 275.00000 255.96466
79.63096 259.00000 252.48113
79.64409 268.00000 248.92449
79.65722 276.00000 245.32887
79.67035 275.00000 241.73843
79.68348 285.00000 238.20305
79.69661 283.00000 234.77427
79.70974 235.00000 231.50206
79.72287 262.00000 228.43071
79.73600 271.00000 225.59625
79.74913 236.00000 223.02479
79.76226 233.00000 220.73157
79.77539 214.00000 218.72170
79.78852 224.00000 216.99202
79.80166 258.00000 215.53379
79.81479 223.00000 214.33567
79.82792 226.00000 213.38666
79.84105 202.00000 212.67968
79.85418 241.00000 212.21298
79.86731 235.00000 211.99087
79.88044 217.00000 212.02341
79.89357 209.00000 212.32499
79.90670 214.00000 212.91226
79.91983 208.00000 213.80104
79.93296 218.00000 215.00393
79.94609 210.00000 216.52782
79.95922 220.00000 218.37169
79.97235 217.00000 220.52519
79.98548 227.00000 222.96784
79.99861 222.00000 225.66913
80.01174 257.00000 228.58912
80.02487 234.00000 231.67997
80.03800 220.00000 234.88578
80.05113 265.00000 238.14392
80.06426 270.00000 241.38768
80.07739 211.00000 244.54417
80.09052 244.00000 247.53457
80.10365 287.00000 250.27420
80.11678 281.00000 252.67297
80.12991 256.00000 254.63874
80.14304 246.00000 256.08387
80.15617 294.00000 256.92840
80.16930 310.00000 257.11156
80.18243 311.00000 256.59920
80.19556 312.00000 255.38894
80.20869 291.00000 253.51445
80.22182 344.00000 251.04331
80.23495 280.00000 248.07154
80.24808 293.00000 244.71519
80.26122 289.00000 241.09928
80.27435 282.00000 237.35411
80.28748 258.00000 233.59890
80.30061 242.00000 229.94316
80.31374 227.00000 226.48296
80.32687 234.00000 223.29956
80.34000 255.00000 220.45953
80.35313 233.00000 218.01506
80.36626 203.00000 216.00649
80.37939 219.00000 214.47228
80.39252 230.00000 213.43670
80.40565 216.00000 212.91812
80.41878 201.00000 212.93165
80.43191 215.00000 213.48977
80.44504 211.00000 214.60309
80.45817 213.00000 216.27990
80.47130 202.00000 218.52636
80.48443 184.00000 221.34440
80.49756 211.00000 224.73229
80.51069 239.00000 228.68234
80.52382 214.00000 233.17875
80.53695 229.00000 238.19582
80.55008 255.00000 243.69873
80.56321 233.00000 249.63866
80.57634 259.00000 255.94636
80.58947 271.00000 262.53585
80.60260 266.00000 269.30187
80.61573 287.00000 276.11968
80.62886 291.00000 282.84698
80.64199 275.00000 289.32836
80.65512 314.00000 295.40215
80.66825 336.00000 300.90978
80.68138 336.00000 305.70643
80.69451 361.00000 309.67154
80.70764 340.00000 312.71760
80.72078 336.00000 314.79560
80.73391 385.00000 315.89513
80.74704 368.00000 316.04567
80.76017 361.00000 315.33311
80.77330 381.00000 313.84625
80.78643 344.00000 311.70463
80.79956 321.00000 309.04703
80.81269 310.00000 306.02312
80.82582 310.00000 302.78699
80.83895 313.00000 299.49055
80.85208 320.00000 296.27742
80.86521 297.00000 293.27761
80.87834 289.00000 290.60340
80.89147 292.00000 288.34665
80.90460 241.00000 286.57726
80.91773 265.00000 285.34261
80.93086 246.00000 284.66813
80.94399 248.00000 284.55476
80.95712 265.00000 284.98105
80.97025 272.00000 285.90237
80.98338 259.00000 287.25049
80.99651 256.00000 288.93367
81.00964 264.00000 290.83773
81.02277 276.00000 292.82858
81.03590 264.00000 294.75667
81.04903 265.00000 296.46351
81.06216 233.00000 297.79020
81.07529 264.00000 298.58722
81.08842 293.00000 298.72403
81.10155 300.00000 298.09880
81.11468 269.00000 296.65223
81.12781 294.00000 294.35683
81.14094 265.00000 291.22696
81.15407 269.00000 287.31489
81.16720 272.00000 282.70458
81.18033 295.00000 277.50426
81.19347 290.00000 271.83819
81.20660 242.00000 265.83842
81.21973 271.00000 259.63690
81.23286 230.00000 253.35978
81.24599 225.00000 247.12265
81.25912 238.00000 241.02526
81.27225 272.00000 235.15049
81.28538 212.00000 229.57346
81.29851 230.00000 224.34878
81.31164 191.00000 219.51296
81.32477 185.00000 215.09194
81.33790 271.00000 211.10065
81.35103 209.00000 207.54382
81.36416 211.00000 204.41698
81.37729 210.00000 201.70730
81.39042 260.00000 199.39405
81.40355 187.00000 197.44854
81.41668 208.00000 195.83465
81.42981 185.00000 194.51485
81.44294 209.00000 193.44409
81.45607 206.00000 192.56960
81.46920 209.00000 191.83834
81.48233 214.00000 191.19818
81.49546 226.00000 190.60061
81.50859 232.00000 190.00389
81.52172 200.00000 189.37570
81.53485 223.00000 188.69578
81.54798 185.00000 187.96061
81.56111 179.00000 187.17375
81.57424 218.00000 186.35516
81.58737 190.00000 185.52989
81.60050 213.00000 184.73136
81.61363 210.00000 183.99476
81.62676 199.00000 183.35646
81.63989 198.00000 182.85233
81.65303 198.00000 182.51621
81.66616 178.00000 182.37879
81.67929 208.00000 182.46677
81.69242 183.00000 182.80395
81.70555 173.00000 183.41556
81.71868 190.00000 184.31583
81.73181 175.00000 185.51732
81.74494 181.00000 187.02938
81.75807 174.00000 188.85748
81.77120 159.00000 191.00273
81.78433 195.00000 193.46140
81.79746 168.00000 196.22409
81.81059 198.00000 199.27467
81.82372 187.00000 202.58876
81.83685 202.00000 206.13275
81.84998 198.00000 209.86831
81.86311 211.00000 213.74155
81.87624 198.00000 217.68864
81.88937 224.00000 221.63773
81.90250 199.00000 225.51095
81.91563 229.00000 229.22864
81.92876 213.00000 232.71494
81.94189 239.00000 235.90411
81.95502 240.00000 238.74673
81.96815 238.00000 241.21452
81.98128 247.00000 243.30298
81.99441 211.00000 245.03125
82.00754 262.00000 246.43941
82.02067 279.00000 247.58388
82.03380 233.00000 248.53207
82.04693 229.00000 249.35707
82.06006 216.00000 250.13342
82.07319 249.00000 250.93387
82.08632 263.00000 251.82731
82.09945 287.00000 252.87735
82.11259 272.00000 254.14140
82.12572 287.00000 255.66990
82.13885 233.00000 257.50558
82.15198 276.00000 259.68286
82.16511 256.00000 262.22703
82.17824 248.00000 265.15325
82.19137 280.00000 268.46438
82.20450 289.00000 272.15196
82.21763 272.00000 276.20843
82.23076 302.00000 280.59242
82.24389 299.00000 285.25107
82.25702 297.00000 290.12201
82.27015 301.00000 295.14148
82.28328 303.00000 300.20745
82.29641 306.00000 305.21468
82.30954 309.00000 310.05391
82.32267 325.00000 314.61554
82.33580 334.00000 318.79584
82.34893 318.00000 322.50292
82.36206 330.00000 325.66139
82.37519 353.00000 328.21512
82.38832 371.00000 330.12773
82.40145 333.00000 331.38069
82.41458 337.00000 331.97476
82.42771 355.00000 331.92568
82.44084 361.00000 331.26486
82.45397 343.00000 330.04019
82.46710 359.00000 328.31666
82.48023 301.00000 326.17592
82.49336 358.00000 323.71378
82.50649 337.00000 321.03564
82.51962 318.00000 318.25010
82.53275 322.00000 315.46181
82.54588 312.00000 312.76458
82.55901 309.00000 310.23572
82.57214 302.00000 307.93208
82.58528 287.00000 305.88815
82.59841 341.00000 304.11607
82.61154 271.00000 302.60745
82.62467 258.00000 301.33663
82.63780 238.00000 300.26505
82.65093 282.00000 299.34605
82.66406 235.00000 298.52972
82.67719 250.00000 297.76687
82.69032 268.00000 297.01180
82.70345 288.00000 296.22349
82.71658 282.00000 295.36545
82.72971 258.00000 294.40473
82.74284 291.00000 293.31071
82.75597 299.00000 292.05448
82.76910 278.00000 290.61038
82.78223 311.00000 288.95826
82.79536 347.00000 287.07991
82.80849 307.00000 284.96432
82.82162 298.00000 282.60678
82.83475 272.00000 280.00663
82.84788 313.00000 277.16648
82.86101 335.00000 274.08828
82.87414 274.00000 270.77109
82.88727 259.00000 267.21085
82.90040 278.00000 263.40161
82.91353 257.00000 259.33919
82.92666 273.00000 255.02405
82.93979 286.00000 250.46428
82.95292 244.00000 245.67894
82.96605 245.00000 240.69853
82.97918 234.00000 235.56349
82.99231 214.00000 230.32089
83.00544 189.00000 225.02481
83.01857 198.00000 219.73738
83.03170 187.00000 214.50623
83.04484 209.00000 209.37771
83.05797 188.00000 204.39264
83.07110 197.00000 199.58447
83.08423 184.00000 194.97892
83.09736 213.00000 190.59429
83.11049 161.00000 186.44205
83.12362 199.00000 182.52778
83.13675 155.00000 178.85206
83.14988 169.00000 175.41182
83.16301 142.00000 172.20389
83.17614 152.00000 169.22152
83.18927 160.00000 166.45476
83.20240 156.00000 163.89328
83.21553 153.00000 161.55358
83.22866 164.00000 159.42258
83.24179 156.00000 157.49319
83.25492 154.00000 155.76113
83.26805 141.00000 154.22198
83.28118 158.00000 152.87062
83.29431 143.00000 151.70104
83.30744 153.00000 150.70621
83.32057 165.00000 149.87795
83.33370 116.00000 149.20699
83.34683 145.00000 148.68298
83.35996 127.00000 148.29460
83.37309 143.00000 148.02975
83.38622 148.00000 147.87570
83.39935 145.00000 147.81928
83.41248 160.00000 147.84688
83.42561 152.00000 147.94449
83.43874 134.00000 148.09752
83.45187 139.00000 148.29058
83.46500 154.00000 148.50730
83.47813 136.00000 148.73032
83.49126 157.00000 148.94150
83.50439 150.00000 149.12263
83.51753 142.00000 149.25629
83.53066 136.00000 149.32713
83.54379 158.00000 149.32305
83.55692 166.00000 149.23628
83.57005 147.00000 149.06391
83.58318 127.00000 148.80799
83.59631 132.00000 148.47498
83.60944 143.00000 148.07481
83.62257 154.00000 147.61980
83.63570 147.00000 147.12359
83.64883 158.00000 146.60029
83.66196 133.00000 146.06389
83.67509 147.00000 145.52797
83.68822 157.00000 145.00549
83.70135 150.00000 144.50877
83.71448 146.00000 144.04935
83.72761 131.00000 143.63803
83.74074 163.00000 143.28440
83.75387 175.00000 142.99690
83.76700 141.00000 142.78302
83.78013 155.00000 142.64928
83.79326 142.00000 142.60083
83.80639 148.00000 142.64226
83.81952 140.00000 142.77775
83.83265 144.00000 143.01129
83.84578 142.00000 143.34680
83.85891 157.00000 143.78828
83.87204 140.00000 144.33971
83.88517 143.00000 145.00473
83.89830 126.00000 145.78608
83.91143 151.00000 146.68549
83.92456 131.00000 147.70807
83.93769 131.00000 148.85431
83.95082 150.00000 150.12212
83.96395 152.00000 151.50856
83.97709 134.00000 153.00879
83.99022 137.00000 154.61580
84.00335 121.00000 156.32050
84.01648 143.00000 158.11210
84.02961 171.00000 159.97925
84.04274 142.00000 161.91008
84.05587 143.00000 163.89387
84.06900 163.00000 165.92226
84.08213 146.00000 167.99027
84.09526 146.00000 170.09701
84.10839 158.00000 172.24590
84.12152 164.00000 174.44406
84.13465 177.00000 176.70156
84.14778 159.00000 179.03347
84.16091 181.00000 181.45158
84.17404 174.00000 183.96637
84.18717 180.00000 186.58575
84.20030 171.00000 189.31341
84.21343 182.00000 192.14776
84.22656 164.00000 195.08129
84.23969 193.00000 198.10175
84.25282 179.00000 201.19123
84.26595 179.00000 204.32369
84.27908 217.00000 207.46797
84.29221 211.00000 210.59042
84.30534 215.00000 213.65323
84.31847 258.00000 216.61427
84.33160 243.00000 219.43240
84.34473 232.00000 222.06966
84.35786 236.00000 224.49438
84.37099 242.00000 226.68458
84.38412 243.00000 228.63098
84.39725 266.00000 230.33911
84.41038 278.00000 231.82987
84.42351 230.00000 233.13867
84.43665 239.00000 234.31299
84.44978 229.00000 235.40857
84.46291 229.00000 236.48565
84.47604 211.00000 237.61068
84.48917 255.00000 238.84615
84.50230 230.00000 240.24708
84.51543 226.00000 241.86386
84.52856 232.00000 243.73965
84.54169 256.00000 245.90883
84.55482 224.00000 248.39599
84.56795 214.00000 251.21523
84.58108 239.00000 254.36985
84.59421 265.00000 257.85012
84.60734 240.00000 261.63453
84.62047 276.00000 265.69018
84.63360 255.00000 269.97429
84.64673 230.00000 274.43668
84.65986 257.00000 279.02320
84.67299 264.00000 283.67974
84.68612 293.00000 288.35566
84.69925 279.00000 293.00684
84.71238 305.00000 297.59712
84.72551 313.00000 302.09782
84.73864 316.00000 306.48575
84.75177 308.00000 310.73860
84.76490 319.00000 314.82987
84.77803 337.00000 318.72478
84.79116 319.00000 322.37670
84.80429 309.00000 325.72587
84.81742 312.00000 328.70081
84.83055 312.00000 331.22249
84.84368 341.00000 333.21115
84.85681 347.00000 334.59570
84.86994 347.00000 335.31980
84.88307 328.00000 335.35136
84.89620 361.00000 334.68461
84.90934 346.00000 333.34285
84.92247 321.00000 331.37357
84.93560 357.00000 328.84494
84.94873 329.00000 325.83614
84.96186 389.00000 322.43140
84.97499 331.00000 318.71392
84.98812 320.00000 314.76174
85.00125 381.00000 310.64594
85.01438 337.00000 306.43073
85.02751 357.00000 302.17454
85.04064 321.00000 297.93148
85.05377 319.00000 293.75245
85.06690 351.00000 289.68543
85.08003 330.00000 285.77506
85.09316 285.00000 282.06122
85.10629 318.00000 278.57785
85.11942 302.00000 275.35443
85.13255 322.00000 272.40897
85.14568 285.00000 269.75109
85.15881 275.00000 267.38114
85.17194 265.00000 265.28835
85.18507 280.00000 263.45171
85.19820 243.00000 261.83962
85.21133 269.00000 260.40992
85.22446 268.00000 259.11021
85.23759 233.00000 257.87856
85.25072 247.00000 256.64490
85.26385 233.00000 255.33308
85.27698 241.00000 253.86419
85.29011 192.00000 252.16080
85.30324 228.00000 250.15217
85.31637 183.00000 247.77988
85.32950 200.00000 245.00294
85.34263 204.00000 241.80179
85.35576 185.00000 238.18013
85.36890 194.00000 234.16439
85.38203 207.00000 229.80091
85.39516 184.00000 225.15126
85.40829 213.00000 220.28665
85.42142 169.00000 215.28231
85.43455 173.00000 210.21236
85.44768 161.00000 205.14606
85.46081 178.00000 200.14516
85.47394 195.00000 195.26251
85.48707 175.00000 190.54171
85.50020 143.00000 186.01742
85.51333 158.00000 181.71614
85.52646 157.00000 177.65719
85.53959 190.00000 173.85378
85.55272 171.00000 170.31395
85.56585 149.00000 167.04139
85.57898 166.00000 164.03614
85.59211 189.00000 161.29500
85.60524 158.00000 158.81196
85.61837 166.00000 156.58037
85.63150 160.00000 154.59096
85.64463 152.00000 152.83224
85.65776 135.00000 151.29229
85.67089 157.00000 149.95885
85.68402 141.00000 148.81974
85.69715 140.00000 147.86345
85.71028 126.00000 147.07921
85.72341 162.00000 146.45712
85.73654 150.00000 145.98767
85.74967 136.00000 145.66222
85.76280 152.00000 145.47738
85.77593 143.00000 145.42315
85.78906 154.00000 145.49007
85.80219 137.00000 145.66771
85.81532 145.00000 145.94373
85.82846 134.00000 146.30346
85.84159 114.00000 146.72990
85.85472 161.00000 147.20494
85.86785 153.00000 147.70907
85.88098 146.00000 148.22147
85.89411 164.00000 148.72237
85.90724 161.00000 149.19407
85.92037 148.00000 149.62188
85.93350 129.00000 149.99508
85.94663 168.00000 150.30718
85.95976 145.00000 150.55585
85.97289 160.00000 150.74216
85.98602 158.00000 150.86949
85.99915 169.00000 150.94225
86.01228 179.00000 150.96458
86.02541 156.00000 150.93923
86.03854 157.00000 150.86675
86.05167 146.00000 150.74539
86.06480 156.00000 150.57155
86.07793 147.00000 150.33925
86.09106 149.00000 150.04193
86.10419 136.00000 149.67343
86.11732 174.00000 149.22942
86.13045 168.00000 148.70858
86.14358 154.00000 148.11355
86.15671 141.00000 147.45148
86.16984 170.00000 146.73388
86.18297 122.00000 145.97596
86.19610 126.00000 145.19561
86.20923 123.00000 144.41200
86.22236 152.00000 143.64414
86.23549 141.00000 142.90997
86.24862 118.00000 142.22600
86.26175 140.00000 141.60449
86.27488 150.00000 141.05472
86.28801 153.00000 140.58252
86.30115 124.00000 140.19017
86.31428 119.00000 139.87645
86.32741 127.00000 139.63672
86.34054 151.00000 139.46307
86.35367 148.00000 139.34441
86.36680 127.00000 139.26627
86.37993 122.00000 139.21112
86.39306 136.00000 139.15870
86.40619 150.00000 139.08848
86.41932 142.00000 138.97746
86.43245 144.00000 138.80328
86.44558 138.00000 138.54585
86.45871 148.00000 138.18806
86.47184 143.00000 137.71798
86.48497 161.00000 137.12987
86.49810 152.00000 136.42455
86.51123 166.00000 135.60923
86.52436 125.00000 134.69657
86.53749 150.00000 133.70405
86.55062 156.00000 132.65418
86.56375 146.00000 131.56793
86.57688 128.00000 130.46718
86.59001 150.00000 129.37309
86.60314 141.00000 128.30507
86.61627 103.00000 127.28043
86.62940 128.00000 126.31418
86.64253 133.00000 125.41907
86.65566 120.00000 124.60579
86.66879 131.00000 123.88314
86.68192 128.00000 123.25830
86.69505 127.00000 122.73707
86.70818 138.00000 122.32405
86.72131 111.00000 122.02282
86.73444 142.00000 121.83607
86.74757 130.00000 121.76566
86.76071 122.00000 121.81272
86.77384 117.00000 121.97764
86.78697 103.00000 122.26008
86.80010 134.00000 122.65893
86.81323 126.00000 123.17210
86.82636 126.00000 123.79659
86.83949 123.00000 124.52822
86.85262 127.00000 125.36153
86.86575 122.00000 126.28992
86.87888 136.00000 127.30492
86.89201 128.00000 128.39608
86.90514 124.00000 129.55080
86.91827 134.00000 130.75592
86.93140 131.00000 131.99685
86.94453 135.00000 133.25636
86.95766 140.00000 134.51707
86.97079 132.00000 135.76190
86.98392 133.00000 136.97465
86.99705 137.00000 138.14088
87.01018 143.00000 139.24850
87.02331 120.00000 140.28812
87.03644 138.00000 141.25309
87.04957 143.00000 142.13916
87.06270 136.00000 142.94381
87.07583 115.00000 143.66554
87.08896 140.00000 144.30386
87.10209 152.00000 144.85998
87.11522 159.00000 145.33361
87.12835 127.00000 145.72570
87.14148 155.00000 146.03862
87.15461 156.00000 146.27686
87.16774 122.00000 146.44734
87.18087 128.00000 146.55954
87.19400 133.00000 146.62520
87.20713 157.00000 146.65766
87.22026 123.00000 146.67189
87.23340 140.00000 146.68198
87.24653 141.00000 146.70077
87.25966 136.00000 146.73943
87.27279 136.00000 146.80695
87.28592 136.00000 146.91004
87.29905 127.00000 147.05342
87.31218 141.00000 147.24032
87.32531 139.00000 147.47305
87.33844 133.00000 147.75356
87.35157 171.00000 148.08333
87.36470 164.00000 148.46368
87.37783 152.00000 148.90222
87.39096 156.00000 149.40129
87.40409 156.00000 149.97025
87.41722 149.00000 150.61116
87.43035 165.00000 151.32701
87.44348 141.00000 152.12083
87.45661 161.00000 152.99451
87.46974 148.00000 153.94847
87.48287 148.00000 154.98141
87.49600 135.00000 156.09025
87.50913 126.00000 157.27010
87.52226 173.00000 158.51442
87.53539 163.00000 159.81500
87.54852 148.00000 161.16178
87.56165 168.00000 162.54497
87.57478 178.00000 163.95998
87.58791 175.00000 165.39379
87.60104 160.00000 166.83712
87.61417 172.00000 168.28523
87.62730 172.00000 169.72899
87.64043 160.00000 171.16168
87.65356 177.00000 172.57815
87.66669 169.00000 173.97465
87.67982 165.00000 175.34906
87.69296 190.00000 176.70103
87.70609 193.00000 178.03271
87.71922 172.00000 179.35037
87.73235 195.00000 180.65911
87.74548 194.00000 181.96559
87.75861 186.00000 183.27644
87.77174 186.00000 184.59671
87.78487 165.00000 185.92863
87.79800 191.00000 187.27057
87.81113 197.00000 188.61637
87.82426 197.00000 189.95515
87.83739 180.00000 191.27162
87.85052 189.00000 192.54695
87.86365 178.00000 193.76000
87.87678 178.00000 194.88895
87.88991 197.00000 195.91307
87.90304 190.00000 196.81447
87.91617 190.00000 197.57964
87.92930 224.00000 198.20061
87.94243 196.00000 198.67668
87.95556 226.00000 199.01280
87.96869 168.00000 199.21996
87.98182 226.00000 199.31450
87.99495 181.00000 199.31668
88.00808 197.00000 199.24895
88.02121 194.00000 199.13491
88.03434 213.00000 198.99794
88.04747 183.00000 198.85844
88.06060 201.00000 198.73286
88.07373 179.00000 198.63265
88.08686 184.00000 198.56321
88.09999 187.00000 198.52336
88.11312 161.00000 198.50529
88.12625 187.00000 198.49508
88.13938 188.00000 198.47390
88.15252 172.00000 198.41965
88.16565 186.00000 198.30914
88.17878 186.00000 198.12044
88.19191 176.00000 197.83515
88.20504 172.00000 197.44031
88.21817 184.00000 196.92974
88.23130 156.00000 196.30443
88.24443 202.00000 195.57209
88.25756 170.00000 194.74590
88.27069 162.00000 193.84257
88.28382 175.00000 192.88023
88.29695 195.00000 191.87627
88.31008 189.00000 190.84546
88.32321 188.00000 189.79863
88.33634 164.00000 188.74377
88.34947 164.00000 187.68588
88.36260 195.00000 186.62396
88.37573 157.00000 185.55575
88.38886 178.00000 184.47835
88.40199 183.00000 183.38919
88.41512 174.00000 182.28715
88.42825 175.00000 181.17329
88.44138 174.00000 180.05134
88.45451 159.00000 178.92776
88.46764 167.00000 177.81145
88.48077 151.00000 176.71326
88.49390 174.00000 175.64583
88.50703 158.00000 174.62147
88.52016 150.00000 173.65162
88.53329 163.00000 172.74589
88.54642 179.00000 171.91096
88.55955 153.00000 171.14968
88.57268 150.00000 170.46050
88.58581 169.00000 169.83712
88.59894 168.00000 169.26846
88.61207 158.00000 168.73856
88.62521 166.00000 168.22732
88.63834 162.00000 167.71697
88.65147 173.00000 167.18373
88.66460 175.00000 166.60365
88.67773 162.00000 165.95526
88.69086 148.00000 165.22053
88.70399 191.00000 164.38607
88.71712 171.00000 163.44357
88.73025 208.00000 162.39291
88.74338 183.00000 161.23865
88.75651 189.00000 159.99298
88.76964 204.00000 158.67848
88.78277 183.00000 157.31383
88.79590 188.00000 155.92233
88.80903 200.00000 154.52891
88.82216 163.00000 153.15803
88.83529 194.00000 151.83260
88.84842 172.00000 150.57303
88.86155 154.00000 149.39665
88.87468 165.00000 148.31724
88.88781 156.00000 147.34463
88.90094 143.00000 146.48536
88.91407 159.00000 145.74550
88.92720 146.00000 145.12387
88.94033 162.00000 144.61741
88.95346 143.00000 144.22079
88.96659 126.00000 143.92658
88.97972 146.00000 143.72574
88.99285 143.00000 143.60820
89.00598 155.00000 143.56343
89.01911 135.00000 143.58096
89.03224 123.00000 143.65081
89.04537 152.00000 143.76371
89.05850 137.00000 143.91110
89.07163 139.00000 144.08491
89.08477 140.00000 144.27713
89.09790 135.00000 144.47928
89.11103 127.00000 144.68179
89.12416 148.00000 144.87398
89.13729 152.00000 145.04375
89.15042 143.00000 145.17718
89.16355 155.00000 145.25964
89.17668 144.00000 145.27653
89.18981 175.00000 145.21433
89.20294 172.00000 145.06176
89.21607 142.00000 144.81089
89.22920 166.00000 144.45803
89.24233 166.00000 144.00416
89.25546 172.00000 143.45497
89.26859 125.00000 142.82036
89.28172 172.00000 142.11363
89.29485 158.00000 141.35049
89.30798 162.00000 140.54790
89.32111 151.00000 139.72297
89.33424 159.00000 138.89219
89.34737 131.00000 138.07062
89.36050 139.00000 137.27152
89.37363 143.00000 136.50589
89.38676 137.00000 135.78241
89.39989 138.00000 135.10726
89.41302 147.00000 134.48418
89.42615 134.00000 133.91462
89.43928 134.00000 133.39776
89.45241 125.00000 132.93085
89.46554 119.00000 132.50959
89.47867 136.00000 132.12855
89.49180 133.00000 131.78178
89.50493 128.00000 131.46347
89.51806 139.00000 131.16852
89.53119 151.00000 130.89321
89.54433 149.00000 130.63566
89.55746 130.00000 130.39606
89.57059 130.00000 130.17678
89.58372 143.00000 129.98216
89.59685 152.00000 129.81816
89.60998 131.00000 129.69181
89.62311 137.00000 129.61074
89.63624 143.00000 129.58256
89.64937 139.00000 129.61441
89.66250 146.00000 129.71261
89.67563 130.00000 129.88239
89.68876 138.00000 130.12773
89.70189 137.00000 130.45129
89.71502 107.00000 130.85440
89.72815 139.00000 131.33710
89.74128 119.00000 131.89815
89.75441 137.00000 132.53510
89.76754 125.00000 133.24422
89.78067 142.00000 134.02059
89.79380 133.00000 134.85797
89.80693 110.00000 135.74885
89.82006 144.00000 136.68436
89.83319 123.00000 137.65435
89.84632 134.00000 138.64742
89.85945 163.00000 139.65111
89.87258 147.00000 140.65218
89.88571 155.00000 141.63704
89.89884 140.00000 142.59227
89.91197 166.00000 143.50534
89.92510 138.00000 144.36537
89.93823 155.00000 145.16392
89.95136 148.00000 145.89571
89.96449 174.00000 146.55909
89.97762 160.00000 147.15634
89.99075 149.00000 147.69351
90.00388 173.00000 148.18006
90.01702 134.00000 148.62816
90.03015 144.00000 149.05195
90.04328 141.00000 149.46664
90.05641 159.00000 149.88775
90.06954 155.00000 150.33045
90.08267 163.00000 150.80907
90.09580 157.00000 151.33666
90.10893 148.00000 151.92477
90.12206 157.00000 152.58323
90.13519 169.00000 153.31996
90.14832 144.00000 154.14081
90.16145 180.00000 155.04934
90.17458 131.00000 156.04652
90.18771 154.00000 157.13193
90.20084 148.00000 158.30417
90.21397 178.00000 159.55689
90.22710 139.00000 160.88247
90.24023 142.00000 162.27167
90.25336 152.00000 163.71366
90.26649 198.00000 165.19641
90.27962 179.00000 166.70708
90.29275 194.00000 168.23252
90.30588 190.00000 169.75989
90.31901 184.00000 171.27729
90.33214 195.00000 172.77454
90.34527 192.00000 174.24397
90.35840 203.00000 175.68124
90.37153 182.00000 177.08598
90.38466 195.00000 178.46229
90.39779 193.00000 179.81894
90.41092 212.00000 181.16922
90.42405 203.00000 182.53036
90.43718 200.00000 183.92275
90.45031 209.00000 185.36883
90.46344 188.00000 186.89192
90.47658 186.00000 188.51497
90.48971 210.00000 190.25947
90.50284 171.00000 192.14443
90.51597 185.00000 194.18555
90.52910 203.00000 196.39454
90.54223 184.00000 198.77855
90.55536 175.00000 201.33976
90.56849 180.00000 204.07500
90.58162 180.00000 206.97546
90.59475 201.00000 210.02495
90.60788 215.00000 213.20056
90.62101 180.00000 216.48472
90.63414 189.00000 219.84060
90.64727 189.00000 223.22764
90.66040 235.00000 226.60032
90.67353 242.00000 229.90775
90.68666 222.00000 233.09462
90.69979 234.00000 236.10289
90.71292 281.00000 238.87404
90.72605 234.00000 241.35194
90.73918 260.00000 243.48620
90.75231 276.00000 245.23513
90.76544 264.00000 246.56857
90.77857 304.00000 247.46981
90.79170 282.00000 247.93641
90.80483 300.00000 247.97970
90.81796 299.00000 247.62330
90.83109 291.00000 246.90070
90.84422 285.00000 245.85262
90.85735 275.00000 244.52426
90.87048 273.00000 242.96310
90.88361 245.00000 241.21714
90.89674 241.00000 239.33374
90.90987 223.00000 237.35898
90.92300 226.00000 235.33725
90.93613 223.00000 233.31101
90.94927 208.00000 231.32051
90.96240 225.00000 229.40348
90.97553 200.00000 227.59472
90.98866 190.00000 225.92566
91.00179 184.00000 224.42392
91.01492 182.00000 223.11293
91.02805 213.00000 222.01153
91.04118 219.00000 221.13360
91.05431 202.00000 220.48776
91.06744 207.00000 220.07699
91.08057 199.00000 219.89822
91.09370 181.00000 219.94203
91.10683 199.00000 220.19223
91.11996 208.00000 220.62567
91.13309 185.00000 221.21214
91.14622 206.00000 221.91456
91.15935 208.00000 222.68952
91.17248 181.00000 223.48826
91.18561 193.00000 224.25822
91.19874 218.00000 224.94507
91.21187 224.00000 225.49521
91.22500 210.00000 225.85851
91.23813 198.00000 225.99107
91.25126 219.00000 225.85769
91.26439 201.00000 225.43478
91.27752 201.00000 224.70934
91.29065 242.00000 223.68030
91.30378 237.00000 222.35750
91.31691 238.00000 220.75984
91.33004 240.00000 218.91316
91.34317 248.00000 216.85104
91.35630 219.00000 214.60853
91.36943 226.00000 212.22199
91.38256 245.00000 209.72863
91.39569 229.00000 207.16521
91.40883 229.00000 204.56733
91.42196 233.00000 201.96886
91.43509 240.00000 199.40144
91.44822 227.00000 196.89410
91.46135 215.00000 194.47281
91.47448 200.00000 192.16005
91.48761 199.00000 189.97393
91.50074 204.00000 187.92790
91.51387 214.00000 186.03734
91.52700 189.00000 184.31252
91.54013 206.00000 182.75557
91.55326 187.00000 181.36757
91.56639 173.00000 180.14742
91.57952 181.00000 179.09334
91.59265 193.00000 178.20075
91.60578 168.00000 177.46381
91.61891 156.00000 176.87620
91.63204 178.00000 176.43110
91.64517 189.00000 176.12148
91.65830 171.00000 175.94030
91.67143 168.00000 175.88068
91.68456 163.00000 175.93600
91.69769 169.00000 176.09993
91.71082 201.00000 176.36641
91.72395 162.00000 176.72952
91.73708 162.00000 177.18336
91.75021 165.00000 177.72173
91.76334 178.00000 178.33791
91.77647 184.00000 179.02444
91.78960 177.00000 179.77303
91.80273 163.00000 180.57440
91.81586 168.00000 181.41852
91.82899 150.00000 182.29478
91.84212 178.00000 183.19241
91.85525 175.00000 184.10085
91.86839 188.00000 185.01024
91.88152 209.00000 185.91167
91.89465 203.00000 186.79757
91.90778 207.00000 187.66390
91.92091 226.00000 188.50815
91.93404 208.00000 189.32959
91.94717 218.00000 190.13013
91.96030 234.00000 190.91456
91.97343 219.00000 191.69034
91.98656 226.00000 192.46735
91.99969 215.00000 193.25767
92.01282 226.00000 194.07507
92.02595 227.00000 194.93450
92.03908 228.00000 195.85154
92.05221 200.00000 196.84339
92.06534 243.00000 197.92504
92.07847 204.00000 199.11079
92.09160 233.00000 200.41334
92.10473 229.00000 201.84316
92.11786 190.00000 203.40786
92.13099 205.00000 205.11190
92.14412 222.00000 206.95710
92.15725 234.00000 208.94092
92.17038 196.00000 211.05730
92.18351 212.00000 213.29684
92.19664 208.00000 215.64685
92.20977 228.00000 218.09105
92.22290 234.00000 220.60969
92.23603 235.00000 223.17948
92.24916 228.00000 225.77346
92.26229 246.00000 228.36105
92.27542 247.00000 230.90825
92.28855 263.00000 233.37811
92.30168 268.00000 235.73175
92.31481 216.00000 237.92971
92.32794 262.00000 239.93385
92.34108 239.00000 241.70941
92.35421 243.00000 243.22727
92.36734 262.00000 244.46608
92.38047 225.00000 245.41342
92.39360 232.00000 246.06680
92.40673 230.00000 246.43342
92.41986 197.00000 246.52976
92.43299 242.00000 246.38007
92.44612 236.00000 246.01299
92.45925 243.00000 245.46052
92.47238 234.00000 244.75574
92.48551 227.00000 243.93111
92.49864 218.00000 243.01714
92.51177 278.00000 242.04172
92.52490 261.00000 241.03000
92.53803 249.00000 240.00634
92.55116 237.00000 238.99151
92.56429 246.00000 238.00557
92.57742 219.00000 237.06839
92.59055 239.00000 236.19923
92.60368 245.00000 235.41744
92.61681 213.00000 234.74162
92.62994 215.00000 234.18951
92.64307 198.00000 233.77723
92.65620 247.00000 233.51847
92.66933 235.00000 233.42384
92.68246 243.00000 233.50052
92.69559 229.00000 233.75162
92.70872 223.00000 234.17641
92.72185 204.00000 234.77086
92.73498 243.00000 235.52832
92.74811 238.00000 236.44045
92.76124 259.00000 237.49827
92.77437 268.00000 238.69314
92.78750 243.00000 240.01765
92.80064 267.00000 241.46601
92.81377 257.00000 243.03417
92.82690 248.00000 244.71938
92.84003 260.00000 246.51939
92.85316 281.00000 248.43121
92.86629 284.00000 250.44978
92.87942 291.00000 252.56637
92.89255 258.00000 254.76738
92.90568 261.00000 257.03350
92.91881 258.00000 259.33783
92.93194 278.00000 261.64623
92.94507 280.00000 263.91786
92.95820 316.00000 266.10491
92.97133 267.00000 268.15458
92.98446 306.00000 270.01097
92.99759 299.00000 271.61754
93.01072 279.00000 272.92003
93.02385 352.00000 273.86952
93.03698 305.00000 274.42543
93.05011 276.00000 274.55817
93.06324 295.00000 274.25107
93.07637 292.00000 273.50158
93.08950 273.00000 272.32132
93.10263 299.00000 270.73528
93.11576 301.00000 268.78004
93.12889 274.00000 266.50136
93.14202 286.00000 263.95127
93.15515 273.00000 261.18509
93.16828 279.00000 258.25846
93.18141 314.00000 255.22473
93.19454 268.00000 252.13281
93.20767 268.00000 249.02552
93.22080 242.00000 245.93855
93.23393 242.00000 242.89995
93.24706 227.00000 239.93014
93.26020 250.00000 237.04233
93.27333 232.00000 234.24344
93.28646 222.00000 231.53522
93.29959 226.00000 228.91567
93.31272 200.00000 226.38058
93.32585 216.00000 223.92514
93.33898 199.00000 221.54529
93.35211 195.00000 219.23900
93.36524 195.00000 217.00710
93.37837 185.00000 214.85386
93.39150 205.00000 212.78650
93.40463 221.00000 210.81506
93.41776 197.00000 208.95154
93.43089 174.00000 207.20899
93.44402 198.00000 205.60039
93.45715 211.00000 204.13768
93.47028 165.00000 202.83097
93.48341 192.00000 201.68767
93.49654 187.00000 200.71218
93.50967 184.00000 199.90688
93.52280 202.00000 199.27024
93.53593 218.00000 198.79796
93.54906 209.00000 198.48363
93.56219 186.00000 198.31916
93.57532 189.00000 198.29537
93.58845 209.00000 198.40254
93.60158 182.00000 198.63098
93.61471 195.00000 198.97135
93.62784 187.00000 199.41479
93.64097 191.00000 199.95280
93.65410 192.00000 200.57690
93.66723 180.00000 201.27811
93.68036 219.00000 202.04630
93.69349 206.00000 202.86951
93.70662 185.00000 203.73334
93.71975 186.00000 204.62064
93.73289 181.00000 205.51141
93.74602 197.00000 206.38292
93.75915 193.00000 207.21044
93.77228 177.00000 207.96816
93.78541 210.00000 208.63049
93.79854 193.00000 209.17349
93.81167 176.00000 209.57634
93.82480 211.00000 209.82264
93.83793 201.00000 209.90132
93.85106 194.00000 209.80722
93.86419 200.00000 209.54096
93.87732 210.00000 209.10799
93.89045 216.00000 208.51776
93.90358 210.00000 207.78771
93.91671 194.00000 206.93181
93.92984 218.00000 205.96566
93.94297 208.00000 204.90507
93.95610 218.00000 203.76497
93.96923 216.00000 202.55906
93.98236 210.00000 201.29985
93.99549 193.00000 199.99888
94.00862 229.00000 198.66718
94.02175 231.00000 197.31560
94.03488 216.00000 195.95528
94.04801 232.00000 194.59778
94.06114 239.00000 193.25520
94.07427 225.00000 191.94001
94.08740 231.00000 190.66475
94.10053 216.00000 189.44167
94.11366 192.00000 188.28225
94.12679 204.00000 187.19680
94.13992 204.00000 186.19414
94.15305 211.00000 185.28133
94.16618 189.00000 184.46358
94.17931 226.00000 183.74428
94.19245 187.00000 183.12501
94.20558 176.00000 182.60569
94.21871 178.00000 182.18476
94.23184 176.00000 181.85931
94.24497 193.00000 181.62509
94.25810 190.00000 181.47650
94.27123 186.00000 181.40643
94.28436 182.00000 181.40595
94.29749 193.00000 181.46600
94.31062 175.00000 181.57762
94.32375 201.00000 181.72702
94.33688 169.00000 181.90206
94.35001 161.00000 182.08826
94.36314 192.00000 182.27113
94.37627 172.00000 182.43642
94.38940 198.00000 182.57045
94.40253 161.00000 182.66063
94.41566 192.00000 182.69600
94.42879 148.00000 182.66772
94.44192 181.00000 182.56972
94.45505 161.00000 182.39878
94.46818 166.00000 182.15495
94.48131 183.00000 181.84155
94.49444 167.00000 181.46513
94.50757 183.00000 181.03508
94.52070 198.00000 180.56308
94.53383 187.00000 180.06234
94.54696 182.00000 179.54712
94.56009 167.00000 179.03335
94.57322 170.00000 178.53799
94.58635 185.00000 178.07394
94.59948 173.00000 177.65390
94.61261 189.00000 177.28924
94.62574 173.00000 176.98945
94.63887 201.00000 176.76183
94.65200 173.00000 176.61145
94.66514 186.00000 176.54092
94.67827 168.00000 176.55040
94.69140 193.00000 176.63755
94.70453 177.00000 176.79757
94.71766 171.00000 177.02331
94.73079 165.00000 177.30536
94.74392 161.00000 177.63238
94.75705 153.00000 177.99150
94.77018 159.00000 178.36882
94.78331 166.00000 178.74987
94.79644 150.00000 179.12057
94.80957 178.00000 179.46838
94.82270 189.00000 179.78135
94.83583 174.00000 180.04978
94.84896 193.00000 180.26634
94.86209 176.00000 180.42607
94.87522 189.00000 180.52622
94.88835 174.00000 180.56617
94.90148 147.00000 180.54686
94.91461 149.00000 180.46999
94.92774 172.00000 180.33797
94.94087 170.00000 180.15355
94.95400 159.00000 179.91968
94.96713 187.00000 179.63952
94.98026 161.00000 179.31666
94.99339 163.00000 178.95536
95.00652 189.00000 178.56090
95.01965 166.00000 178.13958
95.03278 160.00000 177.69911
95.04591 192.00000 177.25126
95.05904 154.00000 176.80615
95.07217 185.00000 176.37566
95.08530 178.00000 175.97259
95.09843 180.00000 175.60991
95.11156 158.00000 175.30037
95.12470 176.00000 175.05637
95.13783 158.00000 174.88850
95.15096 170.00000 174.80583
95.16409 161.00000 174.81735
95.17722 191.00000 174.93046
95.19035 157.00000 175.14896
95.20348 167.00000 175.47452
95.21661 146.00000 175.90635
95.22974 154.00000 176.45151
95.24287 176.00000 177.11235
95.25600 181.00000 177.88307
95.26913 172.00000 178.75972
95.28226 185.00000 179.73794
95.29539 176.00000 180.81219
95.30852 155.00000 181.97570
95.32165 184.00000 183.22050
95.33478 156.00000 184.53758
95.34791 178.00000 185.91703
95.36104 185.00000 187.34842
95.37417 177.00000 188.82113
95.38730 169.00000 190.32496
95.40043 190.00000 191.85055
95.41356 191.00000 193.39000
95.42669 192.00000 194.93726
95.43982 192.00000 196.48862
95.45295 197.00000 198.04268
95.46608 207.00000 199.60024
95.47921 200.00000 201.16413
95.49234 213.00000 202.73871
95.50547 207.00000 204.32961
95.51860 227.00000 205.94317
95.53173 210.00000 207.58597
95.54486 223.00000 209.26441
95.55799 247.00000 210.98304
95.57112 239.00000 212.74617
95.58426 247.00000 214.55598
95.59739 257.00000 216.41323
95.61052 227.00000 218.31702
95.62365 263.00000 220.26472
95.63678 225.00000 222.25198
95.64991 271.00000 224.27300
95.66304 258.00000 226.32082
95.67617 266.00000 228.38770
95.68930 296.00000 230.46563
95.70243 289.00000 232.54676
95.71556 297.00000 234.62443
95.72869 282.00000 236.69238
95.74182 265.00000 238.74543
95.75495 266.00000 240.77938
95.76808 319.00000 242.79054
95.78121 277.00000 244.77520
95.79434 262.00000 246.72852
95.80747 316.00000 248.64380
95.82060 269.00000 250.51706
95.83373 261.00000 252.33829
95.84686 245.00000 254.09414
95.85999 286.00000 255.76932
95.87312 268.00000 257.34651
95.88625 265.00000 258.80631
95.89938 258.00000 260.12809
95.91251 234.00000 261.29097
95.92564 279.00000 262.27495
95.93877 259.00000 263.06209
95.95190 278.00000 263.63771
95.96503 233.00000 263.99162
95.97816 244.00000 264.11878
95.99129 260.00000 264.01962
96.00442 242.00000 263.70032
96.01755 235.00000 263.17234
96.03068 223.00000 262.45163
96.04381 232.00000 261.55746
96.05695 232.00000 260.51111
96.07008 222.00000 259.33450
96.08321 229.00000 258.04890
96.09634 255.00000 256.67399
96.10947 242.00000 255.22734
96.12260 238.00000 253.72399
96.13573 216.00000 252.17670
96.14886 222.00000 250.59644
96.16199 242.00000 248.99310
96.17512 238.00000 247.37620
96.18825 259.00000 245.75570
96.20138 274.00000 244.14245
96.21451 258.00000 242.54856
96.22764 270.00000 240.98735
96.24077 233.00000 239.47307
96.25390 272.00000 238.02035
96.26703 260.00000 236.64324
96.28016 226.00000 235.35444
96.29329 224.00000 234.16785
96.30642 265.00000 233.09223
96.31955 200.00000 232.13379
96.33268 246.00000 231.29618
96.34581 270.00000 230.58023
96.35894 232.00000 229.98414
96.37207 213.00000 229.50393
96.38520 219.00000 229.13397
96.39833 215.00000 228.86768
96.41146 235.00000 228.69814
96.42459 216.00000 228.61861
96.43772 228.00000 228.62290
96.45085 245.00000 228.70552
96.46398 232.00000 228.86169
96.47711 261.00000 229.08908
96.49024 242.00000 229.38324
96.50337 240.00000 229.74169
96.51651 240.00000 230.15966
96.52964 246.00000 230.63082
96.54277 241.00000 231.14692
96.55590 239.00000 231.69695
96.56903 204.00000 232.26683
96.58216 213.00000 232.83921
96.59529 223.00000 233.39356
96.60842 225.00000 233.90662
96.62155 223.00000 234.35375
96.63468 230.00000 234.70926
96.64781 264.00000 234.94773
96.66094 231.00000 235.04585
96.67407 238.00000 234.98389
96.68720 204.00000 234.74726
96.70033 224.00000 234.32702
96.71346 230.00000 233.72093
96.72659 262.00000 232.93364
96.73972 226.00000 231.97625
96.75285 263.00000 230.86571
96.76598 249.00000 229.62340
96.77911 242.00000 228.27388
96.79224 238.00000 226.84364
96.80537 236.00000 225.35987
96.81850 239.00000 223.84813
96.83163 223.00000 222.33207
96.84476 226.00000 220.83222
96.85789 200.00000 219.36519
96.87102 221.00000 217.94717
96.88415 221.00000 216.58775
96.89728 206.00000 215.29206
96.91041 199.00000 214.06214
96.92354 212.00000 212.89679
96.93667 229.00000 211.79196
96.94980 222.00000 210.74139
96.96293 204.00000 209.73733
96.97607 238.00000 208.77132
96.98920 211.00000 207.83506
97.00233 224.00000 206.92085
97.01546 269.00000 206.02300
97.02859 238.00000 205.14248
97.04172 234.00000 204.27864
97.05485 269.00000 203.43520
97.06798 256.00000 202.61950
97.08111 224.00000 201.84182
97.09424 221.00000 201.11481
97.10737 238.00000 200.45274
97.12050 250.00000 199.87224
97.13363 230.00000 199.38880
97.14676 234.00000 199.01770
97.15989 243.00000 198.77337
97.17302 198.00000 198.66874
97.18615 210.00000 198.71482
97.19928 211.00000 198.92064
97.21241 211.00000 199.29398
97.22554 191.00000 199.83882
97.23867 203.00000 200.55699
97.25180 191.00000 201.44776
97.26493 219.00000 202.50754
97.27806 192.00000 203.73043
97.29119 200.00000 205.10939
97.30432 172.00000 206.63210
97.31745 201.00000 208.28392
97.33058 213.00000 210.04738
97.34371 219.00000 211.90202
97.35684 184.00000 213.82434
97.36997 193.00000 215.78798
97.38310 196.00000 217.76393
97.39623 215.00000 219.72088
97.40936 219.00000 221.62570
97.42249 232.00000 223.44410
97.43562 243.00000 225.14140
97.44876 227.00000 226.68341
97.46189 207.00000 228.03745
97.47502 221.00000 229.17337
97.48815 243.00000 230.06466
97.50128 270.00000 230.68936
97.51441 249.00000 231.03101
97.52754 238.00000 231.08103
97.54067 258.00000 230.83610
97.55380 276.00000 230.30032
97.56693 290.00000 229.48475
97.58006 288.00000 228.40690
97.59319 288.00000 227.09015
97.60632 273.00000 225.56146
97.61945 260.00000 223.85088
97.63258 256.00000 221.99001
97.64571 273.00000 220.01057
97.65884 247.00000 217.94316
97.67197 228.00000 215.81626
97.68510 216.00000 213.65539
97.69823 222.00000 211.48256
97.71136 230.00000 209.31595
97.72449 232.00000 207.16977
97.73762 186.00000 205.05432
97.75075 181.00000 202.97625
97.76388 193.00000 200.93887
97.77701 191.00000 198.94262
97.79014 186.00000 196.98561
97.80327 171.00000 195.06433
97.81640 179.00000 193.17449
97.82953 194.00000 191.31172
97.84266 162.00000 189.47210
97.85579 172.00000 187.65205
97.86892 169.00000 185.84969
97.88205 159.00000 184.06478
97.89518 159.00000 182.29910
97.90832 179.00000 180.55612
97.92145 174.00000 178.84080
97.93458 175.00000 177.15915
97.94771 173.00000 175.51773
97.96084 156.00000 173.92534
97.97397 163.00000 172.38866
97.98710 174.00000 170.91353
98.00023 156.00000 169.50812
98.01336 172.00000 168.17887
98.02649 146.00000 166.92956
98.03962 177.00000 165.76394
98.05275 159.00000 164.68429
98.06588 131.00000 163.69212
98.07901 156.00000 162.78808
98.09214 159.00000 161.97188
98.10527 145.00000 161.24243
98.11840 160.00000 160.59786
98.13153 155.00000 160.03560
98.14466 155.00000 159.55239
98.15779 165.00000 159.14434
98.17092 139.00000 158.80699
98.18405 149.00000 158.53535
98.19718 142.00000 158.32396
98.21031 152.00000 158.16707
98.22344 165.00000 158.05871
98.23657 156.00000 157.99293
98.24970 147.00000 157.96401
98.26283 155.00000 157.96674
98.27596 155.00000 157.99651
98.28909 176.00000 158.04958
98.30222 181.00000 158.12336
98.31535 152.00000 158.21645
98.32848 158.00000 158.32865
98.34161 153.00000 158.46110
98.35474 159.00000 158.61577
98.36787 195.00000 158.79551
98.38101 160.00000 159.00401
98.39414 174.00000 159.24497
98.40727 157.00000 159.52216
98.42040 150.00000 159.83918
98.43353 165.00000 160.19912
98.44666 153.00000 160.60439
98.45979 158.00000 161.05663
98.47292 165.00000 161.55651
98.48605 161.00000 162.10377
98.49918 167.00000 162.69713
98.51231 178.00000 163.33438
98.52544 157.00000 164.01242
98.53857 184.00000 164.72738
98.55170 194.00000 165.47472
98.56483 180.00000 166.24944
98.57796 160.00000 167.04628
98.59109 177.00000 167.85986
98.60422 162.00000 168.68485
98.61735 153.00000 169.51622
98.63048 164.00000 170.34919
98.64361 194.00000 171.17936
98.65674 198.00000 172.00267
98.66987 205.00000 172.81540
98.68300 168.00000 173.61458
98.69613 188.00000 174.39592
98.70926 157.00000 175.15448
98.72239 197.00000 175.89279
98.73552 208.00000 176.60477
98.74865 171.00000 177.28566
98.76178 167.00000 177.93395
98.77491 212.00000 178.54504
98.78804 189.00000 179.11509
98.80117 194.00000 179.64069
98.81430 192.00000 180.11847
98.82743 168.00000 180.54510
98.84057 210.00000 180.92180
98.85370 205.00000 181.24735
98.86683 203.00000 181.52140
98.87996 214.00000 181.74497
98.89309 183.00000 181.92028
98.90622 205.00000 182.05053
98.91935 197.00000 182.13983
98.93248 175.00000 182.19308
98.94561 182.00000 182.21581
98.95874 212.00000 182.21395
98.97187 210.00000 182.19359
98.98500 194.00000 182.16064
98.99813 214.00000 182.12066
99.01126 206.00000 182.07860
99.02439 188.00000 182.03811
99.03752 211.00000 182.00163
99.05065 174.00000 181.97010
99.06378 203.00000 181.94291
99.07691 179.00000 181.91775
99.09004 199.00000 181.89075
99.10317 172.00000 181.85654
99.11630 163.00000 181.80852
99.12943 173.00000 181.73899
99.14256 171.00000 181.63960
99.15569 203.00000 181.50162
99.16882 170.00000 181.31630
99.18195 153.00000 181.07518
99.19508 191.00000 180.77044
99.20821 189.00000 180.39676
99.22134 169.00000 179.94898
99.23447 182.00000 179.42357
99.24760 171.00000 178.81903
99.26073 176.00000 178.13539
99.27386 195.00000 177.37383
99.28699 184.00000 176.54135
99.30013 160.00000 175.64512
99.31326 183.00000 174.69118
99.32639 166.00000 173.68775
99.33952 146.00000 172.64378
99.35265 157.00000 171.56849
99.36578 183.00000 170.47520
99.37891 188.00000 169.37258
99.39204 160.00000 168.27003
99.40517 170.00000 167.17673
99.41830 158.00000 166.10173
99.43143 170.00000 165.05306
99.44456 174.00000 164.03790
99.45769 180.00000 163.06282
99.47082 145.00000 162.13366
99.48395 164.00000 161.25557
99.49708 151.00000 160.43309
99.51021 143.00000 159.67014
99.52334 156.00000 158.97010
99.53647 155.00000 158.33584
99.54960 161.00000 157.76975
99.56273 160.00000 157.27376
99.57586 146.00000 156.84932
99.58899 139.00000 156.49743
99.60212 167.00000 156.21863
99.61525 167.00000 156.01300
99.62838 155.00000 155.88008
99.64151 170.00000 155.81895
99.65464 161.00000 155.82814
99.66777 159.00000 155.90564
99.68090 156.00000 156.04892
99.69403 168.00000 156.25489
99.70716 151.00000 156.51993
99.72029 162.00000 156.83990
99.73342 155.00000 157.21016
99.74655 156.00000 157.62558
99.75968 157.00000 158.08065
99.77282 142.00000 158.56948
99.78595 156.00000 159.08591
99.79908 142.00000 159.62354
99.81221 155.00000 160.17576
99.82534 144.00000 160.73570
99.83847 145.00000 161.29765
99.85160 156.00000 161.85491
99.86473 143.00000 162.40154
99.87786 182.00000 162.93131
99.89099 185.00000 163.43825
99.90412 156.00000 163.91680
99.91725 169.00000 164.36139
99.93038 157.00000 164.76681
99.94351 173.00000 165.12826
99.95664 160.00000 165.44146
99.96977 194.00000 165.70279
99.98290 184.00000 165.90948
99.99603 179.00000 166.06014
100.00916 172.00000 166.15434
100.02229 192.00000 166.19317
100.03542 179.00000 166.17923
100.04855 195.00000 166.11665
100.06168 190.00000 166.01097
100.07481 213.00000 165.86897
100.08794 199.00000 165.69843
100.10107 188.00000 165.50784
100.11420 164.00000 165.30612
100.12733 182.00000 165.10224
100.14046 181.00000 164.90504
100.15359 177.00000 164.72295
100.16672 170.00000 164.56370
100.17985 166.00000 164.43428
100.19298 160.00000 164.34078
100.20611 149.00000 164.28837
100.21924 143.00000 164.28121
100.23238 146.00000 164.32252
100.24551 177.00000 164.41454
100.25864 186.00000 164.55858
100.27177 156.00000 164.75505
100.28490 143.00000 165.00352
100.29803 158.00000 165.30274
100.31116 151.00000 165.65069
100.32429 153.00000 166.04461
100.33742 166.00000 166.48110
100.35055 144.00000 166.95608
100.36368 150.00000 167.46490
100.37681 156.00000 168.00238
100.38994 159.00000 168.56284
100.40307 152.00000 169.14020
100.41620 166.00000 169.72801
100.42933 171.00000 170.31944
100.44246 159.00000 170.90693
100.45559 189.00000 171.48203
100.46872 180.00000 172.04282
100.48185 158.00000 172.58062
100.49498 153.00000 173.08832
100.50811 199.00000 173.56002
100.52124 163.00000 173.99057
100.53437 185.00000 174.37543
100.54750 166.00000 174.71115
100.56063 163.00000 174.99549
100.57376 169.00000 175.22750
100.58689 165.00000 175.40754
100.60002 178.00000 175.53801
100.61315 192.00000 175.62273
100.62628 188.00000 175.66621
100.63941 196.00000 175.67495
100.65254 171.00000 175.65581
100.66567 177.00000 175.61642
100.67880 170.00000 175.56480
100.69194 172.00000 175.50900
100.70507 170.00000 175.45680
100.71820 181.00000 175.41540
100.73133 197.00000 175.39119
100.74446 185.00000 175.39018
100.75759 177.00000 175.41731
100.77072 182.00000 175.47615
100.78385 172.00000 175.56947
100.79698 158.00000 175.69921
100.81011 172.00000 175.86655
100.82324 177.00000 176.07205
100.83637 152.00000 176.31582
100.84950 165.00000 176.59767
100.86263 170.00000 176.91726
100.87576 166.00000 177.27517
100.88889 155.00000 177.67172
100.90202 167.00000 178.10776
100.91515 166.00000 178.58496
100.92828 140.00000 179.10579
100.94141 156.00000 179.67351
100.95454 158.00000 180.29204
100.96767 182.00000 180.96545
100.98080 176.00000 181.70031
100.99393 177.00000 182.50415
101.00706 187.00000 183.38474
101.02019 187.00000 184.34784
101.03332 180.00000 185.40026
101.04645 174.00000 186.54884
101.05958 177.00000 187.80009
101.07271 192.00000 189.15995
101.08584 194.00000 190.63360
101.09897 188.00000 192.22507
101.11210 187.00000 193.93669
101.12523 162.00000 195.77129
101.13836 178.00000 197.73290
101.15149 177.00000 199.82044
101.16463 199.00000 202.03159
101.17776 171.00000 204.36331
101.19089 166.00000 206.81116
101.20402 173.00000 209.36913
101.21715 172.00000 212.02953
101.23028 159.00000 214.78296
101.24341 157.00000 217.61822
101.25654 181.00000 220.52223
101.26967 226.00000 223.48001
101.28280 200.00000 226.47465
101.29593 199.00000 229.48744
101.30906 187.00000 232.49749
101.32219 204.00000 235.48210
101.33532 228.00000 238.41676
101.34845 229.00000 241.27537
101.36158 255.00000 244.03042
101.37471 237.00000 246.65359
101.38784 287.00000 249.11607
101.40097 258.00000 251.38891
101.41410 298.00000 253.44386
101.42723 284.00000 255.25368
101.44036 273.00000 256.79290
101.45349 300.00000 258.04261
101.46662 334.00000 258.98419
101.47975 308.00000 259.60327
101.49288 307.00000 259.89055
101.50601 320.00000 259.84161
101.51914 301.00000 259.45738
101.53227 333.00000 258.74379
101.54540 309.00000 257.71134
101.55853 321.00000 256.37514
101.57166 339.00000 254.75435
101.58479 298.00000 252.87135
101.59792 347.00000 250.75083
101.61105 337.00000 248.42241
101.62419 316.00000 245.91634
101.63732 286.00000 243.26198
101.65045 281.00000 240.48959
101.66358 281.00000 237.62922
101.67671 264.00000 234.71004
101.68984 277.00000 231.75988
101.70297 248.00000 228.80487
101.71610 226.00000 225.86920
101.72923 246.00000 222.97485
101.74236 231.00000 220.14156
101.75549 207.00000 217.38667
101.76862 223.00000 214.72483
101.78175 187.00000 212.16778
101.79488 237.00000 209.72922
101.80801 199.00000 207.41735
101.82114 168.00000 205.23818
101.83427 214.00000 203.19650
101.84740 205.00000 201.29548
101.86053 197.00000 199.53730
101.87366 194.00000 197.92245
101.88679 196.00000 196.45027
101.89992 160.00000 195.11910
101.91305 164.00000 193.92637
101.92618 185.00000 192.86887
101.93931 154.00000 191.94285
101.95244 163.00000 191.14370
101.96557 171.00000 190.46636
101.97870 183.00000 189.90538
101.99183 168.00000 189.45488
102.00496 174.00000 189.10860
102.01809 169.00000 188.85992
102.03122 164.00000 188.70186
102.04435 173.00000 188.62709
102.05748 167.00000 188.62792
102.07061 180.00000 188.69635
102.08374 162.00000 188.82404
102.09688 208.00000 189.00231
102.11001 176.00000 189.22216
102.12314 178.00000 189.47501
102.13627 176.00000 189.75158
102.14940 195.00000 190.04265
102.16253 196.00000 190.33917
102.17566 184.00000 190.63240
102.18879 199.00000 190.91398
102.20192 180.00000 191.17619
102.21505 181.00000 191.41207
102.22818 202.00000 191.61563
102.24131 185.00000 191.78204
102.25444 185.00000 191.90782
102.26757 181.00000 191.99092
102.28070 221.00000 192.03084
102.29383 207.00000 192.02866
102.30696 197.00000 191.98706
102.32009 175.00000 191.91025
102.33322 201.00000 191.80380
102.34635 202.00000 191.67449
102.35948 187.00000 191.53004
102.37261 228.00000 191.37885
102.38574 217.00000 191.22970
102.39887 190.00000 191.09149
102.41200 193.00000 190.97294
102.42513 203.00000 190.88235
102.43826 188.00000 190.82740
102.45139 182.00000 190.81493
102.46452 209.00000 190.85110
102.47765 174.00000 190.94107
102.49078 175.00000 191.08882
102.50391 187.00000 191.29738
102.51704 180.00000 191.56882
102.53017 198.00000 191.90423
102.54330 182.00000 192.30378
102.55644 203.00000 192.76671
102.56957 194.00000 193.29145
102.58270 192.00000 193.87553
102.59583 206.00000 194.51566
102.60896 181.00000 195.20778
102.62209 206.00000 195.94703
102.63522 195.00000 196.72761
102.64835 187.00000 197.54304
102.66148 206.00000 198.38751
102.67461 202.00000 199.25285
102.68774 182.00000 200.13068
102.70087 197.00000 201.01212
102.71400 210.00000 201.88779
102.72713 216.00000 202.74782
102.74026 201.00000 203.58192
102.75339 203.00000 204.37954
102.76652 197.00000 205.12995
102.77965 203.00000 205.82244
102.79278 210.00000 206.44651
102.80591 203.00000 206.99243
102.81904 185.00000 207.45107
102.83217 206.00000 207.81432
102.84530 194.00000 208.07534
102.85843 231.00000 208.22884
102.87156 224.00000 208.27120
102.88469 214.00000 208.20042
102.89782 228.00000 208.01626
102.91095 228.00000 207.72012
102.92408 244.00000 207.31497
102.93721 237.00000 206.80519
102.95034 242.00000 206.19643
102.96347 203.00000 205.49547
102.97660 231.00000 204.71009
102.98973 229.00000 203.84888
103.00286 201.00000 202.92113
103.01600 234.00000 201.93695
103.02913 265.00000 200.90680
103.04226 206.00000 199.84132
103.05539 223.00000 198.75136
103.06852 235.00000 197.64769
103.08165 215.00000 196.54085
103.09478 222.00000 195.44089
103.10791 219.00000 194.35724
103.12104 222.00000 193.29851
103.13417 214.00000 192.27234
103.14730 236.00000 191.28554
103.16043 217.00000 190.34359
103.17356 227.00000 189.45093
103.18669 224.00000 188.61082
103.19982 197.00000 187.82543
103.21295 195.00000 187.09585
103.22608 199.00000 186.42215
103.23921 187.00000 185.80346
103.25234 204.00000 185.23804
103.26547 188.00000 184.72342
103.27860 179.00000 184.25647
103.29173 217.00000 183.83359
103.30486 195.00000 183.45083
103.31799 189.00000 183.10401
103.33112 184.00000 182.78895
103.34425 223.00000 182.50150
103.35738 212.00000 182.23774
103.37051 192.00000 181.99429
103.38364 209.00000 181.76840
103.39677 199.00000 181.55737
103.40990 201.00000 181.35903
103.42303 191.00000 181.17210
103.43616 202.00000 180.99640
103.44929 188.00000 180.83128
103.46242 163.00000 180.67680
103.47555 201.00000 180.53358
103.48869 227.00000 180.40261
103.50182 213.00000 180.28531
103.51495 218.00000 180.18342
103.52808 231.00000 180.09903
103.54121 215.00000 180.03452
103.55434 165.00000 179.99247
103.56747 205.00000 179.97566
103.58060 184.00000 179.98687
103.59373 205.00000 180.02885
103.60686 194.00000 180.10462
103.61999 214.00000 180.21644
103.63312 204.00000 180.36630
103.64625 218.00000 180.55579
103.65938 186.00000 180.78596
103.67251 183.00000 181.05714
103.68564 206.00000 181.36888
103.69877 184.00000 181.72029
103.71190 147.00000 182.11022
103.72503 171.00000 182.53620
103.73816 184.00000 182.99541
103.75129 173.00000 183.48465
103.76442 191.00000 184.00037
103.77755 176.00000 184.53869
103.79068 154.00000 185.09513
103.80381 169.00000 185.66447
103.81694 157.00000 186.24711
103.83007 175.00000 186.83745
103.84320 175.00000 187.43131
103.85633 198.00000 188.02505
103.86946 192.00000 188.61514
103.88259 172.00000 189.19802
103.89572 176.00000 189.77030
103.90885 169.00000 190.32891
103.92198 182.00000 190.87028
103.93511 166.00000 191.39106
103.94825 179.00000 191.88811
103.96138 183.00000 192.35848
103.97451 185.00000 192.79950
103.98764 208.00000 193.20931
104.00077 190.00000 193.58687
104.01390 183.00000 193.93141
104.02703 186.00000 194.24319
104.04016 190.00000 194.52341
104.05329 169.00000 194.77422
104.06642 183.00000 194.99873
104.07955 216.00000 195.20076
104.09268 187.00000 195.38484
104.10581 187.00000 195.55603
104.11894 186.00000 195.71974
104.13207 186.00000 195.88154
104.14520 192.00000 196.04701
104.15833 199.00000 196.22147
104.17146 206.00000 196.40989
104.18459 201.00000 196.61669
104.19772 189.00000 196.84560
104.21085 207.00000 197.09900
104.22398 195.00000 197.37834
104.23711 193.00000 197.68883
104.25024 189.00000 198.02928
104.26337 197.00000 198.39885
104.27650 191.00000 198.79613
104.28963 225.00000 199.21998
104.30276 200.00000 199.66762
104.31589 227.00000 200.13590
104.32902 191.00000 200.62133
104.34215 205.00000 201.12010
104.35528 213.00000 201.62822
104.36841 226.00000 202.14162
104.38154 207.00000 202.65624
104.39467 232.00000 203.16812
104.40781 193.00000 203.67346
104.42094 201.00000 204.16900
104.43407 236.00000 204.65162
104.44720 229.00000 205.11855
104.46033 223.00000 205.56745
104.47346 222.00000 205.99620
104.48659 224.00000 206.40202
104.49972 222.00000 206.78055
104.51285 255.00000 207.14009
104.52598 240.00000 207.47657
104.53911 231.00000 207.78788
104.55224 211.00000 208.07302
104.56537 218.00000 208.33099
104.57850 212.00000 208.56053
104.59163 233.00000 208.76009
104.60476 211.00000 208.92774
104.61789 221.00000 209.06112
104.63102 193.00000 209.15812
104.64415 225.00000 209.21595
104.65728 196.00000 209.23158
104.67041 202.00000 209.20200
104.68354 203.00000 209.12391
104.69667 211.00000 208.99362
104.70980 197.00000 208.81050
104.72293 207.00000 208.57235
104.73606 211.00000 208.27653
104.74919 206.00000 207.92132
104.76232 208.00000 207.50562
104.77545 208.00000 207.02880
104.78858 192.00000 206.49077
104.80171 187.00000 205.89198
104.81484 212.00000 205.23342
104.82797 217.00000 204.51659
104.84110 207.00000 203.74396
104.85423 174.00000 202.91892
104.86736 196.00000 202.04475
104.88050 195.00000 201.12556
104.89363 225.00000 200.16608
104.90676 216.00000 199.17156
104.91989 174.00000 198.14766
104.93302 179.00000 197.10038
104.94615 204.00000 196.03611
104.95928 194.00000 194.96117
104.97241 181.00000 193.88200
104.98554 194.00000 192.80566
104.99867 170.00000 191.73808
105.01180 181.00000 190.68507
105.02493 179.00000 189.65210
105.03806 189.00000 188.64407
105.05119 174.00000 187.66526
105.06432 159.00000 186.71926
105.07745 165.00000 185.80886
105.09058 156.00000 184.93599
105.10371 174.00000 184.10098
105.11684 149.00000 183.30289
105.12997 194.00000 182.54774
105.14310 190.00000 181.83212
105.15623 156.00000 181.15400
105.16936 146.00000 180.51179
105.18249 164.00000 179.90329
105.19562 162.00000 179.32601
105.20875 189.00000 178.77728
105.22188 156.00000 178.25429
105.23501 157.00000 177.75411
105.24814 173.00000 177.27379
105.26127 176.00000 176.81037
105.27440 162.00000 176.36098
105.28753 153.00000 175.92282
105.30066 187.00000 175.49319
105.31379 145.00000 175.06959
105.32692 167.00000 174.64967
105.34006 159.00000 174.23132
105.35319 182.00000 173.81268
105.36632 187.00000 173.39218
105.37945 171.00000 172.96855
105.39258 182.00000 172.54090
105.40571 154.00000 172.10871
105.41884 180.00000 171.67183
105.43197 161.00000 171.23057
105.44510 176.00000 170.78575
105.45823 183.00000 170.33854
105.47136 167.00000 169.89060
105.48449 170.00000 169.44404
105.49762 160.00000 169.00136
105.51075 176.00000 168.56547
105.52388 185.00000 168.13960
105.53701 159.00000 167.72725
105.55014 185.00000 167.33215
105.56327 196.00000 166.95816
105.57640 178.00000 166.60921
105.58953 167.00000 166.28924
105.60266 179.00000 166.00215
105.61579 177.00000 165.75173
105.62892 150.00000 165.54159
105.64205 164.00000 165.37510
105.65518 177.00000 165.25565
105.66831 143.00000 165.18646
105.68144 165.00000 165.17021
105.69457 167.00000 165.20943
105.70770 155.00000 165.30642
105.72083 145.00000 165.46322
105.73396 176.00000 165.68164
105.74709 146.00000 165.96320
105.76022 161.00000 166.30915
105.77335 162.00000 166.72048
105.78648 179.00000 167.19788
105.79961 175.00000 167.74178
105.81275 165.00000 168.35230
105.82588 158.00000 169.02927
105.83901 179.00000 169.77221
105.85214 181.00000 170.58036
105.86527 164.00000 171.45269
105.87840 161.00000 172.38790
105.89153 157.00000 173.38440
105.90466 191.00000 174.44031
105.91779 159.00000 175.55355
105.93092 173.00000 176.72177
105.94405 183.00000 177.94219
105.95718 155.00000 179.21270
105.97031 150.00000 180.53117
105.98344 182.00000 181.89426
105.99657 194.00000 183.29885
106.00970 144.00000 184.74168
106.02283 176.00000 186.21928
106.03596 176.00000 187.72787
106.04909 181.00000 189.26335
106.06222 205.00000 190.82117
106.07535 187.00000 192.39635
106.08848 173.00000 193.98339
106.10161 168.00000 195.57628
106.11474 183.00000 197.16883
106.12787 188.00000 198.75416
106.14100 185.00000 200.32505
106.15413 209.00000 201.87402
106.16726 187.00000 203.39347
106.18039 187.00000 204.87577
106.19352 191.00000 206.31333
106.20665 196.00000 207.69875
106.21978 184.00000 209.02477
106.23291 164.00000 210.28418
106.24604 210.00000 211.47201
106.25917 221.00000 212.58225
106.27231 222.00000 213.60935
106.28544 235.00000 214.54849
106.29857 193.00000 215.39546
106.31170 229.00000 216.14647
106.32483 243.00000 216.79819
106.33796 213.00000 217.34767
106.35109 227.00000 217.79234
106.36422 213.00000 218.13000
106.37735 225.00000 218.35875
106.39048 210.00000 218.47712
106.40361 222.00000 218.48408
106.41674 199.00000 218.37914
106.42987 209.00000 218.16254
106.44300 231.00000 217.83538
106.45613 215.00000 217.39977
106.46926 238.00000 216.85900
106.48239 219.00000 216.21768
106.49552 235.00000 215.48192
106.50865 262.00000 214.65910
106.52178 247.00000 213.75796
106.53491 211.00000 212.78851
106.54804 217.00000 211.76166
106.56117 189.00000 210.68944
106.57430 223.00000 209.58429
106.58743 201.00000 208.45890
106.60056 190.00000 207.32595
106.61369 187.00000 206.19782
106.62682 191.00000 205.08640
106.63995 193.00000 204.00286
106.65308 187.00000 202.95749
106.66621 197.00000 201.95961
106.67934 190.00000 201.01745
106.69247 190.00000 200.13815
106.70560 197.00000 199.32769
106.71873 160.00000 198.59089
106.73187 179.00000 197.93121
106.74500 190.00000 197.35074
106.75813 194.00000 196.85314
106.77126 194.00000 196.43824
106.78439 175.00000 196.10559
106.79752 197.00000 195.85410
106.81065 202.00000 195.68191
106.82378 186.00000 195.58653
106.83691 190.00000 195.56486
106.85004 179.00000 195.61334
106.86317 170.00000 195.72806
106.87630 185.00000 195.90485
106.88943 177.00000 196.13944
106.90256 139.00000 196.42747
106.91569 177.00000 196.76469
106.92882 208.00000 197.14694
106.94195 185.00000 197.57022
106.95508 168.00000 198.03070
106.96821 191.00000 198.52472
106.98134 184.00000 199.04871
106.99447 196.00000 199.59917
107.00760 192.00000 200.17256
107.02073 224.00000 200.76527
107.03386 193.00000 201.37348
107.04699 232.00000 201.99320
107.06012 209.00000 202.62015
107.07325 178.00000 203.24983
107.08638 204.00000 203.87750
107.09951 215.00000 204.49827
107.11264 192.00000 205.10716
107.12577 211.00000 205.69925
107.13890 201.00000 206.26975
107.15203 207.00000 206.81415
107.16516 219.00000 207.32831
107.17829 189.00000 207.80856
107.19142 185.00000 208.25179
107.20456 212.00000 208.65545
107.21769 208.00000 209.01757
107.23082 210.00000 209.33676
107.24395 198.00000 209.61218
107.25708 194.00000 209.84345
107.27021 216.00000 210.03064
107.28334 206.00000 210.17419
107.29647 211.00000 210.27487
107.30960 224.00000 210.33374
107.32273 203.00000 210.35209
107.33586 220.00000 210.33140
107.34899 218.00000 210.27331
107.36212 242.00000 210.17954
107.37525 210.00000 210.05185
107.38838 206.00000 209.89196
107.40151 239.00000 209.70148
107.41464 214.00000 209.48183
107.42777 195.00000 209.23424
107.44090 224.00000 208.95961
107.45403 218.00000 208.65850
107.46716 201.00000 208.33108
107.48029 207.00000 207.97794
107.49342 198.00000 207.59950
107.50655 203.00000 207.19535
107.51968 195.00000 206.76535
107.53281 213.00000 206.30954
107.54594 211.00000 205.82809
107.55907 241.00000 205.32146
107.57220 218.00000 204.79035
107.58533 203.00000 204.23579
107.59846 210.00000 203.65907
107.61159 210.00000 203.06182
107.62472 194.00000 202.44593
107.63785 202.00000 201.81352
107.65098 199.00000 201.16688
107.66412 223.00000 200.50825
107.67725 186.00000 199.84031
107.69038 224.00000 199.16683
107.70351 231.00000 198.49015
107.71664 214.00000 197.81296
107.72977 211.00000 197.13815
107.74290 216.00000 196.46864
107.75603 202.00000 195.80734
107.76916 208.00000 195.15718
107.78229 211.00000 194.52108
107.79542 218.00000 193.90200
107.80855 224.00000 193.30289
107.82168 219.00000 192.72675
107.83481 209.00000 192.17661
107.84794 190.00000 191.65551
107.86107 181.00000 191.16649
107.87420 196.00000 190.71259
107.88733 194.00000 190.29678
107.90046 205.00000 189.92190
107.91359 185.00000 189.59065
107.92672 160.00000 189.30543
107.93985 192.00000 189.06824
107.95298 182.00000 188.88131
107.96611 206.00000 188.74638
107.97924 180.00000 188.66432
107.99237 193.00000 188.63580
108.00550 165.00000 188.66107
108.01863 176.00000 188.74000
108.03176 191.00000 188.87203
108.04489 204.00000 189.05622
108.05802 203.00000 189.29126
108.07115 180.00000 189.57565
108.08428 197.00000 189.90776
108.09741 169.00000 190.28550
108.11054 156.00000 190.70671
108.12368 208.00000 191.16912
108.13681 199.00000 191.67037
108.14994 197.00000 192.20803
108.16307 206.00000 192.77956
108.17620 199.00000 193.38271
108.18933 190.00000 194.01482
108.20246 186.00000 194.67332
108.21559 212.00000 195.35559
108.22872 181.00000 196.05900
108.24185 216.00000 196.78094
108.25498 188.00000 197.51880
108.26811 205.00000 198.26995
108.28124 206.00000 199.03159
108.29437 179.00000 199.80230
108.30750 188.00000 200.57986
108.32063 224.00000 201.36218
108.33376 208.00000 202.14759
108.34689 188.00000 202.93471
108.36002 205.00000 203.72243
108.37315 189.00000 204.50987
108.38628 178.00000 205.29632
108.39941 192.00000 206.08123
108.41254 192.00000 206.86402
108.42567 180.00000 207.64479
108.43880 190.00000 208.42290
108.45193 183.00000 209.19775
108.46506 181.00000 209.96926
108.47819 202.00000 210.73685
108.49132 195.00000 211.49927
108.50445 184.00000 212.25524
108.51758 213.00000 213.00327
108.53071 208.00000 213.74163
108.54384 228.00000 214.46836
108.55697 200.00000 215.18132
108.57010 175.00000 215.87827
108.58323 205.00000 216.55689
108.59637 202.00000 217.21488
108.60950 213.00000 217.85005
108.62263 234.00000 218.46032
108.63576 211.00000 219.04399
108.64889 220.00000 219.60002
108.66202 205.00000 220.12742
108.67515 217.00000 220.62589
108.68828 224.00000 221.09574
108.70141 240.00000 221.53790
108.71454 234.00000 221.95465
108.72767 237.00000 222.34941
108.74080 228.00000 222.72551
108.75393 234.00000 223.08717
108.76706 242.00000 223.44130
108.78019 206.00000 223.79445
108.79332 208.00000 224.15359
108.80645 196.00000 224.52719
108.81958 258.00000 224.92376
108.83271 209.00000 225.35249
108.84584 233.00000 225.82287
108.85897 223.00000 226.34427
108.87210 210.00000 226.92600
108.88523 230.00000 227.57705
108.89836 202.00000 228.30574
108.91149 218.00000 229.12105
108.92462 257.00000 230.03004
108.93775 204.00000 231.03907
108.95088 234.00000 232.15369
108.96401 226.00000 233.37843
108.97714 247.00000 234.71673
108.99027 215.00000 236.17081
109.00340 207.00000 237.74167
109.01653 235.00000 239.42900
109.02966 219.00000 241.23107
109.04279 242.00000 243.14475
109.05593 229.00000 245.16544
109.06906 232.00000 247.28698
109.08219 215.00000 249.50163
109.09532 217.00000 251.80004
109.10845 264.00000 254.17107
109.12158 224.00000 256.60193
109.13471 225.00000 259.07923
109.14784 268.00000 261.58676
109.16097 230.00000 264.10675
109.17410 245.00000 266.61951
109.18723 261.00000 269.10796
109.20036 242.00000 271.55032
109.21349 234.00000 273.92469
109.22662 231.00000 276.20916
109.23975 256.00000 278.38189
109.25288 277.00000 280.42145
109.26601 256.00000 282.30731
109.27914 221.00000 284.02025
109.29227 274.00000 285.54277
109.30540 284.00000 286.85948
109.31853 250.00000 287.95742
109.33166 236.00000 288.82624
109.34479 262.00000 289.45832
109.35792 261.00000 289.84891
109.37105 287.00000 289.99589
109.38418 257.00000 289.89968
109.39731 296.00000 289.56289
109.41044 262.00000 288.98984
109.42357 261.00000 288.18825
109.43670 268.00000 287.16538
109.44983 238.00000 285.93121
109.46296 255.00000 284.49621
109.47609 243.00000 282.87176
109.48922 262.00000 281.07000
109.50235 240.00000 279.10364
109.51548 238.00000 276.98579
109.52862 246.00000 274.73131
109.54175 235.00000 272.35469
109.55488 243.00000 269.87054
109.56801 222.00000 267.29400
109.58114 243.00000 264.64037
109.59427 243.00000 261.92500
109.60740 234.00000 259.16312
109.62053 248.00000 256.36969
109.63366 237.00000 253.55928
109.64679 232.00000 250.74592
109.65992 262.00000 247.94304
109.67305 223.00000 245.16334
109.68618 238.00000 242.41875
109.69931 248.00000 239.72036
109.71244 233.00000 237.07837
109.72557 225.00000 234.50211
109.73870 230.00000 231.99996
109.75183 235.00000 229.57932
109.76496 212.00000 227.24691
109.77809 207.00000 225.00859
109.79122 194.00000 222.86905
109.80435 201.00000 220.83226
109.81748 216.00000 218.90134
109.83061 205.00000 217.07866
109.84374 207.00000 215.36580
109.85687 212.00000 213.76361
109.87000 180.00000 212.27214
109.88313 221.00000 210.89038
109.89626 198.00000 209.61858
109.90939 204.00000 208.45497
109.92252 210.00000 207.39701
109.93565 196.00000 206.44248
109.94878 180.00000 205.58831
109.96191 205.00000 204.83131
109.97504 211.00000 204.16769
109.98818 208.00000 203.59327
110.00131 221.00000 203.10353
110.01444 186.00000 202.69364
110.02757 212.00000 202.35836
110.04070 207.00000 202.09210
110.05383 230.00000 201.88887
110.06696 212.00000 201.74235
110.08009 206.00000 201.64583
110.09322 227.00000 201.59233
110.10635 225.00000 201.57458
110.11948 198.00000 201.58515
110.13261 234.00000 201.61657
110.14574 215.00000 201.66136
110.15887 177.00000 201.71229
110.17200 214.00000 201.76245
110.18513 191.00000 201.80546
110.19826 201.00000 201.83562
110.21139 222.00000 201.84805
110.22452 256.00000 201.83882
110.23765 213.00000 201.80508
110.25078 256.00000 201.74503
110.26391 237.00000 201.65805
110.27704 193.00000 201.54455
110.29017 246.00000 201.40596
110.30330 229.00000 201.24458
110.31643 218.00000 201.06342
110.32956 220.00000 200.86594
110.34269 249.00000 200.65584
110.35582 216.00000 200.43805
110.36895 244.00000 200.21630
110.38208 225.00000 199.99445
110.39521 213.00000 199.77612
110.40834 217.00000 199.56451
110.42147 224.00000 199.36238
110.43460 215.00000 199.17196
110.44774 196.00000 198.99501
110.46087 180.00000 198.83278
110.47400 202.00000 198.68609
110.48713 212.00000 198.55540
110.50026 178.00000 198.44088
110.51339 193.00000 198.34247
110.52652 209.00000 198.25999
110.53965 227.00000 198.19318
110.55278 215.00000 198.14175
110.56591 188.00000 198.10542
110.57904 217.00000 198.08385
110.59217 205.00000 198.07635
110.60530 202.00000 198.08308
110.61843 211.00000 198.10458
110.63156 192.00000 198.13997
110.64469 195.00000 198.18846
110.65782 217.00000 198.24920
110.67095 203.00000 198.32107
110.68408 190.00000 198.40263
110.69721 215.00000 198.49210
110.71034 224.00000 198.58732
110.72347 196.00000 198.68584
110.73660 212.00000 198.78488
110.74973 223.00000 198.88137
110.76286 182.00000 198.97215
110.77599 224.00000 199.05397
110.78912 268.00000 199.12339
110.80225 223.00000 199.17705
110.81538 189.00000 199.21171
110.82851 212.00000 199.22425
110.84164 198.00000 199.21179
110.85477 188.00000 199.17165
110.86790 211.00000 199.10147
110.88103 235.00000 198.99919
110.89416 199.00000 198.86309
110.90729 207.00000 198.69180
110.92043 224.00000 198.48437
110.93356 233.00000 198.24026
110.94669 247.00000 197.95939
110.95982 198.00000 197.64215
110.97295 187.00000 197.28945
110.98608 194.00000 196.90268
110.99921 221.00000 196.48377
111.01234 230.00000 196.03512
111.02547 208.00000 195.55950
111.03860 232.00000 195.06010
111.05173 226.00000 194.54025
111.06486 201.00000 194.00343
111.07799 235.00000 193.45439
111.09112 223.00000 192.89653
111.10425 206.00000 192.33350
111.11738 232.00000 191.76883
111.13051 204.00000 191.20578
111.14364 193.00000 190.64728
111.15677 202.00000 190.09586
111.16990 188.00000 189.55359
111.18303 212.00000 189.02212
111.19616 209.00000 188.50261
111.20929 194.00000 187.99576
111.22242 230.00000 187.50183
111.23555 195.00000 187.02066
111.24868 215.00000 186.55170
111.26181 220.00000 186.09406
111.27494 209.00000 185.64654
111.28807 202.00000 185.20767
111.30120 195.00000 184.77578
111.31433 172.00000 184.34904
111.32746 213.00000 183.92551
111.34059 176.00000 183.50317
111.35372 184.00000 183.08010
111.36685 183.00000 182.65437
111.37999 180.00000 182.22421
111.39312 216.00000 181.78806
111.40625 178.00000 181.34458
111.41938 202.00000 180.89277
111.43251 195.00000 180.43198
111.44564 186.00000 179.96198
111.45877 203.00000 179.48299
111.47190 182.00000 178.99570
111.48503 191.00000 178.50123
111.49816 165.00000 178.00115
111.51129 195.00000 177.49754
111.52442 179.00000 176.99296
111.53755 200.00000 176.49007
111.55068 170.00000 175.99187
111.56381 179.00000 175.50153
111.57694 199.00000 175.02234
111.59007 161.00000 174.55760
111.60320 204.00000 174.11052
111.61633 196.00000 173.68422
111.62946 176.00000 173.28144
111.64259 171.00000 172.90420
111.65572 161.00000 172.55664
111.66885 202.00000 172.24035
111.68198 145.00000 171.95691
111.69511 182.00000 171.70780
111.70824 187.00000 171.49419
111.72137 185.00000 171.31694
111.73450 184.00000 171.17661
111.74763 149.00000 171.07343
111.76076 171.00000 171.00731
111.77389 162.00000 170.97787
111.78702 168.00000 170.98441
111.80015 159.00000 171.02587
111.81328 176.00000 171.10090
111.82641 172.00000 171.20771
111.83954 196.00000 171.34409
111.85268 174.00000 171.50791
111.86581 177.00000 171.69616
111.87894 158.00000 171.90551
111.89207 163.00000 172.13227
111.90520 186.00000 172.37236
111.91833 183.00000 172.62127
111.93146 171.00000 172.87422
111.94459 153.00000 173.12614
111.95772 162.00000 173.37163
111.97085 161.00000 173.60523
111.98398 155.00000 173.82138
111.99711 170.00000 174.01461
112.01024 179.00000 174.17965
112.02337 179.00000 174.31156
112.03650 171.00000 174.40586
112.04963 172.00000 174.45867
112.06276 174.00000 174.46682
112.07589 156.00000 174.42792
112.08902 184.00000 174.34044
112.10215 190.00000 174.20432
112.11528 159.00000 174.01985
112.12841 175.00000 173.78845
112.14154 181.00000 173.51246
112.15467 167.00000 173.19499
112.16780 172.00000 172.84030
112.18093 173.00000 172.45291
112.19406 189.00000 172.03789
112.20719 163.00000 171.60076
112.22032 176.00000 171.14721
112.23345 189.00000 170.68287
112.24658 175.00000 170.21372
112.25971 165.00000 169.74636
112.27284 172.00000 169.28611
112.28597 190.00000 168.83804
112.29910 193.00000 168.40815
112.31224 169.00000 168.00128
112.32537 187.00000 167.62190
112.33850 177.00000 167.27430
112.35163 192.00000 166.96247
112.36476 173.00000 166.69006
112.37789 175.00000 166.46038
112.39102 161.00000 166.27643
112.40415 171.00000 166.14087
112.41728 184.00000 166.05613
112.43041 163.00000 166.02447
112.44354 164.00000 166.04768
112.45667 149.00000 166.12735
112.46980 177.00000 166.26485
112.48293 181.00000 166.46131
112.49606 166.00000 166.71766
112.50919 149.00000 167.03455
112.52232 175.00000 167.41248
112.53545 177.00000 167.85168
112.54858 164.00000 168.35222
112.56171 190.00000 168.91390
112.57484 184.00000 169.53631
112.58797 168.00000 170.21883
112.60110 164.00000 170.96051
112.61423 174.00000 171.76009
112.62736 156.00000 172.61671
112.64049 177.00000 173.52845
112.65362 195.00000 174.49329
112.66675 173.00000 175.50892
112.67988 166.00000 176.57270
112.69301 182.00000 177.68162
112.70614 181.00000 178.83229
112.71927 188.00000 180.02090
112.73240 172.00000 181.24322
112.74553 168.00000 182.49457
112.75866 174.00000 183.76981
112.77180 183.00000 185.06331
112.78493 186.00000 186.36900
112.79806 164.00000 187.68017
112.81119 191.00000 188.98896
112.82432 179.00000 190.28658
112.83745 192.00000 191.56994
112.85058 175.00000 192.83041
112.86371 186.00000 194.05867
112.87684 190.00000 195.24640
112.88997 192.00000 196.38556
112.90310 192.00000 197.46844
112.91623 157.00000 198.48775
112.92936 184.00000 199.43684
112.94249 204.00000 200.30988
112.95562 171.00000 201.10197
112.96875 177.00000 201.80934
112.98188 196.00000 202.42934
112.99501 187.00000 202.96048
113.00814 211.00000 203.40203
113.02127 181.00000 203.75618
113.03440 164.00000 204.02573
113.04753 213.00000 204.21349
113.06066 226.00000 204.32363
113.07379 181.00000 204.36119
113.08692 209.00000 204.33178
113.10005 204.00000 204.24145
113.11318 214.00000 204.09646
113.12631 219.00000 203.90317
113.13944 188.00000 203.66787
113.15257 208.00000 203.39667
113.16570 207.00000 203.09526
113.17883 186.00000 202.76974
113.19196 223.00000 202.42514
113.20509 204.00000 202.06620
113.21822 217.00000 201.69727
113.23135 214.00000 201.32227
113.24449 211.00000 200.94469
113.25762 217.00000 200.56755
113.27075 214.00000 200.19341
113.28388 214.00000 199.82438
113.29701 230.00000 199.46212
113.31014 208.00000 199.10795
113.32327 210.00000 198.76270
113.33640 203.00000 198.42683
113.34953 203.00000 198.10045
113.36266 192.00000 197.78340
113.37579 198.00000 197.47523
113.38892 198.00000 197.17530
113.40205 189.00000 196.88283
113.41518 206.00000 196.59693
113.42831 207.00000 196.31669
113.44144 221.00000 196.04118
113.45457 205.00000 195.76953
113.46770 197.00000 195.50094
113.48083 217.00000 195.23460
113.49396 205.00000 194.96916
113.50709 208.00000 194.70305
113.52022 210.00000 194.44092
113.53335 184.00000 194.18047
113.54648 213.00000 193.92108
113.55961 199.00000 193.66328
113.57274 208.00000 193.40746
113.58587 180.00000 193.15405
113.59900 219.00000 192.90372
113.61213 187.00000 192.65735
113.62526 194.00000 192.41596
113.63839 193.00000 192.18077
113.65152 225.00000 191.95320
113.66465 200.00000 191.73475
113.67778 210.00000 191.52688
113.69091 201.00000 191.33180
113.70405 208.00000 191.15237
113.71718 232.00000 190.99046
113.73031 206.00000 190.84843
113.74344 216.00000 190.72882
113.75657 199.00000 190.63424
113.76970 218.00000 190.56736
113.78283 224.00000 190.53084
113.79596 190.00000 190.52730
113.80909 204.00000 190.55929
113.82222 233.00000 190.62927
113.83535 208.00000 190.73954
113.84848 197.00000 190.89226
113.86161 189.00000 191.08939
113.87474 207.00000 191.33269
113.88787 194.00000 191.62372
113.90100 190.00000 191.96377
113.91413 200.00000 192.35392
113.92726 196.00000 192.79498
113.94039 181.00000 193.28748
113.95352 178.00000 193.83169
113.96665 183.00000 194.42754
113.97978 200.00000 195.07466
113.99291 190.00000 195.77225
114.00604 168.00000 196.51920
114.01917 171.00000 197.31446
114.03230 181.00000 198.15596
114.04543 199.00000 199.04138
114.05856 202.00000 199.96794
114.07169 178.00000 200.93245
114.08482 180.00000 201.93121
114.09795 192.00000 202.96008
114.11108 172.00000 204.01444
114.12421 176.00000 205.08915
114.13734 212.00000 206.17878
114.15047 185.00000 207.27775
114.16361 198.00000 208.38010
114.17674 216.00000 209.47943
114.18987 186.00000 210.56931
114.20300 197.00000 211.64326
114.21613 205.00000 212.69516
114.22926 201.00000 213.71883
114.24239 209.00000 214.70835
114.25552 218.00000 215.65823
114.26865 222.00000 216.56342
114.28178 221.00000 217.41940
114.29491 213.00000 218.22221
114.30804 208.00000 218.96850
114.32117 234.00000 219.65551
114.33430 210.00000 220.28108
114.34743 236.00000 220.84362
114.36056 211.00000 221.34194
114.37369 229.00000 221.77509
114.38682 219.00000 222.14417
114.39995 231.00000 222.44910
114.41308 246.00000 222.69047
114.42621 245.00000 222.86940
114.43934 250.00000 222.98734
114.45247 265.00000 223.04602
114.46560 223.00000 223.04800
114.47873 259.00000 222.99575
114.49186 242.00000 222.89221
114.50499 261.00000 222.74058
114.51812 247.00000 222.54439
114.53125 264.00000 222.30909
114.54438 229.00000 222.03878
114.55751 267.00000 221.73833
114.57064 242.00000 221.41297
114.58377 242.00000 221.06838
114.59690 243.00000 220.71047
114.61003 228.00000 220.34524
114.62316 230.00000 219.97864
114.63630 244.00000 219.61677
114.64943 234.00000 219.26622
114.66256 239.00000 218.93260
114.67569 236.00000 218.62146
114.68882 232.00000 218.33814
114.70195 230.00000 218.08760
114.71508 242.00000 217.87431
114.72821 243.00000 217.70230
114.74134 234.00000 217.57501
114.75447 207.00000 217.49534
114.76760 228.00000 217.46559
114.78073 220.00000 217.48740
114.79386 228.00000 217.56182
114.80699 198.00000 217.68923
114.82012 222.00000 217.86938
114.83325 213.00000 218.10135
114.84638 220.00000 218.38362
114.85951 197.00000 218.71401
114.87264 209.00000 219.08973
114.88577 205.00000 219.50726
114.89890 209.00000 219.96250
114.91203 194.00000 220.45170
114.92516 192.00000 220.96951
114.93829 223.00000 221.51045
114.95142 186.00000 222.06854
114.96455 209.00000 222.63748
114.97768 239.00000 223.21063
114.99081 224.00000 223.78117
115.00394 217.00000 224.34212
115.01707 206.00000 224.88646
115.03020 238.00000 225.40727
115.04333 230.00000 225.89779
115.05646 237.00000 226.35153
115.06959 203.00000 226.76245
115.08272 243.00000 227.12500
115.09586 278.00000 227.43404
115.10899 274.00000 227.68434
115.12212 237.00000 227.87348
115.13525 246.00000 228.00087
115.14838 266.00000 228.06329
115.16151 283.00000 228.05935
115.17464 277.00000 227.99057
115.18777 284.00000 227.85726
115.20090 241.00000 227.66100
115.21403 268.00000 227.40432
115.22716 238.00000 227.09034
115.24029 227.00000 226.72266
115.25342 270.00000 226.30533
115.26655 247.00000 225.84269
115.27968 282.00000 225.33925
115.29281 274.00000 224.79953
115.30594 276.00000 224.22792
115.31907 213.00000 223.62851
115.33220 245.00000 223.00573
115.34533 246.00000 222.36311
115.35846 216.00000 221.70374
115.37159 262.00000 221.03034
115.38472 236.00000 220.34506
115.39785 240.00000 219.64929
115.41098 206.00000 218.94459
115.42411 225.00000 218.23297
115.43724 230.00000 217.51443
115.45037 220.00000 216.78918
115.46350 208.00000 216.05730
115.47663 210.00000 215.31897
115.48976 230.00000 214.57423
115.50289 225.00000 213.82311
115.51602 224.00000 213.06583
115.52915 198.00000 212.30274
115.54228 220.00000 211.53444
115.55541 220.00000 210.76175
115.56855 211.00000 209.98574
115.58168 214.00000 209.20771
115.59481 224.00000 208.42918
115.60794 190.00000 207.65184
115.62107 214.00000 206.87753
115.63420 202.00000 206.10816
115.64733 215.00000 205.34569
115.66046 197.00000 204.59202
115.67359 222.00000 203.84898
115.68672 210.00000 203.11802
115.69985 187.00000 202.39989
115.71298 208.00000 201.69798
115.72611 213.00000 201.01249
115.73924 206.00000 200.34379
115.75237 212.00000 199.69290
115.76550 193.00000 199.05971
115.77863 193.00000 198.44403
115.79176 182.00000 197.84545
115.80489 191.00000 197.26326
115.81802 206.00000 196.69650
115.83115 193.00000 196.14400
115.84428 210.00000 195.60439
115.85741 188.00000 195.07617
115.87054 216.00000 194.55770
115.88367 200.00000 194.04731
115.89680 171.00000 193.54332
115.90993 192.00000 193.04400
115.92306 176.00000 192.54766
115.93619 188.00000 192.05267
115.94932 177.00000 191.55744
115.96245 178.00000 191.06051
115.97558 194.00000 190.56048
115.98871 169.00000 190.05608
116.00184 182.00000 189.54614
116.01497 200.00000 189.02963
116.02811 204.00000 188.50557
116.04124 181.00000 187.97277
116.05437 204.00000 187.43066
116.06750 183.00000 186.87920
116.08063 206.00000 186.31717
116.09376 204.00000 185.74294
116.10689 200.00000 185.15717
116.12002 184.00000 184.56207
116.13315 190.00000 183.95613
116.14628 217.00000 183.33909
116.15941 204.00000 182.71062
116.17254 186.00000 182.07128
116.18567 200.00000 181.42360
116.19880 214.00000 180.76746
116.21193 196.00000 180.10367
116.22506 191.00000 179.43336
116.23819 204.00000 178.75784
116.25132 198.00000 178.07856
116.26445 196.00000 177.39711
116.27758 203.00000 176.71516
116.29071 206.00000 176.03446
116.30384 179.00000 175.35676
116.31697 187.00000 174.68388
116.33010 181.00000 174.01757
116.34323 187.00000 173.35956
116.35636 172.00000 172.71148
116.36949 196.00000 172.07487
116.38262 173.00000 171.45113
116.39575 180.00000 170.84153
116.40888 177.00000 170.24716
116.42201 197.00000 169.66893
116.43514 171.00000 169.10758
116.44827 177.00000 168.56364
116.46140 171.00000 168.03746
116.47453 188.00000 167.52922
116.48767 162.00000 167.03888
116.50080 160.00000 166.56620
116.51393 167.00000 166.11044
116.52706 158.00000 165.67046
116.54019 155.00000 165.24809
116.55332 158.00000 164.84160
116.56645 186.00000 164.44989
116.57958 163.00000 164.07204
116.59271 165.00000 163.70715
116.60584 167.00000 163.35440
116.61897 143.00000 163.01280
116.63210 154.00000 162.68149
116.64523 176.00000 162.35965
116.65836 158.00000 162.04656
116.67149 146.00000 161.74159
116.68462 164.00000 161.44426
116.69775 166.00000 161.15422
116.71088 156.00000 160.87128
116.72401 169.00000 160.59540
116.73714 163.00000 160.32673
116.75027 177.00000 160.06554
116.76340 157.00000 159.81226
116.77653 140.00000 159.56746
116.78966 166.00000 159.33186
116.80279 133.00000 159.10623
116.81592 155.00000 158.89144
116.82905 170.00000 158.68842
116.84218 147.00000 158.49813
116.85531 155.00000 158.32156
116.86844 156.00000 158.15967
116.88157 154.00000 158.01343
116.89470 161.00000 157.88375
116.90783 160.00000 157.77142
116.92096 150.00000 157.67695
116.93409 139.00000 157.60135
116.94722 148.00000 157.54603
116.96036 159.00000 157.51122
116.97349 169.00000 157.49738
116.98662 165.00000 157.50500
116.99975 154.00000 157.53454
117.01288 165.00000 157.58641
117.02601 146.00000 157.66096
117.03914 160.00000 157.75849
117.05227 146.00000 157.87928
117.06540 162.00000 158.02354
117.07853 145.00000 158.19147
117.09166 167.00000 158.38323
117.10479 141.00000 158.59895
117.11792 161.00000 158.83872
117.13105 148.00000 159.10259
117.14418 146.00000 159.39059
117.15731 144.00000 159.70270
117.17044 154.00000 160.03882
117.18357 150.00000 160.39883
117.19670 172.00000 160.78252
117.20983 158.00000 161.18959
117.22296 156.00000 161.61940
117.23609 174.00000 162.07044
117.24922 142.00000 162.54367
117.26235 148.00000 163.03957
117.27548 155.00000 163.55633
117.28861 173.00000 164.09276
117.30174 138.00000 164.64773
117.31487 175.00000 165.21999
117.32800 144.00000 165.80810
117.34113 166.00000 166.41043
117.35426 157.00000 167.02517
117.36739 152.00000 167.65027
117.38052 170.00000 168.28345
117.39365 160.00000 168.92233
117.40678 153.00000 169.56417
117.41992 171.00000 170.20602
117.43305 145.00000 170.84467
117.44618 161.00000 171.47680
117.45931 148.00000 172.09902
117.47244 160.00000 172.70749
117.48557 161.00000 173.29823
117.49870 147.00000 173.86698
117.51183 185.00000 174.40980
117.52496 161.00000 174.92286
117.53809 170.00000 175.40154
117.55122 175.00000 175.84206
117.56435 182.00000 176.24059
117.57748 165.00000 176.59323
117.59061 177.00000 176.89645
117.60374 182.00000 177.14716
117.61687 192.00000 177.34265
117.63000 205.00000 177.48073
117.64313 190.00000 177.55972
117.65626 192.00000 177.57852
117.66939 196.00000 177.53663
117.68252 158.00000 177.43417
117.69565 176.00000 177.27187
117.70878 235.00000 177.05101
117.72191 184.00000 176.77348
117.73504 220.00000 176.44169
117.74817 180.00000 176.05842
117.76130 187.00000 175.62687
117.77443 167.00000 175.15052
117.78756 209.00000 174.63303
117.80069 188.00000 174.07830
117.81382 179.00000 173.49081
117.82695 171.00000 172.87446
117.84008 168.00000 172.23331
117.85321 179.00000 171.57141
117.86634 182.00000 170.89275
117.87948 186.00000 170.20120
117.89261 189.00000 169.50048
117.90574 191.00000 168.79416
117.91887 195.00000 168.08564
117.93200 160.00000 167.37812
117.94513 186.00000 166.67461
117.95826 157.00000 165.97793
117.97139 185.00000 165.29068
117.98452 148.00000 164.61528
117.99765 163.00000 163.95393
118.01078 161.00000 163.30861
118.02391 164.00000 162.68095
118.03704 160.00000 162.07268
118.05017 148.00000 161.48576
118.06330 139.00000 160.92122
118.07643 161.00000 160.38011
118.08956 140.00000 159.86339
118.10269 134.00000 159.37187
118.11582 168.00000 158.90620
118.12895 149.00000 158.46713
118.14208 138.00000 158.05504
118.15521 140.00000 157.67009
118.16834 148.00000 157.31199
118.18147 136.00000 156.98201
118.19460 151.00000 156.68040
118.20773 167.00000 156.40683
118.22086 131.00000 156.16121
118.23399 134.00000 155.94349
118.24712 153.00000 155.75361
118.26025 139.00000 155.59144
118.27338 170.00000 155.45678
118.28651 160.00000 155.34972
118.29964 143.00000 155.27017
118.31277 126.00000 155.21794
118.32590 145.00000 155.19290
118.33903 129.00000 155.19493
118.35217 146.00000 155.22391
118.36530 116.00000 155.27971
118.37843 147.00000 155.36221
118.39156 126.00000 155.47124
118.40469 143.00000 155.60659
118.41782 163.00000 155.76801
118.43095 167.00000 155.95542
118.44408 141.00000 156.16845
118.45721 165.00000 156.40675
118.47034 135.00000 156.66990
118.48347 134.00000 156.95743
118.49660 144.00000 157.26877
118.50973 141.00000 157.60331
118.52286 124.00000 157.96031
118.53599 145.00000 158.33899
118.54912 146.00000 158.73843
118.56225 160.00000 159.15767
118.57538 124.00000 159.59562
118.58851 151.00000 160.05113
118.60164 114.00000 160.52294
118.61477 153.00000 161.00968
118.62790 168.00000 161.50988
118.64103 134.00000 162.02220
118.65416 148.00000 162.54505
118.66729 151.00000 163.07675
118.68042 139.00000 163.61555
118.69355 162.00000 164.15942
118.70668 150.00000 164.70611
118.71981 138.00000 165.25556
118.73294 141.00000 165.80521
118.74607 158.00000 166.35301
118.75920 152.00000 166.89709
118.77233 163.00000 167.43564
118.78546 149.00000 167.96689
118.79859 126.00000 168.48911
118.81173 138.00000 169.00067
118.82486 131.00000 169.50003
118.83799 162.00000 169.98579
118.85112 154.00000 170.45666
118.86425 147.00000 170.91153
118.87738 130.00000 171.34944
118.89051 152.00000 171.76961
118.90364 150.00000 172.17153
118.91677 157.00000 172.55498
118.92990 149.00000 172.91986
118.94303 167.00000 173.26626
118.95616 158.00000 173.59444
118.96929 150.00000 173.90474
118.98242 162.00000 174.19771
118.99555 136.00000 174.47525
119.00868 157.00000 174.73797
119.02181 173.00000 174.98691
119.03494 158.00000 175.22331
119.04807 154.00000 175.44839
119.06120 166.00000 175.66340
119.07433 137.00000 175.86956
119.08746 179.00000 176.06800
119.10059 139.00000 176.25972
119.11372 177.00000 176.44558
119.12685 160.00000 176.62625
119.13998 157.00000 176.80220
119.15311 157.00000 176.97367
119.16624 171.00000 177.14065
119.17937 182.00000 177.30288
119.19250 177.00000 177.45988
119.20563 192.00000 177.61088
119.21876 175.00000 177.75490
119.23189 174.00000 177.89076
119.24502 177.00000 178.01707
119.25815 189.00000 178.13225
119.27128 171.00000 178.23458
119.28442 160.00000 178.32242
119.29755 171.00000 178.39396
119.31068 144.00000 178.44732
119.32381 202.00000 178.48068
119.33694 165.00000 178.49224
119.35007 169.00000 178.48045
119.36320 165.00000 178.44386
119.37633 175.00000 178.38107
119.38946 167.00000 178.29094
119.40259 195.00000 178.17251
119.41572 168.00000 178.02505
119.42885 164.00000 177.84806
119.44198 184.00000 177.64125
119.45511 202.00000 177.40454
119.46824 155.00000 177.13806
119.48137 173.00000 176.84210
119.49450 206.00000 176.51710
119.50763 186.00000 176.16367
119.52076 180.00000 175.78244
119.53389 187.00000 175.37428
119.54702 172.00000 174.94009
119.56015 199.00000 174.48056
119.57328 179.00000 173.99614
119.58641 182.00000 173.48824
119.59954 180.00000 172.95846
119.61267 196.00000 172.40723
119.62580 199.00000 171.83532
119.63893 191.00000 171.24359
119.65206 187.00000 170.63295
119.66519 188.00000 170.00428
119.67832 220.00000 169.35847
119.69145 180.00000 168.69643
119.70458 196.00000 168.01906
119.71771 190.00000 167.32727
119.73084 209.00000 166.62194
119.74398 224.00000 165.90394
119.75711 226.00000 165.17398
119.77024 217.00000 164.43259
119.78337 211.00000 163.68137
119.79650 200.00000 162.92062
119.80963 231.00000 162.15081
119.82276 210.00000 161.37239
119.83589 206.00000 160.58567
119.84902 205.00000 159.79087
119.86215 196.00000 158.98810
119.87528 204.00000 158.17730
119.88841 191.00000 157.35834
119.90154 206.00000 156.53097
119.91467 183.00000 155.69486
119.92780 221.00000 154.84964
119.94093 222.00000 153.99488
119.95406 184.00000 153.13001
119.96719 165.00000 152.25419
119.98032 173.00000 151.36779
119.99345 209.00000 150.47087
