#------------------------------------------------------------------------------
#$Date: 2017-01-01 09:41:09 +0200 (Sun, 01 Jan 2017) $
#$Revision: 189739 $
#$URL: file:///home/coder/svn-repositories/cod/cif/7/11/92/7119235.cif $
#------------------------------------------------------------------------------
#
# This file is available in the Crystallography Open Database (COD),
# http://www.crystallography.net/
#
# All data on this site have been placed in the public domain by the
# contributors.
#
data_7119235
loop_
_publ_author_name
'Busschaert, Nathalie'
'Thompson, Sam'
'Hamilton, Andrew D.'
_publ_section_title
;
 An \a-helical peptidomimetic scaffold for dynamic combinatorial library
 formation.
;
_journal_issue                   2
_journal_name_full
'Chemical communications (Cambridge, England)'
_journal_page_first              313
_journal_page_last               316
_journal_paper_doi               10.1039/c6cc07787k
_journal_volume                  53
_journal_year                    2016
_chemical_compound_source        'Nathalie Busschaert'
_chemical_formula_moiety         'C11 H11 N O4'
_chemical_formula_sum            'C11 H11 N O4'
_chemical_formula_weight         221.21
_space_group_crystal_system      triclinic
_space_group_IT_number           2
_space_group_name_Hall           '-P 1'
_space_group_name_H-M_alt        'P -1'
_symmetry_space_group_name_Hall  '-P 1'
_symmetry_space_group_name_H-M   'P -1'
_atom_sites_solution_hydrogens   mixed
_audit_creation_method           SHELXL-2014/7
_audit_update_record
;
2016-06-23 deposited with the CCDC.
2016-11-07 downloaded from the CCDC.
;
_cell_angle_alpha                93.967(3)
_cell_angle_beta                 90.145(3)
_cell_angle_gamma                95.188(3)
_cell_formula_units_Z            2
_cell_length_a                   3.8385(6)
_cell_length_b                   10.3480(17)
_cell_length_c                   12.844(2)
_cell_measurement_reflns_used    3954
_cell_measurement_temperature    100(2)
_cell_measurement_theta_max      27.82
_cell_measurement_theta_min      2.45
_cell_volume                     506.85(14)
_computing_cell_refinement       'Bruker SAINT'
_computing_data_collection       'Bruker APEX2'
_computing_data_reduction        'Bruker SAINT'
_computing_structure_refinement  'SHELXL-2014/7 (Sheldrick, 2014)'
_computing_structure_solution    'SHELXS-97 (Sheldrick, 2008)'
_diffrn_ambient_temperature      100(2)
_diffrn_measured_fraction_theta_full 0.998
_diffrn_measured_fraction_theta_max 0.995
_diffrn_measurement_device_type  'Bruker APEX-II CCD'
_diffrn_measurement_method       '\f and \w scans'
_diffrn_radiation_monochromator  graphite
_diffrn_radiation_source         'sealed tube'
_diffrn_radiation_type           MoK\a
_diffrn_radiation_wavelength     0.71073
_diffrn_reflns_av_R_equivalents  0.0278
_diffrn_reflns_av_unetI/netI     0.0232
_diffrn_reflns_Laue_measured_fraction_full 0.998
_diffrn_reflns_Laue_measured_fraction_max 0.995
_diffrn_reflns_limit_h_max       5
_diffrn_reflns_limit_h_min       -5
_diffrn_reflns_limit_k_max       13
_diffrn_reflns_limit_k_min       -13
_diffrn_reflns_limit_l_max       16
_diffrn_reflns_limit_l_min       -16
_diffrn_reflns_number            9353
_diffrn_reflns_point_group_measured_fraction_full 0.998
_diffrn_reflns_point_group_measured_fraction_max 0.995
_diffrn_reflns_theta_full        25.242
_diffrn_reflns_theta_max         27.902
_diffrn_reflns_theta_min         1.589
_exptl_absorpt_coefficient_mu    0.112
_exptl_absorpt_correction_type   none
_exptl_crystal_colour            colourless
_exptl_crystal_density_diffrn    1.449
_exptl_crystal_description       block
_exptl_crystal_F_000             232
_exptl_crystal_size_max          0.320
_exptl_crystal_size_mid          0.190
_exptl_crystal_size_min          0.020
_refine_diff_density_max         0.520
_refine_diff_density_min         -0.318
_refine_diff_density_rms         0.076
_refine_ls_extinction_method     none
_refine_ls_goodness_of_fit_ref   1.066
_refine_ls_hydrogen_treatment    mixed
_refine_ls_matrix_type           full
_refine_ls_number_parameters     149
_refine_ls_number_reflns         2393
_refine_ls_number_restraints     0
_refine_ls_restrained_S_all      1.066
_refine_ls_R_factor_all          0.0624
_refine_ls_R_factor_gt           0.0551
_refine_ls_shift/su_max          0.001
_refine_ls_shift/su_mean         0.000
_refine_ls_structure_factor_coef Fsqd
_refine_ls_weighting_details
'w=1/[\s^2^(Fo^2^)+(0.0998P)^2^+0.2279P] where P=(Fo^2^+2Fc^2^)/3'
_refine_ls_weighting_scheme      calc
_refine_ls_wR_factor_gt          0.1581
_refine_ls_wR_factor_ref         0.1662
_reflns_Friedel_coverage         0.000
_reflns_number_gt                2029
_reflns_number_total             2393
_reflns_threshold_expression     'I > 2\s(I)'
_cod_data_source_file            c6cc07787k2.cif
_cod_data_source_block           shelxl
_cod_original_cell_volume        506.86(14)
_cod_database_code               7119235
_shelx_shelxl_version_number     2014/7
_shelx_space_group_comment
;
The symmetry employed for this shelxl refinement is uniquely defined
by the following loop, which should always be used as a source of
symmetry information in preference to the above space-group names.
They are only intended as comments.
;
_shelx_estimated_absorpt_t_min   0.965
_shelx_estimated_absorpt_t_max   0.998
_shelx_res_file
;

    shelxl.res created by SHELXL-2014/7


TITL 16adh6b in P-1
CELL  0.71073   3.8385  10.3480  12.8444   93.967   90.145   95.188
ZERR     2.00   0.0006   0.0017   0.0021    0.003    0.003    0.003
LATT   1
SFAC  C    H    N    O
UNIT  22   22   2    8
MERG   2
HTAB
HTAB N1 O2
FMAP   2
PLAN   20
SIZE     0.02   0.19   0.32
ACTA
BOND
L.S.   4
TEMP  -173.00
WGHT    0.099800    0.227900
FVAR       0.20719
MOLE    1
C1    1    0.550344    0.785800    0.485515    11.00000    0.02858    0.03281 =
         0.02672    0.00185    0.00245   -0.00224
AFIX  33
H1A   2    0.440317    0.697712    0.468242    11.00000   -1.50000
H1B   2    0.446497    0.846951    0.442308    11.00000   -1.50000
H1C   2    0.801973    0.787992    0.472132    11.00000   -1.50000
AFIX   0
C2    1    0.492382    0.823786    0.598910    11.00000    0.01964    0.02511 =
         0.02716    0.00457    0.00096    0.00089
C3    1    0.205575    0.735456    0.756505    11.00000    0.01646    0.01868 =
         0.02473    0.00267    0.00030    0.00316
C4    1    0.293752    0.843057    0.826686    11.00000    0.01946    0.01490 =
         0.02812    0.00292    0.00029   -0.00012
AFIX  43
H4    2    0.427152    0.917503    0.803837    11.00000   -1.20000
AFIX   0
C5    1    0.186634    0.840965    0.929288    11.00000    0.01932    0.01629 =
         0.02624    0.00110   -0.00054    0.00059
AFIX  43
H5    2    0.249622    0.914303    0.976357    11.00000   -1.20000
AFIX   0
C6    1   -0.012413    0.733358    0.965454    11.00000    0.01635    0.01783 =
         0.02410    0.00263    0.00038    0.00215
C7    1   -0.103341    0.626845    0.896116    11.00000    0.01688    0.01584 =
         0.02753    0.00346    0.00047    0.00054
AFIX  43
H7    2   -0.239190    0.553381    0.919694    11.00000   -1.20000
AFIX   0
C8    1    0.001731    0.626076    0.792393    11.00000    0.01833    0.01502 =
         0.02526    0.00086   -0.00068    0.00214
C9    1   -0.106922    0.508166    0.725523    11.00000    0.02163    0.01751 =
         0.03088    0.00088    0.00061   -0.00137
AFIX  43
H9    2   -0.253486    0.442456    0.756144    11.00000   -1.20000
AFIX   0
C10   1   -0.135000    0.728965    1.074668    11.00000    0.01834    0.01637 =
         0.02578    0.00122   -0.00017    0.00099
C11   1   -0.138585    0.838209    1.241719    11.00000    0.02537    0.02242 =
         0.02360   -0.00049    0.00248    0.00075
AFIX  33
H11A  2   -0.044533    0.919536    1.279379    11.00000   -1.50000
H11B  2   -0.394774    0.832075    1.243199    11.00000   -1.50000
H11C  2   -0.055236    0.764299    1.275126    11.00000   -1.50000
AFIX   0
N1    3    0.305766    0.729774    0.651895    11.00000    0.02389    0.01810 =
         0.02429    0.00048    0.00126   -0.00040
O1    4    0.604941    0.929513    0.639242    11.00000    0.03375    0.02362 =
         0.03017    0.00173    0.00332   -0.00704
O2    4   -0.027101    0.486547    0.634537    11.00000    0.03712    0.02417 =
         0.02849   -0.00391    0.00397   -0.00484
O3    4   -0.318265    0.639471    1.107329    11.00000    0.02752    0.02186 =
         0.02793    0.00234    0.00339   -0.00427
O4    4   -0.022185    0.836316    1.134537    11.00000    0.02460    0.01891 =
         0.02385   -0.00170    0.00280   -0.00255
H1N   2    0.239936    0.658457    0.614296    11.00000    0.02884
HKLF    4

REM  16adh6b in P-1
REM R1 =  0.0551 for    2029 Fo > 4sig(Fo)  and  0.0624 for all    2393 data
REM    149 parameters refined using      0 restraints

END

WGHT      0.0998      0.2279

REM Instructions for potential hydrogen bonds
EQIV $1 -x, -y+1, -z+1
HTAB C1 O2_$1
EQIV $2 -x+1, -y+2, -z+1
HTAB C1 O1_$2
HTAB C4 O1
EQIV $3 -x-1, -y+1, -z+2
HTAB C9 O3_$3
EQIV $4 -x+1, -y+2, -z+2
HTAB C11 O1_$4
HTAB N1 O2

REM Highest difference peak  0.520,  deepest hole -0.318,  1-sigma level  0.076
Q1    1  -0.0488  0.7295  1.0173  11.00000  0.05    0.52
Q2    1   0.2716  0.7336  0.7152  11.00000  0.05    0.47
Q3    1   0.2672  0.8321  0.8810  11.00000  0.05    0.42
Q4    1   0.5277  0.8041  0.5396  11.00000  0.05    0.42
Q5    1  -0.0699  0.6312  0.8406  11.00000  0.05    0.42
Q6    1  -0.0630  0.8317  1.1904  11.00000  0.05    0.38
Q7    1   0.2821  0.7889  0.8004  11.00000  0.05    0.34
Q8    1  -0.3378  0.6434  1.1800  11.00000  0.05    0.33
Q9    1   0.7131  0.7190  0.4791  11.00000  0.05    0.33
Q10   1   0.0017  0.5896  0.7764  11.00000  0.05    0.33
Q11   1  -0.0197  0.4873  0.5529  11.00000  0.05    0.32
Q12   1   0.6679  0.8454  0.4494  11.00000  0.05    0.31
Q13   1   0.0836  0.6775  0.7737  11.00000  0.05    0.31
Q14   1   0.6010  0.9378  0.7092  11.00000  0.05    0.30
Q15   1  -0.0292  0.8378  1.0602  11.00000  0.05    0.29
Q16   1   0.1082  0.7981  0.9414  11.00000  0.05    0.29
Q17   1   0.3685  0.7222  0.4400  11.00000  0.05    0.28
Q18   1  -0.0165  0.5157  0.6126  11.00000  0.05    0.27
Q19   1  -0.3357  0.6331  1.0303  11.00000  0.05    0.26
Q20   1  -0.0156  0.6776  0.9424  11.00000  0.05    0.26
;
_shelx_res_checksum              65230
_shelx_hkl_file
;
  -1   0   0   56.48    1.66
  -1   0   0   63.72    1.67
  -1   0   0   56.52    1.67
   1   0   0   54.30    1.67
   1   0   0   55.48    1.66
   1   0   0   56.50    1.67
   1   0   0   54.42    1.66
  -2   0   0    9.11    0.30
  -2   0   0    8.88    0.29
  -2   0   0    9.37    0.29
  -2   0   0    9.87    0.31
   2   0   0    8.83    0.30
   2   0   0    9.55    0.29
   2   0   0    9.10    0.30
   2   0   0    9.00    0.29
  -3   0   0    2.97    0.15
  -3   0   0    2.90    0.12
  -3   0   0    2.86    0.14
  -3   0   0    3.45    0.14
   3   0   0    2.95    0.14
   3   0   0    3.30    0.13
   3   0   0    3.53    0.13
   3   0   0    3.52    0.16
  -4   0   0    0.48    0.08
  -4   0   0    0.58    0.07
   4   0   0    0.43    0.07
   4   0   0    0.53    0.08
  -5   0   0    0.01    0.06
   5   0   0    0.04    0.05
   5   0   0    0.06    0.05
   5  -1   0    0.13    0.06
   5  -1   0    0.04    0.05
  -5   1   0    0.06    0.07
   4  -1   0    0.53    0.07
  -4   1   0    0.42    0.07
  -4   1   0    0.40    0.08
   3  -1   0    5.52    0.20
   3  -1   0    5.71    0.21
   3  -1   0    5.58    0.20
  -3   1   0    5.73    0.20
  -3   1   0    5.58    0.20
  -3   1   0    5.26    0.19
  -3   1   0    4.93    0.21
   2  -1   0    0.66    0.06
   2  -1   0    0.75    0.05
   2  -1   0    0.71    0.05
  -2   1   0    0.67    0.04
  -2   1   0    0.85    0.06
  -2   1   0    0.75    0.05
  -2   1   0    0.70    0.05
   1  -1   0   51.24    1.56
   1  -1   0   52.14    1.56
   1  -1   0   52.31    1.56
  -1   1   0   57.47    1.57
  -1   1   0   51.48    1.56
  -1   1   0   53.41    1.56
  -1   1   0   54.50    1.56
   0  -1   0    2.84    0.11
   0  -1   0    3.64    0.11
   0   1   0    3.87    0.11
   0   1   0    3.67    0.11
   0   1   0    3.02    0.11
  -1  -1   0   54.76    1.64
  -1  -1   0   55.76    1.64
  -1  -1   0   59.18    1.64
  -1  -1   0   56.98    1.63
   1   1   0   57.38    1.63
   1   1   0   53.88    1.63
   1   1   0   54.21    1.64
   1   1   0   54.44    1.64
   1   1   0   54.92    1.64
   2   1   0    9.11    0.30
   2   1   0    9.76    0.30
  -3  -1   0   25.67    0.77
  -3  -1   0   24.02    0.78
  -3  -1   0   25.36    0.76
  -3  -1   0   25.23    0.77
   3   1   0   24.71    0.78
   3   1   0   24.56    0.76
   3   1   0   24.84    0.76
  -4  -1   0    0.13    0.06
   4   1   0    0.24    0.05
   4   1   0    0.12    0.04
   4   1   0    0.21    0.05
   5  -2   0    0.07    0.06
  -5   2   0    0.08    0.07
  -5   2   0    0.15    0.07
   4  -2   0    2.70    0.14
   4  -2   0    2.95    0.14
  -4   2   0    2.77    0.16
  -4   2   0    2.81    0.14
   3  -2   0    4.35    0.18
   3  -2   0    4.63    0.17
   3  -2   0    4.47    0.18
  -3   2   0    4.36    0.15
  -3   2   0    4.43    0.19
  -3   2   0    4.62    0.18
  -3   2   0    4.59    0.17
  -2   2   0    2.30    0.10
  -2   2   0    2.48    0.11
  -2   2   0    2.43    0.10
   1  -2   0    4.72    0.15
   1  -2   0    4.15    0.15
   1  -2   0    4.37    0.15
   1  -2   0    4.18    0.15
  -1   2   0    4.47    0.15
  -1   2   0    5.40    0.16
  -1   2   0    5.01    0.15
  -1   2   0    4.97    0.15
  -1   2   0    4.91    0.14
   0  -2   0  136.99    3.85
   0   2   0  115.58    3.85
   0   2   0  138.07    3.87
   0   2   0  135.47    3.84
  -1  -2   0   12.99    0.40
  -1  -2   0   13.41    0.39
  -1  -2   0   14.34    0.41
  -1  -2   0   12.89    0.40
   1   2   0   12.43    0.40
   1   2   0   12.65    0.39
   1   2   0   13.39    0.39
   1   2   0   12.69    0.40
   1   2   0   12.93    0.39
  -2  -2   0    5.72    0.20
  -2  -2   0    5.56    0.19
  -2  -2   0    5.70    0.19
   2   2   0    5.35    0.18
   2   2   0    5.15    0.19
   2   2   0    5.62    0.19
   2   2   0    5.22    0.19
   2   2   0    5.14    0.18
  -3  -2   0    0.27    0.05
  -3  -2   0    0.31    0.05
  -3  -2   0    0.17    0.04
  -3  -2   0    0.22    0.05
   3   2   0    0.31    0.05
   3   2   0    0.22    0.05
   3   2   0    0.28    0.04
  -4  -2   0    0.08    0.05
  -4  -2   0    0.20    0.05
  -4  -2   0    0.09    0.05
   4   2   0    0.10    0.04
   4   2   0    0.11    0.04
   4   2   0    0.12    0.05
  -5   3   0    0.00    0.05
   4  -3   0    0.13    0.05
  -4   3   0    0.07    0.04
  -4   3   0    0.12    0.06
   3  -3   0    0.90    0.08
   3  -3   0    0.88    0.07
   3  -3   0    0.87    0.07
  -3   3   0    0.87    0.08
  -3   3   0    0.84    0.07
   2  -3   0   23.21    0.70
   2  -3   0   22.75    0.70
   2  -3   0   23.63    0.70
  -2   3   0   23.22    0.70
  -2   3   0   21.98    0.68
  -2   3   0   24.33    0.70
  -2   3   0   22.64    0.71
   1  -3   0    1.05    0.05
   1  -3   0    1.06    0.05
   1  -3   0    1.10    0.05
   1  -3   0    1.08    0.05
  -1   3   0    1.12    0.05
  -1   3   0    1.04    0.04
  -1   3   0    1.13    0.05
  -1   3   0    1.24    0.06
  -1   3   0    1.09    0.05
   0   3   0   73.24    2.13
   0   3   0   79.04    2.14
   0   3   0   66.39    2.14
  -1  -3   0   45.97    1.35
  -1  -3   0   48.27    1.36
  -1  -3   0   46.07    1.35
  -1  -3   0   44.93    1.35
   1   3   0   45.26    1.36
   1   3   0   44.26    1.34
   1   3   0   45.82    1.35
  -3  -3   0    2.81    0.13
  -3  -3   0    2.86    0.15
   3   3   0    2.96    0.14
   3   3   0    2.92    0.12
   3   3   0    2.97    0.13
  -4  -3   0    1.47    0.12
  -4  -3   0    1.40    0.11
  -4  -3   0    1.27    0.10
   4   3   0    1.49    0.11
   4   3   0    1.29    0.10
   4   3   0    1.41    0.09
   4  -4   0    0.06    0.04
  -4   4   0    0.19    0.06
  -4   4   0    0.05    0.04
   3  -4   0    0.79    0.08
   3  -4   0    0.78    0.07
   3  -4   0    0.92    0.07
  -3   4   0    0.72    0.07
  -3   4   0    0.67    0.08
   2  -4   0    0.41    0.05
   2  -4   0    0.41    0.05
   2  -4   0    0.37    0.04
  -2   4   0    0.58    0.05
  -2   4   0    0.40    0.05
  -2   4   0    0.37    0.04
  -2   4   0    0.60    0.06
  -2   4   0    0.44    0.03
   1  -4   0    7.98    0.25
   1  -4   0    7.87    0.24
   1  -4   0    7.60    0.25
  -1   4   0    7.89    0.26
  -1   4   0    7.86    0.24
  -1   4   0    7.98    0.24
  -1   4   0    7.70    0.24
   0   4   0    0.09    0.02
   0   4   0    0.15    0.02
   0   4   0    0.10    0.03
  -1  -4   0    0.00    0.02
   1   4   0    0.04    0.02
   1   4   0    0.01    0.02
  -2  -4   0    3.72    0.14
  -2  -4   0    3.94    0.15
  -2  -4   0    4.08    0.16
  -2  -4   0    3.68    0.14
   2   4   0    3.79    0.15
   2   4   0    3.72    0.13
   2   4   0    3.71    0.13
   2   4   0    3.72    0.15
  -3  -4   0    0.48    0.06
  -3  -4   0    0.61    0.08
   3   4   0    0.59    0.07
   3   4   0    0.71    0.06
   3   4   0    0.64    0.07
  -4  -4   0    0.23    0.07
  -4  -4   0    0.15    0.05
   4   4   0    0.15    0.05
   4   4   0    0.16    0.06
   4   4   0    0.30    0.05
   4  -5   0    0.25    0.07
   3  -5   0    0.26    0.06
   3  -5   0    0.32    0.05
  -3   5   0    0.27    0.05
  -3   5   0    0.17    0.06
   2  -5   0    0.14    0.04
  -2   5   0    0.17    0.04
  -2   5   0    0.09    0.03
  -2   5   0    0.15    0.03
   1  -5   0    8.89    0.27
  -1   5   0    8.74    0.27
  -1   5   0    8.79    0.29
   0   5   0    1.67    0.08
   0   5   0    1.91    0.09
   0   5   0    1.82    0.07
  -1  -5   0    0.33    0.05
   1   5   0    0.21    0.04
   1   5   0    0.18    0.03
  -2  -5   0    2.58    0.12
  -2  -5   0    2.39    0.10
   2   5   0    2.20    0.11
   2   5   0    2.25    0.11
  -3  -5   0    1.49    0.11
  -3  -5   0    1.58    0.10
   3   5   0    1.16    0.09
   3   5   0    1.45    0.08
   3   5   0    1.53    0.10
  -4  -5   0    3.26    0.17
  -4  -5   0    3.45    0.17
  -4  -5   0    3.39    0.19
   4   5   0    3.09    0.17
   4   5   0    3.37    0.17
   4   5   0    3.31    0.14
   4  -6   0    0.36    0.07
   4  -6   0    0.26    0.07
  -4   6   0    0.53    0.10
  -4   6   0    0.32    0.06
   3  -6   0    0.03    0.04
   3  -6   0    0.00    0.04
  -3   6   0    0.01    0.04
  -3   6   0    0.05    0.03
   1  -6   0   39.90    1.16
  -1   6   0   39.04    1.16
  -1   6   0   38.37    1.18
   0  -6   0   12.24    0.38
   0   6   0   12.28    0.40
   0   6   0   13.43    0.41
   0   6   0   12.84    0.39
  -1  -6   0    0.21    0.05
   1   6   0    0.16    0.03
   1   6   0    0.12    0.03
  -2  -6   0    8.64    0.31
   2   6   0    8.59    0.29
   2   6   0    8.57    0.30
  -3  -6   0    0.08    0.05
  -3  -6   0    0.08    0.04
   3   6   0    0.00    0.03
   3   6   0    0.04    0.04
  -4  -6   0    0.02    0.04
  -4  -6   0    0.13    0.07
  -4  -6   0    0.11    0.06
   4   6   0    0.09    0.05
   4   6   0    0.06    0.03
   4   6   0    0.11    0.05
   4  -7   0    0.18    0.05
   4  -7   0    0.18    0.07
  -4   7   0    0.22    0.05
  -4   7   0    0.22    0.08
   3  -7   0    1.07    0.08
   3  -7   0    1.12    0.09
  -3   7   0    1.03    0.11
   2  -7   0    6.02    0.22
   2  -7   0    6.61    0.22
  -2   7   0    6.05    0.24
   1  -7   0    1.37    0.06
  -1   7   0    1.10    0.06
  -1   7   0    1.29    0.08
   0  -7   0    1.45    0.06
   0   7   0    1.37    0.06
   0   7   0    1.33    0.07
   0   7   0    1.51    0.09
  -1  -7   0    1.37    0.09
   1   7   0    1.22    0.06
   1   7   0    1.11    0.08
  -2  -7   0    3.22    0.16
   2   7   0    2.90    0.15
   2   7   0    3.26    0.14
  -3  -7   0    0.48    0.08
  -3  -7   0    0.50    0.06
   3   7   0    0.44    0.07
   3   7   0    0.36    0.06
  -4  -7   0    0.62    0.09
  -4  -7   0    0.77    0.12
   4   7   0    0.57    0.09
   4   7   0    0.57    0.09
   4  -8   0    0.09    0.05
   4  -8   0    0.00    0.06
  -4   8   0    0.07    0.04
  -4   8   0    0.19    0.07
   3  -8   0    4.65    0.20
   3  -8   0    5.10    0.19
  -3   8   0    4.60    0.22
  -3   8   0    4.58    0.17
   2  -8   0    4.18    0.17
   2  -8   0    4.12    0.16
  -2   8   0    4.18    0.19
   1  -8   0    2.26    0.09
  -1   8   0    2.21    0.12
  -1   8   0    2.15    0.10
   0  -8   0    8.64    0.27
   0   8   0    8.81    0.31
   0   8   0    8.67    0.30
  -1  -8   0   27.48    0.92
   1   8   0   29.51    0.88
   1   8   0   30.82    0.91
  -2  -8   0    4.31    0.20
   2   8   0    4.38    0.19
   2   8   0    4.46    0.17
  -3  -8   0    0.10    0.06
  -3  -8   0    0.14    0.05
   3   8   0    0.05    0.04
   3   8   0    0.01    0.04
   4  -9   0    0.23    0.07
  -4   9   0    0.12    0.04
  -4   9   0    0.18    0.07
   3  -9   0    0.32    0.07
  -3   9   0    0.33    0.07
   2  -9   0    0.06    0.04
  -2   9   0    0.04    0.05
  -1   9   0    9.91    0.38
  -1   9   0   11.84    0.36
   0  -9   0   54.72    1.68
   0   9   0   55.11    1.67
   0   9   0   55.44    1.65
  -1  -9   0    7.51    0.29
   1   9   0    7.38    0.27
  -2  -9   0    2.00    0.14
   2   9   0    2.03    0.12
  -3  -9   0    0.98    0.12
  -3  -9   0    0.92    0.09
   3   9   0    1.18    0.12
   3 -10   0    3.46    0.17
  -3  10   0    3.74    0.20
   2 -10   0    0.05    0.04
  -2  10   0    0.07    0.06
  -1  10   0    0.50    0.06
  -1  10   0    0.43    0.07
   0 -10   0    6.44    0.27
   0  10   0    6.42    0.24
   0  10   0    6.70    0.27
  -1 -10   0    0.35    0.07
  -2 -10   0    4.38    0.22
   2  10   0    4.56    0.21
  -3 -10   0    1.06    0.10
  -3 -10   0    1.05    0.13
   3  10   0    1.33    0.11
   3 -11   0    0.03    0.05
  -3  11   0    0.04    0.06
  -2  11   0    0.22    0.07
  -1  11   0    2.11    0.14
   0 -11   0    9.18    0.36
   0  11   0    8.65    0.32
   0  11   0    9.63    0.35
  -1 -11   0    0.02    0.05
   1  11   0    0.06    0.04
  -2 -11   0    0.27    0.08
   2  11   0    0.28    0.07
  -2  12   0    0.13    0.06
  -1  12   0    0.45    0.09
   0 -12   0    2.90    0.18
   0  12   0    3.10    0.18
   0  12   0    2.91    0.15
  -1 -12   0    0.38    0.08
   1  12   0    0.42    0.07
  -1  13   0    1.17    0.13
   0 -13   0    0.04    0.06
   0  13   0    0.03    0.05
   0  13   0   -0.03    0.06
   1  13  -1   -0.05    0.05
  -1 -13   1    0.05    0.07
   0  13  -1   -0.01    0.06
   0  13  -1    0.03    0.04
   0 -13   1    0.03    0.06
  -1  13  -1    2.42    0.17
   1  12  -1    1.62    0.12
  -1 -12   1    1.56    0.13
   0  12  -1    0.05    0.06
   0  12  -1    0.04    0.05
   0 -12   1    0.03    0.06
  -1  12  -1    7.73    0.32
  -2  12  -1    0.30    0.08
   2  11  -1    1.29    0.11
  -2 -11   1    1.40    0.13
   1  11  -1    0.68    0.09
  -1 -11   1    0.53    0.09
   0  11  -1    2.44    0.15
   0  11  -1    2.43    0.13
   0 -11   1    2.59    0.16
  -1  11  -1   26.10    0.85
  -2  11  -1    3.74    0.20
  -3  11  -1    0.00    0.06
   3 -11   1    0.06    0.05
   3  10  -1    0.13    0.06
  -3 -10   1    0.15    0.05
  -3 -10   1    0.22    0.07
   2  10  -1    1.67    0.12
  -2 -10   1    1.60    0.13
   1  10  -1    5.97    0.24
  -1 -10   1    5.67    0.25
   0  10  -1   17.01    0.58
   0  10  -1   18.20    0.57
   0 -10   1   17.49    0.59
  -1  10  -1    8.94    0.35
  -1  10  -1    9.78    0.32
  -2  10  -1    2.15    0.14
  -3  10  -1    1.03    0.12
   3 -10   1    1.25    0.11
   3   9  -1    3.41    0.17
  -3  -9   1    2.92    0.15
  -3  -9   1    2.75    0.18
   2   9  -1    0.40    0.07
  -2  -9   1    0.20    0.06
   1   9  -1    0.13    0.05
  -1  -9   1    0.17    0.06
   0   9  -1    1.98    0.11
   0   9  -1    2.12    0.12
  -1   9  -1    1.25    0.09
  -1   9  -1    1.30    0.08
  -2   9  -1    1.43    0.11
   2  -9   1    1.27    0.09
   2  -9   1    1.60    0.12
  -3   9  -1    2.79    0.17
   3  -9   1    2.91    0.15
  -4   9  -1    0.71    0.11
   4  -9   1    0.69    0.10
   3   8  -1    0.18    0.05
   3   8  -1    0.19    0.06
  -3  -8   1    0.14    0.05
  -3  -8   1    0.21    0.07
   2   8  -1    1.20    0.09
   2   8  -1    1.31    0.08
  -2  -8   1    1.25    0.10
   1   8  -1    5.46    0.21
   1   8  -1    5.46    0.19
  -1  -8   1    4.94    0.21
   0   8  -1    8.85    0.31
   0   8  -1    9.38    0.33
   0   8  -1    9.49    0.29
   0  -8   1    9.23    0.29
  -1   8  -1    1.14    0.09
  -1   8  -1    1.21    0.07
   1  -8   1    1.15    0.06
  -2   8  -1    5.84    0.24
   2  -8   1    6.11    0.22
   2  -8   1    6.55    0.22
  -3   8  -1    0.54    0.09
   3  -8   1    0.54    0.07
  -4   8  -1    0.13    0.07
   4  -8   1    0.07    0.06
   4  -8   1    0.14    0.06
   4   7  -1   -0.01    0.05
   4   7  -1    0.02    0.05
  -4  -7   1   -0.06    0.05
  -4  -7   1    0.04    0.05
  -4  -7   1    0.04    0.05
   3   7  -1    4.95    0.21
   3   7  -1    4.77    0.20
  -3  -7   1    4.53    0.19
  -3  -7   1    4.76    0.22
   2   7  -1    0.12    0.04
   1   7  -1    6.14    0.23
   1   7  -1    6.08    0.21
  -1  -7   1    6.54    0.24
   0   7  -1    0.14    0.03
   0   7  -1    0.07    0.03
   0   7  -1    0.08    0.03
   0  -7   1    0.10    0.02
  -1   7  -1    0.09    0.04
  -1   7  -1    0.08    0.02
   1  -7   1    0.13    0.03
  -2   7  -1    3.33    0.16
   2  -7   1    3.47    0.14
   2  -7   1    3.46    0.14
  -3   7  -1    0.19    0.06
   3  -7   1    0.29    0.06
   3  -7   1    0.23    0.05
  -4   7  -1   -0.01    0.04
  -4   7  -1    0.07    0.06
   4  -7   1    0.03    0.04
   4  -7   1    0.05    0.06
   4   6  -1    0.74    0.09
   4   6  -1    0.83    0.10
  -4  -6   1    0.66    0.09
  -4  -6   1    0.65    0.11
  -4  -6   1    0.81    0.09
   3   6  -1    1.03    0.09
   3   6  -1    1.23    0.10
  -3  -6   1    1.21    0.09
  -3  -6   1    1.22    0.11
   2   6  -1    2.69    0.13
   2   6  -1    2.88    0.12
  -2  -6   1    2.78    0.14
   1   6  -1    0.12    0.03
   1   6  -1    0.08    0.03
  -1  -6   1    0.08    0.04
   0   6  -1    3.91    0.13
   0   6  -1    3.83    0.15
   0   6  -1    3.58    0.14
  -1   6  -1    1.69    0.07
  -1   6  -1    1.80    0.09
   1  -6   1    1.80    0.07
  -2   6  -1    0.07    0.02
  -2   6  -1    0.12    0.02
  -2   6  -1    0.06    0.04
   2  -6   1    0.06    0.03
   2  -6   1    0.07    0.03
  -3   6  -1    0.03    0.04
  -3   6  -1    0.03    0.05
   3  -6   1    0.11    0.04
   3  -6   1   -0.01    0.05
  -4   6  -1   -0.06    0.04
  -4   6  -1    0.02    0.05
   4  -6   1    0.05    0.06
   4  -6   1    0.03    0.04
   4   5  -1    0.86    0.10
   4   5  -1    0.74    0.07
   4   5  -1    1.02    0.10
  -4  -5   1    0.78    0.09
  -4  -5   1    0.93    0.12
  -4  -5   1    0.75    0.09
   3   5  -1    2.82    0.11
   3   5  -1    3.16    0.14
   3   5  -1    2.80    0.14
  -3  -5   1    2.85    0.15
  -3  -5   1    2.86    0.14
   2   5  -1    8.66    0.29
   2   5  -1    8.37    0.30
  -2  -5   1    8.48    0.28
  -2  -5   1    9.07    0.31
   1   5  -1    0.02    0.02
   1   5  -1    0.05    0.03
  -1  -5   1    0.04    0.03
   0   5  -1   24.86    0.77
   0   5  -1   26.37    0.76
   0   5  -1   25.67    0.78
  -1   5  -1    3.86    0.15
  -1   5  -1    3.83    0.13
   1  -5   1    3.79    0.13
  -2   5  -1    0.02    0.03
  -2   5  -1    0.00    0.02
  -2   5  -1   -0.02    0.02
   2  -5   1    0.04    0.03
   2  -5   1    0.04    0.03
   2  -5   1   -0.01    0.03
  -3   5  -1    3.18    0.16
  -3   5  -1    3.40    0.14
   3  -5   1    3.68    0.15
   3  -5   1    3.27    0.15
  -4   5  -1    0.42    0.08
  -4   5  -1    0.31    0.06
   4  -5   1    0.49    0.07
   4  -5   1    0.55    0.08
   4   4  -1    0.50    0.08
   4   4  -1    0.40    0.06
   4   4  -1    0.38    0.05
  -4  -4   1    0.37    0.07
  -4  -4   1    0.24    0.06
  -4  -4   1    0.47    0.08
   3   4  -1    0.85    0.08
   3   4  -1    0.89    0.07
   3   4  -1    0.77    0.06
  -3  -4   1    0.93    0.08
  -3  -4   1    0.89    0.09
   2   4  -1    2.20    0.08
   2   4  -1    2.23    0.10
   2   4  -1    2.13    0.08
   2   4  -1    2.18    0.10
  -2  -4   1    2.08    0.09
  -2  -4   1    2.14    0.10
  -2  -4   1    2.17    0.10
  -2  -4   1    2.45    0.11
   1   4  -1    0.01    0.02
   1   4  -1    0.03    0.02
  -1  -4   1    0.05    0.03
   0   4  -1    6.73    0.21
   0   4  -1    6.71    0.22
   0   4  -1    6.80    0.22
  -1   4  -1    3.49    0.13
  -1   4  -1    3.37    0.11
   1  -4   1    3.35    0.12
  -2   4  -1    3.10    0.12
  -2   4  -1    3.08    0.12
  -2   4  -1    3.14    0.14
  -2   4  -1    3.14    0.12
   2  -4   1    3.22    0.13
   2  -4   1    3.32    0.13
   2  -4   1    3.21    0.12
  -3   4  -1    1.96    0.12
  -3   4  -1    2.09    0.10
   3  -4   1    2.14    0.12
   3  -4   1    2.21    0.11
  -4   4  -1    1.32    0.12
  -4   4  -1    1.36    0.09
   4  -4   1    1.29    0.10
   4   3  -1    1.14    0.08
   4   3  -1    1.26    0.10
   4   3  -1    1.26    0.10
  -4  -3   1    1.22    0.11
  -4  -3   1    1.43    0.10
  -4  -3   1    1.26    0.11
   3   3  -1    0.10    0.04
   3   3  -1    0.06    0.03
   3   3  -1    0.11    0.04
  -3  -3   1    0.03    0.04
  -3  -3   1    0.01    0.03
  -3  -3   1    0.02    0.03
   2   3  -1   21.21    0.66
   2   3  -1   21.53    0.65
   2   3  -1   21.12    0.65
   2   3  -1   21.12    0.66
   2   3  -1   23.09    0.66
  -2  -3   1   21.68    0.65
  -2  -3   1   21.83    0.66
  -2  -3   1   21.90    0.67
  -2  -3   1   20.10    0.65
   1   3  -1    0.95    0.05
   1   3  -1    0.96    0.05
  -1  -3   1    1.05    0.06
   0   3  -1   14.12    0.44
   0   3  -1   15.49    0.43
   0   3  -1   13.52    0.43
  -1   3  -1    5.87    0.18
  -1   3  -1    6.11    0.20
  -1   3  -1    6.10    0.19
   1  -3   1    6.25    0.19
   1  -3   1    6.03    0.19
   1  -3   1    5.71    0.19
   1  -3   1    5.92    0.19
  -2   3  -1   22.70    0.72
  -2   3  -1   23.52    0.70
  -2   3  -1   23.46    0.70
  -2   3  -1   23.09    0.71
   2  -3   1   23.66    0.70
   2  -3   1   23.65    0.71
   2  -3   1   23.07    0.71
  -3   3  -1    0.32    0.06
  -3   3  -1    0.34    0.05
   3  -3   1    0.21    0.05
   3  -3   1    0.33    0.06
   3  -3   1    0.30    0.05
  -4   3  -1    0.17    0.06
  -4   3  -1    0.22    0.05
   4  -3   1    0.11    0.05
  -5   3  -1    0.12    0.06
   4   2  -1    0.13    0.05
   4   2  -1    0.15    0.04
   4   2  -1    0.12    0.05
  -4  -2   1    0.24    0.05
  -4  -2   1    0.12    0.05
  -4  -2   1    0.11    0.06
   3   2  -1    0.10    0.04
   3   2  -1    0.16    0.04
   3   2  -1    0.11    0.04
  -3  -2   1    0.14    0.04
  -3  -2   1    0.12    0.05
  -3  -2   1    0.13    0.04
  -3  -2   1    0.12    0.06
   2   2  -1   14.79    0.45
   2   2  -1   14.24    0.45
   2   2  -1   14.83    0.46
   2   2  -1   14.80    0.45
   2   2  -1   13.99    0.45
  -2  -2   1   14.17    0.45
  -2  -2   1   15.00    0.46
  -2  -2   1   14.42    0.45
   1   2  -1    0.17    0.03
   1   2  -1    0.21    0.03
   1   2  -1    0.23    0.02
   1   2  -1    0.17    0.02
  -1  -2   1    0.17    0.03
  -1  -2   1    0.22    0.02
  -1  -2   1    0.21    0.02
  -1  -2   1    0.22    0.03
   0   2  -1   38.01    1.05
   0   2  -1   35.22    1.05
   0   2  -1   33.79    1.05
  -1   2  -1  961.74   27.54
  -1   2  -1  945.40   27.15
  -1   2  -1  910.40   27.46
  -1   2  -1 1000.00   27.21
   1  -2   1  903.20   27.16
   1  -2   1  930.43   27.15
   1  -2   1  879.08   27.17
   1  -2   1  915.57   27.16
  -2   2  -1   24.13    0.72
  -2   2  -1   22.78    0.69
  -2   2  -1   24.29    0.71
  -2   2  -1   23.38    0.71
   2  -2   1   23.66    0.71
   2  -2   1   22.39    0.71
   2  -2   1   23.63    0.71
  -3   2  -1    4.90    0.18
  -3   2  -1    4.62    0.20
   3  -2   1    4.89    0.18
   3  -2   1    4.89    0.19
   3  -2   1    4.80    0.19
  -4   2  -1    0.11    0.06
  -4   2  -1    0.08    0.05
   4  -2   1    0.15    0.05
   4  -2   1    0.08    0.04
  -5   2  -1    0.54    0.08
  -5   2  -1    0.45    0.09
   5  -2   1    0.46    0.08
   4   1  -1    0.18    0.05
   4   1  -1    0.16    0.05
  -4  -1   1    0.16    0.04
  -4  -1   1    0.15    0.06
  -4  -1   1    0.22    0.06
   3   1  -1    2.10    0.10
   3   1  -1    1.97    0.09
  -3  -1   1    1.49    0.09
  -3  -1   1    1.53    0.10
  -3  -1   1    1.76    0.10
  -3  -1   1    1.57    0.09
   2   1  -1   43.02    1.27
   2   1  -1   43.03    1.26
   2   1  -1   41.55    1.27
   2   1  -1   42.90    1.27
  -2  -1   1   42.01    1.27
  -2  -1   1   41.48    1.28
  -2  -1   1   43.51    1.26
  -2  -1   1   42.84    1.27
   1   1  -1    3.15    0.11
   1   1  -1    2.80    0.10
   1   1  -1    2.94    0.11
   1   1  -1    2.75    0.11
   1   1  -1    3.22    0.10
  -1  -1   1    3.40    0.11
  -1  -1   1    3.20    0.10
  -1  -1   1    3.04    0.11
  -1  -1   1    3.03    0.11
   0   1  -1   11.15    0.34
   0   1  -1   11.23    0.34
   0   1  -1   10.83    0.33
   0  -1   1   10.87    0.33
   0  -1   1   12.25    0.34
  -1   1  -1   36.90    1.07
  -1   1  -1   39.27    1.08
  -1   1  -1   34.57    1.07
  -1   1  -1   36.53    1.07
  -1   1  -1   34.72    1.06
   1  -1   1   35.54    1.07
   1  -1   1   34.79    1.07
   1  -1   1   35.66    1.07
  -2   1  -1   13.11    0.40
  -2   1  -1   13.16    0.41
  -2   1  -1   12.48    0.39
  -2   1  -1   12.85    0.40
   2  -1   1   12.48    0.40
   2  -1   1   12.61    0.39
   2  -1   1   12.71    0.39
   2  -1   1   12.38    0.40
  -3   1  -1    3.24    0.14
  -3   1  -1    3.17    0.12
  -3   1  -1    3.15    0.15
  -3   1  -1    3.39    0.14
   3  -1   1    3.35    0.14
   3  -1   1    3.04    0.14
   3  -1   1    3.27    0.13
  -4   1  -1   13.07    0.42
  -4   1  -1   11.72    0.44
   4  -1   1   12.28    0.43
   4  -1   1   12.76    0.42
  -5   1  -1    0.10    0.07
   5  -1   1    0.10    0.06
   5  -1   1    0.18    0.06
   5   0  -1    0.28    0.07
   5   0  -1    0.34    0.07
  -5   0   1    0.30    0.08
   4   0  -1    0.10    0.04
   4   0  -1    0.09    0.05
  -4   0   1    0.13    0.06
   3   0  -1   10.32    0.33
   3   0  -1    9.98    0.34
  -3   0   1    9.97    0.35
  -3   0   1    9.75    0.34
  -3   0   1   10.59    0.34
  -3   0   1   10.26    0.33
   2   0  -1    3.09    0.12
   2   0  -1    3.12    0.12
   2   0  -1    3.30    0.12
   2   0  -1    3.38    0.13
  -2   0   1    3.34    0.13
  -2   0   1    3.21    0.12
  -2   0   1    3.29    0.13
  -2   0   1    3.10    0.12
   1   0  -1    6.90    0.22
   1   0  -1    6.83    0.22
   1   0  -1    6.54    0.22
   1   0  -1    6.81    0.22
  -1   0   1    7.11    0.22
  -1   0   1    7.41    0.22
  -1   0   1    7.34    0.22
  -1   0   1    7.07    0.22
   0   0  -1   15.26    0.45
   0   0  -1   15.02    0.45
   0   0  -1   14.38    0.45
   0   0  -1   15.75    0.45
   0   0   1   15.73    0.45
   0   0   1   15.69    0.45
   0   0   1   15.95    0.45
  -1   0  -1  256.54    7.52
  -1   0  -1  280.91    7.54
  -1   0  -1  259.12    7.52
   1   0   1  243.36    7.51
   1   0   1  255.23    7.53
   1   0   1  255.02    7.52
   1   0   1  247.84    7.50
  -2   0  -1    6.29    0.22
  -2   0  -1    6.14    0.20
  -2   0  -1    6.01    0.20
   2   0   1    6.32    0.21
   2   0   1    5.63    0.19
   2   0   1    5.97    0.20
   2   0   1    5.96    0.21
  -3   0  -1    1.92    0.09
  -3   0  -1    2.21    0.11
  -3   0  -1    1.92    0.11
  -3   0  -1    2.29    0.10
   3   0   1    2.23    0.10
   3   0   1    1.94    0.11
   3   0   1    2.38    0.11
   3   0   1    2.21    0.09
  -4   0  -1    0.12    0.05
  -4   0  -1    0.03    0.05
   4   0   1    0.07    0.05
   4   0   1    0.07    0.04
  -5   0  -1   -0.03    0.06
   5   0   1    0.07    0.05
   5   0   1    0.02    0.05
   5  -1  -1    0.06    0.05
   5  -1  -1   -0.02    0.05
  -5   1   1    0.05    0.07
   4  -1  -1    0.25    0.06
   4  -1  -1    0.26    0.06
  -4   1   1    0.28    0.06
  -4   1   1    0.22    0.06
   3  -1  -1    0.18    0.04
   3  -1  -1    0.12    0.04
   3  -1  -1    0.24    0.04
  -3   1   1    0.04    0.04
  -3   1   1    0.03    0.02
  -3   1   1    0.07    0.03
  -3   1   1    0.07    0.04
   2  -1  -1    0.82    0.05
   2  -1  -1    0.82    0.05
   2  -1  -1    0.81    0.06
  -2   1   1    0.74    0.05
  -2   1   1    0.82    0.05
  -2   1   1    0.90    0.06
  -2   1   1    0.79    0.06
   1  -1  -1   42.61    1.29
   1  -1  -1   43.00    1.29
   1  -1  -1   42.08    1.29
  -1   1   1   44.48    1.29
  -1   1   1   44.67    1.29
  -1   1   1   44.55    1.29
  -1   1   1   45.15    1.29
   0  -1  -1   39.65    1.15
   0  -1  -1   40.68    1.15
   0  -1  -1   40.10    1.15
   0   1   1   37.69    1.15
   0   1   1   37.78    1.15
   0   1   1   39.72    1.15
   0   1   1   37.26    1.15
   0   1   1   40.87    1.15
  -1  -1  -1   46.32    1.36
  -1  -1  -1   47.96    1.37
  -1  -1  -1   45.08    1.36
   1   1   1   46.35    1.36
   1   1   1   44.53    1.36
   1   1   1   46.72    1.36
   1   1   1   46.73    1.36
   1   1   1   46.23    1.37
  -2  -1  -1   19.18    0.59
  -2  -1  -1   18.76    0.57
  -2  -1  -1   19.34    0.58
   2   1   1   18.74    0.58
   2   1   1   18.33    0.57
   2   1   1   18.68    0.57
   2   1   1   18.53    0.58
  -4  -1  -1    1.59    0.12
   4   1   1    1.71    0.10
   4   1   1    1.87    0.12
   5  -2  -1    0.09    0.06
   5  -2  -1    0.01    0.05
  -5   2   1    0.00    0.06
   4  -2  -1    0.26    0.06
   4  -2  -1    0.29    0.06
  -4   2   1    0.30    0.06
  -4   2   1    0.23    0.07
   3  -2  -1    0.65    0.06
   3  -2  -1    0.50    0.06
   3  -2  -1    0.46    0.06
  -3   2   1    0.42    0.06
  -3   2   1    0.48    0.04
  -3   2   1    0.41    0.06
  -3   2   1    0.34    0.05
   2  -2  -1   10.38    0.34
   2  -2  -1   10.27    0.33
   2  -2  -1   10.35    0.34
  -2   2   1   10.94    0.35
  -2   2   1   10.49    0.34
  -2   2   1   11.23    0.33
  -2   2   1   10.05    0.32
   1  -2  -1    3.47    0.13
   1  -2  -1    3.81    0.13
   1  -2  -1    3.79    0.13
  -1   2   1    3.96    0.14
  -1   2   1    3.86    0.13
  -1   2   1    3.82    0.12
  -1   2   1    3.95    0.13
  -1   2   1    4.09    0.13
   0  -2  -1   11.93    0.36
   0  -2  -1   11.68    0.35
   0  -2  -1   12.24    0.35
   0   2   1   11.08    0.36
   0   2   1   12.23    0.35
   0   2   1   11.95    0.36
   0   2   1   12.08    0.35
  -1  -2  -1    0.84    0.05
  -1  -2  -1    0.86    0.05
  -1  -2  -1    0.91    0.05
  -1  -2  -1    0.88    0.04
   1   2   1    0.92    0.05
   1   2   1    0.90    0.04
   1   2   1    0.85    0.05
   1   2   1    0.92    0.04
   1   2   1    0.84    0.05
  -2  -2  -1    0.89    0.06
  -2  -2  -1    1.05    0.06
  -2  -2  -1    1.13    0.07
   2   2   1    1.04    0.06
   2   2   1    0.91    0.06
   2   2   1    1.06    0.05
   2   2   1    0.87    0.06
  -3  -2  -1    2.20    0.11
  -3  -2  -1    2.33    0.12
  -3  -2  -1    2.12    0.11
   3   2   1    2.27    0.11
   3   2   1    2.35    0.10
   3   2   1    2.09    0.11
  -4  -2  -1    0.07    0.05
  -4  -2  -1    0.09    0.05
  -4  -2  -1    0.07    0.05
   4   2   1    0.02    0.04
   4   2   1    0.08    0.04
   4   2   1    0.08    0.04
   4  -3  -1    0.11    0.05
   4  -3  -1    0.15    0.05
  -4   3   1    0.01    0.05
  -4   3   1    0.07    0.05
   3  -3  -1    0.01    0.04
   3  -3  -1    0.06    0.04
   3  -3  -1    0.03    0.03
  -3   3   1    0.01    0.03
  -3   3   1    0.01    0.03
  -3   3   1   -0.01    0.04
   2  -3  -1    0.47    0.05
   2  -3  -1    0.39    0.04
   2  -3  -1    0.47    0.05
  -2   3   1    0.40    0.03
  -2   3   1    0.38    0.05
  -2   3   1    0.51    0.05
  -2   3   1    0.43    0.05
   1  -3  -1    3.56    0.12
   1  -3  -1    3.65    0.12
   1  -3  -1    3.58    0.12
  -1   3   1    3.65    0.13
  -1   3   1    3.40    0.12
  -1   3   1    3.52    0.12
  -1   3   1    3.65    0.12
   0  -3  -1   10.67    0.33
   0   3   1   10.38    0.33
   0   3   1   11.31    0.34
   0   3   1   11.18    0.32
  -1  -3  -1    0.10    0.02
  -1  -3  -1    0.12    0.03
  -1  -3  -1    0.07    0.02
  -1  -3  -1    0.10    0.02
   1   3   1    0.09    0.02
   1   3   1    0.07    0.02
   1   3   1    0.09    0.02
   1   3   1    0.10    0.03
  -2  -3  -1    0.22    0.04
  -2  -3  -1    0.15    0.03
  -2  -3  -1    0.22    0.04
   2   3   1    0.23    0.04
   2   3   1    0.14    0.03
   2   3   1    0.14    0.03
   2   3   1    0.16    0.03
   2   3   1    0.12    0.03
  -3  -3  -1    0.07    0.04
  -3  -3  -1    0.04    0.04
   3   3   1    0.04    0.03
   3   3   1    0.03    0.03
   3   3   1    0.05    0.03
  -4  -3  -1    1.55    0.11
  -4  -3  -1    1.39    0.12
  -4  -3  -1    1.65    0.10
   4   3   1    1.49    0.10
   4   3   1    1.43    0.11
   4   3   1    1.49    0.10
   4  -4  -1    0.45    0.07
  -4   4   1    0.53    0.07
  -4   4   1    0.38    0.08
   3  -4  -1    2.62    0.13
   3  -4  -1    2.78    0.13
   3  -4  -1    2.77    0.12
  -3   4   1    2.43    0.14
  -3   4   1    2.77    0.12
   2  -4  -1    0.11    0.03
   2  -4  -1    0.07    0.03
   2  -4  -1    0.10    0.03
  -2   4   1    0.10    0.03
  -2   4   1    0.14    0.04
  -2   4   1    0.13    0.02
  -2   4   1    0.10    0.03
  -2   4   1    0.15    0.03
   1  -4  -1    0.38    0.03
   1  -4  -1    0.40    0.04
   1  -4  -1    0.41    0.04
   1  -4  -1    0.35    0.03
  -1   4   1    0.30    0.04
  -1   4   1    0.34    0.03
  -1   4   1    0.38    0.03
  -1   4   1    0.34    0.03
   0   4   1   93.62    2.80
   0   4   1   97.38    2.81
  -1  -4  -1   16.80    0.51
  -1  -4  -1   16.60    0.51
  -1  -4  -1   16.55    0.51
  -1  -4  -1   17.45    0.53
   1   4   1   16.34    0.50
   1   4   1   17.15    0.51
   1   4   1   17.10    0.52
   1   4   1   16.31    0.50
  -2  -4  -1    2.31    0.10
  -2  -4  -1    2.10    0.09
  -2  -4  -1    2.06    0.11
   2   4   1    2.09    0.10
   2   4   1    1.94    0.10
   2   4   1    1.98    0.08
  -3  -4  -1    3.28    0.15
  -3  -4  -1    3.29    0.16
   3   4   1    3.19    0.15
   3   4   1    3.46    0.15
   3   4   1    3.20    0.13
  -4  -4  -1    0.27    0.07
  -4  -4  -1    0.15    0.06
  -4  -4  -1    0.28    0.06
   4   4   1    0.24    0.06
   4   4   1    0.25    0.05
   4   4   1    0.34    0.06
  -4   5   1    0.17    0.05
  -4   5   1    0.26    0.07
   3  -5  -1    0.83    0.07
   3  -5  -1    0.85    0.08
  -3   5   1    0.93    0.10
  -3   5   1    0.87    0.07
   2  -5  -1    2.37    0.10
   2  -5  -1    2.36    0.11
   2  -5  -1    2.43    0.10
  -2   5   1    2.31    0.09
  -2   5   1    2.23    0.12
  -2   5   1    2.33    0.09
   1  -5  -1    5.21    0.18
   1  -5  -1    5.27    0.17
   1  -5  -1    5.46    0.17
   1  -5  -1    5.25    0.18
  -1   5   1    5.28    0.17
  -1   5   1    5.32    0.19
   0   5   1    0.55    0.04
   0   5   1    0.59    0.05
  -1  -5  -1   10.39    0.34
  -1  -5  -1   10.92    0.35
   1   5   1   10.37    0.34
   1   5   1   10.54    0.33
  -2  -5  -1    0.91    0.08
  -2  -5  -1    0.84    0.06
   2   5   1    0.76    0.05
   2   5   1    0.75    0.06
   2   5   1    0.82    0.06
  -3  -5  -1    8.60    0.31
  -3  -5  -1    8.87    0.33
   3   5   1    8.57    0.31
   3   5   1    8.82    0.29
   3   5   1    8.93    0.31
  -4  -5  -1    0.60    0.09
  -4  -5  -1    0.56    0.10
   4   5   1    0.42    0.07
   4   5   1    0.64    0.07
   4   5   1    0.37    0.07
   4  -6  -1   -0.01    0.04
   4  -6  -1   -0.02    0.05
  -4   6   1   -0.01    0.04
  -4   6   1    0.05    0.06
   3  -6  -1    0.01    0.03
   3  -6  -1    0.13    0.05
  -3   6   1    0.01    0.03
  -3   6   1    0.04    0.05
   2  -6  -1    7.23    0.23
   2  -6  -1    6.81    0.24
  -2   6   1    6.76    0.25
  -2   6   1    6.87    0.22
  -2   6   1    6.83    0.23
   1  -6  -1   12.44    0.38
   1  -6  -1   11.76    0.38
   1  -6  -1   12.51    0.37
  -1   6   1   11.88    0.38
  -1   6   1   12.18    0.40
   0   6   1    0.34    0.05
   0   6   1    0.38    0.04
  -1  -6  -1    4.46    0.17
   1   6   1    4.23    0.16
   1   6   1    4.13    0.15
  -2  -6  -1   29.65    0.94
  -2  -6  -1   29.64    0.91
   2   6   1   30.30    0.91
   2   6   1   30.29    0.93
  -3  -6  -1    1.75    0.13
  -3  -6  -1    1.91    0.11
   3   6   1    2.18    0.12
   3   6   1    1.94    0.11
   3   6   1    2.07    0.09
  -4  -6  -1    0.65    0.09
  -4  -6  -1    0.58    0.10
   4   6   1    0.62    0.09
   4   6   1    0.61    0.09
   4   6   1    0.55    0.06
   4  -7  -1    0.29    0.08
   4  -7  -1    0.29    0.06
  -4   7   1    0.23    0.05
  -4   7   1    0.07    0.06
   3  -7  -1    0.16    0.05
   3  -7  -1    0.16    0.04
  -3   7   1    0.16    0.06
  -3   7   1    0.12    0.04
   2  -7  -1    0.10    0.03
   2  -7  -1    0.07    0.04
  -2   7   1    0.14    0.03
  -2   7   1    0.06    0.02
  -2   7   1    0.08    0.04
   1  -7  -1    0.47    0.03
  -1   7   1    0.49    0.05
  -1   7   1    0.49    0.06
   0   7   1   22.98    0.72
   0   7   1   23.29    0.71
  -1  -7  -1   50.10    1.53
   1   7   1   48.94    1.49
   1   7   1   52.07    1.51
  -2  -7  -1   14.48    0.46
  -2  -7  -1   14.52    0.50
   2   7   1   14.25    0.48
   2   7   1   14.95    0.46
  -3  -7  -1    1.58    0.11
  -3  -7  -1    1.65    0.13
   3   7   1    1.70    0.11
   3   7   1    1.73    0.10
  -4  -7  -1    0.65    0.09
  -4  -7  -1    0.82    0.12
   4   7   1    0.58    0.09
   4   7   1    0.51    0.08
   4  -8  -1    0.51    0.09
  -4   8   1    0.36    0.08
  -4   8   1    0.35    0.06
   3  -8  -1    1.69    0.11
   3  -8  -1    1.20    0.10
  -3   8   1    1.17    0.11
  -3   8   1    1.16    0.07
   2  -8  -1   14.75    0.45
   2  -8  -1   12.97    0.44
  -2   8   1   13.14    0.46
  -1   8   1    0.19    0.04
  -1   8   1    0.21    0.05
   0   8   1    1.07    0.07
   0   8   1    1.00    0.08
  -2  -8  -1    0.15    0.06
   2   8   1    0.07    0.04
  -3  -8  -1    6.88    0.29
  -3  -8  -1    6.68    0.26
   3   8   1    7.12    0.28
   4  -9  -1    0.01    0.06
  -4   9   1    0.01    0.03
  -4   9   1    0.02    0.06
   3  -9  -1   -0.02    0.05
  -3   9   1   -0.01    0.05
   2  -9  -1    0.02    0.04
  -2   9   1    0.01    0.05
  -1   9   1    0.02    0.03
  -1   9   1    0.09    0.04
   0  -9  -1    2.64    0.15
   0   9   1    2.73    0.14
   0   9   1    2.70    0.13
  -1  -9  -1   25.03    0.82
   1   9   1   25.95    0.80
  -2  -9  -1    0.16    0.06
  -2  -9  -1    0.18    0.04
   2   9   1    0.13    0.05
  -3  -9  -1    0.59    0.10
  -3  -9  -1    0.53    0.07
   3   9   1    0.67    0.09
   3 -10  -1    0.70    0.09
  -3  10   1    0.98    0.12
   2 -10  -1    0.06    0.04
  -2  10   1    0.04    0.05
  -1  10   1    0.12    0.05
  -1  10   1    0.14    0.04
   0 -10  -1    0.39    0.08
   0  10   1    0.46    0.06
   0  10   1    0.64    0.09
  -1 -10  -1    5.56    0.25
   1  10   1    5.90    0.23
  -2 -10  -1    0.51    0.09
   2  10   1    0.45    0.08
  -3 -10  -1    0.27    0.06
   3  10   1    0.17    0.06
   3 -11  -1    0.18    0.06
  -3  11   1    0.15    0.07
   2 -11  -1    0.09    0.05
  -2  11   1    0.26    0.08
  -1  11   1    0.34    0.06
  -1  11   1    0.34    0.07
   0 -11  -1    3.01    0.17
   0  11   1    3.04    0.17
   0  11   1    3.21    0.15
  -1 -11  -1    0.58    0.09
   1  11   1    0.53    0.08
  -2 -11  -1    0.02    0.06
   2  11   1    0.04    0.05
   2 -12  -1    0.95    0.09
  -2  12   1    0.83    0.11
  -1  12   1    0.19    0.07
   0 -12  -1    0.11    0.07
   0  12   1    0.08    0.06
   0  12   1    0.02    0.05
  -1 -12  -1    1.10    0.13
   1  12   1    1.30    0.12
  -1  13   1    0.86    0.12
   0 -13  -1    0.55    0.10
   0  13   1    0.52    0.10
   0  13   1    0.50    0.08
   1  13  -2    0.82    0.10
   0  13  -2    0.01    0.06
   0  13  -2    0.11    0.05
   0 -13   2    0.11    0.07
  -1  13  -2    0.29    0.08
   1  12  -2    2.61    0.15
  -1 -12   2    2.42    0.16
   0  12  -2    5.74    0.23
   0  12  -2    5.40    0.25
   0 -12   2    5.10    0.25
  -1  12  -2    4.97    0.23
   2  11  -2    4.13    0.20
  -2 -11   2    3.96    0.21
   1  11  -2    1.18    0.11
  -1 -11   2    0.76    0.10
   0  11  -2    3.34    0.17
   0  11  -2    3.25    0.15
   0 -11   2    3.30    0.18
  -1  11  -2    1.09    0.11
  -2  11  -2    4.22    0.21
  -3  11  -2    0.92    0.12
   3 -11   2    0.63    0.08
   3  10  -2    0.67    0.10
  -3 -10   2    0.66    0.11
   2  10  -2    0.91    0.10
  -2 -10   2    1.10    0.13
   1  10  -2    0.93    0.10
  -1 -10   2    0.99    0.11
   0  10  -2    2.08    0.13
   0  10  -2    1.92    0.11
   0 -10   2    1.88    0.13
  -1  10  -2   14.92    0.51
  -2  10  -2    0.09    0.06
  -3  10  -2    0.36    0.08
   3 -10   2    0.25    0.06
   3   9  -2    0.40    0.07
   3   9  -2    0.31    0.11
  -3  -9   2    0.42    0.09
  -3  -9   2    0.35    0.07
   2   9  -2    2.77    0.13
   2   9  -2    2.76    0.15
  -2  -9   2    2.79    0.16
   1   9  -2    0.94    0.07
   1   9  -2    0.98    0.08
  -1  -9   2    1.14    0.12
   0   9  -2    8.15    0.28
   0   9  -2    7.82    0.29
   0   9  -2    7.99    0.27
   0  -9   2    7.60    0.26
  -1   9  -2    0.00    0.03
  -1   9  -2    0.03    0.04
   1  -9   2    0.09    0.03
  -2   9  -2    0.12    0.05
   2  -9   2    0.08    0.04
  -3   9  -2    0.98    0.11
   3  -9   2    0.83    0.09
   3  -9   2    0.80    0.08
  -4   9  -2    0.28    0.08
   4  -9   2    0.38    0.08
   4  -9   2    0.66    0.13
   3   8  -2    1.24    0.11
   3   8  -2    1.45    0.10
  -3  -8   2    1.47    0.12
  -3  -8   2    1.24    0.10
   2   8  -2    4.35    0.18
   2   8  -2    4.21    0.19
  -2  -8   2    4.42    0.20
   1   8  -2    2.62    0.11
   1   8  -2    2.92    0.13
  -1  -8   2    2.80    0.14
   0   8  -2    2.73    0.11
   0   8  -2    2.73    0.12
   0   8  -2    3.00    0.14
   0  -8   2    2.80    0.11
  -1   8  -2    2.62    0.11
  -1   8  -2    2.63    0.13
   1  -8   2    2.60    0.11
  -2   8  -2    2.19    0.13
   2  -8   2    2.20    0.11
  -3   8  -2    0.43    0.08
   3  -8   2    0.43    0.07
   3  -8   2    0.53    0.07
  -4   8  -2    0.02    0.05
   4  -8   2    0.04    0.05
   4  -8   2   -0.01    0.06
   4   7  -2    0.17    0.06
   4   7  -2    0.16    0.06
  -4  -7   2    0.06    0.05
  -4  -7   2    0.10    0.07
  -4  -7   2    0.17    0.06
   3   7  -2    1.13    0.09
   3   7  -2    1.18    0.10
  -3  -7   2    0.98    0.08
  -3  -7   2    1.00    0.11
   2   7  -2    3.75    0.16
   2   7  -2    3.67    0.16
  -2  -7   2    3.76    0.17
   1   7  -2   13.14    0.44
   1   7  -2   13.85    0.43
  -1  -7   2   13.55    0.45
   0   7  -2    0.02    0.03
   0   7  -2    0.03    0.02
   0   7  -2    0.07    0.03
   0  -7   2    0.10    0.03
  -1   7  -2    0.78    0.05
  -1   7  -2    0.74    0.07
   1  -7   2    0.82    0.05
  -2   7  -2    0.04    0.04
   2  -7   2    0.01    0.03
   2  -7   2    0.03    0.03
  -3   7  -2    0.03    0.05
   3  -7   2    0.08    0.05
   3  -7   2    0.03    0.04
  -4   7  -2    0.28    0.08
  -4   7  -2    0.30    0.05
   4  -7   2    0.24    0.07
   4  -7   2    0.34    0.07
   4   6  -2    0.92    0.10
   4   6  -2    0.83    0.10
  -4  -6   2    1.24    0.14
  -4  -6   2    0.90    0.10
  -4  -6   2    1.00    0.11
   3   6  -2    1.35    0.09
   3   6  -2    1.10    0.09
  -3  -6   2    1.08    0.09
  -3  -6   2    1.01    0.11
   2   6  -2    1.34    0.08
   2   6  -2    1.46    0.09
  -2  -6   2    1.32    0.09
   1   6  -2    3.41    0.13
   1   6  -2    3.51    0.14
  -1  -6   2    3.60    0.15
   0   6  -2    4.17    0.16
   0   6  -2    4.07    0.15
   0   6  -2    4.42    0.15
  -1   6  -2    1.59    0.07
  -1   6  -2    1.62    0.09
   1  -6   2    1.63    0.07
  -2   6  -2    0.36    0.06
   2  -6   2    0.30    0.05
   2  -6   2    0.23    0.04
  -3   6  -2    0.91    0.07
  -3   6  -2    1.27    0.10
   3  -6   2    1.05    0.10
   3  -6   2    1.36    0.09
  -4   6  -2    0.83    0.11
  -4   6  -2    0.93    0.08
   4  -6   2    0.71    0.09
   4  -6   2    0.72    0.10
   4   5  -2    2.37    0.11
   4   5  -2    2.48    0.14
   4   5  -2    2.34    0.14
  -4  -5   2    2.36    0.14
  -4  -5   2    2.16    0.15
  -4  -5   2    2.59    0.14
   3   5  -2    2.27    0.12
   3   5  -2    2.14    0.12
  -3  -5   2    1.99    0.11
  -3  -5   2    2.06    0.11
  -3  -5   2    2.15    0.13
   2   5  -2    1.65    0.09
   2   5  -2    1.89    0.09
  -2  -5   2    1.72    0.10
   1   5  -2    4.56    0.17
   1   5  -2    4.73    0.17
  -1  -5   2    4.85    0.18
   0   5  -2    0.78    0.05
   0   5  -2    0.78    0.05
   0   5  -2    0.72    0.05
  -1   5  -2    1.24    0.07
  -1   5  -2    1.25    0.05
   1  -5   2    1.23    0.06
  -2   5  -2    6.32    0.24
  -2   5  -2    6.59    0.21
  -2   5  -2    6.29    0.21
   2  -5   2    6.63    0.23
   2  -5   2    6.78    0.22
   2  -5   2    6.51    0.23
  -3   5  -2    2.65    0.14
  -3   5  -2    2.67    0.12
   3  -5   2    2.84    0.13
   3  -5   2    2.38    0.13
  -4   5  -2    0.04    0.05
  -4   5  -2    0.11    0.05
   4  -5   2    0.08    0.05
   4  -5   2    0.06    0.06
   4   4  -2    5.19    0.23
   4   4  -2    5.38    0.22
   4   4  -2    4.92    0.19
  -4  -4   2    5.51    0.22
  -4  -4   2    5.10    0.22
  -4  -4   2    5.47    0.24
   3   4  -2    1.32    0.09
   3   4  -2    1.16    0.07
   3   4  -2    1.11    0.09
  -3  -4   2    1.19    0.10
  -3  -4   2    1.15    0.09
  -3  -4   2    1.23    0.08
   2   4  -2    0.01    0.02
   2   4  -2    0.02    0.03
  -2  -4   2    0.04    0.03
  -2  -4   2   -0.01    0.04
  -2  -4   2    0.04    0.03
  -2  -4   2    0.03    0.03
   1   4  -2   16.03    0.52
   1   4  -2   16.69    0.51
  -1  -4   2   17.43    0.52
   0   4  -2    6.92    0.23
   0   4  -2    7.11    0.22
   0   4  -2    6.92    0.22
  -1   4  -2    1.42    0.07
  -1   4  -2    1.30    0.05
   1  -4   2    1.40    0.06
  -2   4  -2  119.56    3.55
  -2   4  -2  118.31    3.53
  -2   4  -2  118.29    3.53
  -2   4  -2  124.57    3.53
   2  -4   2  119.07    3.54
   2  -4   2  120.91    3.54
   2  -4   2  122.56    3.53
  -3   4  -2    6.35    0.24
  -3   4  -2    5.88    0.22
   3  -4   2    5.95    0.23
   3  -4   2    6.17    0.23
  -4   4  -2    0.73    0.08
  -4   4  -2    0.57    0.09
   4  -4   2    0.58    0.09
   4  -4   2    0.61    0.08
   4   3  -2    1.20    0.09
   4   3  -2    0.88    0.08
   4   3  -2    1.00    0.10
  -4  -3   2    1.18    0.11
  -4  -3   2    1.08    0.10
  -4  -3   2    1.16    0.11
   3   3  -2    0.15    0.03
   3   3  -2    0.22    0.05
   3   3  -2    0.15    0.04
  -3  -3   2    0.19    0.04
  -3  -3   2    0.18    0.05
  -3  -3   2    0.13    0.04
   2   3  -2    5.54    0.18
   2   3  -2    5.50    0.18
   2   3  -2    5.58    0.20
   2   3  -2    5.06    0.19
  -2  -3   2    5.36    0.18
  -2  -3   2    5.42    0.19
  -2  -3   2    5.28    0.20
  -2  -3   2    5.34    0.19
   1   3  -2  100.08    3.12
   1   3  -2  106.63    3.12
  -1  -3   2  112.70    3.13
   0   3  -2   12.81    0.40
   0   3  -2   12.92    0.40
   0   3  -2   13.30    0.39
  -1   3  -2    1.06    0.06
   1  -3   2    0.94    0.05
   1  -3   2    0.91    0.05
   1  -3   2    1.05    0.04
  -2   3  -2   20.18    0.61
  -2   3  -2   20.18    0.61
  -2   3  -2   19.93    0.63
  -2   3  -2   20.12    0.61
   2  -3   2   20.19    0.62
   2  -3   2   20.15    0.61
   2  -3   2   19.61    0.62
  -3   3  -2    0.94    0.09
  -3   3  -2    0.85    0.07
   3  -3   2    0.84    0.08
   3  -3   2    0.88    0.07
   3  -3   2    0.80    0.07
  -4   3  -2    1.00    0.09
  -4   3  -2    0.99    0.11
   4  -3   2    1.02    0.10
   4   2  -2    0.69    0.07
   4   2  -2    0.58    0.08
  -4  -2   2    0.58    0.08
  -4  -2   2    0.73    0.08
  -4  -2   2    0.66    0.09
   3   2  -2    0.11    0.04
   3   2  -2    0.12    0.03
   3   2  -2    0.06    0.04
  -3  -2   2    0.01    0.03
  -3  -2   2    0.08    0.04
  -3  -2   2    0.00    0.04
   2   2  -2   27.48    0.86
   2   2  -2   29.58    0.87
   2   2  -2   28.41    0.87
   2   2  -2   28.95    0.86
   2   2  -2   29.46    0.88
  -2  -2   2   29.74    0.88
  -2  -2   2   29.66    0.88
  -2  -2   2   28.27    0.87
  -2  -2   2   28.27    0.86
   1   2  -2    3.47    0.12
   1   2  -2    3.56    0.13
   1   2  -2    3.64    0.12
   1   2  -2    3.49    0.13
  -1  -2   2    3.85    0.13
  -1  -2   2    3.77    0.13
  -1  -2   2    3.67    0.12
  -1  -2   2    3.70    0.12
   0   2  -2   43.77    1.26
   0   2  -2   43.23    1.26
   0   2  -2   43.37    1.26
   0  -2   2   40.65    1.26
  -1   2  -2   35.78    1.05
  -1   2  -2   35.46    1.05
  -1   2  -2   37.54    1.06
  -1   2  -2   36.34    1.05
   1  -2   2   36.02    1.05
   1  -2   2   34.27    1.05
   1  -2   2   34.90    1.06
   1  -2   2   35.21    1.05
  -2   2  -2  154.49    4.63
  -2   2  -2  158.88    4.64
  -2   2  -2  160.28    4.65
   2  -2   2  159.79    4.63
   2  -2   2  159.88    4.64
   2  -2   2  156.50    4.64
  -3   2  -2    0.22    0.04
  -3   2  -2    0.25    0.05
   3  -2   2    0.21    0.05
   3  -2   2    0.12    0.04
   3  -2   2    0.16    0.04
  -4   2  -2    0.33    0.07
  -4   2  -2    0.36    0.06
   4  -2   2    0.29    0.06
   4  -2   2    0.35    0.06
  -5   2  -2    0.25    0.07
   5  -2   2    0.17    0.07
   4   1  -2    0.43    0.06
   4   1  -2    0.35    0.07
  -4  -1   2    0.45    0.07
  -4  -1   2    0.39    0.06
  -4  -1   2    0.52    0.08
   3   1  -2    1.67    0.09
   3   1  -2    1.60    0.08
   3   1  -2    1.69    0.10
  -3  -1   2    1.60    0.10
  -3  -1   2    1.62    0.09
  -3  -1   2    1.63    0.09
  -3  -1   2    1.56    0.09
   2   1  -2    3.70    0.14
   2   1  -2    3.81    0.13
   2   1  -2    3.78    0.14
   2   1  -2    3.92    0.14
   2   1  -2    3.70    0.14
  -2  -1   2    3.85    0.14
  -2  -1   2    3.77    0.14
  -2  -1   2    3.70    0.15
  -2  -1   2    3.84    0.14
   1   1  -2    0.17    0.03
   1   1  -2    0.19    0.02
   1   1  -2    0.16    0.03
   1   1  -2    0.13    0.02
   1   1  -2    0.17    0.03
  -1  -1   2    0.16    0.02
  -1  -1   2    0.15    0.02
  -1  -1   2    0.15    0.03
  -1  -1   2    0.14    0.02
  -1  -1   2    0.14    0.02
   0   1  -2    9.44    0.29
   0   1  -2    9.87    0.30
   0  -1   2    9.99    0.29
   0  -1   2   10.05    0.30
  -1   1  -2   93.71    2.57
  -1   1  -2   84.75    2.56
  -1   1  -2   86.07    2.56
  -1   1  -2   92.69    2.57
  -1   1  -2   87.42    2.56
   1  -1   2   86.69    2.56
   1  -1   2   85.33    2.57
   1  -1   2   84.63    2.57
   1  -1   2   87.79    2.56
  -2   1  -2    0.84    0.05
  -2   1  -2    0.85    0.05
   2  -1   2    0.83    0.06
   2  -1   2    0.71    0.04
   2  -1   2    0.56    0.05
   2  -1   2    0.68    0.05
  -3   1  -2    0.90    0.07
  -3   1  -2    0.95    0.08
  -3   1  -2    0.98    0.07
  -3   1  -2    0.83    0.05
   3  -1   2    0.93    0.08
   3  -1   2    0.91    0.07
   3  -1   2    0.95    0.07
   3  -1   2    0.87    0.05
  -4   1  -2    0.17    0.06
  -4   1  -2    0.21    0.05
   4  -1   2    0.11    0.05
   5  -1   2    1.52    0.13
   5  -1   2    1.44    0.13
   4   0  -2    0.05    0.04
   4   0  -2    0.03    0.04
  -4   0   2    0.00    0.05
   3   0  -2    2.63    0.11
   3   0  -2    2.65    0.12
  -3   0   2    2.36    0.11
  -3   0   2    2.36    0.12
  -3   0   2    2.27    0.11
  -3   0   2    2.23    0.12
   2   0  -2    3.53    0.13
   2   0  -2    3.68    0.13
   2   0  -2    3.54    0.13
  -2   0   2    3.59    0.14
  -2   0   2    3.56    0.13
  -2   0   2    3.35    0.13
  -2   0   2    3.48    0.13
   1   0  -2   82.74    2.50
   1   0  -2   87.49    2.50
   1   0  -2   84.44    2.50
   1   0  -2   85.20    2.50
  -1   0   2   83.67    2.50
  -1   0   2   83.75    2.50
  -1   0   2   88.86    2.50
  -1   0   2   86.97    2.50
   0   0  -2    9.57    0.28
   0   0  -2    8.84    0.28
   0   0  -2    9.29    0.28
   0   0  -2    8.82    0.28
   0   0   2    9.31    0.28
   0   0   2    9.25    0.28
   0   0   2    9.37    0.28
  -1   0  -2    2.56    0.09
  -1   0  -2    2.45    0.09
  -1   0  -2    2.42    0.09
   1   0   2    2.40    0.09
   1   0   2    2.40    0.09
   1   0   2    2.26    0.08
   1   0   2    2.48    0.09
  -2   0  -2    0.58    0.05
  -2   0  -2    0.64    0.05
  -2   0  -2    0.59    0.05
   2   0   2    0.61    0.06
   2   0   2    0.57    0.04
   2   0   2    0.54    0.04
   2   0   2    0.52    0.05
  -3   0  -2    0.08    0.04
  -3   0  -2    0.08    0.04
  -3   0  -2    0.03    0.04
   3   0   2    0.01    0.03
   3   0   2    0.04    0.02
   3   0   2    0.06    0.03
   3   0   2    0.06    0.04
  -4   0  -2    0.15    0.05
  -4   0  -2    0.08    0.06
   4   0   2    0.13    0.05
   4   0   2    0.17    0.05
   5  -1  -2   -0.03    0.05
   5  -1  -2    0.09    0.05
  -5   1   2    0.02    0.06
   4  -1  -2    0.63    0.07
   4  -1  -2    0.68    0.08
  -4   1   2    0.70    0.09
  -4   1   2    0.55    0.07
   3  -1  -2    0.00    0.04
   3  -1  -2    0.00    0.03
   3  -1  -2    0.03    0.03
  -3   1   2    0.01    0.03
  -3   1   2    0.04    0.03
  -3   1   2    0.05    0.04
  -3   1   2    0.03    0.03
   2  -1  -2    0.66    0.05
   2  -1  -2    0.64    0.05
   2  -1  -2    0.60    0.06
  -2   1   2    0.63    0.06
  -2   1   2    0.57    0.04
  -2   1   2    0.66    0.05
  -2   1   2    0.62    0.06
   1  -1  -2    0.27    0.03
   1  -1  -2    0.19    0.02
   1  -1  -2    0.22    0.03
  -1   1   2    0.24    0.03
  -1   1   2    0.25    0.03
  -1   1   2    0.24    0.02
  -1   1   2    0.16    0.03
   0  -1  -2   41.23    1.18
   0  -1  -2   40.19    1.17
   0  -1  -2   40.24    1.18
   0   1   2   38.88    1.17
   0   1   2   42.44    1.18
   0   1   2   39.17    1.18
   0   1   2   40.74    1.18
   0   1   2   39.30    1.17
   0   1   2   38.68    1.18
  -1  -1  -2    3.47    0.12
  -1  -1  -2    3.28    0.12
  -1  -1  -2    3.41    0.12
   1   1   2    3.36    0.11
   1   1   2    3.24    0.12
   1   1   2    3.27    0.11
   1   1   2    3.24    0.11
  -2  -1  -2    2.10    0.10
  -2  -1  -2    2.01    0.09
  -2  -1  -2    2.05    0.09
   2   1   2    1.95    0.09
   2   1   2    1.86    0.08
   2   1   2    2.03    0.08
   2   1   2    2.02    0.09
  -3  -1  -2    1.41    0.10
  -3  -1  -2    1.44    0.08
  -3  -1  -2    1.41    0.09
   3   1   2    1.37    0.09
   3   1   2    1.36    0.08
   3   1   2    1.30    0.08
  -4  -1  -2    0.12    0.06
   4   1   2    0.14    0.05
   4   1   2    0.11    0.05
   5  -2  -2    0.53    0.08
   4  -2  -2    0.14    0.05
   4  -2  -2    0.15    0.05
  -4   2   2    0.06    0.05
  -4   2   2    0.03    0.04
   3  -2  -2    0.84    0.07
   3  -2  -2    0.96    0.08
   3  -2  -2    0.97    0.07
  -3   2   2    0.85    0.06
  -3   2   2    0.80    0.08
  -3   2   2    0.99    0.08
  -3   2   2    0.83    0.08
   2  -2  -2    6.48    0.22
   2  -2  -2    6.37    0.22
   2  -2  -2    6.86    0.22
  -2   2   2    6.63    0.22
  -2   2   2    6.35    0.22
  -2   2   2    6.45    0.21
  -2   2   2    6.53    0.23
   1  -2  -2    1.71    0.07
   1  -2  -2    1.72    0.07
   1  -2  -2    1.80    0.07
  -1   2   2    1.80    0.07
  -1   2   2    1.80    0.08
  -1   2   2    1.74    0.07
  -1   2   2    1.71    0.07
   0  -2  -2    2.55    0.09
   0  -2  -2    2.58    0.09
   0  -2  -2    2.54    0.09
   0   2   2    2.66    0.09
   0   2   2    2.56    0.09
   0   2   2    2.62    0.09
   0   2   2    2.42    0.09
   0   2   2    2.53    0.09
  -1  -2  -2   35.48    1.05
  -1  -2  -2   35.38    1.05
  -1  -2  -2   34.49    1.06
   1   2   2   34.92    1.05
   1   2   2   36.09    1.05
   1   2   2   36.65    1.05
   1   2   2   35.70    1.04
   1   2   2   34.31    1.05
  -2  -2  -2    5.32    0.19
  -2  -2  -2    5.55    0.19
  -2  -2  -2    5.25    0.20
   2   2   2    5.50    0.18
   2   2   2    5.16    0.19
   2   2   2    5.48    0.19
   2   2   2    5.48    0.19
  -3  -2  -2    1.19    0.08
  -3  -2  -2    1.03    0.09
  -3  -2  -2    1.08    0.08
   3   2   2    1.07    0.08
   3   2   2    1.12    0.07
   3   2   2    1.09    0.07
  -4  -2  -2    0.31    0.07
   4   2   2    0.52    0.07
   4   2   2    0.41    0.07
   4   2   2    0.35    0.06
   4  -3  -2    0.04    0.04
   4  -3  -2    0.06    0.04
  -4   3   2    0.09    0.05
  -4   3   2    0.06    0.06
   3  -3  -2    1.26    0.08
   3  -3  -2    1.26    0.08
   3  -3  -2    1.30    0.09
  -3   3   2    1.30    0.08
  -3   3   2    1.10    0.09
  -3   3   2    1.19    0.07
   2  -3  -2    3.61    0.14
   2  -3  -2    3.52    0.14
   2  -3  -2    3.77    0.14
  -2   3   2    3.67    0.15
  -2   3   2    3.60    0.13
  -2   3   2    3.64    0.14
  -2   3   2    3.99    0.14
   1  -3  -2    1.29    0.05
   1  -3  -2    1.27    0.06
   1  -3  -2    1.18    0.06
  -1   3   2    1.22    0.06
  -1   3   2    1.19    0.06
  -1   3   2    1.19    0.05
  -1   3   2    1.25    0.05
  -1   3   2    1.20    0.06
   0  -3  -2    0.45    0.03
   0  -3  -2    0.50    0.04
   0  -3  -2    0.47    0.03
   0   3   2    0.48    0.03
   0   3   2    0.50    0.03
   0   3   2    0.50    0.04
   0   3   2    0.44    0.03
   0   3   2    0.41    0.04
  -1  -3  -2    0.22    0.03
  -1  -3  -2    0.15    0.03
  -1  -3  -2    0.20    0.04
  -1  -3  -2    0.23    0.03
   1   3   2    0.22    0.03
   1   3   2    0.21    0.03
   1   3   2    0.28    0.04
   1   3   2    0.21    0.03
   1   3   2    0.19    0.02
  -2  -3  -2    4.53    0.18
  -2  -3  -2    4.30    0.16
  -2  -3  -2    4.60    0.16
   2   3   2    4.69    0.17
   2   3   2    4.38    0.16
   2   3   2    4.63    0.17
   2   3   2    4.43    0.16
  -3  -3  -2    0.42    0.06
  -3  -3  -2    0.35    0.07
   3   3   2    0.53    0.07
   3   3   2    0.47    0.06
   3   3   2    0.44    0.05
  -4  -3  -2    5.63    0.23
  -4  -3  -2    5.60    0.25
   4   3   2    5.41    0.21
   4   3   2    5.22    0.23
   4   3   2    5.54    0.22
   4  -4  -2   -0.02    0.04
  -4   4   2    0.01    0.05
  -4   4   2    0.06    0.05
   3  -4  -2    0.09    0.04
   3  -4  -2    0.05    0.03
   3  -4  -2    0.05    0.04
  -3   4   2    0.10    0.05
  -3   4   2    0.09    0.04
   2  -4  -2    2.58    0.12
   2  -4  -2    2.74    0.11
   2  -4  -2    2.79    0.11
  -2   4   2    2.82    0.12
  -2   4   2    2.75    0.11
  -2   4   2    2.71    0.11
  -2   4   2    2.60    0.10
   1  -4  -2    6.31    0.21
   1  -4  -2    6.42    0.21
   1  -4  -2    6.58    0.20
   1  -4  -2    6.34    0.20
  -1   4   2    6.40    0.22
  -1   4   2    6.35    0.21
  -1   4   2    6.28    0.20
  -1   4   2    6.30    0.20
  -1   4   2    6.16    0.20
   0  -4  -2   14.32    0.45
   0  -4  -2   14.98    0.45
   0  -4  -2   15.04    0.45
   0   4   2   15.28    0.47
   0   4   2   14.55    0.46
   0   4   2   15.87    0.45
   0   4   2   14.68    0.45
  -1  -4  -2   23.11    0.68
  -1  -4  -2   22.13    0.68
  -1  -4  -2   22.39    0.68
  -1  -4  -2   22.96    0.70
   1   4   2   21.94    0.68
   1   4   2   23.49    0.69
   1   4   2   22.91    0.68
   1   4   2   22.56    0.68
  -2  -4  -2    0.84    0.06
  -2  -4  -2    0.71    0.06
  -2  -4  -2    0.71    0.08
   2   4   2    0.74    0.05
   2   4   2    0.84    0.06
   2   4   2    0.71    0.07
  -3  -4  -2    9.31    0.34
  -3  -4  -2    9.10    0.32
   3   4   2    9.37    0.32
   3   4   2    9.39    0.31
   3   4   2    9.52    0.33
  -4  -4  -2    0.41    0.08
  -4  -4  -2    0.36    0.08
   4   4   2    0.44    0.07
   4   4   2    0.56    0.06
   4   4   2    0.43    0.07
   4  -5  -2    8.80    0.32
  -4   5   2    8.53    0.34
  -4   5   2    8.36    0.31
   3  -5  -2    0.17    0.04
   3  -5  -2    0.07    0.04
  -3   5   2    0.10    0.05
  -3   5   2    0.12    0.04
   2  -5  -2    0.00    0.02
   2  -5  -2    0.02    0.03
   2  -5  -2    0.09    0.03
  -2   5   2    0.08    0.04
  -2   5   2    0.01    0.02
   1  -5  -2    0.11    0.03
   1  -5  -2    0.08    0.03
   1  -5  -2    0.10    0.02
   1  -5  -2    0.09    0.02
  -1   5   2    0.11    0.02
  -1   5   2    0.08    0.02
  -1   5   2    0.09    0.03
  -1   5   2    0.08    0.02
   0  -5  -2    3.99    0.14
   0  -5  -2    3.80    0.14
   0   5   2    4.03    0.14
   0   5   2    4.28    0.16
  -1  -5  -2   18.71    0.61
  -1  -5  -2   19.65    0.61
  -1  -5  -2   19.65    0.60
  -1  -5  -2   20.51    0.63
   1   5   2   20.49    0.60
   1   5   2   20.99    0.60
   1   5   2   20.32    0.62
   1   5   2   19.21    0.60
  -2  -5  -2   19.77    0.64
  -2  -5  -2   20.22    0.62
   2   5   2   20.63    0.62
   2   5   2   19.82    0.63
   2   5   2   19.60    0.61
  -3  -5  -2   11.90    0.44
  -3  -5  -2   12.69    0.42
   3   5   2   12.72    0.42
   3   5   2   12.32    0.41
   3   5   2   12.24    0.39
  -4  -5  -2    0.13    0.06
  -4  -5  -2    0.11    0.06
   4   5   2    0.13    0.04
   4   5   2    0.07    0.05
   4   5   2    0.11    0.05
   4  -6  -2    0.05    0.05
  -4   6   2    0.07    0.04
  -4   6   2    0.10    0.06
   3  -6  -2    1.93    0.10
   3  -6  -2    1.83    0.11
  -3   6   2    1.90    0.12
  -3   6   2    1.87    0.10
   2  -6  -2    4.58    0.16
   2  -6  -2    4.31    0.17
  -2   6   2    4.12    0.15
  -2   6   2    4.25    0.18
  -2   6   2    4.34    0.15
   1  -6  -2   37.41    1.14
   1  -6  -2   38.58    1.13
   1  -6  -2   37.33    1.14
  -1   6   2   38.05    1.14
  -1   6   2   40.17    1.13
  -1   6   2   39.06    1.16
  -1   6   2   36.09    1.12
   0  -6  -2    0.41    0.04
   0   6   2    0.51    0.06
   0   6   2    0.51    0.05
  -1  -6  -2    2.00    0.10
  -1  -6  -2    1.77    0.08
  -1  -6  -2    1.74    0.09
   1   6   2    1.77    0.07
   1   6   2    1.77    0.09
  -2  -6  -2    0.22    0.05
  -3  -6  -2    0.79    0.10
  -3  -6  -2    0.97    0.09
   3   6   2    0.90    0.09
   3   6   2    0.99    0.06
   3   6   2    1.10    0.10
  -4  -6  -2    5.66    0.26
  -4  -6  -2    4.86    0.23
   4   6   2    5.40    0.23
   4   6   2    4.94    0.23
   4   6   2    5.43    0.20
   4  -7  -2    2.26    0.15
   4  -7  -2    2.29    0.13
  -4   7   2    1.91    0.15
   3  -7  -2   -0.01    0.03
   3  -7  -2    0.00    0.04
  -3   7   2    0.00    0.04
  -3   7   2    0.02    0.03
   2  -7  -2    0.02    0.03
   2  -7  -2    0.01    0.04
  -2   7   2    0.06    0.04
  -2   7   2   -0.01    0.02
  -2   7   2    0.01    0.02
   1  -7  -2    2.50    0.11
  -1   7   2    2.47    0.12
  -1   7   2    2.54    0.11
   0   7   2    0.32    0.05
   0   7   2    0.32    0.05
  -1  -7  -2    8.76    0.32
   1   7   2    8.82    0.28
   1   7   2    9.01    0.31
  -2  -7  -2   41.54    1.34
  -2  -7  -2   42.54    1.31
   2   7   2   45.37    1.30
   2   7   2   44.35    1.33
  -3  -7  -2    0.05    0.05
  -3  -7  -2    0.13    0.06
   3   7   2    0.08    0.04
   3   7   2    0.09    0.05
  -4  -7  -2    0.23    0.07
   4   7   2    0.23    0.04
   4  -8  -2    0.22    0.07
  -4   8   2    0.24    0.07
  -4   8   2    0.15    0.05
   3  -8  -2    0.06    0.05
  -3   8   2    0.07    0.03
  -3   8   2    0.11    0.06
   2  -8  -2    2.10    0.11
  -2   8   2    2.30    0.13
   1  -8  -2    2.77    0.11
  -1   8   2    2.38    0.13
  -1   8   2    2.57    0.11
   0  -8  -2    0.01    0.04
   0   8   2    0.01    0.03
   0   8   2    0.00    0.03
  -1  -8  -2    0.37    0.07
   1   8   2    0.34    0.05
  -2  -8  -2    2.77    0.13
  -2  -8  -2    2.68    0.16
   2   8   2    2.98    0.14
  -3  -8  -2    0.20    0.05
  -3  -8  -2    0.15    0.07
   3   8   2    0.11    0.05
   3  -9  -2    0.03    0.05
  -3   9   2    0.05    0.06
  -3   9   2    0.02    0.03
   2  -9  -2    0.85    0.08
  -2   9   2    0.86    0.10
   1  -9  -2    0.86    0.07
  -1   9   2    0.89    0.07
  -1   9   2    0.70    0.08
   0  -9  -2    0.18    0.06
   0   9   2    0.28    0.05
   0   9   2    0.22    0.06
  -1  -9  -2    4.38    0.20
   1   9   2    4.51    0.19
  -2  -9  -2    2.35    0.12
  -2  -9  -2    2.17    0.15
   2   9   2    2.49    0.14
  -3  -9  -2    0.02    0.05
  -3  -9  -2    0.05    0.06
   3   9   2    0.07    0.05
   3 -10  -2    0.03    0.05
  -3  10   2    0.08    0.06
   2 -10  -2    0.24    0.06
  -2  10   2    0.38    0.08
  -1  10   2    2.59    0.12
  -1  10   2    2.05    0.14
   0 -10  -2    0.93    0.11
   0  10   2    0.90    0.09
   0  10   2    0.67    0.09
  -1 -10  -2    0.06    0.05
   1  10   2    0.06    0.04
  -2 -10  -2    0.10    0.06
  -2 -10  -2    0.13    0.05
   2  10   2    0.08    0.05
   3 -11  -2    0.03    0.05
  -3  11   2   -0.05    0.06
   2 -11  -2    0.36    0.07
  -2  11   2    0.54    0.10
  -1  11   2   -0.02    0.04
  -1  11   2    0.00    0.03
   0 -11  -2    1.40    0.12
   0  11   2    1.40    0.10
   0  11   2    1.49    0.12
  -1 -11  -2    0.03    0.05
   1  11   2    0.05    0.04
  -2 -11  -2    1.99    0.16
  -2 -11  -2    2.26    0.13
   2  11   2    2.30    0.14
   2 -12  -2    0.05    0.05
  -2  12   2    0.00    0.06
  -1  12   2    0.09    0.06
   0 -12  -2    0.32    0.08
   0  12   2    0.33    0.07
   0  12   2    0.28    0.07
  -1 -12  -2   -0.03    0.06
   1  12   2    0.01    0.04
  -1  13   2    0.84    0.12
   0 -13  -2    0.19    0.08
   0  13   2    0.10    0.05
   0  13   2    0.05    0.06
   0  13  -3    1.71    0.14
   0 -13   3    1.60    0.15
  -1  13  -3    3.15    0.19
   1  12  -3    0.92    0.10
  -1 -12   3    0.94    0.12
   0  12  -3    0.11    0.06
   0  12  -3    0.08    0.05
   0 -12   3    0.15    0.07
  -1  12  -3    0.34    0.08
  -2  12  -3    8.70    0.35
   2  11  -3    0.43    0.08
  -2 -11   3    0.35    0.09
   1  11  -3    0.28    0.06
  -1 -11   3    0.13    0.06
   0  11  -3    1.04    0.09
   0  11  -3    0.98    0.11
   0 -11   3    1.10    0.12
  -1  11  -3    2.14    0.14
  -2  11  -3    0.39    0.08
  -3  11  -3   -0.04    0.06
   3 -11   3    0.02    0.05
   3  10  -3    1.80    0.13
  -3 -10   3    1.88    0.13
   2  10  -3    1.87    0.13
  -2 -10   3    1.89    0.14
   1  10  -3    3.18    0.16
  -1 -10   3    3.11    0.16
   0  10  -3    1.15    0.11
   0  10  -3    0.89    0.09
   0 -10   3    1.08    0.11
   0 -10   3    1.39    0.13
  -1  10  -3    3.97    0.19
  -2  10  -3    0.11    0.06
  -3  10  -3    1.23    0.13
   3 -10   3    1.10    0.11
   3   9  -3   -0.02    0.04
   3   9  -3    0.06    0.05
  -3  -9   3   -0.03    0.04
  -3  -9   3    0.06    0.06
   2   9  -3    0.09    0.04
   2   9  -3    0.13    0.05
  -2  -9   3    0.07    0.05
   1   9  -3    2.94    0.14
   1   9  -3    2.65    0.13
  -1  -9   3    2.95    0.15
   0   9  -3    7.24    0.28
   0   9  -3    7.42    0.25
   0   9  -3    7.68    0.26
   0  -9   3    7.30    0.25
  -1   9  -3    0.43    0.05
  -1   9  -3    0.32    0.06
   1  -9   3    0.38    0.05
  -2   9  -3    0.18    0.06
   2  -9   3    0.21    0.05
  -3   9  -3    0.13    0.06
   3  -9   3    0.10    0.05
   3  -9   3    0.12    0.05
   4  -9   3    0.15    0.06
   4  -9   3    0.14    0.06
   3   8  -3    0.03    0.05
   3   8  -3   -0.02    0.04
  -3  -8   3    0.00    0.06
  -3  -8   3   -0.01    0.04
  -3  -8   3   -0.04    0.04
   2   8  -3    1.85    0.11
   2   8  -3    1.54    0.10
  -2  -8   3    1.54    0.11
   1   8  -3    0.10    0.04
   1   8  -3    0.06    0.03
  -1  -8   3    0.10    0.04
   0   8  -3    2.03    0.10
   0   8  -3    1.79    0.11
   0   8  -3    1.79    0.09
   0  -8   3    1.96    0.09
  -1   8  -3    2.37    0.10
  -1   8  -3    2.13    0.12
   1  -8   3    2.44    0.10
  -2   8  -3    0.63    0.08
   2  -8   3    0.46    0.06
  -3   8  -3    0.02    0.04
   3  -8   3    0.07    0.04
   3  -8   3   -0.02    0.04
  -4   8  -3    0.17    0.07
   4  -8   3    0.23    0.07
   4  -8   3    0.30    0.07
   4   7  -3    0.11    0.06
   4   7  -3    0.05    0.06
  -4  -7   3    0.13    0.06
  -4  -7   3    0.15    0.07
  -4  -7   3    0.03    0.05
   3   7  -3    3.35    0.17
   3   7  -3    3.49    0.17
  -3  -7   3    3.58    0.16
  -3  -7   3    3.52    0.18
  -3  -7   3    3.74    0.18
   2   7  -3    0.97    0.09
   2   7  -3    0.93    0.08
  -2  -7   3    0.94    0.09
   1   7  -3    3.58    0.15
   1   7  -3    3.63    0.14
  -1  -7   3    3.53    0.15
   0   7  -3    0.75    0.07
   0   7  -3    0.78    0.06
   0   7  -3    0.84    0.06
   0  -7   3    0.81    0.06
  -1   7  -3    1.76    0.08
  -1   7  -3    1.82    0.10
   1  -7   3    1.72    0.08
  -2   7  -3    1.66    0.11
   2  -7   3    1.52    0.09
   2  -7   3    1.62    0.09
  -3   7  -3    2.77    0.12
  -3   7  -3    2.93    0.16
   3  -7   3    3.06    0.14
   3  -7   3    3.18    0.14
  -4   7  -3    0.25    0.05
  -4   7  -3    0.34    0.08
   4  -7   3    0.26    0.07
   4  -7   3    0.43    0.07
   4   6  -3    0.40    0.07
   4   6  -3    0.60    0.09
  -4  -6   3    0.46    0.08
  -4  -6   3    0.54    0.08
  -4  -6   3    0.68    0.11
   3   6  -3    6.95    0.27
   3   6  -3    7.08    0.27
  -3  -6   3    7.09    0.26
  -3  -6   3    7.50    0.29
  -3  -6   3    7.45    0.28
   2   6  -3    2.28    0.11
   2   6  -3    2.40    0.12
  -2  -6   3    2.61    0.13
   1   6  -3    0.00    0.02
   1   6  -3    0.01    0.02
  -1  -6   3    0.03    0.03
   0   6  -3    8.19    0.27
   0   6  -3    8.20    0.27
   0   6  -3    8.02    0.28
  -1   6  -3    4.44    0.17
  -1   6  -3    4.49    0.15
   1  -6   3    4.73    0.16
  -2   6  -3    0.06    0.04
   2  -6   3    0.08    0.03
   2  -6   3    0.14    0.04
  -3   6  -3   14.09    0.49
  -3   6  -3   14.11    0.45
   3  -6   3   15.46    0.48
   3  -6   3   14.25    0.48
  -4   6  -3    1.70    0.14
  -4   6  -3    1.59    0.10
   4  -6   3    1.80    0.13
   4  -6   3    1.75    0.12
   4   5  -3    1.54    0.11
   4   5  -3    1.46    0.12
   4   5  -3    1.45    0.08
  -4  -5   3    1.44    0.12
  -4  -5   3    1.55    0.12
  -4  -5   3    1.60    0.12
   3   5  -3    2.17    0.12
   3   5  -3    2.55    0.13
  -3  -5   3    2.38    0.13
  -3  -5   3    2.16    0.13
  -3  -5   3    2.48    0.12
   2   5  -3    0.03    0.03
   2   5  -3    0.02    0.03
  -2  -5   3    0.00    0.03
  -2  -5   3    0.02    0.03
   1   5  -3    7.91    0.26
   1   5  -3    7.89    0.27
  -1  -5   3    8.08    0.27
   0   5  -3   59.13    1.75
   0   5  -3   59.00    1.75
   0   5  -3   59.43    1.75
  -1   5  -3    7.82    0.26
  -1   5  -3    7.69    0.24
   1  -5   3    7.76    0.25
  -2   5  -3    2.18    0.08
  -2   5  -3    2.17    0.08
  -2   5  -3    2.15    0.11
   2  -5   3    2.14    0.10
   2  -5   3    2.10    0.10
  -3   5  -3    8.21    0.31
  -3   5  -3    7.85    0.27
   3  -5   3    8.15    0.29
   3  -5   3    7.95    0.29
  -4   5  -3    0.00    0.04
  -4   5  -3    0.02    0.06
   4  -5   3    0.07    0.05
   4  -5   3   -0.06    0.05
   4   4  -3    2.29    0.14
   4   4  -3    2.44    0.14
   4   4  -3    2.38    0.11
  -4  -4   3    2.37    0.15
  -4  -4   3    2.45    0.14
  -4  -4   3    2.33    0.14
   3   4  -3    1.33    0.09
   3   4  -3    1.26    0.09
   3   4  -3    1.22    0.07
  -3  -4   3    1.39    0.09
  -3  -4   3    1.31    0.10
  -3  -4   3    1.36    0.09
   2   4  -3    0.77    0.06
   2   4  -3    0.73    0.06
  -2  -4   3    0.80    0.09
  -2  -4   3    0.84    0.06
  -2  -4   3    0.72    0.06
  -2  -4   3    0.75    0.05
   1   4  -3   32.26    0.98
   1   4  -3   32.65    0.99
  -1  -4   3   33.29    0.98
   0   4  -3   31.45    0.96
   0   4  -3   32.85    0.96
   0   4  -3   32.56    0.96
  -1   4  -3   24.16    0.74
   1  -4   3   24.98    0.73
   1  -4   3   23.65    0.72
  -2   4  -3   19.13    0.58
  -2   4  -3   19.07    0.60
  -2   4  -3   19.81    0.58
   2  -4   3   19.55    0.58
   2  -4   3   18.05    0.59
   2  -4   3   19.19    0.59
   2  -4   3   19.19    0.59
  -3   4  -3   66.81    2.03
  -3   4  -3   67.71    2.00
   3  -4   3   69.50    2.02
   3  -4   3   66.06    2.02
  -4   4  -3    0.20    0.07
  -4   4  -3    0.19    0.05
   4  -4   3    0.20    0.06
   4  -4   3    0.11    0.06
   4   3  -3    1.31    0.11
   4   3  -3    1.25    0.08
  -4  -3   3    1.39    0.10
  -4  -3   3    1.16    0.11
  -4  -3   3    1.32    0.12
   3   3  -3    1.41    0.07
   3   3  -3    1.49    0.09
   3   3  -3    1.46    0.09
  -3  -3   3    1.42    0.09
  -3  -3   3    1.40    0.09
  -3  -3   3    1.34    0.09
   2   3  -3    3.98    0.16
   2   3  -3    3.92    0.14
   2   3  -3    3.99    0.14
   2   3  -3    4.25    0.16
  -2  -3   3    4.24    0.16
  -2  -3   3    4.35    0.16
  -2  -3   3    4.05    0.15
  -2  -3   3    4.08    0.15
  -2  -3   3    4.16    0.15
   1   3  -3   16.94    0.52
   1   3  -3   16.66    0.52
  -1  -3   3   17.20    0.52
  -1  -3   3   17.27    0.52
   0   3  -3    8.56    0.26
   0   3  -3    8.36    0.26
   0   3  -3    8.49    0.26
   0  -3   3    7.96    0.26
  -1   3  -3    0.05    0.02
   1  -3   3   -0.01    0.01
   1  -3   3    0.03    0.02
  -2   3  -3   41.94    1.26
  -2   3  -3   42.78    1.28
  -2   3  -3   41.83    1.26
  -2   3  -3   44.49    1.26
   2  -3   3   43.12    1.26
   2  -3   3   41.26    1.27
   2  -3   3   41.74    1.27
  -3   3  -3    3.49    0.17
  -3   3  -3    3.89    0.15
   3  -3   3    3.92    0.16
   3  -3   3    3.88    0.15
   3  -3   3    3.64    0.16
  -4   3  -3    0.13    0.06
  -4   3  -3    0.11    0.05
   4  -3   3    0.10    0.05
   4   2  -3    0.53    0.06
   4   2  -3    0.48    0.08
  -4  -2   3    0.60    0.09
  -4  -2   3    0.66    0.08
  -4  -2   3    0.38    0.06
   3   2  -3    0.03    0.03
   3   2  -3    0.00    0.03
   3   2  -3   -0.02    0.03
  -3  -2   3    0.00    0.03
  -3  -2   3    0.06    0.04
  -3  -2   3    0.07    0.04
   2   2  -3    3.97    0.14
   2   2  -3    3.75    0.14
   2   2  -3    3.81    0.14
   2   2  -3    3.93    0.15
   2   2  -3    4.03    0.15
  -2  -2   3    3.86    0.15
  -2  -2   3    4.14    0.15
  -2  -2   3    4.02    0.15
  -2  -2   3    4.07    0.14
   1   2  -3   13.35    0.42
   1   2  -3   13.33    0.42
  -1  -2   3   13.80    0.42
  -1  -2   3   13.80    0.41
  -1  -2   3   14.06    0.42
  -1  -2   3   13.36    0.41
  -1  -2   3   14.44    0.43
   0   2  -3  101.83    2.97
   0   2  -3  104.06    2.98
   0  -2   3   99.65    2.99
  -1   2  -3    1.07    0.05
  -1   2  -3    1.10    0.05
  -1   2  -3    1.18    0.06
   1  -2   3    1.07    0.05
   1  -2   3    1.03    0.05
   1  -2   3    1.08    0.05
   1  -2   3    1.03    0.05
  -2   2  -3    0.06    0.03
   2  -2   3    0.02    0.02
   2  -2   3    0.05    0.03
   2  -2   3    0.06    0.03
  -3   2  -3    1.90    0.10
  -3   2  -3    1.87    0.11
   3  -2   3    1.89    0.10
   3  -2   3    1.81    0.11
   3  -2   3    1.96    0.10
  -4   2  -3    0.12    0.05
  -4   2  -3    0.15    0.06
   4  -2   3    0.09    0.05
   4   1  -3    0.14    0.05
   4   1  -3    0.24    0.05
  -4  -1   3    0.17    0.05
  -4  -1   3    0.20    0.06
  -4  -1   3    0.14    0.06
   3   1  -3    1.11    0.07
   3   1  -3    0.90    0.08
  -3  -1   3    1.05    0.07
  -3  -1   3    1.04    0.08
  -3  -1   3    1.12    0.09
  -3  -1   3    1.07    0.07
   2   1  -3    2.56    0.10
   2   1  -3    2.57    0.11
   2   1  -3    2.36    0.10
   2   1  -3    2.46    0.10
  -2  -1   3    2.49    0.10
  -2  -1   3    2.37    0.11
  -2  -1   3    2.59    0.10
  -2  -1   3    2.53    0.10
   1   1  -3    0.22    0.03
   1   1  -3    0.18    0.02
   1   1  -3    0.19    0.02
   1   1  -3    0.23    0.03
  -1  -1   3    0.22    0.03
  -1  -1   3    0.24    0.03
  -1  -1   3    0.18    0.02
  -1  -1   3    0.18    0.03
  -1  -1   3    0.23    0.03
   0   1  -3    1.62    0.06
   0   1  -3    1.67    0.07
   0   1  -3    1.63    0.06
   0  -1   3    1.54    0.06
   0  -1   3    1.83    0.06
   0  -1   3    1.78    0.06
  -1   1  -3   57.60    1.71
  -1   1  -3   58.91    1.71
  -1   1  -3   57.64    1.70
  -1   1  -3   58.59    1.71
   1  -1   3   56.03    1.70
   1  -1   3   57.61    1.71
   1  -1   3   59.36    1.71
   1  -1   3   59.34    1.71
  -2   1  -3    2.32    0.09
  -2   1  -3    2.35    0.11
  -2   1  -3    2.39    0.10
   2  -1   3    2.18    0.09
   2  -1   3    2.26    0.10
   2  -1   3    2.14    0.08
   2  -1   3    2.27    0.10
  -3   1  -3    4.09    0.18
  -3   1  -3    4.04    0.16
   3  -1   3    3.83    0.16
   3  -1   3    3.97    0.17
   3  -1   3    4.26    0.16
   3  -1   3    4.06    0.14
  -4   1  -3    1.03    0.09
  -4   1  -3    0.75    0.10
   4  -1   3    1.21    0.09
   4  -1   3    0.70    0.08
   4   0  -3    0.68    0.09
   4   0  -3    0.71    0.08
  -4   0   3    0.58    0.09
  -4   0   3    0.60    0.07
   3   0  -3    0.39    0.06
   3   0  -3    0.40    0.05
  -3   0   3    0.37    0.05
  -3   0   3    0.38    0.06
  -3   0   3    0.41    0.05
  -3   0   3    0.29    0.05
   2   0  -3    0.44    0.05
   2   0  -3    0.36    0.04
   2   0  -3    0.38    0.05
  -2   0   3    0.50    0.05
  -2   0   3    0.36    0.04
  -2   0   3    0.39    0.04
  -2   0   3    0.35    0.04
   1   0  -3    0.85    0.04
   1   0  -3    0.83    0.04
   1   0  -3    0.87    0.05
   1   0  -3    0.89    0.05
  -1   0   3    0.78    0.04
  -1   0   3    0.94    0.05
  -1   0   3    0.83    0.04
  -1   0   3    0.86    0.05
   0   0  -3    0.28    0.02
   0   0  -3    0.24    0.02
   0   0  -3    0.24    0.02
   0   0  -3    0.21    0.02
   0   0   3    0.24    0.03
   0   0   3    0.22    0.02
   0   0   3    0.22    0.02
   0   0   3    0.21    0.02
  -1   0  -3    3.22    0.11
  -1   0  -3    3.08    0.11
  -1   0  -3    3.15    0.11
   1   0   3    2.98    0.11
   1   0   3    3.23    0.11
   1   0   3    3.02    0.10
   1   0   3    3.06    0.11
  -2   0  -3    0.14    0.04
  -2   0  -3    0.14    0.03
  -2   0  -3    0.19    0.04
   2   0   3    0.21    0.04
   2   0   3    0.14    0.03
   2   0   3    0.18    0.04
   2   0   3    0.20    0.03
  -3   0  -3    0.24    0.05
  -3   0  -3    0.28    0.05
  -3   0  -3    0.16    0.05
   3   0   3    0.28    0.04
   3   0   3    0.24    0.05
   3   0   3    0.28    0.04
   3   0   3    0.21    0.05
  -4   0  -3    0.01    0.04
  -4   0  -3    0.01    0.05
   4   0   3    0.02    0.04
   4   0   3    0.05    0.04
   4  -1  -3    0.08    0.04
   4  -1  -3    0.08    0.04
  -4   1   3    0.07    0.05
   3  -1  -3    0.58    0.06
   3  -1  -3    0.58    0.07
  -3   1   3    0.50    0.06
  -3   1   3    0.53    0.06
  -3   1   3    0.81    0.09
  -3   1   3    0.61    0.06
   2  -1  -3    9.15    0.30
   2  -1  -3    9.42    0.30
   2  -1  -3    9.45    0.30
  -2   1   3    9.29    0.30
  -2   1   3    9.24    0.30
  -2   1   3    9.04    0.30
  -2   1   3    8.99    0.30
   1  -1  -3    6.67    0.21
   1  -1  -3    6.68    0.21
   1  -1  -3    6.61    0.22
  -1   1   3    6.75    0.22
  -1   1   3    6.89    0.22
  -1   1   3    6.57    0.22
  -1   1   3    7.01    0.21
   0  -1  -3    1.58    0.06
   0  -1  -3    1.51    0.06
   0  -1  -3    1.61    0.07
   0  -1  -3    1.59    0.06
   0   1   3    1.59    0.06
   0   1   3    1.73    0.07
   0   1   3    1.57    0.06
   0   1   3    1.75    0.06
   0   1   3    1.58    0.06
  -1  -1  -3    6.83    0.21
  -1  -1  -3    6.44    0.21
  -1  -1  -3    6.35    0.21
   1   1   3    6.36    0.21
   1   1   3    6.52    0.21
   1   1   3    6.55    0.21
   1   1   3    6.24    0.20
  -2  -1  -3    0.37    0.05
  -2  -1  -3    0.34    0.04
  -2  -1  -3    0.34    0.05
   2   1   3    0.40    0.04
   2   1   3    0.38    0.04
   2   1   3    0.30    0.04
   2   1   3    0.42    0.05
  -3  -1  -3    0.55    0.07
  -3  -1  -3    0.44    0.07
  -3  -1  -3    0.50    0.06
   3   1   3    0.55    0.05
   3   1   3    0.65    0.07
   3   1   3    0.52    0.06
  -4  -1  -3    0.08    0.06
   4   1   3    0.17    0.06
   4   1   3    0.21    0.05
   4  -2  -3    0.36    0.06
   4  -2  -3    0.23    0.05
  -4   2   3    0.29    0.07
  -4   2   3    0.20    0.06
   3  -2  -3    0.45    0.06
   3  -2  -3    0.47    0.06
   3  -2  -3    0.47    0.06
  -3   2   3    0.46    0.06
  -3   2   3    0.48    0.05
  -3   2   3    0.40    0.06
  -3   2   3    0.55    0.07
   2  -2  -3    0.26    0.04
   2  -2  -3    0.24    0.04
   2  -2  -3    0.23    0.04
  -2   2   3    0.30    0.05
  -2   2   3    0.24    0.04
  -2   2   3    0.25    0.03
  -2   2   3    0.24    0.04
   1  -2  -3   22.45    0.69
   1  -2  -3   23.12    0.69
   1  -2  -3   22.92    0.68
  -1   2   3   23.04    0.69
  -1   2   3   22.73    0.69
  -1   2   3   22.99    0.69
  -1   2   3   23.20    0.69
   0  -2  -3    3.04    0.11
   0  -2  -3    3.17    0.11
   0   2   3    3.07    0.10
   0   2   3    3.10    0.11
   0   2   3    2.78    0.11
   0   2   3    3.21    0.11
  -1  -2  -3    1.28    0.07
  -1  -2  -3    1.39    0.06
  -1  -2  -3    1.30    0.06
   1   2   3    1.45    0.06
   1   2   3    1.30    0.06
   1   2   3    1.38    0.06
   1   2   3    1.31    0.06
  -2  -2  -3   32.04    0.99
  -2  -2  -3   31.92    0.97
  -2  -2  -3   32.62    0.97
   2   2   3   32.25    0.97
   2   2   3   31.89    0.97
   2   2   3   32.76    0.97
   2   2   3   32.67    0.97
  -3  -2  -3    0.12    0.06
  -3  -2  -3    0.10    0.04
  -3  -2  -3    0.09    0.04
   3   2   3    0.16    0.04
   3   2   3    0.08    0.03
   3   2   3    0.04    0.03
  -4  -2  -3    0.83    0.11
   4   2   3    0.82    0.09
   4   2   3    0.97    0.09
   4  -3  -3    0.36    0.06
   4  -3  -3    0.35    0.07
  -4   3   3    0.42    0.08
  -4   3   3    0.43    0.07
   3  -3  -3   13.30    0.43
   3  -3  -3   13.58    0.43
   3  -3  -3   13.67    0.44
  -3   3   3   12.94    0.45
  -3   3   3   12.39    0.42
  -3   3   3   13.78    0.43
   2  -3  -3    0.01    0.03
   2  -3  -3    0.00    0.02
   2  -3  -3    0.04    0.03
  -2   3   3    0.04    0.03
  -2   3   3    0.01    0.03
  -2   3   3    0.00    0.02
  -2   3   3    0.01    0.03
   1  -3  -3    0.02    0.02
   1  -3  -3    0.02    0.02
   1  -3  -3    0.01    0.02
  -1   3   3    0.01    0.02
  -1   3   3    0.05    0.02
  -1   3   3    0.04    0.02
  -1   3   3    0.02    0.02
   0  -3  -3    0.75    0.04
   0  -3  -3    0.72    0.05
   0   3   3    0.75    0.04
   0   3   3    0.64    0.04
   0   3   3    0.71    0.05
   0   3   3    0.76    0.04
   0   3   3    0.70    0.04
  -1  -3  -3    8.72    0.30
  -1  -3  -3    9.25    0.29
  -1  -3  -3    9.36    0.29
   1   3   3    8.96    0.28
   1   3   3    9.51    0.29
   1   3   3    9.30    0.28
   1   3   3    8.63    0.28
   1   3   3    9.23    0.29
  -2  -3  -3    2.20    0.10
  -2  -3  -3    2.17    0.10
  -2  -3  -3    2.25    0.11
   2   3   3    2.39    0.10
   2   3   3    2.28    0.10
   2   3   3    2.33    0.09
   2   3   3    2.41    0.10
  -3  -3  -3    2.47    0.14
  -3  -3  -3    2.57    0.13
   3   3   3    2.43    0.11
   3   3   3    2.62    0.12
   3   3   3    2.44    0.12
  -4  -3  -3    4.74    0.23
   4   3   3    4.48    0.20
   4   3   3    4.86    0.21
   4   3   3    4.86    0.19
   4  -4  -3    0.16    0.05
  -4   4   3    0.31    0.07
  -4   4   3    0.36    0.06
   3  -4  -3    0.15    0.05
   3  -4  -3    0.20    0.04
   3  -4  -3    0.18    0.04
  -3   4   3    0.22    0.05
  -3   4   3    0.18    0.04
  -3   4   3    0.09    0.05
   2  -4  -3    4.00    0.15
   2  -4  -3    3.93    0.15
   2  -4  -3    4.21    0.16
  -2   4   3    4.06    0.14
  -2   4   3    3.88    0.16
  -2   4   3    4.09    0.15
  -2   4   3    4.20    0.15
   1  -4  -3   16.18    0.49
   1  -4  -3   15.72    0.47
   1  -4  -3   16.05    0.48
  -1   4   3   15.55    0.48
  -1   4   3   15.51    0.49
  -1   4   3   15.76    0.48
  -1   4   3   16.34    0.50
  -1   4   3   15.76    0.49
   0  -4  -3   77.65    2.21
   0  -4  -3   76.11    2.21
   0  -4  -3   73.04    2.21
   0   4   3   75.05    2.22
   0   4   3   75.19    2.21
   0   4   3   72.93    2.22
   0   4   3   76.69    2.21
   0   4   3   75.63    2.21
  -1  -4  -3    9.30    0.29
  -1  -4  -3    9.14    0.29
  -1  -4  -3    8.87    0.31
   1   4   3    9.11    0.29
   1   4   3    9.23    0.29
   1   4   3    9.24    0.29
   1   4   3    8.81    0.29
   1   4   3    9.68    0.30
  -2  -4  -3    1.38    0.08
  -2  -4  -3    1.42    0.08
  -2  -4  -3    1.27    0.09
   2   4   3    1.30    0.08
   2   4   3    1.36    0.07
   2   4   3    1.53    0.08
  -3  -4  -3    0.14    0.05
  -3  -4  -3    0.23    0.06
   3   4   3    0.22    0.05
   3   4   3    0.20    0.05
   3   4   3    0.35    0.05
  -4  -4  -3    1.98    0.14
  -4  -4  -3    1.99    0.19
   4   4   3    2.27    0.13
   4   4   3    1.96    0.11
   4   4   3    2.21    0.12
   4  -5  -3    2.00    0.12
  -4   5   3    2.02    0.14
  -4   5   3    1.80    0.12
   3  -5  -3   11.90    0.39
   3  -5  -3   12.02    0.38
  -3   5   3   11.40    0.38
  -3   5   3   10.87    0.40
   2  -5  -3    0.00    0.02
   2  -5  -3   -0.01    0.02
   2  -5  -3    0.00    0.03
  -2   5   3   -0.01    0.02
  -2   5   3    0.00    0.03
  -2   5   3   -0.02    0.02
   1  -5  -3    0.05    0.03
   1  -5  -3    0.08    0.03
  -1   5   3    0.05    0.02
  -1   5   3    0.03    0.03
  -1   5   3    0.07    0.02
  -1   5   3    0.05    0.02
  -1   5   3    0.04    0.02
   0  -5  -3   25.08    0.79
   0  -5  -3   25.16    0.79
   0  -5  -3   25.64    0.79
   0   5   3   26.62    0.78
   0   5   3   27.01    0.80
   0   5   3   26.98    0.78
   0   5   3   27.50    0.81
  -1  -5  -3    0.65    0.05
  -1  -5  -3    0.73    0.07
  -1  -5  -3    0.77    0.06
  -1  -5  -3    0.75    0.05
   1   5   3    0.68    0.04
   1   5   3    0.65    0.04
   1   5   3    0.63    0.04
   1   5   3    0.79    0.06
  -2  -5  -3   20.01    0.65
  -2  -5  -3   20.02    0.63
   2   5   3   19.71    0.61
   2   5   3   20.11    0.63
   2   5   3   20.60    0.62
  -3  -5  -3   43.27    1.35
  -3  -5  -3   43.67    1.33
   3   5   3   44.50    1.33
   3   5   3   44.09    1.33
   3   5   3   43.19    1.31
  -4  -5  -3    1.40    0.12
  -4  -5  -3    1.34    0.14
   4   5   3    1.38    0.12
   4   5   3    1.30    0.09
   4   5   3    1.30    0.12
   4  -6  -3    0.84    0.09
  -4   6   3    0.79    0.11
  -4   6   3    1.11    0.10
   3  -6  -3    0.16    0.05
   3  -6  -3    0.09    0.04
  -3   6   3    0.12    0.05
   2  -6  -3    0.00    0.02
   2  -6  -3    0.00    0.03
  -2   6   3    0.00    0.02
  -2   6   3   -0.01    0.02
  -2   6   3   -0.02    0.03
   1  -6  -3    4.28    0.15
   1  -6  -3    4.02    0.15
   1  -6  -3    4.20    0.15
  -1   6   3    3.99    0.14
  -1   6   3    4.14    0.17
  -1   6   3    4.14    0.14
  -1   6   3    4.19    0.15
   0  -6  -3   11.40    0.36
   0  -6  -3   11.80    0.36
   0  -6  -3   10.46    0.36
   0   6   3   11.76    0.37
   0   6   3   11.70    0.38
   0   6   3   11.27    0.35
   0   6   3   11.47    0.35
  -1  -6  -3    1.16    0.08
  -1  -6  -3    1.01    0.07
   1   6   3    1.26    0.06
   1   6   3    1.14    0.07
   1   6   3    1.03    0.05
   1   6   3    1.09    0.05
  -2  -6  -3   -0.01    0.04
  -2  -6  -3    0.01    0.03
   2   6   3   -0.01    0.02
   2   6   3    0.02    0.03
   2   6   3    0.04    0.03
  -3  -6  -3    0.11    0.06
  -3  -6  -3    0.07    0.05
   3   6   3    0.05    0.04
   3   6   3    0.05    0.03
   3   6   3    0.04    0.04
  -4  -6  -3    0.00    0.05
  -4  -6  -3    0.01    0.05
   4   6   3    0.06    0.05
   4   6   3    0.09    0.05
   4   6   3    0.03    0.04
  -4   7   3    0.26    0.07
   3  -7  -3    0.22    0.06
   3  -7  -3    0.18    0.05
  -3   7   3    0.20    0.06
  -3   7   3    0.15    0.04
   2  -7  -3    0.28    0.05
   2  -7  -3    0.36    0.04
  -2   7   3    0.26    0.04
  -2   7   3    0.33    0.04
  -2   7   3    0.33    0.06
   1  -7  -3    1.74    0.09
  -1   7   3    1.74    0.10
  -1   7   3    1.80    0.09
  -1   7   3    1.65    0.07
   0  -7  -3    2.33    0.10
   0   7   3    2.35    0.11
   0   7   3    2.28    0.12
  -1  -7  -3    0.24    0.04
  -1  -7  -3    0.19    0.05
   1   7   3    0.21    0.04
  -2  -7  -3    3.27    0.15
  -2  -7  -3    3.51    0.17
   2   7   3    3.43    0.16
  -3  -7  -3    5.55    0.25
  -3  -7  -3    5.35    0.22
   3   7   3    5.69    0.23
   3   7   3    5.45    0.19
  -4   8   3   -0.03    0.04
  -4   8   3    0.02    0.06
   3  -8  -3    0.10    0.05
  -3   8   3    0.09    0.06
  -3   8   3    0.01    0.03
   2  -8  -3    0.35    0.06
  -2   8   3    0.32    0.04
  -2   8   3    0.39    0.05
  -2   8   3    0.34    0.07
   1  -8  -3    1.01    0.07
  -1   8   3    0.99    0.07
  -1   8   3    0.96    0.08
   0  -8  -3    0.81    0.07
   0  -8  -3    0.96    0.10
   0   8   3    0.99    0.09
   0   8   3    0.85    0.07
  -1  -8  -3    2.57    0.12
  -1  -8  -3    3.01    0.15
   1   8   3    2.86    0.13
  -2  -8  -3    0.03    0.05
  -2  -8  -3    0.08    0.04
   2   8   3    0.07    0.04
  -3  -8  -3    0.12    0.05
  -3  -8  -3    0.38    0.08
   3   8   3    0.29    0.07
   3  -9  -3    0.17    0.06
  -3   9   3    0.11    0.07
  -3   9   3    0.12    0.04
   2  -9  -3    0.09    0.05
  -2   9   3    0.13    0.06
   1  -9  -3    0.02    0.04
  -1   9   3    0.03    0.03
  -1   9   3    0.00    0.04
   0  -9  -3    0.26    0.06
   0   9   3    0.21    0.06
   0   9   3    0.30    0.06
  -1  -9  -3    1.03    0.11
  -1  -9  -3    0.94    0.08
   1   9   3    1.09    0.10
  -2  -9  -3    0.83    0.11
  -2  -9  -3    0.71    0.08
   2   9   3    0.71    0.09
  -3  -9  -3    1.01    0.13
  -3  -9  -3    0.85    0.09
   3   9   3    1.17    0.12
   3 -10  -3    0.59    0.09
  -3  10   3    0.51    0.10
   2 -10  -3    0.03    0.05
  -2  10   3    0.06    0.06
   1 -10  -3    0.00    0.04
  -1  10   3   -0.01    0.04
  -1  10   3    0.04    0.04
   0 -10  -3    0.31    0.07
   0  10   3    0.38    0.06
   0  10   3    0.33    0.07
  -1 -10  -3    0.24    0.05
  -1 -10  -3    0.17    0.06
   1  10   3    0.19    0.05
  -2 -10  -3    0.01    0.05
  -2 -10  -3   -0.06    0.04
   2  10   3    0.00    0.04
   3 -11  -3    0.06    0.06
  -3  11   3    0.05    0.07
   2 -11  -3    1.60    0.11
  -2  11   3    1.47    0.13
   1 -11  -3    1.15    0.10
  -1  11   3    1.38    0.09
  -1  11   3    1.10    0.12
   0 -11  -3    1.35    0.14
   0  11   3    1.11    0.09
   0  11   3    1.13    0.12
  -1 -11  -3    0.03    0.06
  -1 -11  -3    0.05    0.04
   1  11   3   -0.01    0.04
  -2 -11  -3    1.67    0.15
  -2 -11  -3    1.72    0.12
   2  11   3    2.11    0.14
   2 -12  -3    0.10    0.06
  -2  12   3    0.05    0.06
   1 -12  -3    0.34    0.06
  -1  12   3    0.73    0.09
  -1  12   3    0.60    0.10
   0 -12  -3    1.73    0.14
   0  12   3    1.53    0.11
   0  12   3    1.67    0.14
  -1 -12  -3    0.35    0.09
  -1 -12  -3    0.37    0.07
   1  12   3    0.42    0.08
   1 -13  -3    0.08    0.05
  -1  13   3    0.13    0.07
   0 -13  -3    2.74    0.18
   0  13   3    2.46    0.17
   0  13   3    2.79    0.15
   0  13  -4    0.31    0.08
   0 -13   4    0.12    0.07
  -1  13  -4    0.01    0.06
   1  12  -4    1.93    0.13
  -1 -12   4    1.68    0.14
   0  12  -4    0.43    0.09
   0  12  -4    0.56    0.08
   0 -12   4    0.51    0.10
  -1  12  -4    0.08    0.06
  -2  12  -4    1.33    0.12
   2  11  -4    0.14    0.06
  -2 -11   4    0.14    0.07
  -2 -11   4    0.12    0.05
   1  11  -4    0.38    0.07
  -1 -11   4    0.47    0.09
   0  11  -4    1.97    0.13
   0  11  -4    2.19    0.12
   0 -11   4    2.22    0.14
  -1  11  -4    0.97    0.11
  -2  11  -4    0.64    0.10
  -3  11  -4    0.13    0.07
   3 -11   4    0.06    0.06
   2  10  -4    0.98    0.10
  -2 -10   4    0.83    0.11
   1  10  -4    1.23    0.09
   1  10  -4    1.13    0.09
  -1 -10   4    1.02    0.10
   0  10  -4    0.97    0.08
   0  10  -4    1.03    0.08
   0  10  -4    1.20    0.11
   0 -10   4    0.90    0.11
   0 -10   4    0.97    0.08
  -1  10  -4    0.26    0.06
   1 -10   4    0.31    0.05
  -2  10  -4    0.08    0.06
   2 -10   4    0.04    0.04
  -3  10  -4    0.20    0.07
   3 -10   4    0.07    0.05
   3 -10   4    0.09    0.05
   3   9  -4    0.34    0.07
   3   9  -4    0.28    0.07
  -3  -9   4    0.27    0.07
  -3  -9   4    0.36    0.09
   2   9  -4    1.96    0.12
   2   9  -4    2.11    0.13
  -2  -9   4    2.10    0.13
   1   9  -4    0.02    0.03
   1   9  -4    0.01    0.04
  -1  -9   4    0.07    0.05
   0   9  -4    2.04    0.10
   0   9  -4    2.00    0.12
   0   9  -4    1.93    0.11
   0  -9   4    1.91    0.10
   0  -9   4    2.03    0.12
  -1   9  -4    1.11    0.09
   1  -9   4    1.26    0.08
  -2   9  -4    0.63    0.09
   2  -9   4    0.56    0.07
  -3   9  -4    0.26    0.07
   3  -9   4    0.27    0.06
   3  -9   4    0.33    0.06
   3   8  -4    0.87    0.10
   3   8  -4    0.84    0.10
  -3  -8   4    0.60    0.09
  -3  -8   4    0.83    0.10
  -3  -8   4    0.83    0.08
   2   8  -4    6.67    0.26
   2   8  -4    5.98    0.24
  -2  -8   4    6.99    0.26
  -2  -8   4    6.48    0.25
   1   8  -4    0.91    0.08
   1   8  -4    0.93    0.08
  -1  -8   4    0.96    0.09
   0   8  -4    0.73    0.08
   0   8  -4    0.91    0.08
   0   8  -4    0.78    0.07
   0  -8   4    0.75    0.07
  -1   8  -4    3.19    0.12
  -1   8  -4    3.24    0.15
   1  -8   4    2.95    0.13
  -2   8  -4    0.52    0.08
   2  -8   4    0.62    0.06
  -3   8  -4    0.14    0.06
   3  -8   4    0.15    0.05
   3  -8   4    0.12    0.05
  -4   8  -4    1.74    0.15
   4  -8   4    1.64    0.12
   4  -8   4    1.78    0.13
   3   7  -4    1.35    0.10
   3   7  -4    1.27    0.12
  -3  -7   4    1.28    0.09
  -3  -7   4    1.28    0.11
  -3  -7   4    1.37    0.11
   2   7  -4    6.06    0.24
   2   7  -4    6.19    0.24
  -2  -7   4    6.36    0.24
  -2  -7   4    6.34    0.25
   1   7  -4    0.78    0.07
   1   7  -4    0.74    0.07
  -1  -7   4    0.83    0.08
   0   7  -4    2.08    0.11
   0   7  -4    2.27    0.10
   0   7  -4    2.30    0.10
   0  -7   4    2.20    0.10
  -1   7  -4   10.59    0.36
  -1   7  -4   11.17    0.34
   1  -7   4   10.95    0.35
   1  -7   4   10.69    0.34
  -2   7  -4    2.26    0.13
   2  -7   4    2.40    0.11
  -3   7  -4    0.37    0.07
   3  -7   4    0.35    0.06
   3  -7   4    0.47    0.07
  -4   7  -4    3.72    0.20
  -4   7  -4    3.28    0.14
   4  -7   4    3.43    0.17
   4  -7   4    3.41    0.18
   4   6  -4    0.76    0.11
   4   6  -4    0.49    0.08
  -4  -6   4    0.49    0.10
  -4  -6   4    0.66    0.09
  -4  -6   4    0.55    0.09
   3   6  -4    2.16    0.13
   3   6  -4    1.96    0.12
  -3  -6   4    1.87    0.12
  -3  -6   4    2.03    0.12
  -3  -6   4    2.06    0.11
   2   6  -4    1.65    0.10
   2   6  -4    1.55    0.10
  -2  -6   4    1.87    0.10
  -2  -6   4    1.77    0.10
   1   6  -4    0.03    0.03
   1   6  -4   -0.01    0.02
  -1  -6   4    0.03    0.03
   0   6  -4   12.39    0.40
   0   6  -4   12.42    0.40
   0   6  -4   12.80    0.40
  -1   6  -4   20.85    0.62
  -1   6  -4   20.37    0.64
   1  -6   4   20.57    0.63
   1  -6   4   20.28    0.62
  -2   6  -4    3.84    0.17
   2  -6   4    3.79    0.15
   2  -6   4    4.02    0.16
  -3   6  -4    6.50    0.26
  -3   6  -4    6.22    0.22
   3  -6   4    6.33    0.24
   3  -6   4    6.48    0.24
  -4   6  -4   23.71    0.77
  -4   6  -4   22.02    0.71
   4  -6   4   23.25    0.74
   4   5  -4    0.20    0.06
   4   5  -4    0.19    0.06
  -4  -5   4    0.21    0.06
  -4  -5   4    0.28    0.07
  -4  -5   4    0.17    0.06
   3   5  -4    4.67    0.19
   3   5  -4    4.20    0.19
  -3  -5   4    4.29    0.18
  -3  -5   4    4.44    0.19
  -3  -5   4    4.51    0.19
   2   5  -4    0.94    0.08
   2   5  -4    0.80    0.07
  -2  -5   4    0.82    0.07
  -2  -5   4    0.79    0.07
   1   5  -4    4.16    0.15
   1   5  -4    4.24    0.16
  -1  -5   4    4.08    0.16
  -1  -5   4    4.03    0.15
   0   5  -4    4.24    0.15
   0   5  -4    4.42    0.16
   0   5  -4    4.43    0.16
   0  -5   4    4.20    0.15
  -1   5  -4   11.18    0.36
   1  -5   4   10.99    0.35
   1  -5   4   10.90    0.34
  -2   5  -4    0.18    0.05
   2  -5   4    0.15    0.04
   2  -5   4    0.23    0.04
  -3   5  -4   10.93    0.35
  -3   5  -4   11.43    0.39
   3  -5   4   11.06    0.38
   3  -5   4   10.75    0.37
  -4   5  -4    5.82    0.23
  -4   5  -4    6.00    0.27
   4  -5   4    6.42    0.26
   4  -5   4    6.26    0.25
   4   4  -4    0.52    0.08
   4   4  -4    0.57    0.06
  -4  -4   4    0.51    0.09
  -4  -4   4    0.61    0.08
  -4  -4   4    0.54    0.08
   3   4  -4    1.85    0.08
   3   4  -4    1.98    0.11
   3   4  -4    1.93    0.11
  -3  -4   4    1.99    0.11
  -3  -4   4    1.92    0.11
  -3  -4   4    1.84    0.11
   2   4  -4    0.19    0.04
   2   4  -4    0.19    0.04
  -2  -4   4    0.22    0.04
  -2  -4   4    0.28    0.05
  -2  -4   4    0.24    0.04
   1   4  -4   -0.02    0.02
   1   4  -4    0.05    0.03
  -1  -4   4    0.05    0.02
  -1  -4   4    0.02    0.02
   0   4  -4   15.51    0.46
   0   4  -4   15.32    0.46
   0   4  -4   14.65    0.46
   0  -4   4   14.44    0.46
  -1   4  -4   15.57    0.48
   1  -4   4   15.23    0.46
   1  -4   4   15.89    0.48
  -2   4  -4    0.38    0.04
  -2   4  -4    0.39    0.04
  -2   4  -4    0.35    0.05
   2  -4   4    0.48    0.05
   2  -4   4    0.49    0.05
   2  -4   4    0.37    0.04
  -3   4  -4    0.06    0.05
  -3   4  -4    0.06    0.03
   3  -4   4    0.13    0.05
   3  -4   4    0.03    0.04
  -4   4  -4    2.99    0.14
  -4   4  -4    3.18    0.18
   4  -4   4    3.25    0.16
   4  -4   4    2.97    0.16
   4   3  -4    0.48    0.06
   4   3  -4    0.46    0.07
  -4  -3   4    0.58    0.09
  -4  -3   4    0.43    0.07
   3   3  -4    0.08    0.03
   3   3  -4    0.06    0.04
   3   3  -4    0.10    0.04
  -3  -3   4    0.09    0.04
  -3  -3   4    0.14    0.04
  -3  -3   4    0.11    0.05
   2   3  -4    0.26    0.04
   2   3  -4    0.37    0.03
   2   3  -4    0.42    0.05
   2   3  -4    0.42    0.04
  -2  -3   4    0.42    0.04
  -2  -3   4    0.40    0.05
  -2  -3   4    0.35    0.05
  -2  -3   4    0.34    0.04
  -2  -3   4    0.43    0.05
   1   3  -4   10.68    0.34
   1   3  -4   10.48    0.34
  -1  -3   4   11.23    0.34
  -1  -3   4   10.63    0.34
   0   3  -4    1.53    0.06
   0   3  -4    1.64    0.07
   0  -3   4    1.52    0.06
  -1   3  -4    4.78    0.17
   1  -3   4    4.71    0.15
   1  -3   4    4.79    0.15
   1  -3   4    4.90    0.17
  -2   3  -4   15.54    0.49
  -2   3  -4   15.09    0.48
  -2   3  -4   15.50    0.47
  -2   3  -4   15.58    0.47
   2  -3   4   15.35    0.48
   2  -3   4   15.02    0.48
   2  -3   4   15.76    0.49
  -3   3  -4    2.46    0.13
  -3   3  -4    2.62    0.12
   3  -3   4    2.70    0.13
   3  -3   4    2.59    0.13
  -4   3  -4    1.31    0.12
  -4   3  -4    1.43    0.10
   4  -3   4    1.28    0.10
   4   2  -4    0.19    0.05
   4   2  -4    0.13    0.05
  -4  -2   4    0.12    0.06
  -4  -2   4    0.14    0.05
  -4  -2   4    0.14    0.06
   3   2  -4    0.76    0.06
   3   2  -4    0.87    0.08
  -3  -2   4    0.92    0.08
  -3  -2   4    0.78    0.07
  -3  -2   4    0.83    0.07
   2   2  -4    1.94    0.08
   2   2  -4    1.93    0.08
   2   2  -4    1.92    0.09
  -2  -2   4    1.79    0.08
  -2  -2   4    1.86    0.09
  -2  -2   4    1.80    0.09
  -2  -2   4    1.94    0.09
   1   2  -4    0.27    0.04
  -1  -2   4    0.26    0.03
  -1  -2   4    0.22    0.03
  -1  -2   4    0.25    0.03
  -1  -2   4    0.23    0.03
  -1  -2   4    0.29    0.04
   0   2  -4    0.12    0.02
   0   2  -4    0.15    0.02
   0  -2   4    0.15    0.02
  -1   2  -4    2.07    0.08
  -1   2  -4    2.08    0.08
  -1   2  -4    2.08    0.07
  -1   2  -4    2.21    0.08
   1  -2   4    2.06    0.09
   1  -2   4    1.87    0.08
   1  -2   4    1.97    0.07
   1  -2   4    1.95    0.08
   1  -2   4    2.04    0.08
  -2   2  -4    1.02    0.07
  -2   2  -4    1.08    0.06
  -2   2  -4    1.00    0.06
  -2   2  -4    1.07    0.06
   2  -2   4    1.08    0.06
   2  -2   4    1.05    0.07
   2  -2   4    0.95    0.07
  -3   2  -4    0.14    0.05
  -3   2  -4    0.14    0.04
   3  -2   4    0.13    0.04
   3  -2   4    0.17    0.04
   3  -2   4    0.16    0.05
  -4   2  -4    0.16    0.06
  -4   2  -4    0.15    0.05
   4  -2   4    0.10    0.05
   4   1  -4    0.06    0.04
   4   1  -4    0.08    0.04
  -4  -1   4    0.11    0.06
  -4  -1   4    0.06    0.05
  -4  -1   4    0.12    0.04
   3   1  -4    0.02    0.03
   3   1  -4   -0.01    0.03
  -3  -1   4    0.00    0.03
  -3  -1   4   -0.02    0.03
  -3  -1   4    0.00    0.03
   2   1  -4    4.60    0.16
   2   1  -4    4.34    0.16
   2   1  -4    4.68    0.16
   2   1  -4    4.61    0.17
  -2  -1   4    4.64    0.16
  -2  -1   4    4.60    0.17
  -2  -1   4    4.49    0.17
  -2  -1   4    4.58    0.17
   1   1  -4   11.00    0.33
   1   1  -4   10.60    0.32
   1   1  -4   10.24    0.32
   1   1  -4   10.93    0.32
  -1  -1   4   10.96    0.33
  -1  -1   4    9.71    0.32
  -1  -1   4   10.13    0.32
  -1  -1   4   10.45    0.33
   0   1  -4    1.05    0.05
   0   1  -4    1.07    0.05
   0   1  -4    1.08    0.05
   0  -1   4    1.05    0.05
   0  -1   4    1.09    0.05
   0  -1   4    1.13    0.04
   0  -1   4    0.98    0.05
  -1   1  -4    1.41    0.06
  -1   1  -4    1.52    0.06
  -1   1  -4    1.51    0.06
  -1   1  -4    1.35    0.06
   1  -1   4    1.39    0.06
   1  -1   4    1.35    0.06
   1  -1   4    1.43    0.07
   1  -1   4    1.34    0.05
  -2   1  -4    0.76    0.06
  -2   1  -4    0.71    0.06
  -2   1  -4    0.90    0.05
   2  -1   4    0.74    0.05
   2  -1   4    0.76    0.04
   2  -1   4    0.85    0.06
   2  -1   4    0.82    0.06
  -3   1  -4    0.37    0.05
  -3   1  -4    0.24    0.06
   3  -1   4    0.37    0.06
   3  -1   4    0.36    0.05
   3  -1   4    0.35    0.06
  -4   1  -4    0.31    0.06
  -4   1  -4    0.18    0.07
   4  -1   4    0.25    0.05
   4  -1   4    0.18    0.05
   4   0  -4    0.09    0.05
   4   0  -4    0.11    0.04
  -4   0   4    0.11    0.04
  -4   0   4    0.10    0.05
   3   0  -4    2.68    0.13
   3   0  -4    2.81    0.12
  -3   0   4    2.76    0.13
  -3   0   4    2.62    0.13
  -3   0   4    2.53    0.12
  -3   0   4    2.71    0.12
   2   0  -4    0.96    0.06
   2   0  -4    1.10    0.07
   2   0  -4    1.10    0.06
  -2   0   4    0.99    0.06
  -2   0   4    1.04    0.07
  -2   0   4    1.08    0.06
  -2   0   4    0.96    0.06
   1   0  -4    0.32    0.03
   1   0  -4    0.28    0.03
   1   0  -4    0.28    0.03
   1   0  -4    0.26    0.03
  -1   0   4    0.33    0.03
  -1   0   4    0.31    0.03
  -1   0   4    0.28    0.03
  -1   0   4    0.25    0.03
   0   0  -4   34.96    1.04
   0   0  -4   33.35    1.03
   0   0  -4   33.30    1.04
   0   0  -4   34.18    1.03
   0   0   4   36.66    1.03
   0   0   4   36.28    1.04
   0   0   4   36.58    1.04
  -1   0  -4    2.36    0.09
  -1   0  -4    2.19    0.09
  -1   0  -4    2.31    0.09
   1   0   4    2.21    0.08
   1   0   4    2.29    0.09
   1   0   4    2.19    0.08
   1   0   4    2.28    0.09
  -2   0  -4    0.27    0.05
  -2   0  -4    0.28    0.04
  -2   0  -4    0.21    0.03
   2   0   4    0.26    0.04
   2   0   4    0.29    0.03
   2   0   4    0.21    0.03
   2   0   4    0.26    0.04
  -3   0  -4   12.61    0.44
  -3   0  -4   13.71    0.43
   3   0   4   13.33    0.42
   3   0   4   12.69    0.43
   3   0   4   12.97    0.41
   3   0   4   13.26    0.43
  -4   0  -4    0.30    0.06
  -4   0  -4    0.27    0.07
   4   0   4    0.34    0.06
   4   0   4    0.42    0.07
   4  -1  -4    0.01    0.04
   4  -1  -4   -0.01    0.04
  -4   1   4   -0.04    0.05
   3  -1  -4    0.05    0.04
   3  -1  -4    0.07    0.03
  -3   1   4    0.07    0.04
  -3   1   4    0.07    0.03
  -3   1   4    0.05    0.04
  -3   1   4    0.10    0.04
   2  -1  -4   13.25    0.42
   2  -1  -4   13.61    0.42
   2  -1  -4   13.23    0.41
  -2   1   4   12.91    0.42
  -2   1   4   13.16    0.41
  -2   1   4   13.09    0.41
  -2   1   4   13.22    0.42
   1  -1  -4    0.73    0.05
   1  -1  -4    0.69    0.05
   1  -1  -4    0.75    0.04
  -1   1   4    0.76    0.04
  -1   1   4    0.69    0.04
  -1   1   4    0.76    0.05
  -1   1   4    0.76    0.05
   0  -1  -4    0.18    0.02
   0  -1  -4    0.21    0.03
   0  -1  -4    0.18    0.02
   0   1   4    0.22    0.03
   0   1   4    0.21    0.02
   0   1   4    0.19    0.03
   0   1   4    0.20    0.02
   0   1   4    0.20    0.03
  -1  -1  -4    1.68    0.07
  -1  -1  -4    1.67    0.08
  -1  -1  -4    1.80    0.08
   1   1   4    1.49    0.07
   1   1   4    1.67    0.08
   1   1   4    1.67    0.07
   1   1   4    1.65    0.07
  -2  -1  -4    3.29    0.12
  -2  -1  -4    3.13    0.13
  -2  -1  -4    3.12    0.13
   2   1   4    2.91    0.12
   2   1   4    3.08    0.12
   2   1   4    3.11    0.13
   2   1   4    3.12    0.13
  -3  -1  -4    0.11    0.04
  -3  -1  -4    0.06    0.04
  -3  -1  -4    0.11    0.04
   3   1   4    0.13    0.04
   3   1   4    0.12    0.03
   3   1   4    0.08    0.03
  -4  -1  -4   -0.04    0.04
  -4  -1  -4    0.10    0.06
   4   1   4    0.06    0.05
   4   1   4    0.12    0.05
   4  -2  -4    0.03    0.05
   4  -2  -4    0.06    0.04
  -4   2   4    0.07    0.05
  -4   2   4    0.02    0.05
   3  -2  -4    0.00    0.03
   3  -2  -4    0.06    0.03
  -3   2   4    0.02    0.04
  -3   2   4    0.02    0.04
  -3   2   4    0.02    0.04
  -3   2   4    0.06    0.03
   2  -2  -4   -0.01    0.02
   2  -2  -4    0.02    0.02
   2  -2  -4    0.01    0.03
  -2   2   4    0.03    0.03
  -2   2   4   -0.01    0.02
  -2   2   4    0.00    0.02
  -2   2   4    0.01    0.03
   1  -2  -4    6.48    0.21
   1  -2  -4    6.32    0.22
   1  -2  -4    6.43    0.21
  -1   2   4    6.68    0.21
  -1   2   4    6.62    0.22
  -1   2   4    6.84    0.22
   0  -2  -4   20.94    0.64
   0  -2  -4   21.60    0.64
   0  -2  -4   21.78    0.64
   0  -2  -4   21.86    0.65
   0   2   4   21.70    0.65
   0   2   4   20.96    0.64
   0   2   4   21.90    0.65
   0   2   4   21.76    0.64
   0   2   4   20.92    0.64
  -1  -2  -4   50.21    1.45
  -1  -2  -4   47.30    1.45
  -1  -2  -4   48.76    1.45
   1   2   4   50.05    1.44
   1   2   4   48.31    1.45
   1   2   4   49.66    1.45
   1   2   4   48.19    1.44
  -2  -2  -4   10.99    0.37
  -2  -2  -4   11.39    0.37
  -2  -2  -4   11.47    0.36
   2   2   4   11.47    0.36
   2   2   4   11.01    0.36
   2   2   4   11.18    0.36
   2   2   4   11.61    0.36
  -3  -2  -4    0.20    0.05
  -3  -2  -4    0.17    0.05
  -3  -2  -4    0.08    0.05
   3   2   4    0.13    0.04
   3   2   4    0.03    0.03
   3   2   4    0.09    0.04
  -4  -2  -4    0.16    0.07
   4   2   4    0.17    0.05
   4   2   4    0.27    0.06
   4  -3  -4    3.54    0.16
   4  -3  -4    3.43    0.17
  -4   3   4    3.58    0.18
  -4   3   4    3.49    0.17
   3  -3  -4    3.98    0.17
   3  -3  -4    4.13    0.16
   3  -3  -4    4.16    0.17
  -3   3   4    3.95    0.18
  -3   3   4    4.27    0.17
  -3   3   4    3.99    0.16
   2  -3  -4   53.99    1.59
   2  -3  -4   54.99    1.58
   2  -3  -4   52.65    1.58
  -2   3   4   52.05    1.59
  -2   3   4   52.88    1.59
  -2   3   4   52.39    1.58
  -2   3   4   53.68    1.58
   1  -3  -4    0.58    0.04
   1  -3  -4    0.63    0.05
   1  -3  -4    0.64    0.05
  -1   3   4    0.59    0.04
  -1   3   4    0.63    0.05
  -1   3   4    0.67    0.05
  -1   3   4    0.60    0.04
   0  -3  -4    0.55    0.05
   0  -3  -4    0.64    0.04
   0   3   4    0.63    0.04
   0   3   4    0.49    0.04
   0   3   4    0.54    0.04
   0   3   4    0.50    0.04
  -1  -3  -4   44.40    1.35
  -1  -3  -4   44.73    1.36
  -1  -3  -4   46.02    1.35
   1   3   4   45.42    1.34
   1   3   4   45.30    1.35
   1   3   4   45.73    1.34
   1   3   4   46.05    1.35
  -2  -3  -4    0.16    0.04
  -2  -3  -4    0.20    0.04
  -2  -3  -4    0.15    0.04
   2   3   4    0.18    0.04
   2   3   4    0.23    0.05
   2   3   4    0.11    0.03
   2   3   4    0.17    0.04
  -3  -3  -4   16.45    0.56
  -3  -3  -4   16.92    0.55
   3   3   4   17.26    0.55
   3   3   4   17.39    0.55
   3   3   4   17.04    0.54
  -4  -3  -4   24.11    0.82
   4   3   4   25.33    0.77
   4   3   4   24.52    0.79
   4  -4  -4    0.14    0.05
  -4   4   4    0.15    0.05
  -4   4   4    0.06    0.06
   3  -4  -4    5.83    0.22
   3  -4  -4    5.87    0.23
   3  -4  -4    5.70    0.21
  -3   4   4    5.93    0.21
  -3   4   4    5.81    0.21
  -3   4   4    5.73    0.23
   2  -4  -4    0.03    0.02
   2  -4  -4    0.00    0.03
   2  -4  -4   -0.01    0.03
  -2   4   4    0.00    0.03
  -2   4   4   -0.03    0.02
  -2   4   4   -0.03    0.02
   1  -4  -4    3.35    0.11
   1  -4  -4    3.56    0.13
   1  -4  -4    3.62    0.13
  -1   4   4    3.45    0.12
  -1   4   4    3.49    0.13
  -1   4   4    3.28    0.13
  -1   4   4    3.44    0.13
   0  -4  -4   13.41    0.41
   0  -4  -4   13.37    0.41
   0   4   4   13.05    0.40
   0   4   4   12.97    0.41
   0   4   4   13.11    0.42
   0   4   4   12.77    0.41
   0   4   4   13.36    0.40
  -1  -4  -4   15.66    0.51
  -1  -4  -4   15.47    0.50
  -1  -4  -4   16.79    0.50
   1   4   4   16.48    0.50
   1   4   4   15.36    0.49
   1   4   4   15.96    0.49
   1   4   4   16.48    0.49
   1   4   4   16.65    0.50
  -2  -4  -4    1.70    0.09
  -2  -4  -4    1.76    0.10
  -2  -4  -4    1.65    0.09
   2   4   4    1.80    0.09
   2   4   4    1.70    0.09
   2   4   4    1.76    0.08
  -3  -4  -4    0.06    0.05
  -3  -4  -4    0.12    0.05
   3   4   4    0.17    0.04
   3   4   4    0.13    0.04
   3   4   4    0.13    0.04
  -4  -4  -4    0.88    0.12
   4   4   4    0.79    0.09
   4   4   4    0.80    0.08
   4   4   4    0.89    0.10
   4  -5  -4    0.27    0.06
  -4   5   4    0.24    0.07
  -4   5   4    0.27    0.06
   3  -5  -4    0.97    0.09
   3  -5  -4    0.90    0.08
  -3   5   4    1.02    0.08
  -3   5   4    0.95    0.10
   2  -5  -4    0.03    0.03
   2  -5  -4    0.06    0.03
   2  -5  -4    0.04    0.03
  -2   5   4    0.00    0.03
  -2   5   4    0.04    0.02
  -2   5   4    0.04    0.03
   1  -5  -4    0.70    0.06
   1  -5  -4    0.73    0.06
  -1   5   4    0.71    0.06
  -1   5   4    0.75    0.06
  -1   5   4    0.60    0.05
  -1   5   4    0.60    0.04
  -1   5   4    0.68    0.05
   0  -5  -4    1.05    0.07
   0  -5  -4    1.13    0.06
   0   5   4    1.05    0.06
   0   5   4    1.07    0.06
   0   5   4    1.02    0.07
   0   5   4    1.18    0.06
   0   5   4    1.15    0.05
  -1  -5  -4    0.37    0.05
  -1  -5  -4    0.44    0.06
  -1  -5  -4    0.40    0.05
   1   5   4    0.39    0.03
   1   5   4    0.43    0.04
   1   5   4    0.42    0.05
  -2  -5  -4    0.31    0.05
  -2  -5  -4    0.24    0.06
   2   5   4    0.25    0.05
   2   5   4    0.33    0.05
   2   5   4    0.32    0.04
  -3  -5  -4    2.83    0.14
  -3  -5  -4    2.82    0.16
   3   5   4    2.86    0.12
   3   5   4    2.86    0.14
   3   5   4    2.84    0.14
  -4  -5  -4    6.49    0.30
   4   5   4    7.00    0.25
   4   5   4    6.85    0.27
   4   5   4    7.29    0.28
   4  -6  -4    2.28    0.13
  -4   6   4    1.86    0.14
  -4   6   4    1.99    0.12
   3  -6  -4    0.00    0.04
   3  -6  -4    0.01    0.03
  -3   6   4    0.05    0.04
  -3   6   4   -0.03    0.04
   2  -6  -4    0.41    0.06
   2  -6  -4    0.23    0.03
  -2   6   4    0.21    0.05
  -2   6   4    0.24    0.04
  -2   6   4    0.30    0.04
   1  -6  -4    5.14    0.18
   1  -6  -4    4.94    0.18
  -1   6   4    4.85    0.17
  -1   6   4    5.11    0.18
  -1   6   4    5.19    0.20
   0  -6  -4    1.86    0.10
   0  -6  -4    1.69    0.08
   0  -6  -4    1.69    0.09
   0  -6  -4    1.43    0.09
   0   6   4    1.69    0.09
   0   6   4    1.81    0.09
   0   6   4    1.63    0.07
   0   6   4    1.67    0.07
  -1  -6  -4    0.53    0.06
  -1  -6  -4    0.59    0.07
   1   6   4    0.52    0.06
   1   6   4    0.56    0.05
  -2  -6  -4    2.67    0.13
  -2  -6  -4    2.52    0.14
   2   6   4    2.67    0.13
   2   6   4    2.71    0.11
   2   6   4    2.68    0.11
  -3  -6  -4    0.09    0.05
  -3  -6  -4   -0.03    0.05
   3   6   4    0.05    0.04
   3   6   4    0.00    0.03
   3   6   4    0.05    0.04
  -4  -6  -4    0.40    0.08
  -4  -6  -4    0.49    0.10
   4   6   4    0.54    0.08
   4   6   4    0.59    0.08
   4   6   4    0.55    0.07
  -4   7   4    0.07    0.06
  -4   7   4   -0.06    0.04
   3  -7  -4    0.03    0.05
  -3   7   4    0.04    0.05
  -3   7   4    0.03    0.04
   2  -7  -4    0.05    0.04
  -2   7   4   -0.02    0.02
  -2   7   4    0.01    0.03
  -2   7   4   -0.04    0.04
   1  -7  -4    0.40    0.05
  -1   7   4    0.38    0.05
  -1   7   4    0.34    0.05
  -1   7   4    0.40    0.04
   0  -7  -4    1.07    0.09
   0  -7  -4    1.03    0.07
   0   7   4    1.12    0.08
   0   7   4    1.04    0.07
   0   7   4    1.06    0.05
  -1  -7  -4    1.40    0.08
  -1  -7  -4    1.45    0.10
   1   7   4    1.34    0.06
   1   7   4    1.56    0.09
  -2  -7  -4    0.11    0.05
  -2  -7  -4    0.03    0.05
   2   7   4    0.09    0.04
   2   7   4    0.05    0.03
  -3  -7  -4    2.02    0.14
  -3  -7  -4    2.05    0.13
   3   7   4    2.14    0.10
   3   7   4    1.92    0.12
  -4   8   4    0.45    0.09
  -4   8   4    0.48    0.07
   3  -8  -4    1.23    0.11
  -3   8   4    1.04    0.11
  -3   8   4    1.00    0.07
   2  -8  -4    0.53    0.07
  -2   8   4    0.53    0.05
  -2   8   4    0.41    0.07
  -2   8   4    0.55    0.06
   1  -8  -4    0.16    0.05
  -1   8   4    0.20    0.05
  -1   8   4    0.19    0.04
  -1   8   4    0.18    0.03
   0  -8  -4   -0.03    0.04
   0  -8  -4   -0.05    0.03
   0   8   4    0.02    0.04
   0   8   4   -0.04    0.02
  -1  -8  -4    2.17    0.13
  -1  -8  -4    2.04    0.11
   1   8   4    2.46    0.12
  -2  -8  -4    0.25    0.06
  -2  -8  -4    0.31    0.06
   2   8   4    0.31    0.06
  -3  -8  -4    0.36    0.08
  -3  -8  -4    0.25    0.06
   3   8   4    0.40    0.05
   3   8   4    0.30    0.07
   3  -9  -4    1.40    0.12
  -3   9   4    1.30    0.08
  -3   9   4    1.43    0.14
   2  -9  -4    0.78    0.08
  -2   9   4    0.73    0.10
  -2   9   4    0.69    0.06
  -2   9   4    0.61    0.09
   1  -9  -4    0.73    0.07
  -1   9   4    0.66    0.09
  -1   9   4    0.74    0.07
   0  -9  -4    3.77    0.18
   0  -9  -4    3.36    0.15
   0   9   4    3.69    0.18
   0   9   4    4.01    0.17
  -1  -9  -4    0.34    0.07
  -1  -9  -4    0.40    0.06
   1   9   4    0.30    0.06
  -2  -9  -4    0.58    0.09
  -2  -9  -4    0.56    0.08
   2   9   4    0.42    0.07
  -3  -9  -4    1.58    0.12
  -3  -9  -4    1.52    0.14
   3   9   4    1.66    0.12
   3 -10  -4    1.02    0.11
  -3  10   4    1.33    0.14
  -3  10   4    1.14    0.07
   2 -10  -4    0.07    0.05
  -2  10   4    0.04    0.06
   1 -10  -4    0.12    0.05
  -1  10   4    0.14    0.06
  -1  10   4    0.14    0.05
   0 -10  -4    0.52    0.09
   0  10   4    0.45    0.08
   0  10   4    0.55    0.07
  -1 -10  -4    1.28    0.11
  -1 -10  -4    1.20    0.09
   1  10   4    1.27    0.10
  -2 -10  -4    0.25    0.08
  -2 -10  -4    0.32    0.07
   2  10   4    0.29    0.06
   2 -11  -4    0.06    0.05
  -2  11   4    0.03    0.05
   1 -11  -4    0.50    0.07
  -1  11   4    0.64    0.10
  -1  11   4    0.74    0.08
   0 -11  -4    0.31    0.08
   0  11   4    0.35    0.07
   0  11   4    0.31    0.07
  -1 -11  -4    4.26    0.19
  -1 -11  -4    4.25    0.22
   1  11   4    4.58    0.20
  -2 -11  -4    1.03    0.10
  -2 -11  -4    0.73    0.11
   2  11   4    0.83    0.10
   2 -12  -4    4.03    0.19
  -2  12   4    3.89    0.22
   1 -12  -4   -0.02    0.05
  -1  12   4   -0.06    0.05
  -1  12   4   -0.02    0.04
   0 -12  -4    0.01    0.06
   0  12   4    0.00    0.04
   0  12   4   -0.01    0.05
  -1 -12  -4    0.42    0.07
  -1 -12  -4    0.48    0.10
   1  12   4    0.70    0.09
   0  13  -5    1.39    0.13
   0 -13   5    1.45    0.15
  -1  13  -5    0.69    0.11
   1  12  -5    1.64    0.12
  -1 -12   5    1.91    0.13
  -1 -12   5    1.60    0.13
   0  12  -5    0.55    0.09
   0 -12   5    0.36    0.06
   0 -12   5    0.45    0.09
  -1  12  -5    2.20    0.15
  -2  12  -5    0.01    0.05
   2  11  -5    0.29    0.07
  -2 -11   5    0.34    0.08
  -2 -11   5    0.31    0.07
   1  11  -5    0.35    0.07
  -1 -11   5    0.31    0.06
  -1 -11   5    0.32    0.07
   0  11  -5    0.19    0.05
   0  11  -5    0.18    0.06
   0 -11   5    0.27    0.07
   0 -11   5    0.25    0.05
  -1  11  -5    0.29    0.07
  -2  11  -5    1.48    0.13
  -3  11  -5    0.23    0.08
   3 -11   5    0.14    0.06
   2  10  -5    1.06    0.11
   2  10  -5    0.96    0.09
  -2 -10   5    1.18    0.12
  -2 -10   5    1.02    0.11
   1  10  -5    2.27    0.13
   1  10  -5    2.30    0.12
  -1 -10   5    2.27    0.14
  -1 -10   5    2.31    0.13
   0  10  -5    0.07    0.04
   0  10  -5    0.01    0.04
   0  10  -5    0.01    0.04
   0 -10   5    0.05    0.05
   0 -10   5    0.01    0.03
   0 -10   5    0.03    0.03
  -1  10  -5    0.69    0.08
   1 -10   5    0.59    0.07
  -2  10  -5    1.80    0.13
   2 -10   5    1.62    0.11
  -3  10  -5    0.02    0.06
   3 -10   5    0.01    0.05
   3 -10   5    0.01    0.05
   3   9  -5    0.08    0.05
   3   9  -5    0.17    0.06
  -3  -9   5    0.03    0.05
  -3  -9   5    0.04    0.06
   2   9  -5    0.58    0.08
   2   9  -5    0.51    0.07
  -2  -9   5    0.51    0.08
  -2  -9   5    0.46    0.08
   1   9  -5   10.18    0.36
   1   9  -5   10.47    0.36
  -1  -9   5   10.54    0.37
  -1  -9   5   10.37    0.37
   0   9  -5    0.84    0.08
   0   9  -5    0.72    0.08
   0   9  -5    0.74    0.07
   0  -9   5    0.83    0.09
   0  -9   5    0.64    0.07
   0  -9   5    0.87    0.08
  -1   9  -5    0.04    0.04
   1  -9   5    0.03    0.04
  -2   9  -5    1.33    0.11
   2  -9   5    1.39    0.10
  -3   9  -5    0.44    0.08
   3  -9   5    0.36    0.07
   3  -9   5    0.39    0.07
   3   8  -5    0.82    0.10
   3   8  -5    0.90    0.10
  -3  -8   5    0.81    0.10
  -3  -8   5    0.95    0.11
   2   8  -5    0.81    0.09
   2   8  -5    0.78    0.09
  -2  -8   5    0.66    0.08
  -2  -8   5    0.80    0.09
   1   8  -5    1.41    0.09
   1   8  -5    1.27    0.09
  -1  -8   5    1.25    0.09
  -1  -8   5    1.21    0.09
   0   8  -5    1.83    0.11
   0   8  -5    2.07    0.10
   0   8  -5    2.01    0.10
   0  -8   5    1.92    0.10
   0  -8   5    1.88    0.10
  -1   8  -5    2.00    0.11
   1  -8   5    2.08    0.10
   1  -8   5    1.78    0.09
  -2   8  -5    5.48    0.22
   2  -8   5    5.38    0.21
  -3   8  -5    0.34    0.07
   3  -8   5    0.37    0.07
   3  -8   5    0.35    0.06
  -4   8  -5    1.04    0.13
   4  -8   5    1.50    0.12
   4  -8   5    1.24    0.12
   3   7  -5    0.20    0.06
   3   7  -5    0.17    0.06
  -3  -7   5    0.21    0.05
  -3  -7   5    0.18    0.06
  -3  -7   5    0.32    0.07
   2   7  -5    6.18    0.24
   2   7  -5    5.90    0.23
  -2  -7   5    5.55    0.23
  -2  -7   5    6.29    0.24
   1   7  -5    0.40    0.05
   1   7  -5    0.36    0.05
  -1  -7   5    0.44    0.06
  -1  -7   5    0.33    0.05
   0   7  -5    2.78    0.12
   0   7  -5    2.77    0.12
   0   7  -5    2.68    0.12
   0  -7   5    2.77    0.12
   0  -7   5    2.68    0.12
  -1   7  -5    0.01    0.02
  -1   7  -5   -0.04    0.03
   1  -7   5    0.00    0.03
   1  -7   5    0.02    0.02
  -2   7  -5    7.60    0.28
   2  -7   5    7.42    0.27
  -3   7  -5    0.04    0.05
   3  -7   5    0.02    0.04
   3  -7   5   -0.01    0.04
  -4   7  -5    2.83    0.18
  -4   7  -5    2.78    0.13
   4  -7   5    2.84    0.16
   4  -7   5    2.72    0.16
   4   6  -5    0.08    0.06
  -4  -6   5   -0.02    0.05
  -4  -6   5    0.15    0.06
  -4  -6   5    0.12    0.06
   3   6  -5    0.06    0.04
   3   6  -5    0.10    0.05
  -3  -6   5    0.13    0.05
  -3  -6   5    0.08    0.04
  -3  -6   5    0.05    0.05
   2   6  -5    3.20    0.14
   2   6  -5    3.06    0.14
  -2  -6   5    3.17    0.15
  -2  -6   5    3.01    0.14
   1   6  -5   -0.01    0.02
   1   6  -5    0.05    0.03
  -1  -6   5   -0.02    0.02
  -1  -6   5   -0.01    0.03
   0   6  -5    1.22    0.07
   0   6  -5    1.26    0.07
   0   6  -5    1.29    0.08
   0  -6   5    1.18    0.07
  -1   6  -5    9.68    0.33
   1  -6   5    9.73    0.31
   1  -6   5    9.90    0.32
  -2   6  -5    0.03    0.03
   2  -6   5   -0.03    0.03
   2  -6   5    0.02    0.03
  -3   6  -5    1.11    0.07
  -3   6  -5    1.14    0.11
   3  -6   5    1.00    0.09
   3  -6   5    1.08    0.09
  -4   6  -5    0.03    0.04
  -4   6  -5    0.08    0.06
   4  -6   5    0.05    0.05
   4  -6   5    0.08    0.06
   4   5  -5    0.91    0.11
  -4  -5   5    0.77    0.10
  -4  -5   5    0.74    0.10
  -4  -5   5    0.78    0.10
   3   5  -5    0.71    0.09
   3   5  -5    0.73    0.08
  -3  -5   5    0.90    0.08
  -3  -5   5    0.85    0.09
  -3  -5   5    0.72    0.08
   2   5  -5    0.52    0.06
   2   5  -5    0.45    0.06
  -2  -5   5    0.56    0.07
  -2  -5   5    0.57    0.07
   1   5  -5    0.20    0.04
   1   5  -5    0.16    0.04
  -1  -5   5    0.17    0.04
  -1  -5   5    0.18    0.04
   0   5  -5    4.59    0.16
   0   5  -5    4.47    0.17
   0   5  -5    4.35    0.16
   0  -5   5    4.37    0.16
  -1   5  -5    4.12    0.15
   1  -5   5    4.01    0.15
   1  -5   5    3.90    0.13
  -2   5  -5    2.03    0.11
   2  -5   5    2.01    0.10
   2  -5   5    1.84    0.09
  -3   5  -5    1.01    0.09
  -3   5  -5    0.80    0.06
   3  -5   5    1.14    0.10
   3  -5   5    0.84    0.08
  -4   5  -5    2.93    0.17
  -4   5  -5    2.91    0.14
   4  -5   5    2.63    0.15
   4  -5   5    2.90    0.16
   4   4  -5    0.05    0.04
   4   4  -5    0.02    0.05
  -4  -4   5    0.04    0.04
  -4  -4   5    0.03    0.05
  -4  -4   5    0.00    0.05
   3   4  -5    0.02    0.04
   3   4  -5    0.01    0.03
  -3  -4   5    0.03    0.04
  -3  -4   5    0.05    0.05
  -3  -4   5    0.07    0.04
   2   4  -5    0.93    0.07
   2   4  -5    0.93    0.07
  -2  -4   5    0.79    0.07
  -2  -4   5    0.86    0.06
  -2  -4   5    0.79    0.07
   1   4  -5    0.70    0.05
   1   4  -5    0.74    0.05
  -1  -4   5    0.72    0.05
  -1  -4   5    0.80    0.06
   0   4  -5    3.45    0.12
   0   4  -5    3.49    0.13
   0  -4   5    3.48    0.13
  -1   4  -5    0.02    0.02
   1  -4   5    0.01    0.02
   1  -4   5    0.00    0.01
  -2   4  -5    4.78    0.16
  -2   4  -5    5.10    0.19
   2  -4   5    4.92    0.18
   2  -4   5    4.70    0.18
  -3   4  -5    0.08    0.05
  -3   4  -5    0.07    0.04
   3  -4   5    0.07    0.04
   3  -4   5    0.05    0.05
  -4   4  -5    0.10    0.05
  -4   4  -5    0.00    0.06
   4  -4   5    0.01    0.04
   4  -4   5    0.01    0.05
   4   3  -5    0.34    0.07
   4   3  -5    0.35    0.05
  -4  -3   5    0.21    0.06
  -4  -3   5    0.41    0.07
  -4  -3   5    0.31    0.07
   3   3  -5    0.18    0.04
   3   3  -5    0.17    0.05
  -3  -3   5    0.22    0.06
  -3  -3   5    0.19    0.04
  -3  -3   5    0.29    0.06
   2   3  -5    0.72    0.07
   2   3  -5    0.57    0.04
   2   3  -5    0.56    0.04
  -2  -3   5    0.63    0.06
  -2  -3   5    0.74    0.06
  -2  -3   5    0.60    0.06
   1   3  -5   10.15    0.33
  -1  -3   5    9.86    0.32
  -1  -3   5   10.43    0.33
   0   3  -5    2.97    0.12
   0   3  -5    3.00    0.10
   0  -3   5    3.04    0.11
  -1   3  -5    1.82    0.08
   1  -3   5    1.82    0.07
   1  -3   5    1.75    0.08
   1  -3   5    1.80    0.08
   1  -3   5    1.81    0.07
  -2   3  -5   -0.02    0.02
  -2   3  -5    0.02    0.03
   2  -3   5   -0.01    0.02
   2  -3   5    0.01    0.03
   2  -3   5   -0.01    0.02
  -3   3  -5    0.12    0.04
  -3   3  -5    0.10    0.05
   3  -3   5    0.10    0.04
   3  -3   5    0.13    0.05
  -4   3  -5    0.22    0.07
  -4   3  -5    0.11    0.05
   4  -3   5    0.18    0.05
   4   2  -5    1.98    0.11
   4   2  -5    1.98    0.13
  -4  -2   5    2.11    0.12
  -4  -2   5    2.09    0.13
  -4  -2   5    1.97    0.13
   3   2  -5    0.18    0.05
   3   2  -5    0.32    0.05
  -3  -2   5    0.28    0.05
  -3  -2   5    0.22    0.05
  -3  -2   5    0.37    0.06
   2   2  -5    6.05    0.22
   2   2  -5    6.17    0.21
   2   2  -5    6.14    0.21
  -2  -2   5    6.16    0.22
  -2  -2   5    6.44    0.21
  -2  -2   5    6.32    0.22
  -2  -2   5    6.71    0.23
   1   2  -5    0.08    0.03
   1   2  -5    0.15    0.02
  -1  -2   5    0.12    0.02
  -1  -2   5    0.12    0.03
  -1  -2   5    0.10    0.03
  -1  -2   5    0.15    0.02
  -1  -2   5    0.07    0.02
   0   2  -5    0.21    0.03
   0  -2   5    0.12    0.02
  -1   2  -5   15.04    0.46
  -1   2  -5   15.11    0.45
  -1   2  -5   14.46    0.46
  -1   2  -5   15.92    0.46
   1  -2   5   15.25    0.47
   1  -2   5   15.40    0.46
   1  -2   5   14.61    0.45
   1  -2   5   14.85    0.46
   1  -2   5   15.08    0.46
  -2   2  -5    2.20    0.09
  -2   2  -5    2.03    0.10
  -2   2  -5    2.14    0.09
   2  -2   5    2.20    0.10
   2  -2   5    2.23    0.10
   2  -2   5    2.11    0.09
   2  -2   5    2.04    0.07
  -3   2  -5    0.04    0.04
  -3   2  -5    0.14    0.04
   3  -2   5    0.10    0.04
   3  -2   5    0.06    0.04
   3  -2   5    0.08    0.04
  -4   2  -5    2.45    0.13
  -4   2  -5    2.57    0.16
   4  -2   5    2.43    0.14
   4   1  -5    2.31    0.12
   4   1  -5    2.48    0.14
  -4  -1   5    2.44    0.15
  -4  -1   5    2.27    0.13
  -4  -1   5    2.35    0.14
   3   1  -5    0.01    0.03
   3   1  -5   -0.04    0.03
  -3  -1   5   -0.01    0.03
  -3  -1   5    0.02    0.04
  -3  -1   5    0.02    0.03
   2   1  -5    0.21    0.03
   2   1  -5    0.17    0.04
  -2  -1   5    0.28    0.04
  -2  -1   5    0.26    0.04
  -2  -1   5    0.19    0.04
  -2  -1   5    0.27    0.04
   1   1  -5    5.48    0.18
   1   1  -5    5.22    0.18
   1   1  -5    5.62    0.19
   1   1  -5    5.52    0.18
  -1  -1   5    5.58    0.19
  -1  -1   5    5.59    0.18
  -1  -1   5    5.30    0.18
  -1  -1   5    5.31    0.17
   0   1  -5    0.88    0.04
   0   1  -5    0.91    0.05
   0   1  -5    0.84    0.05
   0   1  -5    0.85    0.04
   0  -1   5    0.84    0.05
   0  -1   5    0.87    0.04
   0  -1   5    0.97    0.05
  -1   1  -5    0.30    0.03
  -1   1  -5    0.27    0.03
  -1   1  -5    0.27    0.03
  -1   1  -5    0.32    0.03
   1  -1   5    0.34    0.04
   1  -1   5    0.31    0.04
   1  -1   5    0.29    0.03
   1  -1   5    0.29    0.03
  -2   1  -5    0.00    0.02
  -2   1  -5    0.01    0.03
  -2   1  -5    0.00    0.02
   2  -1   5    0.02    0.03
   2  -1   5   -0.01    0.02
   2  -1   5    0.00    0.02
   2  -1   5    0.04    0.03
  -3   1  -5    0.11    0.04
  -3   1  -5    0.07    0.04
   3  -1   5    0.03    0.04
   3  -1   5    0.09    0.04
   3  -1   5    0.09    0.04
  -4   1  -5    0.32    0.06
  -4   1  -5    0.40    0.08
   4  -1   5    0.29    0.06
   4   0  -5   16.59    0.53
   4   0  -5   16.57    0.55
  -4   0   5   15.57    0.55
  -4   0   5   16.26    0.53
   3   0  -5    0.08    0.04
   3   0  -5    0.07    0.04
  -3   0   5    0.05    0.03
  -3   0   5    0.04    0.04
  -3   0   5    0.04    0.04
  -3   0   5    0.07    0.04
   2   0  -5    0.02    0.03
   2   0  -5    0.01    0.02
   2   0  -5   -0.01    0.02
  -2   0   5    0.02    0.03
  -2   0   5    0.01    0.02
  -2   0   5   -0.02    0.02
  -2   0   5   -0.03    0.02
   1   0  -5    5.64    0.18
   1   0  -5    5.73    0.18
   1   0  -5    5.70    0.19
   1   0  -5    5.05    0.18
  -1   0   5    5.25    0.17
  -1   0   5    5.50    0.19
  -1   0   5    5.49    0.19
  -1   0   5    5.59    0.18
   0   0  -5    3.31    0.12
   0   0  -5    3.22    0.11
   0   0  -5    3.28    0.12
   0   0  -5    3.09    0.11
   0   0   5    3.24    0.12
   0   0   5    3.40    0.11
   0   0   5    3.21    0.12
  -1   0  -5    0.41    0.04
  -1   0  -5    0.46    0.04
  -1   0  -5    0.40    0.04
   1   0   5    0.40    0.04
   1   0   5    0.43    0.04
   1   0   5    0.44    0.04
   1   0   5    0.43    0.04
  -2   0  -5   11.79    0.37
  -2   0  -5   11.56    0.37
  -2   0  -5   11.83    0.38
   2   0   5   11.64    0.38
   2   0   5   11.57    0.36
   2   0   5   11.60    0.37
   2   0   5   11.43    0.37
  -3   0  -5    3.56    0.17
  -3   0  -5    3.80    0.15
   3   0   5    3.60    0.14
   3   0   5    3.56    0.16
   3   0   5    3.58    0.16
   3   0   5    3.55    0.15
  -4   0  -5    0.12    0.05
  -4   0  -5    0.08    0.06
   4   0   5    0.09    0.05
   4   0   5    0.18    0.06
   4  -1  -5    5.20    0.23
   4  -1  -5    5.37    0.21
  -4   1   5    5.50    0.21
  -4   1   5    5.33    0.24
   3  -1  -5    4.88    0.19
   3  -1  -5    4.68    0.19
  -3   1   5    5.03    0.19
  -3   1   5    4.82    0.19
  -3   1   5    4.93    0.20
  -3   1   5    5.08    0.20
   2  -1  -5    5.38    0.19
   2  -1  -5    5.09    0.18
   2  -1  -5    5.45    0.19
  -2   1   5    5.20    0.19
  -2   1   5    5.26    0.19
  -2   1   5    5.21    0.19
  -2   1   5    5.55    0.19
   1  -1  -5  144.74    4.20
   1  -1  -5  148.98    4.20
   1  -1  -5  142.22    4.20
  -1   1   5  142.35    4.21
  -1   1   5  142.94    4.20
  -1   1   5  140.65    4.20
   0  -1  -5    9.95    0.31
   0  -1  -5   10.36    0.31
   0  -1  -5    9.51    0.30
   0  -1  -5    9.56    0.31
   0   1   5   10.07    0.31
   0   1   5   10.05    0.31
   0   1   5    9.68    0.31
   0   1   5   10.12    0.31
  -1  -1  -5    1.03    0.06
  -1  -1  -5    1.09    0.06
  -1  -1  -5    1.11    0.06
   1   1   5    1.10    0.06
   1   1   5    1.05    0.06
   1   1   5    1.16    0.06
   1   1   5    1.10    0.05
  -2  -1  -5   13.00    0.44
  -2  -1  -5   13.77    0.43
  -2  -1  -5   13.72    0.43
   2   1   5   13.41    0.43
   2   1   5   13.18    0.43
   2   1   5   14.06    0.43
   2   1   5   13.77    0.43
  -3  -1  -5    0.02    0.04
  -3  -1  -5    0.08    0.04
   3   1   5    0.04    0.03
   3   1   5    0.01    0.03
   3   1   5    0.02    0.03
  -4  -1  -5    6.07    0.25
  -4  -1  -5    6.67    0.28
   4   1   5    6.45    0.24
   4   1   5    6.37    0.26
   4  -2  -5    4.03    0.18
   4  -2  -5    3.97    0.19
  -4   2   5    4.33    0.20
   3  -2  -5    0.43    0.06
   3  -2  -5    0.53    0.06
  -3   2   5    0.50    0.06
  -3   2   5    0.39    0.05
  -3   2   5    0.52    0.07
  -3   2   5    0.47    0.07
   2  -2  -5   13.14    0.41
   2  -2  -5   13.05    0.42
   2  -2  -5   12.94    0.41
  -2   2   5   13.30    0.41
  -2   2   5   13.16    0.42
  -2   2   5   12.91    0.41
  -2   2   5   12.79    0.42
   1  -2  -5    0.95    0.05
   1  -2  -5    0.87    0.05
   1  -2  -5    0.87    0.06
  -1   2   5    0.99    0.06
  -1   2   5    0.87    0.05
  -1   2   5    0.87    0.05
  -1   2   5    0.89    0.06
   0  -2  -5   13.19    0.42
   0  -2  -5   13.80    0.42
   0  -2  -5   14.13    0.42
   0   2   5   13.91    0.43
   0   2   5   13.25    0.41
   0   2   5   13.67    0.43
   0   2   5   13.64    0.42
   0   2   5   14.57    0.42
  -1  -2  -5   22.54    0.68
  -1  -2  -5   21.37    0.68
  -1  -2  -5   22.82    0.67
   1   2   5   22.12    0.67
   1   2   5   22.34    0.68
   1   2   5   22.48    0.67
   1   2   5   22.16    0.67
  -2  -2  -5   11.23    0.35
  -2  -2  -5   10.85    0.35
  -2  -2  -5   10.73    0.36
   2   2   5   10.74    0.35
   2   2   5   10.78    0.35
   2   2   5   10.64    0.35
   2   2   5   10.85    0.35
  -3  -2  -5   -0.03    0.05
  -3  -2  -5    0.00    0.03
  -3  -2  -5    0.10    0.04
   3   2   5   -0.03    0.03
   3   2   5   -0.02    0.03
   3   2   5    0.05    0.04
  -4  -2  -5    0.09    0.06
   4   2   5    0.36    0.07
   4   2   5    0.23    0.05
   4  -3  -5    0.83    0.09
   4  -3  -5    0.91    0.10
  -4   3   5    0.81    0.10
  -4   3   5    0.98    0.09
   3  -3  -5    0.00    0.03
   3  -3  -5   -0.01    0.04
  -3   3   5   -0.01    0.03
  -3   3   5    0.00    0.04
  -3   3   5    0.04    0.04
   2  -3  -5    2.12    0.10
   2  -3  -5    2.25    0.11
   2  -3  -5    2.23    0.10
  -2   3   5    2.11    0.10
  -2   3   5    2.17    0.11
  -2   3   5    2.41    0.10
  -2   3   5    2.17    0.10
   1  -3  -5    3.30    0.13
   1  -3  -5    3.12    0.12
   1  -3  -5    3.19    0.11
  -1   3   5    3.21    0.12
  -1   3   5    3.13    0.12
  -1   3   5    3.21    0.12
  -1   3   5    3.23    0.12
   0  -3  -5    0.96    0.06
   0  -3  -5    0.92    0.05
   0  -3  -5    0.82    0.05
   0   3   5    0.82    0.05
   0   3   5    0.94    0.05
   0   3   5    0.85    0.06
   0   3   5    0.90    0.04
   0   3   5    0.86    0.05
  -1  -3  -5    1.85    0.09
  -1  -3  -5    2.04    0.09
  -1  -3  -5    2.02    0.09
   1   3   5    1.98    0.08
   1   3   5    1.86    0.09
   1   3   5    1.98    0.08
   1   3   5    2.03    0.09
  -2  -3  -5    1.57    0.09
  -2  -3  -5    1.58    0.09
  -2  -3  -5    1.43    0.09
   2   3   5    1.69    0.09
   2   3   5    1.63    0.08
   2   3   5    1.65    0.08
  -3  -3  -5    0.07    0.05
  -3  -3  -5    0.13    0.05
   3   3   5    0.01    0.03
   3   3   5    0.03    0.03
   3   3   5    0.00    0.03
  -4  -3  -5    3.32    0.19
   4   3   5    3.46    0.16
   4   3   5    3.16    0.16
   4  -4  -5    0.02    0.05
   4  -4  -5    0.02    0.05
  -4   4   5    0.03    0.05
  -4   4   5   -0.02    0.05
   3  -4  -5    4.79    0.19
   3  -4  -5    5.17    0.22
   3  -4  -5    5.07    0.19
  -3   4   5    5.15    0.19
  -3   4   5    4.89    0.21
  -3   4   5    4.46    0.19
   2  -4  -5    0.36    0.05
   2  -4  -5    0.35    0.05
   2  -4  -5    0.44    0.05
  -2   4   5    0.41    0.06
  -2   4   5    0.50    0.06
  -2   4   5    0.33    0.04
  -2   4   5    0.33    0.05
   1  -4  -5    1.65    0.06
   1  -4  -5    1.74    0.08
   1  -4  -5    1.51    0.08
  -1   4   5    1.66    0.08
  -1   4   5    1.70    0.08
  -1   4   5    1.72    0.08
  -1   4   5    1.70    0.08
   0  -4  -5    6.88    0.23
   0  -4  -5    6.79    0.22
   0  -4  -5    6.85    0.23
   0   4   5    6.61    0.23
   0   4   5    6.51    0.23
   0   4   5    6.58    0.22
   0   4   5    6.77    0.22
  -1  -4  -5    1.43    0.08
  -1  -4  -5    1.38    0.08
  -1  -4  -5    1.27    0.08
   1   4   5    1.44    0.08
   1   4   5    1.41    0.07
   1   4   5    1.37    0.07
   1   4   5    1.42    0.06
  -2  -4  -5    1.87    0.10
  -2  -4  -5    1.80    0.10
  -2  -4  -5    1.80    0.11
   2   4   5    1.93    0.09
   2   4   5    1.77    0.10
   2   4   5    1.87    0.09
  -3  -4  -5    0.41    0.07
  -3  -4  -5    0.31    0.07
   3   4   5    0.29    0.06
   3   4   5    0.34    0.06
   3   4   5    0.32    0.05
  -4  -4  -5    0.15    0.06
   4   4   5    0.30    0.07
   4   4   5    0.22    0.05
   4   4   5    0.27    0.09
   4  -5  -5    0.75    0.09
  -4   5   5    0.69    0.10
  -4   5   5    0.79    0.09
   3  -5  -5    0.01    0.03
   3  -5  -5   -0.01    0.04
  -3   5   5    0.01    0.03
  -3   5   5    0.04    0.04
   2  -5  -5    1.35    0.09
   2  -5  -5    1.42    0.08
   2  -5  -5    1.35    0.07
  -2   5   5    1.32    0.09
  -2   5   5    1.41    0.08
  -2   5   5    1.27    0.07
   1  -5  -5    0.00    0.02
   1  -5  -5    0.00    0.03
  -1   5   5    0.00    0.02
  -1   5   5    0.00    0.02
  -1   5   5    0.01    0.03
  -1   5   5   -0.03    0.03
   0  -5  -5    0.03    0.03
   0  -5  -5    0.09    0.03
   0  -5  -5    0.05    0.03
   0   5   5    0.11    0.03
   0   5   5    0.08    0.03
   0   5   5    0.07    0.02
   0   5   5    0.09    0.02
   0   5   5    0.08    0.03
  -1  -5  -5    2.49    0.12
  -1  -5  -5    2.52    0.11
  -1  -5  -5    2.43    0.11
   1   5   5    2.62    0.10
   1   5   5    2.58    0.09
   1   5   5    2.39    0.11
  -2  -5  -5    2.43    0.12
  -2  -5  -5    2.87    0.14
   2   5   5    2.76    0.13
   2   5   5    2.76    0.12
   2   5   5    2.64    0.11
  -3  -5  -5   -0.04    0.04
  -3  -5  -5   -0.01    0.05
   3   5   5   -0.01    0.04
   3   5   5   -0.05    0.03
   3   5   5    0.04    0.03
  -4  -5  -5    1.57    0.14
   4   5   5    1.63    0.10
   4   5   5    1.40    0.11
   4   5   5    1.62    0.12
  -4   6   5    0.16    0.07
   3  -6  -5    0.87    0.08
   3  -6  -5    0.74    0.09
  -3   6   5    0.79    0.10
  -3   6   5    0.69    0.07
   2  -6  -5    1.63    0.10
   2  -6  -5    1.83    0.08
  -2   6   5    1.70    0.11
  -2   6   5    1.74    0.09
  -2   6   5    1.78    0.09
   1  -6  -5    0.14    0.04
   1  -6  -5    0.14    0.03
  -1   6   5    0.11    0.03
  -1   6   5    0.08    0.03
  -1   6   5    0.23    0.05
   0  -6  -5    0.04    0.04
   0  -6  -5    0.02    0.03
   0  -6  -5    0.06    0.03
   0   6   5    0.02    0.02
   0   6   5    0.07    0.03
   0   6   5    0.06    0.03
  -1  -6  -5   -0.02    0.03
  -1  -6  -5    0.02    0.04
   1   6   5    0.01    0.02
   1   6   5    0.03    0.03
  -2  -6  -5    1.93    0.12
  -2  -6  -5    1.98    0.11
   2   6   5    1.91    0.09
   2   6   5    2.03    0.11
  -3  -6  -5    0.51    0.08
  -3  -6  -5    0.59    0.09
   3   6   5    0.56    0.06
   3   6   5    0.44    0.07
  -4   7   5    0.14    0.07
  -4   7   5    0.12    0.05
   3  -7  -5    0.02    0.05
  -3   7   5    0.06    0.05
  -3   7   5   -0.02    0.03
   2  -7  -5    6.00    0.23
  -2   7   5    5.76    0.24
  -2   7   5    6.19    0.22
  -2   7   5    5.81    0.21
   1  -7  -5    1.07    0.08
  -1   7   5    1.04    0.06
  -1   7   5    1.00    0.08
  -1   7   5    1.01    0.07
   0  -7  -5    0.00    0.04
   0  -7  -5    0.02    0.04
   0   7   5   -0.02    0.03
   0   7   5    0.02    0.03
   0   7   5    0.00    0.02
  -1  -7  -5    4.29    0.17
  -1  -7  -5    4.43    0.19
   1   7   5    4.46    0.16
   1   7   5    4.43    0.18
  -2  -7  -5    0.04    0.05
  -2  -7  -5   -0.01    0.04
   2   7   5   -0.01    0.02
   2   7   5    0.00    0.03
  -3  -7  -5    0.51    0.08
  -3  -7  -5    0.48    0.09
   3   7   5    0.69    0.06
   3   7   5    0.42    0.07
   3  -8  -5    2.92    0.16
  -3   8   5    2.78    0.13
  -3   8   5    2.75    0.17
   2  -8  -5    1.31    0.10
  -2   8   5    1.41    0.11
  -2   8   5    1.34    0.09
  -2   8   5    1.34    0.08
   1  -8  -5    2.91    0.14
  -1   8   5    2.92    0.13
  -1   8   5    2.83    0.11
  -1   8   5    2.58    0.14
   0  -8  -5    0.53    0.08
   0  -8  -5    0.48    0.06
   0   8   5    0.42    0.06
   0   8   5    0.53    0.04
   0   8   5    0.49    0.07
  -1  -8  -5    0.05    0.05
  -1  -8  -5    0.01    0.04
   1   8   5    0.07    0.04
   1   8   5    0.05    0.02
  -2  -8  -5    0.36    0.07
  -2  -8  -5    0.38    0.07
   2   8   5    0.34    0.06
   2   8   5    0.24    0.04
  -3  -8  -5    0.19    0.07
  -3  -8  -5    0.15    0.06
   3   8   5    0.16    0.04
   3   8   5    0.21    0.06
   3  -9  -5    0.66    0.09
  -3   9   5    0.54    0.06
  -3   9   5    0.92    0.12
   2  -9  -5    0.38    0.07
  -2   9   5    0.38    0.08
  -2   9   5    0.33    0.05
  -2   9   5    0.37    0.05
   1  -9  -5   -0.04    0.04
  -1   9   5    0.04    0.05
  -1   9   5   -0.01    0.03
   0  -9  -5    3.16    0.16
   0   9   5    2.86    0.14
   0   9   5    2.85    0.16
  -1  -9  -5    1.01    0.11
  -1  -9  -5    0.88    0.09
   1   9   5    1.01    0.09
  -2  -9  -5    4.90    0.23
  -2  -9  -5    4.52    0.20
   2   9   5    4.77    0.21
  -3  -9  -5    0.65    0.11
  -3  -9  -5    0.48    0.08
   3   9   5    0.45    0.08
   3 -10  -5    0.72    0.10
  -3  10   5    0.59    0.06
  -3  10   5    0.87    0.12
   2 -10  -5    6.06    0.24
  -2  10   5    5.98    0.26
  -1  10   5    7.31    0.27
  -1  10   5    6.55    0.28
   0 -10  -5    0.25    0.07
   0  10   5    0.12    0.05
   0  10   5    0.16    0.06
  -1 -10  -5    0.16    0.05
  -1 -10  -5    0.20    0.07
   1  10   5    0.18    0.05
  -2 -10  -5    0.35    0.07
  -2 -10  -5    0.40    0.08
   2  10   5    0.27    0.06
   2 -11  -5    0.22    0.07
  -2  11   5    0.12    0.06
   1 -11  -5    0.15    0.05
  -1  11   5    0.16    0.05
  -1  11   5    0.10    0.06
   0 -11  -5    0.12    0.06
   0  11   5    0.29    0.08
   0  11   5    0.21    0.06
  -1 -11  -5    0.39    0.09
  -1 -11  -5    0.45    0.07
   1  11   5    0.50    0.08
   1 -12  -5    0.82    0.10
  -1  12   5    1.28    0.14
  -1  12   5    1.04    0.10
   0 -12  -5    0.23    0.08
   0 -12  -5    0.18    0.06
   0  12   5    0.37    0.09
   0  12   5    0.26    0.06
  -1 -12  -5    0.13    0.07
  -1 -12  -5    0.13    0.06
   1  12   5    0.21    0.06
   1  12  -6    0.63    0.09
  -1 -12   6    0.65    0.10
  -1 -12   6    0.82    0.10
   0  12  -6    0.27    0.07
   0 -12   6    0.18    0.07
  -1  12  -6    0.31    0.07
  -2  12  -6    0.12    0.06
   2  11  -6    0.06    0.05
  -2 -11   6    0.07    0.05
  -2 -11   6   -0.03    0.05
   1  11  -6    0.10    0.05
  -1 -11   6    0.09    0.06
  -1 -11   6    0.20    0.05
   0  11  -6    8.36    0.30
   0  11  -6    8.37    0.32
   0 -11   6    8.15    0.30
   0 -11   6    8.24    0.30
   0 -11   6    8.26    0.32
  -1  11  -6    0.15    0.06
   1 -11   6    0.15    0.05
  -2  11  -6    0.38    0.08
   2 -11   6    0.36    0.07
   2  10  -6    0.75    0.09
   2  10  -6    0.60    0.09
  -2 -10   6    0.71    0.10
  -2 -10   6    0.61    0.09
   1  10  -6    0.29    0.06
   1  10  -6    0.28    0.06
  -1 -10   6    0.23    0.06
  -1 -10   6    0.22    0.06
   0  10  -6    0.77    0.08
   0  10  -6    0.83    0.09
   0  10  -6    0.64    0.07
   0 -10   6    0.72    0.09
   0 -10   6    0.83    0.08
   0 -10   6    0.72    0.08
  -1  10  -6    1.57    0.11
   1 -10   6    1.61    0.10
  -2  10  -6    0.35    0.08
   2 -10   6    0.43    0.07
  -3  10  -6    1.51    0.14
   3 -10   6    1.35    0.11
   3 -10   6    1.60    0.12
   3   9  -6    0.94    0.11
   3   9  -6    0.88    0.11
  -3  -9   6    0.99    0.11
  -3  -9   6    0.76    0.10
   2   9  -6    0.10    0.05
   2   9  -6    0.09    0.05
  -2  -9   6    0.07    0.05
  -2  -9   6    0.01    0.05
   1   9  -6    5.39    0.22
   1   9  -6    5.64    0.22
  -1  -9   6    5.59    0.23
  -1  -9   6    5.51    0.22
   0   9  -6    1.02    0.08
   0   9  -6    1.04    0.08
   0   9  -6    1.13    0.09
   0  -9   6    1.15    0.08
   0  -9   6    0.91    0.08
   0  -9   6    1.12    0.09
  -1   9  -6    0.85    0.08
   1  -9   6    0.96    0.08
  -2   9  -6    0.33    0.07
   2  -9   6    0.15    0.05
  -3   9  -6    3.68    0.19
   3  -9   6    3.27    0.16
   3  -9   6    3.25    0.17
   3   8  -6    0.14    0.06
   3   8  -6    0.27    0.07
  -3  -8   6    0.13    0.06
  -3  -8   6    0.18    0.07
   2   8  -6    0.11    0.05
   2   8  -6    0.44    0.07
  -2  -8   6    0.13    0.05
  -2  -8   6    0.14    0.05
   1   8  -6    1.49    0.09
   1   8  -6    1.46    0.10
  -1  -8   6    1.40    0.10
  -1  -8   6    1.61    0.10
   0   8  -6    0.03    0.03
   0   8  -6    0.06    0.04
   0   8  -6    0.11    0.04
   0  -8   6    0.01    0.04
   0  -8   6    0.05    0.04
   0  -8   6    0.03    0.03
  -1   8  -6    1.09    0.09
   1  -8   6    0.95    0.08
  -2   8  -6    4.74    0.20
   2  -8   6    4.64    0.19
  -3   8  -6    1.40    0.12
   3  -8   6    1.25    0.10
   3  -8   6    1.17    0.10
   3   7  -6    0.41    0.08
   3   7  -6    0.43    0.07
  -3  -7   6    0.58    0.08
  -3  -7   6    0.44    0.08
   2   7  -6    0.72    0.09
   2   7  -6    0.89    0.09
  -2  -7   6    0.78    0.08
  -2  -7   6    0.86    0.09
   1   7  -6    3.33    0.15
   1   7  -6    3.69    0.15
  -1  -7   6    3.56    0.15
  -1  -7   6    3.45    0.15
   0   7  -6    0.61    0.06
   0   7  -6    0.74    0.07
   0   7  -6    0.71    0.07
   0  -7   6    0.64    0.06
   0  -7   6    0.68    0.07
  -1   7  -6    0.90    0.08
   1  -7   6    0.57    0.04
   1  -7   6    0.57    0.06
  -2   7  -6    3.65    0.16
   2  -7   6    3.32    0.15
  -3   7  -6    0.54    0.08
   3  -7   6    0.67    0.08
   3  -7   6    0.64    0.08
  -4   7  -6    0.11    0.07
   4  -7   6    0.08    0.07
   4  -7   6    0.02    0.05
   4   6  -6    1.81    0.13
  -4  -6   6    1.81    0.15
  -4  -6   6    1.85    0.13
  -4  -6   6    1.53    0.12
   3   6  -6    0.05    0.04
   3   6  -6    0.04    0.05
  -3  -6   6    0.09    0.05
  -3  -6   6    0.06    0.05
   2   6  -6    0.64    0.07
   2   6  -6    0.82    0.09
  -2  -6   6    0.81    0.08
  -2  -6   6    0.57    0.07
   1   6  -6    0.13    0.04
   1   6  -6    0.12    0.04
  -1  -6   6    0.09    0.03
  -1  -6   6    0.15    0.04
   0   6  -6    0.00    0.02
   0   6  -6   -0.03    0.02
   0   6  -6   -0.02    0.02
   0  -6   6    0.00    0.03
   0  -6   6   -0.02    0.02
  -1   6  -6    1.98    0.10
   1  -6   6    1.95    0.10
   1  -6   6    1.84    0.08
  -2   6  -6    0.02    0.04
   2  -6   6    0.03    0.03
   2  -6   6    0.00    0.03
  -3   6  -6    2.90    0.16
   3  -6   6    2.95    0.14
   3  -6   6    2.87    0.15
  -4   6  -6   -0.03    0.05
  -4   6  -6    0.05    0.04
   4  -6   6   -0.06    0.04
   4  -6   6    0.04    0.06
   4   5  -6    0.83    0.11
  -4  -5   6    0.84    0.10
  -4  -5   6    0.78    0.10
  -4  -5   6    0.90    0.10
   3   5  -6    2.02    0.12
  -3  -5   6    2.14    0.13
  -3  -5   6    1.98    0.11
  -3  -5   6    2.22    0.13
   2   5  -6    0.13    0.04
   2   5  -6    0.03    0.03
  -2  -5   6    0.07    0.04
  -2  -5   6    0.05    0.03
   1   5  -6    2.58    0.12
   1   5  -6    2.72    0.12
  -1  -5   6    2.62    0.11
  -1  -5   6    2.63    0.12
   0   5  -6    4.22    0.17
   0   5  -6    4.58    0.16
   0  -5   6    4.48    0.16
  -1   5  -6    0.00    0.03
   1  -5   6    0.00    0.02
   1  -5   6    0.02    0.03
  -2   5  -6    1.27    0.09
   2  -5   6    1.34    0.08
   2  -5   6    1.24    0.08
  -3   5  -6    0.40    0.05
  -3   5  -6    0.49    0.08
   3  -5   6    0.37    0.06
   3  -5   6    0.31    0.06
  -4   5  -6    0.28    0.08
  -4   5  -6    0.35    0.06
   4  -5   6    0.40    0.08
   4  -5   6    0.50    0.09
   4   4  -6    0.97    0.07
   4   4  -6    1.11    0.12
  -4  -4   6    0.96    0.11
  -4  -4   6    0.99    0.11
  -4  -4   6    1.04    0.11
   3   4  -6    2.44    0.13
  -3  -4   6    2.64    0.13
  -3  -4   6    2.17    0.13
  -3  -4   6    2.48    0.13
   2   4  -6    0.70    0.07
  -2  -4   6    0.55    0.07
  -2  -4   6    0.76    0.07
  -2  -4   6    0.72    0.07
   1   4  -6    5.93    0.21
  -1  -4   6    5.76    0.20
  -1  -4   6    6.16    0.21
   0   4  -6    6.11    0.22
   0   4  -6    6.06    0.20
   0  -4   6    6.15    0.21
  -1   4  -6    0.09    0.03
   1  -4   6    0.11    0.02
   1  -4   6    0.11    0.03
  -2   4  -6    1.04    0.06
  -2   4  -6    0.92    0.07
   2  -4   6    0.99    0.07
   2  -4   6    1.08    0.07
  -3   4  -6    0.54    0.08
  -3   4  -6    0.39    0.05
   3  -4   6    0.53    0.07
   3  -4   6    0.42    0.07
  -4   4  -6   -0.02    0.04
  -4   4  -6   -0.03    0.06
   4  -4   6   -0.06    0.04
   4  -4   6   -0.01    0.05
   4   3  -6    1.85    0.13
   4   3  -6    1.73    0.10
  -4  -3   6    1.60    0.12
  -4  -3   6    1.52    0.12
  -4  -3   6    1.60    0.11
   3   3  -6    4.14    0.18
   3   3  -6    4.16    0.15
  -3  -3   6    4.11    0.17
  -3  -3   6    4.22    0.18
  -3  -3   6    3.87    0.17
   2   3  -6    0.20    0.04
  -2  -3   6    0.26    0.05
  -2  -3   6    0.20    0.04
  -2  -3   6    0.21    0.04
   1   3  -6    0.46    0.05
  -1  -3   6    0.37    0.04
  -1  -3   6    0.48    0.05
   0   3  -6    0.21    0.04
   0   3  -6    0.24    0.02
   0  -3   6    0.22    0.03
  -1   3  -6    8.06    0.27
   1  -3   6    8.22    0.27
   1  -3   6    7.86    0.26
   1  -3   6    8.24    0.26
   1  -3   6    8.55    0.26
   1  -3   6    8.49    0.27
  -2   3  -6    0.02    0.02
  -2   3  -6    0.00    0.03
   2  -3   6    0.00    0.02
   2  -3   6   -0.02    0.03
   2  -3   6   -0.02    0.03
  -3   3  -6    0.46    0.05
  -3   3  -6    0.69    0.08
   3  -3   6    0.49    0.07
   3  -3   6    0.44    0.07
  -4   3  -6   -0.01    0.05
  -4   3  -6   -0.02    0.04
   4  -3   6    0.02    0.05
   4   2  -6    0.42    0.06
   4   2  -6    0.39    0.08
  -4  -2   6    0.36    0.08
  -4  -2   6    0.35    0.07
  -4  -2   6    0.36    0.07
   3   2  -6   11.68    0.40
   3   2  -6   11.48    0.37
  -3  -2   6   11.84    0.39
  -3  -2   6   11.54    0.39
  -3  -2   6   11.19    0.39
   2   2  -6    0.67    0.05
   2   2  -6    0.78    0.07
  -2  -2   6    0.70    0.06
  -2  -2   6    0.75    0.06
  -2  -2   6    0.78    0.06
   1   2  -6    0.93    0.05
   1   2  -6    1.00    0.05
   1   2  -6    1.12    0.06
  -1  -2   6    0.85    0.04
  -1  -2   6    0.96    0.06
  -1  -2   6    1.00    0.05
  -1  -2   6    1.06    0.06
   0   2  -6   11.32    0.36
   0  -2   6   11.31    0.35
   0  -2   6   11.23    0.34
   0  -2   6   11.34    0.35
  -1   2  -6    0.83    0.04
  -1   2  -6    0.80    0.04
  -1   2  -6    0.75    0.05
   1  -2   6    0.82    0.05
   1  -2   6    0.77    0.05
   1  -2   6    0.85    0.05
   1  -2   6    0.85    0.04
   1  -2   6    0.84    0.05
  -2   2  -6    1.94    0.09
  -2   2  -6    2.07    0.10
   2  -2   6    2.05    0.10
   2  -2   6    1.84    0.10
   2  -2   6    1.96    0.09
   2  -2   6    2.00    0.07
  -3   2  -6    1.74    0.11
  -3   2  -6    1.74    0.09
   3  -2   6    1.65    0.11
   3  -2   6    1.79    0.10
  -4   2  -6    0.30    0.08
  -4   2  -6    0.28    0.06
   4  -2   6    0.41    0.07
   4   1  -6    6.47    0.27
   4   1  -6    6.77    0.25
  -4  -1   6    6.86    0.27
  -4  -1   6    6.61    0.26
  -4  -1   6    6.30    0.27
   3   1  -6   14.15    0.47
   3   1  -6   14.05    0.45
  -3  -1   6   13.93    0.46
  -3  -1   6   14.12    0.46
  -3  -1   6   13.64    0.46
   2   1  -6    1.20    0.08
   2   1  -6    1.30    0.07
  -2  -1   6    1.11    0.07
  -2  -1   6    1.13    0.07
  -2  -1   6    1.05    0.07
  -2  -1   6    1.39    0.08
   1   1  -6    3.11    0.11
   1   1  -6    3.24    0.11
   1   1  -6    3.01    0.11
   1   1  -6    3.13    0.12
  -1  -1   6    3.00    0.10
  -1  -1   6    3.08    0.11
  -1  -1   6    2.77    0.11
  -1  -1   6    3.06    0.12
  -1  -1   6    3.08    0.12
   0   1  -6   97.12    2.88
   0   1  -6   97.33    2.87
   0   1  -6  101.98    2.87
   0   1  -6   94.37    2.87
   0  -1   6   96.06    2.87
   0  -1   6   97.76    2.87
   0  -1   6  101.07    2.88
  -1   1  -6    5.97    0.20
  -1   1  -6    6.33    0.20
  -1   1  -6    6.28    0.20
  -1   1  -6    5.97    0.20
   1  -1   6    5.99    0.20
   1  -1   6    6.25    0.21
   1  -1   6    6.25    0.20
   1  -1   6    6.26    0.21
  -2   1  -6    0.17    0.04
  -2   1  -6    0.23    0.04
  -2   1  -6    0.24    0.04
   2  -1   6    0.23    0.03
   2  -1   6    0.31    0.04
   2  -1   6    0.27    0.04
   2  -1   6    0.27    0.05
  -3   1  -6    1.76    0.10
  -3   1  -6    1.65    0.11
   3  -1   6    1.73    0.10
   3  -1   6    1.70    0.09
   3  -1   6    1.57    0.10
  -4   1  -6    0.12    0.06
  -4   1  -6    0.12    0.05
   4  -1   6    0.10    0.05
   4   0  -6    2.52    0.15
   4   0  -6    2.41    0.13
  -4   0   6    2.36    0.13
  -4   0   6    2.55    0.15
   3   0  -6   15.46    0.50
   3   0  -6   15.96    0.52
  -3   0   6   15.71    0.52
  -3   0   6   15.76    0.51
  -3   0   6   16.31    0.52
   2   0  -6    0.74    0.06
   2   0  -6    0.92    0.06
  -2   0   6    0.85    0.06
  -2   0   6    0.84    0.06
  -2   0   6    0.82    0.06
  -2   0   6    0.84    0.06
   1   0  -6    8.40    0.26
   1   0  -6    8.47    0.27
   1   0  -6    8.39    0.27
  -1   0   6    8.13    0.25
  -1   0   6    8.28    0.27
  -1   0   6    8.20    0.26
  -1   0   6    8.14    0.27
   0   0  -6    6.51    0.21
   0   0  -6    6.26    0.21
   0   0  -6    6.52    0.21
   0   0  -6    6.10    0.21
   0   0   6    6.54    0.21
   0   0   6    6.25    0.21
   0   0   6    6.65    0.21
   0   0   6    6.52    0.21
  -1   0  -6    3.39    0.13
  -1   0  -6    3.25    0.12
  -1   0  -6    3.56    0.13
   1   0   6    3.27    0.12
   1   0   6    3.28    0.12
   1   0   6    3.31    0.13
   1   0   6    3.55    0.13
  -2   0  -6   11.98    0.38
  -2   0  -6   11.84    0.38
   2   0   6   11.97    0.37
   2   0   6   11.92    0.39
   2   0   6   11.89    0.38
   2   0   6   11.65    0.38
  -3   0  -6    6.61    0.26
  -3   0  -6    6.62    0.24
   3   0   6    6.29    0.24
   3   0   6    6.43    0.24
   3   0   6    6.91    0.25
  -4   0  -6    0.66    0.09
  -4   0  -6    0.46    0.09
   4   0   6    0.62    0.08
   4   0   6    0.61    0.07
   4  -1  -6   15.29    0.52
   4  -1  -6   15.67    0.51
  -4   1   6   15.44    0.51
  -4   1   6   15.25    0.53
   3  -1  -6    0.00    0.03
   3  -1  -6    0.00    0.03
  -3   1   6   -0.01    0.04
  -3   1   6    0.03    0.04
  -3   1   6    0.01    0.03
  -3   1   6    0.05    0.04
   2  -1  -6    3.75    0.14
   2  -1  -6    3.70    0.14
   2  -1  -6    3.56    0.14
  -2   1   6    3.75    0.14
  -2   1   6    3.49    0.14
  -2   1   6    3.47    0.14
  -2   1   6    3.48    0.14
   1  -1  -6    6.55    0.22
   1  -1  -6    6.84    0.22
   1  -1  -6    6.45    0.22
  -1   1   6    6.41    0.21
  -1   1   6    6.70    0.22
  -1   1   6    6.75    0.22
  -1   1   6    6.79    0.22
   0  -1  -6   28.93    0.86
   0  -1  -6   28.32    0.86
   0  -1  -6   28.99    0.86
   0  -1  -6   27.64    0.85
   0   1   6   29.08    0.85
   0   1   6   29.31    0.86
   0   1   6   29.07    0.86
   0   1   6   27.92    0.86
  -1  -1  -6    0.73    0.05
  -1  -1  -6    0.80    0.05
  -1  -1  -6    0.70    0.05
   1   1   6    0.67    0.05
   1   1   6    0.71    0.05
   1   1   6    0.71    0.05
   1   1   6    0.63    0.05
  -2  -1  -6    3.88    0.15
  -2  -1  -6    3.90    0.16
  -2  -1  -6    4.05    0.15
   2   1   6    3.92    0.16
   2   1   6    4.14    0.15
   2   1   6    3.79    0.15
   2   1   6    4.01    0.15
  -3  -1  -6    4.51    0.18
  -3  -1  -6    4.50    0.20
   3   1   6    4.18    0.16
   3   1   6    4.40    0.17
   3   1   6    4.24    0.18
  -4  -1  -6    0.02    0.06
  -4  -1  -6    0.02    0.05
   4   1   6    0.10    0.05
   4   1   6    0.07    0.05
   4  -2  -6    0.16    0.05
   4  -2  -6    0.14    0.06
  -4   2   6    0.04    0.06
   3  -2  -6    0.07    0.04
   3  -2  -6    0.04    0.04
  -3   2   6    0.04    0.04
  -3   2   6    0.06    0.04
  -3   2   6    0.04    0.04
  -3   2   6    0.02    0.04
   2  -2  -6    4.99    0.18
   2  -2  -6    4.95    0.19
   2  -2  -6    5.07    0.19
  -2   2   6    5.09    0.19
  -2   2   6    5.44    0.19
  -2   2   6    5.25    0.19
  -2   2   6    4.96    0.19
   1  -2  -6   10.63    0.33
   1  -2  -6   10.47    0.33
   1  -2  -6    9.84    0.32
  -1   2   6   10.05    0.32
  -1   2   6    9.95    0.32
  -1   2   6   10.21    0.33
  -1   2   6   10.28    0.33
   0  -2  -6    1.45    0.07
   0  -2  -6    1.56    0.08
   0  -2  -6    1.44    0.07
   0  -2  -6    1.55    0.07
   0   2   6    1.46    0.07
   0   2   6    1.59    0.07
   0   2   6    1.50    0.06
   0   2   6    1.49    0.07
   0   2   6    1.48    0.07
  -1  -2  -6    1.79    0.08
  -1  -2  -6    1.68    0.09
  -1  -2  -6    1.90    0.09
   1   2   6    1.87    0.08
   1   2   6    1.85    0.08
   1   2   6    1.80    0.09
   1   2   6    1.80    0.08
  -2  -2  -6    0.46    0.06
  -2  -2  -6    0.51    0.06
  -2  -2  -6    0.44    0.05
   2   2   6    0.44    0.05
   2   2   6    0.48    0.05
   2   2   6    0.48    0.06
   2   2   6    0.61    0.06
  -3  -2  -6    1.04    0.08
  -3  -2  -6    1.25    0.10
   3   2   6    1.04    0.08
   3   2   6    1.16    0.08
   3   2   6    1.15    0.08
  -4  -2  -6    0.02    0.06
   4   2   6    0.06    0.05
   4   2   6    0.04    0.04
   4  -3  -6    0.03    0.05
   4  -3  -6    0.02    0.05
  -4   3   6    0.04    0.06
  -4   3   6   -0.02    0.05
   3  -3  -6    4.81    0.19
   3  -3  -6    5.04    0.19
  -3   3   6    5.00    0.20
  -3   3   6    5.04    0.19
  -3   3   6    4.88    0.19
   2  -3  -6    0.59    0.06
   2  -3  -6    0.67    0.07
   2  -3  -6    0.68    0.06
  -2   3   6    0.63    0.06
  -2   3   6    0.74    0.07
  -2   3   6    0.61    0.06
   1  -3  -6    2.89    0.11
   1  -3  -6    2.71    0.11
   1  -3  -6    2.69    0.10
  -1   3   6    2.64    0.11
  -1   3   6    2.66    0.11
  -1   3   6    2.52    0.11
  -1   3   6    2.60    0.11
   0  -3  -6    0.09    0.03
   0  -3  -6    0.10    0.03
   0   3   6    0.04    0.02
   0   3   6    0.07    0.02
   0   3   6    0.07    0.03
   0   3   6    0.12    0.03
   0   3   6    0.05    0.02
  -1  -3  -6   -0.02    0.02
  -1  -3  -6    0.01    0.03
  -1  -3  -6   -0.01    0.02
   1   3   6   -0.02    0.02
   1   3   6    0.00    0.02
   1   3   6    0.02    0.02
   1   3   6   -0.02    0.03
  -2  -3  -6    1.73    0.10
  -2  -3  -6    1.94    0.10
  -2  -3  -6    1.93    0.11
   2   3   6    2.13    0.10
   2   3   6    1.74    0.09
   2   3   6    1.65    0.09
  -3  -3  -6    1.93    0.13
  -3  -3  -6    1.85    0.12
  -3  -3  -6    1.79    0.11
   3   3   6    1.90    0.10
   3   3   6    1.96    0.11
   3   3   6    1.91    0.10
  -4  -3  -6    0.02    0.05
   4   3   6   -0.04    0.04
   4   3   6   -0.03    0.04
   4  -4  -6    0.32    0.06
   4  -4  -6    0.26    0.06
  -4   4   6    0.25    0.06
  -4   4   6    0.20    0.07
   3  -4  -6    0.08    0.04
   3  -4  -6    0.06    0.04
  -3   4   6    0.02    0.03
  -3   4   6    0.05    0.04
  -3   4   6    0.04    0.04
   2  -4  -6    3.95    0.16
   2  -4  -6    3.88    0.16
   2  -4  -6    3.91    0.15
  -2   4   6    3.83    0.16
  -2   4   6    3.81    0.15
  -2   4   6    3.95    0.15
   1  -4  -6    0.70    0.04
   1  -4  -6    0.72    0.06
   1  -4  -6    0.78    0.07
  -1   4   6    0.74    0.06
  -1   4   6    0.68    0.05
  -1   4   6    0.69    0.06
  -1   4   6    0.75    0.05
   0  -4  -6    0.45    0.05
   0  -4  -6    0.49    0.05
   0   4   6    0.49    0.05
   0   4   6    0.47    0.05
   0   4   6    0.50    0.04
   0   4   6    0.41    0.05
  -1  -4  -6    0.67    0.06
  -1  -4  -6    0.82    0.07
  -1  -4  -6    0.75    0.07
   1   4   6    0.75    0.06
   1   4   6    0.79    0.06
   1   4   6    0.69    0.05
   1   4   6    0.65    0.04
  -2  -4  -6    0.02    0.04
  -2  -4  -6    0.05    0.04
  -2  -4  -6    0.07    0.04
   2   4   6    0.07    0.03
   2   4   6    0.05    0.03
   2   4   6    0.09    0.03
  -3  -4  -6    0.19    0.06
  -3  -4  -6    0.30    0.06
   3   4   6    0.21    0.05
   3   4   6    0.26    0.05
   3   4   6    0.25    0.05
  -4  -4  -6    0.30    0.08
   4   4   6    0.33    0.06
   4   4   6    0.55    0.08
   4  -5  -6    0.44    0.07
  -4   5   6    0.42    0.07
  -4   5   6    0.46    0.09
   3  -5  -6    0.07    0.04
   3  -5  -6    0.03    0.05
  -3   5   6    0.05    0.04
  -3   5   6    0.01    0.04
  -3   5   6    0.05    0.04
   2  -5  -6    0.13    0.03
   2  -5  -6    0.11    0.04
   2  -5  -6    0.11    0.04
  -2   5   6    0.17    0.05
  -2   5   6    0.09    0.04
  -2   5   6    0.16    0.04
   1  -5  -6    9.40    0.32
   1  -5  -6    9.45    0.31
  -1   5   6    9.43    0.32
  -1   5   6    9.62    0.32
  -1   5   6    9.92    0.31
   0  -5  -6    0.18    0.04
   0  -5  -6    0.13    0.04
   0  -5  -6    0.17    0.04
   0   5   6    0.17    0.04
   0   5   6    0.13    0.03
   0   5   6    0.23    0.04
  -1  -5  -6    0.03    0.03
  -1  -5  -6    0.08    0.04
  -1  -5  -6    0.03    0.03
   1   5   6    0.08    0.02
   1   5   6    0.04    0.02
   1   5   6    0.05    0.03
  -2  -5  -6    1.07    0.09
  -2  -5  -6    0.91    0.09
   2   5   6    0.86    0.06
   2   5   6    0.89    0.06
   2   5   6    0.96    0.08
  -3  -5  -6    0.12    0.05
  -3  -5  -6    0.08    0.06
   3   5   6    0.07    0.04
   3   5   6    0.10    0.04
   3   5   6    0.11    0.04
  -4  -5  -6    0.17    0.09
   4   5   6    0.12    0.05
   4   5   6    0.11    0.06
   4   5   6    0.17    0.06
  -4   6   6    0.41    0.08
  -4   6   6    0.60    0.08
   3  -6  -6    0.01    0.05
  -3   6   6   -0.02    0.04
  -3   6   6    0.06    0.05
  -3   6   6    0.06    0.05
   2  -6  -6    2.14    0.12
  -2   6   6    2.24    0.12
  -2   6   6    2.20    0.10
  -2   6   6    2.07    0.11
   1  -6  -6    1.75    0.09
   1  -6  -6    1.73    0.10
  -1   6   6    1.89    0.10
  -1   6   6    1.84    0.10
  -1   6   6    1.89    0.09
   0  -6  -6    6.91    0.25
   0  -6  -6    7.05    0.26
   0  -6  -6    7.51    0.27
   0   6   6    7.52    0.24
   0   6   6    7.62    0.26
   0   6   6    7.12    0.26
  -1  -6  -6    1.48    0.09
  -1  -6  -6    1.47    0.10
   1   6   6    1.60    0.09
   1   6   6    1.66    0.08
  -2  -6  -6    0.07    0.05
  -2  -6  -6    0.05    0.04
   2   6   6    0.05    0.04
   2   6   6    0.07    0.03
  -3  -6  -6    0.07    0.05
  -3  -6  -6    0.07    0.06
   3   6   6    0.07    0.04
   3   6   6    0.08    0.04
  -4   7   6    0.72    0.09
  -4   7   6    0.63    0.10
   3  -7  -6    9.53    0.34
  -3   7   6    9.64    0.36
  -3   7   6    9.06    0.32
   2  -7  -6    0.93    0.09
  -2   7   6    1.05    0.10
  -2   7   6    0.83    0.07
  -2   7   6    0.81    0.07
   1  -7  -6    0.14    0.05
  -1   7   6    0.19    0.05
  -1   7   6    0.16    0.04
  -1   7   6    0.15    0.03
   0  -7  -6   -0.04    0.04
   0   7   6    0.01    0.02
   0   7   6   -0.02    0.03
   0   7   6    0.01    0.04
  -1  -7  -6    3.23    0.14
  -1  -7  -6    3.22    0.16
   1   7   6    2.99    0.12
   1   7   6    3.35    0.15
  -2  -7  -6    2.35    0.14
  -2  -7  -6    2.20    0.13
   2   7   6    2.31    0.11
   2   7   6    2.65    0.13
  -3  -7  -6    3.17    0.18
  -3  -7  -6    3.01    0.16
   3   7   6    2.71    0.13
   3   7   6    3.16    0.16
   3  -8  -6    1.61    0.13
  -3   8   6    1.54    0.10
  -3   8   6    1.88    0.14
   2  -8  -6    0.07    0.05
  -2   8   6    0.13    0.04
  -2   8   6    0.10    0.05
  -2   8   6    0.07    0.04
   1  -8  -6    8.74    0.31
  -1   8   6    9.31    0.31
  -1   8   6    8.74    0.29
  -1   8   6    8.61    0.33
   0  -8  -6    3.74    0.18
   0   8   6    3.67    0.14
   0   8   6    3.95    0.17
   0   8   6    3.85    0.18
  -1  -8  -6    0.68    0.08
  -1  -8  -6    0.62    0.09
   1   8   6    0.61    0.08
   1   8   6    0.58    0.05
  -2  -8  -6    0.18    0.07
  -2  -8  -6    0.22    0.06
   2   8   6    0.22    0.04
   2   8   6    0.26    0.06
  -3  -8  -6    0.33    0.09
  -3  -8  -6    0.26    0.07
   3   8   6    0.25    0.07
   3   8   6    0.28    0.05
   3  -9  -6   14.22    0.51
  -3   9   6   14.51    0.48
  -3   9   6   15.71    0.53
   2  -9  -6    1.84    0.12
  -2   9   6    1.71    0.09
  -2   9   6    1.93    0.14
  -2   9   6    1.74    0.11
   1  -9  -6    0.01    0.04
  -1   9   6    0.02    0.04
  -1   9   6    0.04    0.03
  -1   9   6    0.05    0.05
   0  -9  -6    0.91    0.10
   0   9   6    0.97    0.09
   0   9   6    0.73    0.05
   0   9   6    1.10    0.11
  -1  -9  -6    0.06    0.05
  -1  -9  -6    0.07    0.06
   1   9   6    0.02    0.04
  -2  -9  -6    0.14    0.07
  -2  -9  -6    0.10    0.05
   2   9   6    0.22    0.06
   3 -10  -6    0.31    0.08
  -3  10   6    0.18    0.08
  -3  10   6    0.15    0.04
   2 -10  -6    0.22    0.07
  -2  10   6    0.33    0.07
  -2  10   6    0.34    0.05
   1 -10  -6    0.35    0.07
  -1  10   6    0.48    0.07
  -1  10   6    0.58    0.09
   0 -10  -6    3.16    0.18
   0  10   6    3.10    0.16
   0  10   6    3.15    0.17
  -1 -10  -6    0.58    0.10
  -1 -10  -6    0.72    0.08
   1  10   6    0.60    0.09
  -2 -10  -6    0.19    0.06
  -2 -10  -6    0.18    0.07
   2  10   6    0.06    0.05
   2 -11  -6    0.03    0.06
  -2  11   6    0.03    0.06
   1 -11  -6    0.31    0.07
  -1  11   6    0.22    0.06
  -1  11   6    0.32    0.08
   0 -11  -6    0.31    0.07
   0 -11  -6    0.28    0.08
   0  11   6    0.25    0.08
   0  11   6    0.26    0.06
  -1 -11  -6    0.37    0.07
  -1 -11  -6    0.38    0.09
   1  11   6    0.54    0.08
   1 -12  -6    0.66    0.09
   1 -12  -6    0.89    0.13
  -1  12   6    1.02    0.13
  -1  12   6    0.98    0.10
   0 -12  -6    0.78    0.09
   0 -12  -6    1.03    0.14
   0  12   6    0.98    0.11
   0  12   6    1.13    0.13
   1  12  -7    0.33    0.07
  -1 -12   7    0.23    0.06
   0 -12   7    0.37    0.08
  -1  12  -7    0.32    0.07
   1  11  -7    0.08    0.05
   1  11  -7    0.00    0.05
  -1 -11   7    0.05    0.05
   0  11  -7    3.87    0.18
   0  11  -7    3.63    0.18
   0 -11   7    3.94    0.17
   0 -11   7    3.67    0.19
   0 -11   7    3.65    0.17
  -1  11  -7    2.81    0.15
   1 -11   7    2.34    0.14
  -2  11  -7    0.14    0.07
   2 -11   7    0.20    0.06
   2  10  -7    1.43    0.13
   2  10  -7    1.09    0.11
  -2 -10   7    1.12    0.12
   1  10  -7    0.64    0.08
   1  10  -7    0.76    0.09
  -1 -10   7    0.57    0.08
  -1 -10   7    0.55    0.08
   0  10  -7    0.04    0.05
   0  10  -7    0.02    0.04
   0  10  -7    0.06    0.04
   0 -10   7    0.06    0.04
   0 -10   7    0.08    0.05
   0 -10   7    0.06    0.04
  -1  10  -7    0.03    0.04
   1 -10   7    0.04    0.04
  -2  10  -7    0.12    0.06
   2 -10   7    0.16    0.05
  -3  10  -7    1.54    0.14
   3 -10   7    1.68    0.13
   3 -10   7    1.55    0.11
  -3  -9   7    0.29    0.07
   2   9  -7    0.28    0.07
   2   9  -7    0.41    0.07
  -2  -9   7    0.33    0.07
   1   9  -7    0.57    0.08
   1   9  -7    0.41    0.07
  -1  -9   7    0.41    0.07
  -1  -9   7    0.37    0.06
   0   9  -7    5.07    0.21
   0   9  -7    5.45    0.20
   0   9  -7    5.46    0.21
   0  -9   7    5.21    0.21
   0  -9   7    5.38    0.22
   0  -9   7    5.19    0.21
  -1   9  -7    0.16    0.05
   1  -9   7    0.13    0.05
  -2   9  -7    0.16    0.06
   2  -9   7    0.19    0.06
  -3   9  -7    1.02    0.12
   3  -9   7    1.14    0.11
   3  -9   7    1.20    0.10
   3   8  -7    0.52    0.09
   3   8  -7    0.45    0.08
  -3  -8   7    0.47    0.08
   2   8  -7    0.15    0.05
   2   8  -7    0.08    0.05
  -2  -8   7    0.16    0.05
  -2  -8   7    0.19    0.06
   1   8  -7    0.47    0.07
   1   8  -7    0.54    0.07
  -1  -8   7    0.43    0.06
  -1  -8   7    0.51    0.07
   0   8  -7    0.04    0.03
   0   8  -7    0.02    0.04
   0   8  -7    0.06    0.04
   0  -8   7    0.02    0.04
   0  -8   7    0.05    0.04
   0  -8   7    0.02    0.03
  -1   8  -7    0.05    0.04
   1  -8   7    0.09    0.04
  -2   8  -7    0.10    0.05
   2  -8   7    0.10    0.05
  -3   8  -7    0.12    0.06
   3  -8   7    0.14    0.06
   3  -8   7    0.08    0.05
   3   7  -7    3.02    0.16
  -3  -7   7    2.95    0.14
  -3  -7   7    3.11    0.16
   2   7  -7    3.02    0.15
   2   7  -7    2.84    0.15
  -2  -7   7    3.00    0.14
  -2  -7   7    3.34    0.16
   1   7  -7    0.04    0.04
   1   7  -7    0.02    0.03
  -1  -7   7    0.02    0.04
  -1  -7   7    0.02    0.03
   0   7  -7    1.20    0.09
   0   7  -7    1.18    0.08
   0  -7   7    1.14    0.07
   0  -7   7    1.20    0.08
   0  -7   7    1.21    0.08
  -1   7  -7    0.52    0.06
   1  -7   7    0.55    0.05
   1  -7   7    0.44    0.06
  -2   7  -7    0.07    0.04
   2  -7   7    0.06    0.04
  -3   7  -7    0.05    0.05
   3  -7   7    0.01    0.05
   3  -7   7    0.07    0.05
  -4   7  -7    0.46    0.09
   4  -7   7    0.49    0.08
   4  -7   7    0.36    0.08
   3   6  -7    2.03    0.13
  -3  -6   7    2.21    0.15
  -3  -6   7    2.06    0.12
  -3  -6   7    2.08    0.13
   2   6  -7    3.04    0.15
  -2  -6   7    2.77    0.13
  -2  -6   7    2.97    0.15
   1   6  -7    0.13    0.04
  -1  -6   7    0.14    0.04
  -1  -6   7    0.10    0.03
   0   6  -7    1.47    0.08
   0   6  -7    1.43    0.09
   0  -6   7    1.27    0.07
   0  -6   7    1.48    0.09
  -1   6  -7    3.28    0.14
   1  -6   7    3.46    0.12
   1  -6   7    3.47    0.15
  -2   6  -7    0.35    0.06
   2  -6   7    0.23    0.05
   2  -6   7    0.30    0.05
  -3   6  -7    0.00    0.05
   3  -6   7   -0.04    0.04
   3  -6   7   -0.04    0.04
  -4   6  -7    0.07    0.07
  -4   6  -7    0.01    0.04
   4  -6   7    0.06    0.06
   4  -6   7    0.07    0.06
   4   5  -7    0.10    0.05
  -4  -5   7   -0.03    0.04
  -4  -5   7    0.05    0.05
   3   5  -7    1.33    0.10
  -3  -5   7    1.13    0.09
  -3  -5   7    1.18    0.09
  -3  -5   7    1.21    0.10
   2   5  -7    2.70    0.13
  -2  -5   7    2.63    0.13
  -2  -5   7    2.54    0.12
   1   5  -7    0.89    0.07
  -1  -5   7    0.83    0.06
  -1  -5   7    0.78    0.06
   0   5  -7    0.09    0.03
   0   5  -7    0.13    0.03
   0  -5   7    0.15    0.04
   0  -5   7    0.12    0.03
  -1   5  -7    0.04    0.03
   1  -5   7    0.03    0.02
   1  -5   7    0.04    0.03
  -2   5  -7    3.16    0.14
   2  -5   7    3.21    0.14
   2  -5   7    3.11    0.14
  -3   5  -7    0.01    0.05
  -3   5  -7    0.06    0.03
   3  -5   7    0.09    0.05
   3  -5   7    0.05    0.04
  -4   5  -7    0.36    0.08
  -4   5  -7    0.39    0.06
   4  -5   7    0.29    0.07
   4  -5   7    0.46    0.09
   4   4  -7    0.23    0.07
  -4  -4   7    0.20    0.07
  -4  -4   7    0.14    0.05
   3   4  -7    0.06    0.04
  -3  -4   7    0.04    0.04
  -3  -4   7    0.03    0.04
  -3  -4   7   -0.01    0.04
   2   4  -7    4.28    0.18
  -2  -4   7    4.36    0.16
  -2  -4   7    3.90    0.16
  -2  -4   7    4.14    0.17
   1   4  -7    0.67    0.07
  -1  -4   7    0.60    0.04
  -1  -4   7    0.66    0.06
   0   4  -7    2.40    0.11
   0   4  -7    2.43    0.09
   0  -4   7    2.43    0.10
  -1   4  -7    2.43    0.10
   1  -4   7    2.41    0.11
   1  -4   7    2.58    0.09
  -2   4  -7    0.35    0.05
  -2   4  -7    0.28    0.04
   2  -4   7    0.31    0.05
   2  -4   7    0.31    0.05
  -3   4  -7    0.81    0.09
  -3   4  -7    0.83    0.07
   3  -4   7    1.02    0.09
   3  -4   7    1.04    0.10
  -4   4  -7    0.34    0.09
  -4   4  -7    0.31    0.06
   4  -4   7    0.23    0.06
   4  -4   7    0.42    0.08
   4   3  -7    0.82    0.10
   4   3  -7    0.88    0.08
  -4  -3   7    0.99    0.10
  -4  -3   7    1.17    0.12
   3   3  -7    6.37    0.25
   3   3  -7    6.36    0.22
  -3  -3   7    6.38    0.24
  -3  -3   7    6.60    0.24
  -3  -3   7    6.40    0.25
   2   3  -7   21.66    0.67
  -2  -3   7   20.48    0.65
  -2  -3   7   21.30    0.65
  -2  -3   7   20.97    0.67
   1   3  -7    0.09    0.03
  -1  -3   7    0.12    0.02
  -1  -3   7    0.08    0.03
   0   3  -7    0.74    0.06
   0  -3   7    0.77    0.05
  -1   3  -7   17.45    0.54
   1  -3   7   18.08    0.56
   1  -3   7   17.81    0.54
   1  -3   7   17.98    0.54
   1  -3   7   17.89    0.55
  -2   3  -7    0.79    0.07
  -2   3  -7    0.84    0.06
   2  -3   7    0.73    0.07
   2  -3   7    0.94    0.07
  -3   3  -7    0.05    0.03
  -3   3  -7    0.03    0.05
   3  -3   7    0.05    0.04
   3  -3   7    0.05    0.04
  -4   3  -7    0.23    0.07
  -4   3  -7    0.34    0.06
   4  -3   7    0.24    0.06
   4   2  -7    1.48    0.10
   4   2  -7    1.56    0.12
  -4  -2   7    1.58    0.12
  -4  -2   7    1.46    0.11
  -4  -2   7    1.51    0.12
   3   2  -7    4.30    0.19
   3   2  -7    4.08    0.16
  -3  -2   7    4.35    0.18
  -3  -2   7    4.08    0.18
  -3  -2   7    4.10    0.18
   2   2  -7   29.58    0.89
   2   2  -7   28.56    0.92
  -2  -2   7   29.53    0.91
  -2  -2   7   31.05    0.90
  -2  -2   7   30.34    0.92
   1   2  -7    0.98    0.05
   1   2  -7    1.03    0.07
   1   2  -7    1.08    0.05
  -1  -2   7    0.96    0.06
  -1  -2   7    0.97    0.06
  -1  -2   7    0.90    0.06
  -1  -2   7    1.11    0.07
   0   2  -7    1.41    0.06
   0   2  -7    1.24    0.06
   0   2  -7    1.26    0.07
   0  -2   7    1.39    0.06
   0  -2   7    1.58    0.07
   0  -2   7    1.44    0.07
  -1   2  -7    7.70    0.24
  -1   2  -7    7.32    0.24
  -1   2  -7    7.50    0.24
  -1   2  -7    7.77    0.27
   1  -2   7    7.64    0.24
   1  -2   7    7.80    0.24
   1  -2   7    7.51    0.25
   1  -2   7    7.53    0.26
   1  -2   7    7.74    0.25
  -2   2  -7    0.10    0.03
  -2   2  -7    0.20    0.04
   2  -2   7    0.21    0.04
   2  -2   7    0.11    0.04
   2  -2   7    0.17    0.02
   2  -2   7    0.19    0.04
  -3   2  -7    3.53    0.15
  -3   2  -7    3.57    0.17
   3  -2   7    3.50    0.16
   3  -2   7    3.66    0.17
  -4   2  -7    2.94    0.15
  -4   2  -7    3.06    0.17
   4  -2   7    2.96    0.16
   4   1  -7    0.54    0.07
   4   1  -7    0.39    0.07
  -4  -1   7    0.64    0.08
  -4  -1   7    0.54    0.08
  -4  -1   7    0.58    0.09
   3   1  -7   36.40    1.09
   3   1  -7   36.73    1.12
  -3  -1   7   36.31    1.11
  -3  -1   7   36.92    1.11
  -3  -1   7   34.29    1.10
   2   1  -7    6.44    0.23
   2   1  -7    6.31    0.22
  -2  -1   7    6.25    0.23
  -2  -1   7    6.38    0.22
  -2  -1   7    6.47    0.23
   1   1  -7   13.50    0.44
   1   1  -7   13.46    0.43
   1   1  -7   14.20    0.43
   1   1  -7   14.57    0.43
  -1  -1   7   14.22    0.44
  -1  -1   7   14.38    0.43
  -1  -1   7   13.92    0.44
   0   1  -7    7.06    0.24
   0   1  -7    7.85    0.25
   0   1  -7    7.73    0.26
   0   1  -7    7.68    0.24
   0  -1   7    7.53    0.24
   0  -1   7    8.12    0.25
   0  -1   7    7.77    0.25
   0  -1   7    7.61    0.25
  -1   1  -7   28.53    0.83
  -1   1  -7   27.09    0.83
  -1   1  -7   28.27    0.83
  -1   1  -7   26.53    0.83
   1  -1   7   27.51    0.84
   1  -1   7   28.08    0.83
   1  -1   7   27.69    0.84
   1  -1   7   28.07    0.83
  -2   1  -7    0.50    0.06
  -2   1  -7    0.58    0.05
   2  -1   7    0.55    0.06
   2  -1   7    0.51    0.04
   2  -1   7    0.54    0.06
   2  -1   7    0.58    0.05
  -3   1  -7    2.75    0.13
  -3   1  -7    2.74    0.15
   3  -1   7    2.89    0.14
   3  -1   7    3.03    0.15
  -4   1  -7    3.49    0.19
  -4   1  -7    3.25    0.16
   4  -1   7    3.25    0.17
   4   0  -7    0.03    0.05
   4   0  -7   -0.03    0.04
  -4   0   7    0.05    0.04
  -4   0   7   -0.04    0.05
   3   0  -7    0.19    0.04
   3   0  -7    0.14    0.05
  -3   0   7    0.08    0.04
  -3   0   7    0.14    0.05
  -3   0   7    0.18    0.06
   2   0  -7    0.45    0.05
   2   0  -7    0.54    0.06
  -2   0   7    0.53    0.05
  -2   0   7    0.68    0.07
  -2   0   7    0.68    0.06
  -2   0   7    0.68    0.06
   1   0  -7    0.75    0.05
   1   0  -7    0.80    0.06
   1   0  -7    0.73    0.05
   1   0  -7    0.58    0.05
  -1   0   7    0.73    0.05
  -1   0   7    0.79    0.05
  -1   0   7    0.89    0.06
   0   0  -7   34.22    0.98
   0   0  -7   32.45    0.99
   0   0  -7   33.80    0.98
   0   0   7   32.02    0.98
   0   0   7   32.10    0.98
   0   0   7   32.46    0.99
   0   0   7   33.33    0.99
  -1   0  -7   -0.02    0.02
  -1   0  -7    0.01    0.02
  -1   0  -7   -0.01    0.02
   1   0   7    0.04    0.02
   1   0   7    0.01    0.02
   1   0   7    0.00    0.02
   1   0   7    0.03    0.03
  -2   0  -7    0.08    0.03
  -2   0  -7    0.08    0.03
   2   0   7    0.07    0.03
   2   0   7    0.16    0.03
   2   0   7    0.12    0.04
   2   0   7    0.11    0.03
  -3   0  -7    0.36    0.06
  -3   0  -7    0.25    0.06
   3   0   7    0.25    0.05
   3   0   7    0.41    0.06
  -4   0  -7    0.70    0.09
  -4   0  -7    0.52    0.09
   4   0   7    0.57    0.08
   4  -1  -7    3.04    0.16
   4  -1  -7    2.90    0.15
  -4   1   7    2.80    0.14
  -4   1   7    2.66    0.16
   3  -1  -7    1.04    0.09
   3  -1  -7    1.01    0.08
  -3   1   7    1.12    0.08
  -3   1   7    1.05    0.09
  -3   1   7    1.04    0.09
   2  -1  -7   18.17    0.55
   2  -1  -7   17.43    0.56
  -2   1   7   17.56    0.55
  -2   1   7   17.44    0.56
  -2   1   7   17.49    0.56
  -2   1   7   18.21    0.55
   1  -1  -7    0.96    0.07
   1  -1  -7    1.06    0.06
   1  -1  -7    1.06    0.06
  -1   1   7    1.02    0.07
  -1   1   7    1.06    0.06
  -1   1   7    0.97    0.05
  -1   1   7    0.99    0.06
   0  -1  -7    1.11    0.06
   0  -1  -7    1.07    0.05
   0  -1  -7    1.01    0.06
   0  -1  -7    1.18    0.07
   0   1   7    1.16    0.06
   0   1   7    1.05    0.06
   0   1   7    1.17    0.06
   0   1   7    1.02    0.06
  -1  -1  -7    0.59    0.05
  -1  -1  -7    0.62    0.06
  -1  -1  -7    0.68    0.06
   1   1   7    0.55    0.06
   1   1   7    0.60    0.05
   1   1   7    0.54    0.05
   1   1   7    0.57    0.05
  -2  -1  -7    0.03    0.03
  -2  -1  -7    0.06    0.03
  -2  -1  -7    0.03    0.03
   2   1   7    0.03    0.03
   2   1   7    0.02    0.02
   2   1   7    0.06    0.03
   2   1   7    0.04    0.03
  -3  -1  -7    0.88    0.08
  -3  -1  -7    0.68    0.08
   3   1   7    0.83    0.08
   3   1   7    0.73    0.07
   3   1   7    0.85    0.08
  -4  -1  -7    0.41    0.07
  -4  -1  -7    0.30    0.08
   4   1   7    0.46    0.08
   4   1   7    0.37    0.06
   4  -2  -7   -0.02    0.04
   4  -2  -7    0.09    0.05
  -4   2   7   -0.01    0.05
  -4   2   7    0.03    0.04
   3  -2  -7    2.32    0.13
   3  -2  -7    2.53    0.12
  -3   2   7    2.62    0.13
  -3   2   7    2.61    0.14
  -3   2   7    2.52    0.13
  -3   2   7    2.35    0.12
   2  -2  -7    1.54    0.08
   2  -2  -7    1.53    0.08
   2  -2  -7    1.60    0.10
  -2   2   7    1.46    0.09
  -2   2   7    1.41    0.08
  -2   2   7    1.55    0.08
  -2   2   7    1.58    0.09
   1  -2  -7   18.70    0.59
   1  -2  -7   19.80    0.60
   1  -2  -7   19.68    0.60
  -1   2   7   19.32    0.60
  -1   2   7   19.63    0.60
  -1   2   7   19.55    0.59
  -1   2   7   18.95    0.59
   0  -2  -7    0.16    0.03
   0  -2  -7    0.18    0.04
   0  -2  -7    0.14    0.03
   0  -2  -7    0.16    0.03
   0   2   7    0.16    0.03
   0   2   7    0.17    0.03
   0   2   7    0.17    0.03
   0   2   7    0.18    0.04
  -1  -2  -7    1.19    0.07
  -1  -2  -7    1.20    0.07
  -1  -2  -7    1.17    0.07
   1   2   7    1.30    0.08
   1   2   7    1.18    0.06
   1   2   7    1.21    0.06
   1   2   7    1.17    0.07
  -2  -2  -7    2.07    0.11
  -2  -2  -7    2.00    0.11
  -2  -2  -7    1.84    0.10
   2   2   7    1.85    0.09
   2   2   7    2.02    0.10
   2   2   7    2.11    0.09
   2   2   7    1.88    0.09
  -3  -2  -7    0.00    0.04
  -3  -2  -7    0.03    0.04
   3   2   7    0.03    0.04
   3   2   7    0.04    0.03
   3   2   7    0.01    0.04
  -4  -2  -7    0.03    0.05
   4   2   7    0.01    0.04
   4   2   7    0.09    0.05
   4  -3  -7    0.09    0.05
   4  -3  -7    0.12    0.05
  -4   3   7    0.11    0.06
   3  -3  -7    0.41    0.06
   3  -3  -7    0.53    0.07
  -3   3   7    0.49    0.07
  -3   3   7    0.57    0.07
  -3   3   7    0.59    0.07
   2  -3  -7    0.09    0.03
   2  -3  -7    0.19    0.05
   2  -3  -7    0.12    0.04
  -2   3   7    0.06    0.03
  -2   3   7    0.11    0.03
  -2   3   7    0.10    0.04
  -2   3   7    0.10    0.04
   1  -3  -7    0.80    0.06
   1  -3  -7    0.77    0.05
   1  -3  -7    0.75    0.06
  -1   3   7    0.81    0.06
  -1   3   7    0.78    0.06
  -1   3   7    0.78    0.06
  -1   3   7    0.76    0.06
   0  -3  -7    3.92    0.15
   0  -3  -7    3.75    0.14
   0  -3  -7    3.71    0.14
   0   3   7    3.67    0.14
   0   3   7    3.83    0.15
   0   3   7    3.76    0.13
   0   3   7    3.81    0.15
   0   3   7    3.74    0.14
  -1  -3  -7    0.04    0.03
  -1  -3  -7    0.08    0.03
  -1  -3  -7    0.03    0.03
   1   3   7    0.08    0.04
   1   3   7    0.04    0.03
   1   3   7    0.03    0.02
   1   3   7    0.05    0.02
  -2  -3  -7   -0.04    0.03
  -2  -3  -7    0.07    0.04
  -2  -3  -7    0.01    0.04
   2   3   7    0.04    0.03
   2   3   7    0.00    0.03
   2   3   7   -0.02    0.03
  -3  -3  -7    0.04    0.05
  -3  -3  -7    0.03    0.04
   3   3   7   -0.04    0.03
   3   3   7    0.02    0.03
   3   3   7    0.01    0.03
  -4  -3  -7    0.23    0.08
   4   3   7    0.16    0.05
   4   3   7    0.23    0.06
   4  -4  -7    0.58    0.08
   4  -4  -7    0.78    0.09
  -4   4   7    0.78    0.09
  -4   4   7    0.81    0.10
   3  -4  -7    1.61    0.10
   3  -4  -7    1.64    0.11
  -3   4   7    1.66    0.10
  -3   4   7    1.72    0.11
   2  -4  -7    0.48    0.06
   2  -4  -7    0.44    0.06
   2  -4  -7    0.48    0.05
  -2   4   7    0.52    0.06
  -2   4   7    0.43    0.05
  -2   4   7    0.51    0.06
   1  -4  -7    0.10    0.04
   1  -4  -7    0.13    0.03
   1  -4  -7    0.14    0.03
  -1   4   7    0.12    0.03
  -1   4   7    0.07    0.03
  -1   4   7    0.07    0.04
  -1   4   7    0.09    0.03
   0  -4  -7    1.78    0.09
   0  -4  -7    1.82    0.09
   0   4   7    1.68    0.09
   0   4   7    1.91    0.09
   0   4   7    1.71    0.08
   0   4   7    1.77    0.09
  -1  -4  -7    5.10    0.19
  -1  -4  -7    4.82    0.18
  -1  -4  -7    4.70    0.19
   1   4   7    5.00    0.19
   1   4   7    5.07    0.18
   1   4   7    4.96    0.17
  -2  -4  -7    1.47    0.10
  -2  -4  -7    1.46    0.11
  -2  -4  -7    1.40    0.09
   2   4   7    1.54    0.08
   2   4   7    1.75    0.09
   2   4   7    1.66    0.09
  -3  -4  -7    0.31    0.07
   3   4   7    0.18    0.05
   3   4   7    0.14    0.04
   3   4   7    0.20    0.05
  -4  -4  -7    0.27    0.08
   4   4   7    0.25    0.07
   4   4   7    0.31    0.06
  -4   5   7    0.76    0.10
   3  -5  -7    0.06    0.05
   3  -5  -7    0.03    0.04
  -3   5   7    0.11    0.04
  -3   5   7    0.07    0.04
  -3   5   7    0.07    0.05
   2  -5  -7    4.14    0.16
   2  -5  -7    3.93    0.15
   2  -5  -7    3.66    0.17
  -2   5   7    4.03    0.16
  -2   5   7    3.92    0.17
  -2   5   7    4.06    0.16
   1  -5  -7    0.13    0.04
   1  -5  -7    0.28    0.05
  -1   5   7    0.28    0.04
  -1   5   7    0.25    0.05
  -1   5   7    0.18    0.04
   0  -5  -7    6.84    0.24
   0  -5  -7    6.75    0.24
   0   5   7    6.90    0.23
   0   5   7    6.85    0.24
   0   5   7    6.67    0.24
  -1  -5  -7   -0.01    0.03
  -1  -5  -7    0.01    0.03
  -1  -5  -7    0.00    0.03
   1   5   7   -0.02    0.03
   1   5   7    0.01    0.03
  -2  -5  -7    0.97    0.09
  -2  -5  -7    1.01    0.09
   2   5   7    0.97    0.08
   2   5   7    0.87    0.07
  -3  -5  -7    2.26    0.14
  -3  -5  -7    2.20    0.14
   3   5   7    1.88    0.12
   3   5   7    2.03    0.11
  -4   6   7    0.13    0.06
  -4   6   7    0.13    0.06
  -3   6   7    0.08    0.04
  -3   6   7    0.05    0.04
  -3   6   7    0.17    0.06
   2  -6  -7    1.96    0.12
  -2   6   7    2.01    0.10
  -2   6   7    1.99    0.12
  -2   6   7    2.04    0.11
   1  -6  -7    0.76    0.08
   1  -6  -7    0.82    0.09
  -1   6   7    0.86    0.07
  -1   6   7    0.86    0.07
  -1   6   7    0.94    0.06
   0  -6  -7    7.16    0.27
   0   6   7    7.17    0.24
   0   6   7    7.27    0.26
   0   6   7    7.25    0.26
  -1  -6  -7    0.05    0.04
  -1  -6  -7    0.12    0.05
   1   6   7    0.10    0.04
   1   6   7    0.08    0.03
  -2  -6  -7    0.93    0.09
  -2  -6  -7    1.11    0.11
   2   6   7    1.02    0.08
   2   6   7    1.03    0.07
  -3  -6  -7   -0.07    0.05
  -3  -6  -7    0.03    0.05
   3   6   7    0.03    0.04
   3   6   7   -0.02    0.03
  -3   7   7   12.20    0.42
  -3   7   7   11.02    0.39
   2  -7  -7   31.60    0.99
  -2   7   7   32.60    1.01
  -2   7   7   31.62    0.98
  -2   7   7   32.87    0.99
   1  -7  -7    0.77    0.08
  -1   7   7    0.88    0.08
  -1   7   7    0.72    0.08
  -1   7   7    0.87    0.07
   0  -7  -7    0.14    0.05
   0   7   7    0.13    0.04
   0   7   7    0.07    0.03
   0   7   7    0.12    0.05
  -1  -7  -7    1.13    0.09
  -1  -7  -7    1.07    0.09
   1   7   7    1.14    0.07
   1   7   7    1.06    0.09
  -2  -7  -7    0.08    0.05
  -2  -7  -7    0.13    0.06
   2   7   7    0.11    0.05
   2   7   7    0.12    0.04
  -3  -7  -7    0.00    0.05
  -3  -7  -7   -0.02    0.05
   3   7   7   -0.02    0.03
   3   7   7    0.05    0.05
  -3   8   7    3.79    0.17
  -3   8   7    4.24    0.21
   2  -8  -7    5.30    0.23
  -2   8   7    5.74    0.22
  -2   8   7    5.57    0.21
  -2   8   7    5.72    0.24
   1  -8  -7    1.25    0.10
  -1   8   7    1.11    0.10
  -1   8   7    1.45    0.09
  -1   8   7    1.29    0.08
   0  -8  -7    2.50    0.14
   0   8   7    2.46    0.11
   0   8   7    2.43    0.13
   0   8   7    2.59    0.14
  -1  -8  -7    5.93    0.25
  -1  -8  -7    5.64    0.23
   1   8   7    5.80    0.23
   1   8   7    5.73    0.20
  -2  -8  -7    0.41    0.07
  -2  -8  -7    0.35    0.08
   2   8   7    0.38    0.07
   2   8   7    0.43    0.05
  -3  -8  -7    0.03    0.06
  -3  -8  -7    0.07    0.06
   3   8   7    0.03    0.03
   3   8   7   -0.01    0.05
  -3   9   7    0.87    0.12
  -3   9   7    0.83    0.08
   2  -9  -7    2.18    0.14
  -2   9   7    2.36    0.11
  -2   9   7    2.42    0.15
  -2   9   7    2.45    0.13
   1  -9  -7    1.85    0.12
  -1   9   7    2.09    0.12
  -1   9   7    1.85    0.09
  -1   9   7    2.04    0.13
   0  -9  -7    0.01    0.04
   0   9   7    0.03    0.04
   0   9   7   -0.03    0.04
   0   9   7    0.02    0.03
  -1  -9  -7   -0.02    0.05
  -1  -9  -7    0.01    0.05
   1   9   7   -0.01    0.02
   1   9   7   -0.05    0.03
  -2  -9  -7    0.33    0.08
  -2  -9  -7    0.07    0.05
   2   9   7    0.14    0.04
   2   9   7    0.15    0.06
   2 -10  -7    1.14    0.11
  -2  10   7    1.63    0.11
  -2  10   7    1.35    0.08
  -2  10   7    1.16    0.12
   1 -10  -7    0.07    0.06
  -1  10   7    0.08    0.03
  -1  10   7    0.10    0.05
  -1  10   7    0.05    0.06
   0 -10  -7    0.94    0.11
   0 -10  -7    0.68    0.09
   0  10   7    0.85    0.09
   0  10   7    0.95    0.11
  -1 -10  -7    0.96    0.10
  -1 -10  -7    0.95    0.11
   1  10   7    0.92    0.10
  -2 -10  -7    0.06    0.06
  -2 -10  -7    0.06    0.06
   2  10   7   -0.05    0.04
   2 -11  -7    0.02    0.06
  -2  11   7    0.08    0.07
   1 -11  -7    0.23    0.08
   1 -11  -7    0.22    0.07
  -1  11   7    0.36    0.08
  -1  11   7    0.37    0.07
   0 -11  -7    0.02    0.05
   0 -11  -7    0.01    0.06
   0  11   7    0.06    0.05
   0  11   7    0.02    0.06
  -1 -11  -7    0.47    0.09
  -1 -11  -7    0.48    0.08
   1  11   7    0.36    0.07
   1  11  -8    0.46    0.08
   1  11  -8    0.25    0.06
  -1 -11   8    0.51    0.08
  -1 -11   8    0.39    0.07
   0  11  -8    0.13    0.05
   0 -11   8    0.06    0.05
   1 -11   8    3.29    0.16
   2 -11   8    0.03    0.05
   2  10  -8    0.08    0.06
   2  10  -8    0.13    0.06
  -2 -10   8    0.09    0.05
   1  10  -8    0.10    0.05
   1  10  -8    0.08    0.05
  -1 -10   8    0.03    0.04
   0  10  -8    0.04    0.05
   0 -10   8    0.00    0.03
   0 -10   8    0.02    0.04
   1 -10   8   -0.04    0.04
  -2  10  -8   -0.05    0.05
   2 -10   8   -0.03    0.05
   2   9  -8    2.71    0.15
   2   9  -8    2.62    0.15
  -2  -9   8    2.78    0.16
   1   9  -8    2.03    0.12
   1   9  -8    1.86    0.12
  -1  -9   8    2.27    0.13
   0   9  -8    0.14    0.05
   0  -9   8    0.11    0.04
   0  -9   8    0.11    0.06
   0  -9   8    0.15    0.05
  -1   9  -8    0.00    0.03
   1  -9   8   -0.07    0.04
  -2   9  -8   -0.04    0.04
   2  -9   8    0.07    0.05
  -3   9  -8    0.05    0.06
   3  -9   8   -0.03    0.05
   3  -9   8   -0.06    0.05
   3   8  -8    0.08    0.05
  -3  -8   8    0.02    0.04
   2   8  -8    2.24    0.13
  -2  -8   8    2.26    0.13
   1   8  -8    1.67    0.11
  -1  -8   8    1.63    0.10
   0   8  -8    0.06    0.04
   0  -8   8    0.05    0.03
   0  -8   8    0.10    0.04
   0  -8   8    0.03    0.04
  -1   8  -8    0.14    0.04
   1  -8   8    0.08    0.04
  -2   8  -8    0.55    0.08
   2  -8   8    0.49    0.07
  -3   8  -8    0.27    0.07
   3  -8   8    0.26    0.06
   3  -8   8    0.27    0.06
   3   7  -8   -0.02    0.05
  -3  -7   8   -0.05    0.04
   2   7  -8   -0.01    0.04
  -2  -7   8    0.02    0.04
   1   7  -8    0.36    0.06
  -1  -7   8    0.37    0.06
   0   7  -8    0.53    0.07
   0   7  -8    0.66    0.07
   0  -7   8    0.47    0.06
   0  -7   8    0.46    0.05
   0  -7   8    0.63    0.06
  -1   7  -8    1.04    0.08
   1  -7   8    0.95    0.09
  -2   7  -8    0.16    0.05
   2  -7   8    0.11    0.05
  -3   7  -8    0.30    0.07
   3  -7   8    0.29    0.06
   3  -7   8    0.23    0.06
   3   6  -8    0.06    0.05
  -3  -6   8    0.06    0.04
  -3  -6   8    0.02    0.04
   2   6  -8    0.67    0.08
  -2  -6   8    0.50    0.07
   1   6  -8    1.30    0.09
  -1  -6   8    1.30    0.09
  -1  -6   8    1.29    0.08
   0   6  -8    0.05    0.03
   0   6  -8    0.05    0.04
   0  -6   8    0.03    0.03
   0  -6   8    0.05    0.03
   0  -6   8    0.02    0.03
  -1   6  -8    0.75    0.06
   1  -6   8    0.67    0.05
   1  -6   8    0.59    0.07
  -2   6  -8    0.06    0.04
   2  -6   8    0.03    0.04
   2  -6   8    0.12    0.05
  -3   6  -8    0.09    0.05
   3  -6   8    0.06    0.05
   3  -6   8    0.00    0.04
  -4   6  -8    0.20    0.08
  -4   6  -8    0.09    0.04
   4  -6   8    0.13    0.06
   4  -6   8    0.22    0.08
   3   5  -8    1.10    0.11
  -3  -5   8    1.32    0.10
  -3  -5   8    1.55    0.10
   2   5  -8    5.99    0.24
  -2  -5   8    6.27    0.24
   1   5  -8   19.96    0.63
  -1  -5   8   19.37    0.61
  -1  -5   8   20.38    0.63
   0   5  -8    0.61    0.07
   0   5  -8    0.58    0.04
   0  -5   8    0.58    0.06
   0  -5   8    0.59    0.06
   0  -5   8    0.51    0.05
  -1   5  -8    0.23    0.04
   1  -5   8    0.25    0.05
   1  -5   8    0.29    0.04
  -2   5  -8    2.43    0.12
   2  -5   8    2.35    0.12
   2  -5   8    2.46    0.12
  -3   5  -8   -0.01    0.04
  -3   5  -8    0.01    0.03
   3  -5   8    0.07    0.05
   3  -5   8   -0.01    0.04
  -4   5  -8    0.06    0.04
  -4   5  -8    0.00    0.05
   4  -5   8    0.08    0.05
   4  -5   8   -0.03    0.06
   4   4  -8    0.83    0.11
  -4  -4   8    0.96    0.11
  -4  -4   8    0.87    0.10
   3   4  -8    0.88    0.10
  -3  -4   8    0.75    0.08
  -3  -4   8    0.86    0.09
   2   4  -8    3.32    0.15
  -2  -4   8    3.09    0.14
  -2  -4   8    3.29    0.15
   1   4  -8   18.11    0.57
  -1  -4   8   17.48    0.55
  -1  -4   8   18.81    0.58
   0   4  -8    0.84    0.07
   0  -4   8    0.86    0.06
   0  -4   8    0.90    0.07
  -1   4  -8    0.23    0.03
   1  -4   8    0.24    0.03
   1  -4   8    0.25    0.04
   1  -4   8    0.24    0.04
  -2   4  -8    5.58    0.20
  -2   4  -8    6.32    0.23
   2  -4   8    6.15    0.23
   2  -4   8    6.10    0.22
  -3   4  -8    0.03    0.03
  -3   4  -8    0.03    0.05
   3  -4   8    0.01    0.04
   3  -4   8    0.05    0.05
  -4   4  -8    0.31    0.06
  -4   4  -8    0.31    0.08
   4  -4   8    0.32    0.08
   4  -4   8    0.41    0.08
   4   3  -8    0.30    0.05
   4   3  -8    0.28    0.07
  -4  -3   8    0.35    0.07
  -4  -3   8    0.23    0.06
   3   3  -8    1.05    0.10
   3   3  -8    0.97    0.07
  -3  -3   8    0.88    0.09
  -3  -3   8    0.95    0.09
   2   3  -8   45.19    1.38
  -2  -3   8   46.70    1.36
  -2  -3   8   45.64    1.38
  -2  -3   8   44.43    1.37
   1   3  -8   21.53    0.69
  -1  -3   8   22.20    0.67
  -1  -3   8   22.60    0.69
   0   3  -8    7.41    0.27
   0  -3   8    7.71    0.26
   0  -3   8    7.80    0.26
  -1   3  -8    2.46    0.10
   1  -3   8    2.51    0.11
   1  -3   8    2.60    0.10
   1  -3   8    2.43    0.11
  -2   3  -8    9.94    0.33
  -2   3  -8   10.63    0.34
   2  -3   8   10.20    0.34
   2  -3   8   10.04    0.35
  -3   3  -8    0.69    0.09
  -3   3  -8    0.76    0.07
   3  -3   8    0.69    0.08
   3  -3   8    0.77    0.09
  -4   3  -8    1.09    0.10
  -4   3  -8    1.07    0.12
   4  -3   8    1.14    0.12
   4   2  -8    0.27    0.07
   4   2  -8    0.27    0.05
  -4  -2   8    0.28    0.07
  -4  -2   8    0.25    0.06
   3   2  -8    0.35    0.06
   3   2  -8    0.30    0.05
  -3  -2   8    0.22    0.05
  -3  -2   8    0.32    0.06
   2   2  -8    1.64    0.10
   2   2  -8    1.51    0.07
  -2  -2   8    1.49    0.09
  -2  -2   8    1.28    0.08
  -2  -2   8    1.42    0.09
   1   2  -8    4.32    0.14
   1   2  -8    4.35    0.16
   1   2  -8    3.99    0.14
  -1  -2   8    4.03    0.16
  -1  -2   8    4.26    0.15
   0   2  -8    0.62    0.04
   0   2  -8    0.73    0.04
   0   2  -8    0.75    0.06
   0  -2   8    0.77    0.05
   0  -2   8    0.75    0.05
   0  -2   8    0.80    0.05
   0  -2   8    0.76    0.06
  -1   2  -8   20.77    0.66
  -1   2  -8   22.82    0.66
  -1   2  -8   21.59    0.66
   1  -2   8   21.33    0.66
   1  -2   8   22.00    0.67
   1  -2   8   22.17    0.66
   1  -2   8   21.82    0.67
  -2   2  -8    0.73    0.06
  -2   2  -8    0.61    0.07
   2  -2   8    0.56    0.04
   2  -2   8    0.65    0.07
   2  -2   8    0.67    0.07
  -3   2  -8   -0.02    0.03
  -3   2  -8   -0.03    0.04
   3  -2   8   -0.07    0.04
   3  -2   8    0.00    0.04
  -4   2  -8    0.53    0.09
  -4   2  -8    0.44    0.07
   4  -2   8    0.40    0.08
   4   1  -8    0.15    0.06
   4   1  -8    0.30    0.05
  -4  -1   8    0.13    0.06
  -4  -1   8    0.21    0.06
   3   1  -8    2.16    0.13
   3   1  -8    2.51    0.11
  -3  -1   8    2.65    0.13
  -3  -1   8    2.26    0.13
  -3  -1   8    2.13    0.13
   2   1  -8    8.09    0.29
   2   1  -8    8.07    0.27
  -2  -1   8    8.61    0.29
  -2  -1   8    8.11    0.27
  -2  -1   8    8.21    0.28
   1   1  -8   20.21    0.65
   1   1  -8   21.40    0.64
  -1  -1   8   21.34    0.65
  -1  -1   8   21.11    0.64
  -1  -1   8   20.57    0.64
   0   1  -8    0.00    0.02
   0   1  -8    0.01    0.02
   0   1  -8    0.04    0.02
   0   1  -8    0.00    0.03
   0  -1   8    0.02    0.02
   0  -1   8    0.02    0.02
   0  -1   8    0.02    0.02
   0  -1   8   -0.01    0.02
  -1   1  -8    0.02    0.02
  -1   1  -8    0.02    0.02
   1  -1   8    0.02    0.02
   1  -1   8    0.03    0.03
   1  -1   8    0.02    0.02
   1  -1   8   -0.01    0.02
  -2   1  -8    0.02    0.03
  -2   1  -8    0.00    0.03
   2  -1   8    0.00    0.03
   2  -1   8    0.01    0.02
   2  -1   8    0.01    0.03
   2  -1   8    0.06    0.04
  -3   1  -8   -0.01    0.03
  -3   1  -8   -0.06    0.04
   3  -1   8   -0.02    0.04
   3  -1   8    0.03    0.04
  -4   1  -8    0.57    0.10
  -4   1  -8    0.63    0.08
   4  -1   8    0.49    0.08
   4   0  -8   -0.05    0.05
   4   0  -8   -0.01    0.04
  -4   0   8   -0.03    0.04
   3   0  -8    0.02    0.04
   3   0  -8    0.06    0.04
  -3   0   8    0.06    0.04
  -3   0   8    0.05    0.05
  -3   0   8    0.05    0.05
   2   0  -8    2.97    0.13
   2   0  -8    2.90    0.12
  -2   0   8    2.75    0.12
  -2   0   8    2.75    0.13
  -2   0   8    3.07    0.14
  -2   0   8    3.04    0.13
   1   0  -8    5.06    0.18
   1   0  -8    5.00    0.18
  -1   0   8    5.33    0.19
  -1   0   8    4.93    0.18
  -1   0   8    5.28    0.19
   0   0  -8   26.41    0.78
   0   0  -8   27.27    0.79
   0   0  -8   24.97    0.79
   0   0   8   25.98    0.79
   0   0   8   25.54    0.79
   0   0   8   25.34    0.78
   0   0   8   25.90    0.79
  -1   0  -8    1.23    0.06
  -1   0  -8    1.08    0.07
  -1   0  -8    1.42    0.07
   1   0   8    1.20    0.07
   1   0   8    1.36    0.07
   1   0   8    1.21    0.07
   1   0   8    1.28    0.08
  -2   0  -8    1.10    0.07
  -2   0  -8    0.95    0.07
   2   0   8    1.06    0.07
   2   0   8    1.01    0.07
   2   0   8    0.99    0.08
   2   0   8    1.01    0.06
  -3   0  -8    0.58    0.07
  -3   0  -8    0.47    0.07
   3   0   8    0.42    0.06
   3   0   8    0.48    0.07
  -4   0  -8    0.03    0.06
  -4   0  -8   -0.05    0.04
   4   0   8    0.06    0.05
   4  -1  -8    0.14    0.05
   4  -1  -8    0.14    0.06
  -4   1   8    0.16    0.06
   3  -1  -8    1.03    0.10
   3  -1  -8    1.05    0.08
  -3   1   8    0.97    0.09
  -3   1   8    0.86    0.09
  -3   1   8    0.84    0.08
   2  -1  -8    0.20    0.04
   2  -1  -8    0.18    0.04
  -2   1   8    0.25    0.04
  -2   1   8    0.14    0.04
  -2   1   8    0.19    0.05
  -2   1   8    0.25    0.04
   1  -1  -8    0.25    0.04
   1  -1  -8    0.29    0.04
   1  -1  -8    0.32    0.04
  -1   1   8    0.28    0.04
  -1   1   8    0.28    0.03
  -1   1   8    0.32    0.05
  -1   1   8    0.37    0.05
   0  -1  -8    1.40    0.08
   0  -1  -8    1.53    0.08
   0   1   8    1.40    0.08
   0   1   8    1.52    0.07
   0   1   8    1.45    0.08
   0   1   8    1.55    0.07
  -1  -1  -8    0.02    0.03
  -1  -1  -8    0.02    0.03
  -1  -1  -8    0.04    0.03
   1   1   8    0.06    0.03
   1   1   8    0.01    0.03
   1   1   8    0.07    0.03
   1   1   8    0.07    0.03
  -2  -1  -8   -0.02    0.03
  -2  -1  -8   -0.01    0.04
   2   1   8    0.01    0.03
   2   1   8    0.01    0.03
   2   1   8    0.03    0.03
   2   1   8    0.04    0.03
  -3  -1  -8   -0.04    0.04
  -3  -1  -8    0.00    0.03
   3   1   8    0.00    0.03
   3   1   8    0.01    0.04
  -4  -1  -8    0.14    0.06
  -4  -1  -8    0.04    0.05
   4   1   8   -0.02    0.04
   4  -2  -8    1.55    0.12
   4  -2  -8    1.53    0.11
  -4   2   8    1.38    0.11
   3  -2  -8    2.07    0.12
   3  -2  -8    2.13    0.12
  -3   2   8    2.06    0.12
  -3   2   8    2.01    0.12
   2  -2  -8    1.12    0.08
   2  -2  -8    1.15    0.08
  -2   2   8    1.13    0.08
  -2   2   8    1.03    0.08
  -2   2   8    1.12    0.08
  -2   2   8    1.15    0.07
   1  -2  -8    0.76    0.06
   1  -2  -8    0.71    0.05
   1  -2  -8    0.80    0.07
  -1   2   8    0.78    0.07
  -1   2   8    0.60    0.04
  -1   2   8    0.67    0.06
  -1   2   8    0.79    0.06
   0  -2  -8    0.04    0.03
   0  -2  -8    0.06    0.02
   0  -2  -8    0.03    0.03
   0  -2  -8    0.05    0.02
   0   2   8   -0.01    0.02
   0   2   8    0.02    0.02
   0   2   8    0.02    0.03
   0   2   8    0.04    0.03
  -1  -2  -8    0.61    0.06
  -1  -2  -8    0.81    0.07
  -1  -2  -8    0.77    0.07
   1   2   8    0.70    0.05
   1   2   8    0.71    0.05
   1   2   8    0.72    0.05
   1   2   8    0.72    0.07
  -2  -2  -8    1.23    0.09
  -2  -2  -8    1.32    0.09
   2   2   8    1.29    0.08
   2   2   8    1.19    0.08
   2   2   8    1.16    0.08
   2   2   8    1.47    0.10
  -3  -2  -8    0.56    0.07
  -3  -2  -8    0.36    0.07
   3   2   8    0.55    0.07
   3   2   8    0.45    0.06
   3   2   8    0.42    0.07
  -4  -2  -8    0.23    0.07
   4   2   8    0.08    0.05
   4   2   8    0.12    0.05
   4  -3  -8    0.16    0.06
   4  -3  -8    0.15    0.06
  -4   3   8    0.13    0.07
   3  -3  -8    1.30    0.10
   3  -3  -8    1.51    0.10
  -3   3   8    1.57    0.10
  -3   3   8    1.48    0.10
   2  -3  -8    3.04    0.13
   2  -3  -8    3.05    0.14
  -2   3   8    2.96    0.13
  -2   3   8    3.02    0.14
  -2   3   8    3.29    0.14
  -2   3   8    3.03    0.14
   1  -3  -8    0.61    0.05
   1  -3  -8    0.59    0.06
   1  -3  -8    0.70    0.07
  -1   3   8    0.53    0.05
  -1   3   8    0.61    0.06
  -1   3   8    0.55    0.05
  -1   3   8    0.57    0.06
   0  -3  -8   -0.02    0.03
   0  -3  -8    0.02    0.03
   0  -3  -8    0.04    0.02
   0   3   8    0.03    0.02
   0   3   8    0.02    0.03
   0   3   8    0.04    0.03
   0   3   8    0.02    0.02
  -1  -3  -8   13.47    0.44
  -1  -3  -8   13.54    0.44
  -1  -3  -8   13.90    0.44
   1   3   8   13.68    0.43
   1   3   8   13.67    0.43
   1   3   8   13.83    0.44
   1   3   8   13.39    0.44
  -2  -3  -8    0.13    0.04
  -2  -3  -8    0.05    0.04
  -2  -3  -8    0.08    0.05
   2   3   8    0.07    0.03
   2   3   8    0.06    0.03
   2   3   8    0.07    0.04
  -3  -3  -8    0.07    0.06
  -3  -3  -8    0.09    0.05
   3   3   8    0.05    0.04
   3   3   8    0.06    0.04
   3   3   8    0.01    0.04
  -4  -3  -8    0.56    0.10
   4   3   8    0.76    0.08
   4   3   8    0.71    0.09
   4  -4  -8    2.22    0.14
   4  -4  -8    2.09    0.13
  -4   4   8    1.98    0.14
   3  -4  -8    0.13    0.04
   3  -4  -8    0.16    0.06
  -3   4   8    0.17    0.05
  -3   4   8    0.11    0.05
  -3   4   8    0.14    0.05
   2  -4  -8    0.27    0.05
   2  -4  -8    0.19    0.04
  -2   4   8    0.14    0.04
  -2   4   8    0.24    0.05
  -2   4   8    0.15    0.05
   1  -4  -8    1.81    0.08
   1  -4  -8    1.80    0.10
   1  -4  -8    1.73    0.10
  -1   4   8    1.69    0.09
  -1   4   8    1.87    0.10
  -1   4   8    1.65    0.09
  -1   4   8    1.53    0.09
   0  -4  -8    3.96    0.15
   0  -4  -8    3.48    0.16
   0  -4  -8    3.94    0.16
   0   4   8    4.02    0.15
   0   4   8    4.11    0.15
   0   4   8    4.15    0.16
   0   4   8    3.68    0.13
   0   4   8    3.79    0.16
  -1  -4  -8    2.63    0.12
  -1  -4  -8    2.40    0.12
  -1  -4  -8    2.26    0.12
   1   4   8    2.48    0.10
   1   4   8    2.34    0.11
   1   4   8    2.48    0.11
  -2  -4  -8    0.49    0.07
  -2  -4  -8    0.42    0.07
  -2  -4  -8    0.43    0.07
   2   4   8    0.59    0.07
   2   4   8    0.45    0.05
   2   4   8    0.65    0.06
  -3  -4  -8    1.19    0.12
   3   4   8    1.33    0.09
   3   4   8    1.26    0.09
   3   4   8    1.19    0.09
  -4   5   8    1.25    0.11
  -4   5   8    1.38    0.12
   3  -5  -8    0.17    0.06
  -3   5   8    0.15    0.05
  -3   5   8    0.19    0.05
  -3   5   8    0.13    0.05
   2  -5  -8   17.67    0.58
   2  -5  -8   17.68    0.57
  -2   5   8   17.73    0.57
  -2   5   8   18.04    0.57
  -2   5   8   18.34    0.57
   1  -5  -8   40.78    1.25
   1  -5  -8   41.17    1.26
  -1   5   8   41.80    1.25
  -1   5   8   42.16    1.26
  -1   5   8   42.01    1.26
   0  -5  -8    0.00    0.04
   0  -5  -8    0.04    0.03
   0  -5  -8    0.01    0.03
   0   5   8    0.00    0.03
   0   5   8    0.00    0.03
   0   5   8   -0.03    0.03
  -1  -5  -8    0.06    0.04
  -1  -5  -8    0.20    0.05
  -1  -5  -8    0.19    0.05
   1   5   8    0.15    0.04
   1   5   8    0.18    0.04
  -2  -5  -8    0.52    0.08
  -2  -5  -8    0.56    0.08
   2   5   8    0.49    0.06
   2   5   8    0.58    0.07
  -3  -5  -8    0.36    0.08
   3   5   8    0.40    0.06
   3   5   8    0.37    0.06
  -3   6   8    2.33    0.12
  -3   6   8    2.29    0.12
  -3   6   8    2.15    0.14
   2  -6  -8    9.17    0.33
  -2   6   8    8.97    0.33
  -2   6   8    9.28    0.31
  -2   6   8    9.10    0.32
   1  -6  -8   26.19    0.79
  -1   6   8   25.69    0.79
  -1   6   8   25.02    0.78
  -1   6   8   24.61    0.79
   0  -6  -8    1.76    0.11
   0   6   8    1.93    0.09
   0   6   8    1.75    0.10
   0   6   8    1.79    0.10
  -1  -6  -8    6.90    0.26
  -1  -6  -8    6.88    0.26
   1   6   8    7.02    0.26
   1   6   8    6.92    0.24
  -2  -6  -8    5.90    0.25
  -2  -6  -8    5.83    0.24
   2   6   8    5.54    0.21
   2   6   8    6.14    0.24
  -3  -6  -8    0.04    0.06
   3   6   8    0.07    0.04
   3   6   8    0.09    0.05
  -3   7   8    0.04    0.05
  -3   7   8    0.08    0.06
   2  -7  -8    1.37    0.11
  -2   7   8    1.69    0.12
  -2   7   8    1.42    0.09
  -2   7   8    1.52    0.10
   1  -7  -8    5.11    0.22
  -1   7   8    5.86    0.22
  -1   7   8    5.36    0.20
  -1   7   8    5.38    0.22
   0  -7  -8    8.39    0.31
   0  -7  -8    8.15    0.30
   0   7   8    8.32    0.30
   0   7   8    8.04    0.28
   0   7   8    8.46    0.30
  -1  -7  -8    0.21    0.06
  -1  -7  -8    0.22    0.06
   1   7   8    0.20    0.04
   1   7   8    0.15    0.05
  -2  -7  -8    0.79    0.10
  -2  -7  -8    0.94    0.10
   2   7   8    0.86    0.08
   2   7   8    0.95    0.10
  -3  -7  -8    0.08    0.07
   3   7   8    0.01    0.05
   3   7   8    0.03    0.04
  -3   8   8    0.00    0.06
  -3   8   8    0.02    0.04
   2  -8  -8    0.65    0.09
  -2   8   8    0.78    0.09
  -2   8   8    0.64    0.08
  -2   8   8    0.64    0.07
   1  -8  -8    1.64    0.12
  -1   8   8    1.42    0.09
  -1   8   8    1.45    0.11
  -1   8   8    1.67    0.10
   0  -8  -8    0.27    0.06
   0  -8  -8    0.22    0.06
   0   8   8    0.24    0.06
   0   8   8    0.29    0.06
   0   8   8    0.25    0.04
  -1  -8  -8    0.31    0.07
  -1  -8  -8    0.30    0.07
   1   8   8    0.28    0.05
   1   8   8    0.36    0.07
  -2  -8  -8    0.81    0.11
  -2  -8  -8    1.03    0.10
   2   8   8    0.86    0.07
   2   8   8    0.81    0.09
  -3   9   8    0.43    0.07
  -3   9   8    0.29    0.09
   2  -9  -8    0.85    0.10
  -2   9   8    0.84    0.09
  -2   9   8    0.78    0.10
  -2   9   8    1.03    0.08
   1  -9  -8    1.31    0.11
  -1   9   8    1.10    0.07
  -1   9   8    1.13    0.09
  -1   9   8    1.10    0.12
   0  -9  -8    0.90    0.11
   0  -9  -8    1.06    0.10
   0   9   8    0.84    0.09
   0   9   8    1.00    0.07
   0   9   8    1.22    0.10
  -1  -9  -8    0.17    0.07
  -1  -9  -8    0.04    0.05
   1   9   8    0.16    0.05
   1   9   8    0.16    0.04
  -2  -9  -8   -0.01    0.05
  -2  -9  -8    0.11    0.06
   2   9   8    0.05    0.05
   2   9   8    0.07    0.04
   2 -10  -8    0.03    0.06
  -2  10   8    0.20    0.07
  -2  10   8    0.07    0.04
  -2  10   8    0.16    0.05
   1 -10  -8    0.15    0.06
   1 -10  -8    0.25    0.07
  -1  10   8    0.09    0.04
  -1  10   8    0.09    0.06
  -1  10   8    0.04    0.04
   0 -10  -8   -0.02    0.05
   0 -10  -8    0.10    0.05
   0  10   8   -0.05    0.04
   0  10   8    0.03    0.05
   0  10   8    0.04    0.03
  -1 -10  -8    0.27    0.07
  -1 -10  -8    0.20    0.07
   1  10   8    0.20    0.06
   1 -11  -8    0.09    0.07
   1 -11  -8    0.14    0.06
  -1  11   8    0.19    0.06
  -1  11   8    0.19    0.07
   0 -11  -8    0.03    0.05
   0 -11  -8   -0.04    0.05
   0  11   8   -0.01    0.06
   0  11   8    0.02    0.04
   1  11  -9    0.85    0.10
  -1 -11   9    1.00    0.11
  -1 -11   9    0.81    0.10
   0  11  -9    0.82    0.10
   0 -11   9    0.90    0.10
   1 -11   9    0.03    0.05
   2 -11   9    0.38    0.08
   2  10  -9    0.79    0.10
  -2 -10   9    0.65    0.09
   1  10  -9    1.16    0.12
  -1 -10   9    1.06    0.10
   0  10  -9    0.52    0.08
   0 -10   9    0.55    0.08
   0 -10   9    0.38    0.06
   1 -10   9    0.24    0.06
   2 -10   9    0.03    0.05
   2   9  -9    0.04    0.05
  -2  -9   9   -0.02    0.04
   1   9  -9    1.24    0.12
  -1  -9   9    1.21    0.10
   0   9  -9    0.03    0.04
   0  -9   9    0.01    0.04
   0  -9   9   -0.02    0.03
   1  -9   9    0.09    0.05
   2  -9   9    0.98    0.10
   3  -9   9    0.03    0.05
   3  -9   9    0.04    0.06
   2   8  -9    0.08    0.05
  -2  -8   9    0.05    0.05
   1   8  -9    0.78    0.09
  -1  -8   9    0.92    0.09
   0   8  -9    1.04    0.10
   0  -8   9    0.86    0.07
   0  -8   9    1.13    0.10
   1  -8   9    0.03    0.04
   2  -8   9    0.03    0.05
  -3   8  -9    0.07    0.06
   3  -8   9    0.03    0.05
   3  -8   9    0.03    0.05
   3   7  -9    0.06    0.05
  -3  -7   9    0.07    0.05
  -3  -7   9    0.05    0.05
   2   7  -9    1.07    0.11
  -2  -7   9    0.63    0.08
   1   7  -9    5.18    0.22
  -1  -7   9    5.21    0.21
   0   7  -9   11.33    0.40
   0  -7   9   11.57    0.38
   0  -7   9   11.60    0.39
   1  -7   9    0.06    0.04
  -2   7  -9    0.05    0.04
   2  -7   9   -0.06    0.04
   2  -7   9    0.06    0.04
  -3   7  -9    0.30    0.07
   3  -7   9    0.37    0.07
   3  -7   9    0.24    0.06
   3   6  -9    0.35    0.08
  -3  -6   9    0.44    0.07
  -3  -6   9    0.50    0.07
   2   6  -9    0.05    0.05
  -2  -6   9    0.07    0.04
   1   6  -9    0.60    0.08
  -1  -6   9    0.71    0.07
   0   6  -9    4.09    0.18
   0  -6   9    4.31    0.18
   0  -6   9    4.34    0.17
   1  -6   9    0.18    0.05
   1  -6   9    0.32    0.04
  -2   6  -9    0.26    0.05
   2  -6   9    0.15    0.04
   2  -6   9    0.25    0.06
  -3   6  -9    3.19    0.16
   3  -6   9    2.76    0.15
   3  -6   9    2.94    0.16
   3   5  -9    1.02    0.11
  -3  -5   9    0.85    0.09
  -3  -5   9    0.91    0.10
   2   5  -9    0.16    0.05
  -2  -5   9    0.21    0.05
   1   5  -9   35.21    1.08
  -1  -5   9   34.92    1.07
   0   5  -9   26.49    0.81
   0  -5   9   24.96    0.79
   0  -5   9   26.27    0.81
   1  -5   9    0.83    0.08
   1  -5   9    1.10    0.06
  -2   5  -9    0.58    0.07
   2  -5   9    0.54    0.06
   2  -5   9    0.66    0.08
  -3   5  -9    2.12    0.13
  -3   5  -9    2.02    0.10
   3  -5   9    1.87    0.13
   3  -5   9    1.90    0.12
  -4   5  -9    0.29    0.05
  -4   5  -9    0.40    0.09
   4  -5   9    0.34    0.07
   4  -5   9    0.29    0.08
   3   4  -9    0.33    0.07
  -3  -4   9    0.43    0.07
  -3  -4   9    0.26    0.06
   2   4  -9    1.63    0.11
  -2  -4   9    1.76    0.11
  -2  -4   9    1.61    0.09
   1   4  -9    1.34    0.09
  -1  -4   9    1.15    0.08
   0   4  -9    6.22    0.23
   0  -4   9    6.09    0.22
   0  -4   9    5.96    0.22
   1  -4   9    2.10    0.09
   1  -4   9    2.14    0.11
  -2   4  -9    7.16    0.26
   2  -4   9    6.99    0.26
   2  -4   9    7.38    0.27
  -3   4  -9    1.38    0.08
  -3   4  -9    1.29    0.10
   3  -4   9    1.18    0.10
   3  -4   9    1.40    0.11
  -4   4  -9    0.00    0.04
  -4   4  -9    0.04    0.06
   4  -4   9    0.04    0.05
   4  -4   9   -0.08    0.07
   4   3  -9    0.37    0.08
  -4  -3   9    0.29    0.07
  -4  -3   9    0.47    0.08
   3   3  -9    0.23    0.04
   3   3  -9    0.13    0.05
  -3  -3   9    0.21    0.05
  -3  -3   9    0.27    0.06
   2   3  -9   -0.03    0.03
  -2  -3   9    0.00    0.03
  -2  -3   9    0.03    0.04
   1   3  -9   22.68    0.71
  -1  -3   9   22.87    0.71
  -1  -3   9   22.38    0.69
   0   3  -9    3.45    0.15
   0  -3   9    3.41    0.14
   0  -3   9    3.43    0.13
   0  -3   9    3.39    0.14
  -1   3  -9    0.89    0.06
  -1   3  -9    0.75    0.05
   1  -3   9    0.82    0.07
   1  -3   9    0.93    0.06
   1  -3   9    0.77    0.06
  -2   3  -9    0.10    0.04
  -2   3  -9    0.04    0.03
   2  -3   9    0.03    0.04
   2  -3   9    0.02    0.04
  -3   3  -9    0.22    0.04
  -3   3  -9    0.28    0.06
   3  -3   9    0.34    0.06
   3  -3   9    0.20    0.06
  -4   3  -9    0.01    0.06
  -4   3  -9    0.00    0.05
   4  -3   9   -0.02    0.05
   4   2  -9    0.22    0.07
   4   2  -9    0.13    0.05
  -4  -2   9    0.20    0.06
  -4  -2   9    0.23    0.07
   3   2  -9    0.74    0.07
   3   2  -9    0.62    0.08
  -3  -2   9    0.77    0.09
  -3  -2   9    0.70    0.08
   2   2  -9    0.06    0.04
   2   2  -9    0.10    0.03
  -2  -2   9    0.05    0.04
  -2  -2   9    0.03    0.04
   1   2  -9   -0.01    0.03
   1   2  -9    0.01    0.02
  -1  -2   9    0.05    0.03
  -1  -2   9    0.00    0.03
   0   2  -9    4.84    0.16
   0   2  -9    5.05    0.19
   0   2  -9    4.18    0.16
   0  -2   9    4.91    0.18
   0  -2   9    5.21    0.18
   0  -2   9    5.11    0.18
  -1   2  -9    6.74    0.22
  -1   2  -9    6.11    0.21
   1  -2   9    6.95    0.22
   1  -2   9    6.69    0.24
   1  -2   9    6.44    0.23
  -2   2  -9    3.01    0.13
  -2   2  -9    2.93    0.13
   2  -2   9    3.20    0.14
   2  -2   9    3.07    0.14
   2  -2   9    2.83    0.11
  -3   2  -9    0.20    0.05
  -3   2  -9    0.13    0.05
   3  -2   9    0.19    0.05
   3  -2   9    0.12    0.06
  -4   2  -9    0.03    0.06
  -4   2  -9    0.04    0.05
   4  -2   9    0.02    0.05
   4   1  -9    2.62    0.14
   4   1  -9    2.83    0.16
  -4  -1   9    2.77    0.15
  -4  -1   9    2.96    0.17
   3   1  -9    0.02    0.04
   3   1  -9   -0.01    0.04
  -3  -1   9    0.00    0.03
  -3  -1   9    0.06    0.05
   2   1  -9    5.12    0.20
   2   1  -9    5.17    0.19
  -2  -1   9    5.23    0.20
  -2  -1   9    5.21    0.20
   1   1  -9    0.02    0.03
   1   1  -9   -0.03    0.03
  -1  -1   9    0.02    0.03
  -1  -1   9    0.00    0.03
   0   1  -9    3.24    0.13
   0   1  -9    2.99    0.12
   0  -1   9    3.03    0.13
   0  -1   9    3.16    0.13
   0  -1   9    3.17    0.12
   0  -1   9    2.99    0.13
  -1   1  -9    0.68    0.05
  -1   1  -9    0.66    0.05
   1  -1   9    0.69    0.05
   1  -1   9    0.75    0.07
   1  -1   9    0.72    0.06
   1  -1   9    0.75    0.06
  -2   1  -9    0.03    0.03
  -2   1  -9   -0.01    0.03
   2  -1   9    0.01    0.03
   2  -1   9    0.03    0.03
   2  -1   9   -0.04    0.03
  -3   1  -9    0.00    0.04
  -3   1  -9    0.02    0.05
   3  -1   9    0.04    0.04
   3  -1   9    0.03    0.05
  -4   1  -9    0.04    0.05
  -4   1  -9    0.05    0.06
   4  -1   9    0.02    0.05
   4   0  -9    0.04    0.05
   4   0  -9    0.06    0.05
  -4   0   9    0.08    0.05
   3   0  -9    3.39    0.16
   3   0  -9    3.24    0.15
  -3   0   9    3.28    0.16
  -3   0   9    3.41    0.16
   2   0  -9    1.69    0.10
   2   0  -9    1.74    0.09
  -2   0   9    1.66    0.10
  -2   0   9    1.77    0.10
   1   0  -9    0.10    0.03
   1   0  -9    0.07    0.03
  -1   0   9    0.06    0.03
  -1   0   9    0.08    0.03
  -1   0   9    0.04    0.03
   0   0  -9    0.01    0.03
   0   0  -9    0.00    0.03
   0   0   9    0.03    0.03
   0   0   9    0.00    0.02
   0   0   9    0.00    0.02
   0   0   9    0.01    0.03
  -1   0  -9    0.15    0.03
  -1   0  -9    0.13    0.03
   1   0   9    0.11    0.03
   1   0   9    0.16    0.04
   1   0   9    0.08    0.04
   1   0   9    0.11    0.03
  -2   0  -9    0.11    0.04
  -2   0  -9    0.07    0.04
   2   0   9    0.15    0.03
   2   0   9    0.12    0.05
   2   0   9    0.12    0.04
   2   0   9    0.12    0.04
  -3   0  -9    0.36    0.07
  -3   0  -9    0.50    0.07
   3   0   9    0.49    0.07
  -4   0  -9   -0.02    0.06
  -4   0  -9    0.07    0.05
   4   0   9    0.08    0.05
   4  -1  -9    0.11    0.05
   4  -1  -9   -0.04    0.05
  -4   1   9    0.01    0.05
   3  -1  -9    1.38    0.10
   3  -1  -9    1.14    0.09
  -3   1   9    1.11    0.09
  -3   1   9    1.30    0.10
   2  -1  -9    1.14    0.08
   2  -1  -9    1.05    0.08
  -2   1   9    1.00    0.08
  -2   1   9    1.00    0.08
   1  -1  -9    5.30    0.19
   1  -1  -9    5.26    0.19
  -1   1   9    5.37    0.20
  -1   1   9    5.26    0.19
  -1   1   9    5.45    0.20
   0  -1  -9    0.18    0.04
   0  -1  -9    0.24    0.04
   0  -1  -9    0.26    0.05
   0   1   9    0.17    0.04
   0   1   9    0.28    0.04
   0   1   9    0.21    0.04
   0   1   9    0.21    0.04
  -1  -1  -9    0.00    0.03
  -1  -1  -9   -0.01    0.03
   1   1   9    0.01    0.02
   1   1   9    0.02    0.03
   1   1   9    0.03    0.03
   1   1   9   -0.01    0.03
  -2  -1  -9    7.46    0.26
  -2  -1  -9    6.69    0.26
   2   1   9    7.38    0.25
   2   1   9    7.04    0.26
   2   1   9    7.50    0.25
   2   1   9    7.20    0.26
  -3  -1  -9    0.15    0.05
  -3  -1  -9    0.21    0.06
   3   1   9    0.10    0.04
   3   1   9    0.06    0.05
  -4  -1  -9   -0.01    0.05
  -4  -1  -9   -0.04    0.05
   4   1   9    0.05    0.05
   4  -2  -9    0.04    0.05
   4  -2  -9    0.13    0.06
  -4   2   9    0.08    0.05
   3  -2  -9    1.46    0.10
   3  -2  -9    1.30    0.09
  -3   2   9    1.26    0.10
   2  -2  -9    0.07    0.04
   2  -2  -9    0.04    0.03
  -2   2   9    0.06    0.04
  -2   2   9    0.04    0.04
  -2   2   9    0.00    0.03
  -2   2   9    0.07    0.04
   1  -2  -9    1.33    0.08
   1  -2  -9    1.36    0.08
  -1   2   9    1.36    0.08
  -1   2   9    1.37    0.09
  -1   2   9    1.32    0.08
  -1   2   9    1.36    0.07
   0  -2  -9    1.76    0.09
   0  -2  -9    1.69    0.07
   0  -2  -9    1.67    0.09
   0  -2  -9    1.65    0.08
   0   2   9    1.57    0.09
   0   2   9    1.67    0.08
   0   2   9    1.58    0.08
   0   2   9    1.52    0.09
  -1  -2  -9    2.47    0.11
  -1  -2  -9    2.55    0.12
  -1  -2  -9    2.43    0.12
   1   2   9    2.53    0.12
   1   2   9    2.33    0.11
   1   2   9    2.50    0.11
   1   2   9    2.51    0.11
  -2  -2  -9    0.19    0.05
  -2  -2  -9    0.20    0.05
   2   2   9    0.28    0.05
   2   2   9    0.25    0.05
   2   2   9    0.19    0.04
  -3  -2  -9    0.49    0.08
  -3  -2  -9    0.59    0.07
   3   2   9    0.58    0.07
   3   2   9    0.60    0.07
   3   2   9    0.64    0.07
  -4  -2  -9    0.76    0.11
   4   2   9    0.89    0.10
   4   2   9    0.85    0.09
   4  -3  -9    0.76    0.09
   4  -3  -9    0.69    0.09
  -4   3   9    0.63    0.09
   3  -3  -9    1.41    0.10
   3  -3  -9    1.41    0.10
  -3   3   9    1.41    0.10
  -3   3   9    1.47    0.10
   2  -3  -9    0.33    0.05
   2  -3  -9    0.35    0.05
  -2   3   9    0.37    0.08
  -2   3   9    0.49    0.06
  -2   3   9    0.33    0.05
  -2   3   9    0.38    0.05
   1  -3  -9   14.21    0.43
   1  -3  -9   13.56    0.44
   1  -3  -9   13.69    0.45
  -1   3   9   13.32    0.44
  -1   3   9   13.39    0.43
  -1   3   9   13.43    0.44
  -1   3   9   13.55    0.44
   0  -3  -9   26.59    0.81
   0  -3  -9   27.20    0.81
   0  -3  -9   25.42    0.80
   0   3   9   26.10    0.80
   0   3   9   26.04    0.81
   0   3   9   26.33    0.79
   0   3   9   26.04    0.81
  -1  -3  -9    0.47    0.06
  -1  -3  -9    0.44    0.06
  -1  -3  -9    0.62    0.07
   1   3   9    0.64    0.07
   1   3   9    0.49    0.06
   1   3   9    0.54    0.07
   1   3   9    0.68    0.06
  -2  -3  -9    0.08    0.04
  -2  -3  -9    0.11    0.05
   2   3   9    0.03    0.03
   2   3   9    0.10    0.04
   2   3   9    0.02    0.03
  -3  -3  -9    0.11    0.05
  -3  -3  -9    0.15    0.07
   3   3   9    0.08    0.04
   3   3   9    0.08    0.04
   3   3   9    0.08    0.04
   4  -4  -9    0.61    0.09
   3  -4  -9    1.17    0.09
   3  -4  -9    1.21    0.10
  -3   4   9    1.07    0.09
  -3   4   9    1.17    0.10
   2  -4  -9    0.88    0.07
   2  -4  -9    1.15    0.09
  -2   4   9    0.91    0.08
  -2   4   9    1.06    0.08
  -2   4   9    0.93    0.08
   1  -4  -9   11.07    0.36
   1  -4  -9   11.69    0.38
   1  -4  -9   11.12    0.38
  -1   4   9   11.19    0.37
  -1   4   9   11.28    0.38
  -1   4   9   11.13    0.37
   0  -4  -9   43.41    1.28
   0  -4  -9   41.95    1.28
   0  -4  -9   42.12    1.27
   0   4   9   42.76    1.28
   0   4   9   41.71    1.27
  -1  -4  -9    0.43    0.06
  -1  -4  -9    0.23    0.05
  -1  -4  -9    0.31    0.06
   1   4   9    0.34    0.05
   1   4   9    0.47    0.05
  -2  -4  -9    7.67    0.30
  -2  -4  -9    8.42    0.30
   2   4   9    8.76    0.30
   2   4   9    8.22    0.29
   2   4   9    8.19    0.30
  -3  -4  -9    2.30    0.15
   3   4   9    2.60    0.13
   3   4   9    2.51    0.13
   3  -5  -9    0.67    0.08
  -3   5   9    0.58    0.07
  -3   5   9    0.53    0.08
  -3   5   9    0.54    0.07
   2  -5  -9    0.30    0.06
  -2   5   9    0.13    0.04
  -2   5   9    0.22    0.05
  -2   5   9    0.24    0.05
   1  -5  -9    5.73    0.22
   1  -5  -9    5.46    0.23
  -1   5   9    5.97    0.23
  -1   5   9    6.10    0.21
  -1   5   9    5.82    0.22
   0  -5  -9   10.05    0.34
   0  -5  -9    9.66    0.34
   0  -5  -9    9.80    0.34
   0   5   9   10.00    0.33
   0   5   9    9.88    0.33
   0   5   9   10.01    0.34
  -1  -5  -9   10.76    0.36
  -1  -5  -9   10.79    0.37
  -1  -5  -9   10.36    0.37
   1   5   9   10.80    0.37
   1   5   9   10.95    0.35
  -2  -5  -9    0.39    0.07
  -2  -5  -9    0.47    0.10
   2   5   9    0.32    0.06
   2   5   9    0.41    0.06
  -3  -5  -9    1.92    0.14
   3   5   9    2.08    0.13
   3   5   9    1.98    0.11
  -3   6   9    0.44    0.07
  -3   6   9    0.41    0.08
  -3   6   9    0.39    0.07
  -2   6   9    0.64    0.08
  -2   6   9    0.79    0.08
  -2   6   9    1.01    0.10
   1  -6  -9    3.86    0.18
  -1   6   9    4.25    0.18
  -1   6   9    4.31    0.18
  -1   6   9    4.20    0.17
   0  -6  -9    0.00    0.04
   0  -6  -9    0.04    0.04
   0   6   9    0.01    0.04
   0   6   9   -0.01    0.03
   0   6   9    0.02    0.03
  -1  -6  -9    0.26    0.06
  -1  -6  -9    0.23    0.06
   1   6   9    0.18    0.05
   1   6   9    0.25    0.05
  -2  -6  -9    0.28    0.07
  -2  -6  -9    0.31    0.07
   2   6   9    0.24    0.06
   2   6   9    0.29    0.05
  -3  -6  -9    0.55    0.09
   3   6   9    0.74    0.08
   3   6   9    0.80    0.09
  -3   7   9    0.89    0.09
  -3   7   9    1.30    0.13
  -3   7   9    0.86    0.09
  -2   7   9    0.84    0.09
  -2   7   9    0.91    0.08
  -2   7   9    0.83    0.09
   1  -7  -9    0.86    0.10
  -1   7   9    0.97    0.08
  -1   7   9    0.97    0.08
  -1   7   9    0.84    0.09
   0  -7  -9    4.05    0.18
   0  -7  -9    4.02    0.18
   0   7   9    3.86    0.17
   0   7   9    3.85    0.16
   0   7   9    4.06    0.18
  -1  -7  -9    0.46    0.08
  -1  -7  -9    0.41    0.07
   1   7   9    0.39    0.07
   1   7   9    0.39    0.05
  -2  -7  -9    0.12    0.06
  -2  -7  -9    0.06    0.05
   2   7   9    0.10    0.05
   2   7   9    0.09    0.04
  -3   8   9    0.15    0.05
  -3   8   9    0.24    0.08
  -2   8   9    0.42    0.06
  -2   8   9    0.42    0.07
  -2   8   9    0.55    0.07
   1  -8  -9    0.43    0.08
  -1   8   9    0.52    0.07
  -1   8   9    0.58    0.08
  -1   8   9    0.61    0.07
   0  -8  -9    0.51    0.08
   0  -8  -9    0.63    0.09
   0   8   9    0.66    0.08
   0   8   9    0.49    0.07
   0   8   9    0.72    0.07
  -1  -8  -9    0.09    0.05
  -1  -8  -9    0.08    0.05
   1   8   9    0.10    0.04
   1   8   9    0.11    0.05
  -2  -8  -9    0.82    0.10
  -2  -8  -9    0.64    0.10
   2   8   9    1.00    0.07
   2   8   9    0.87    0.11
   2  -9  -9    0.10    0.08
  -2   9   9    0.05    0.06
  -2   9   9    0.09    0.04
  -2   9   9    0.09    0.05
   1  -9  -9    0.91    0.10
   1  -9  -9    0.85    0.11
  -1   9   9    0.83    0.10
  -1   9   9    0.70    0.07
  -1   9   9    0.95    0.10
   0  -9  -9    0.27    0.07
   0  -9  -9    0.31    0.07
   0   9   9    0.27    0.07
   0   9   9    0.24    0.06
   0   9   9    0.24    0.05
  -1  -9  -9    0.00    0.05
  -1  -9  -9    0.02    0.05
   1   9   9   -0.01    0.04
   1   9   9    0.03    0.03
  -2  -9  -9    0.08    0.06
  -2  -9  -9    0.06    0.06
   2   9   9    0.06    0.05
   2   9   9    0.06    0.04
   2 -10  -9    0.39    0.09
  -2  10   9    0.38    0.08
  -2  10   9    0.30    0.06
  -2  10   9    0.45    0.07
   1 -10  -9    1.34    0.13
   1 -10  -9    1.64    0.14
  -1  10   9    1.70    0.12
  -1  10   9    1.62    0.13
  -1  10   9    1.53    0.09
   0 -10  -9    0.25    0.07
   0 -10  -9    0.34    0.08
   0  10   9    0.17    0.07
   0  10   9    0.27    0.05
   0  10   9    0.25    0.06
  -1 -10  -9    0.57    0.10
  -1 -10  -9    0.54    0.08
   1  10   9    0.54    0.08
   1  10   9    0.47    0.06
   0  11 -10    2.49    0.16
   0 -11  10    2.68    0.16
   1 -11  10    0.09    0.06
   1  10 -10    0.19    0.07
  -1 -10  10    0.18    0.05
   0  10 -10    0.46    0.08
   0 -10  10    0.53    0.08
   1 -10  10    0.68    0.09
   2 -10  10   -0.06    0.05
   2   9 -10    0.02    0.05
  -2  -9  10    0.06    0.05
   1   9 -10    0.23    0.07
  -1  -9  10    0.23    0.06
   0   9 -10    2.02    0.13
   0  -9  10    2.17    0.13
   0  -9  10    1.99    0.11
   1  -9  10    4.47    0.20
   2  -9  10   -0.04    0.05
   2   8 -10    0.01    0.05
  -2  -8  10    0.00    0.04
   1   8 -10    0.00    0.04
  -1  -8  10    0.04    0.04
   0   8 -10    0.07    0.05
   0  -8  10    0.08    0.04
   0  -8  10    0.03    0.04
   1  -8  10    0.63    0.08
   2  -8  10    0.03    0.05
   3  -8  10    0.10    0.06
   3  -8  10    0.02    0.05
   3   7 -10    0.02    0.05
  -3  -7  10   -0.06    0.04
  -3  -7  10   -0.05    0.04
   2   7 -10    0.58    0.08
  -2  -7  10    0.76    0.09
   1   7 -10    0.11    0.05
  -1  -7  10    0.10    0.04
   0   7 -10   19.10    0.62
   0  -7  10   18.60    0.61
   0  -7  10   18.75    0.60
   1  -7  10   16.68    0.55
   2  -7  10    0.09    0.05
   2  -7  10    0.06    0.04
   3  -7  10    0.14    0.06
   3  -7  10    0.02    0.05
   3   6 -10    3.69    0.19
  -3  -6  10    3.31    0.18
  -3  -6  10    3.63    0.17
   2   6 -10    2.51    0.14
  -2  -6  10    2.61    0.14
   1   6 -10    2.47    0.13
  -1  -6  10    2.25    0.12
   0   6 -10    0.57    0.08
   0  -6  10    0.56    0.06
   0  -6  10    0.59    0.08
   1  -6  10    3.10    0.15
   2  -6  10    1.23    0.09
   2  -6  10    1.29    0.10
   3  -6  10    2.02    0.13
   3  -6  10    2.15    0.13
   3   5 -10    1.79    0.13
  -3  -5  10    1.78    0.12
  -3  -5  10    1.90    0.13
   2   5 -10    0.08    0.05
  -2  -5  10    0.05    0.04
  -2  -5  10    0.13    0.04
   1   5 -10    2.14    0.12
  -1  -5  10    2.28    0.12
   0   5 -10   30.50    0.94
   0  -5  10   29.73    0.93
   0  -5  10   30.18    0.92
   1  -5  10    0.41    0.06
   1  -5  10    0.35    0.04
   2  -5  10    0.61    0.08
   2  -5  10    0.58    0.07
   3  -5  10    0.06    0.05
   3  -5  10    0.02    0.05
   3   4 -10    0.00    0.05
  -3  -4  10    0.06    0.05
  -3  -4  10    0.12    0.05
   2   4 -10    2.06    0.12
  -2  -4  10    2.04    0.11
  -2  -4  10    1.88    0.12
   1   4 -10    0.02    0.04
  -1  -4  10    0.00    0.03
   0   4 -10    1.72    0.11
   0  -4  10    1.89    0.10
   0  -4  10    2.19    0.11
   1  -4  10    2.35    0.11
   1  -4  10    2.47    0.11
   1  -4  10    2.25    0.12
   2  -4  10    0.17    0.05
   2  -4  10    0.29    0.06
  -3   4 -10    2.34    0.15
  -3   4 -10    2.33    0.11
   3  -4  10    2.64    0.14
   3  -4  10    2.40    0.14
   3   3 -10    4.11    0.20
  -3  -3  10    4.54    0.20
  -3  -3  10    4.54    0.20
   2   3 -10    0.60    0.08
  -2  -3  10    0.59    0.07
  -2  -3  10    0.51    0.07
   1   3 -10    9.48    0.32
  -1  -3  10    9.10    0.32
  -1  -3  10    8.94    0.31
   0   3 -10    0.25    0.05
   0  -3  10    0.16    0.04
   0  -3  10    0.26    0.05
   0  -3  10    0.22    0.04
   1  -3  10    4.53    0.17
   1  -3  10    4.61    0.18
   1  -3  10    4.47    0.18
  -2   3 -10    0.32    0.04
   2  -3  10    0.30    0.06
   2  -3  10    0.45    0.06
  -3   3 -10   -0.01    0.03
  -3   3 -10   -0.03    0.05
   3  -3  10    0.04    0.04
   3  -3  10    0.01    0.05
  -4   3 -10   -0.08    0.06
  -4   3 -10   -0.01    0.04
   4  -3  10    0.07    0.06
   3   2 -10    0.06    0.04
   3   2 -10    0.11    0.05
  -3  -2  10    0.12    0.05
  -3  -2  10    0.21    0.05
   2   2 -10    4.57    0.19
   2   2 -10    4.40    0.16
  -2  -2  10    4.61    0.19
  -2  -2  10    4.70    0.19
   1   2 -10    0.05    0.04
   1   2 -10    0.07    0.03
  -1  -2  10    0.10    0.04
  -1  -2  10    0.08    0.04
   0   2 -10    3.88    0.16
   0   2 -10    3.77    0.14
   0  -2  10    3.83    0.15
   0  -2  10    3.81    0.15
   0  -2  10    3.72    0.16
  -1   2 -10    0.69    0.06
   1  -2  10    0.60    0.06
   1  -2  10    0.41    0.06
   1  -2  10    0.69    0.06
  -2   2 -10    0.66    0.06
  -2   2 -10    0.64    0.09
   2  -2  10    0.64    0.08
   2  -2  10    0.72    0.08
  -3   2 -10   -0.01    0.05
  -3   2 -10    0.10    0.04
   3  -2  10    0.07    0.05
   3  -2  10    0.09    0.05
  -4   2 -10    0.16    0.06
  -4   2 -10    0.12    0.07
   4  -2  10    0.03    0.05
   4   1 -10    0.48    0.07
   4   1 -10    0.39    0.09
  -4  -1  10    0.42    0.07
   3   1 -10    0.19    0.06
   3   1 -10    0.10    0.04
  -3  -1  10    0.07    0.04
  -3  -1  10    0.17    0.06
   2   1 -10    4.55    0.17
   2   1 -10    4.54    0.19
  -2  -1  10    4.75    0.19
  -2  -1  10    4.53    0.19
   1   1 -10    0.82    0.06
   1   1 -10    0.78    0.07
  -1  -1  10    0.79    0.08
  -1  -1  10    0.70    0.07
   0   1 -10    2.55    0.12
   0   1 -10    2.40    0.10
   0  -1  10    2.47    0.12
   0  -1  10    2.60    0.12
   0  -1  10    2.47    0.11
  -1   1 -10    0.70    0.06
   1  -1  10    0.70    0.06
   1  -1  10    0.67    0.07
   1  -1  10    0.63    0.07
  -2   1 -10    0.08    0.04
  -2   1 -10    0.05    0.04
   2  -1  10    0.06    0.03
   2  -1  10    0.07    0.04
   2  -1  10    0.12    0.05
  -3   1 -10    1.49    0.11
  -3   1 -10    1.41    0.10
   3  -1  10    1.49    0.11
   3  -1  10    1.61    0.12
  -4   1 -10    0.11    0.07
  -4   1 -10    0.15    0.06
   4  -1  10    0.20    0.07
   4   0 -10    0.06    0.05
   4   0 -10    0.17    0.06
  -4   0  10    0.20    0.06
   3   0 -10    1.08    0.11
   3   0 -10    0.87    0.08
  -3   0  10    1.13    0.11
  -3   0  10    1.30    0.10
   2   0 -10    0.48    0.06
   2   0 -10    0.44    0.06
  -2   0  10    0.54    0.07
  -2   0  10    0.54    0.07
   1   0 -10    1.86    0.10
   1   0 -10    1.86    0.09
  -1   0  10    1.66    0.10
  -1   0  10    1.88    0.10
   0   0 -10    2.00    0.09
   0   0 -10    2.01    0.10
   0   0  10    1.89    0.09
   0   0  10    2.06    0.10
   0   0  10    1.92    0.10
   0   0  10    1.88    0.10
  -1   0 -10    1.67    0.09
   1   0  10    1.55    0.10
   1   0  10    1.53    0.09
   1   0  10    1.59    0.09
   1   0  10    1.64    0.08
  -2   0 -10    0.39    0.06
  -2   0 -10    0.33    0.05
   2   0  10    0.45    0.06
   2   0  10    0.54    0.07
   2   0  10    0.58    0.06
  -3   0 -10    0.01    0.04
  -3   0 -10    0.03    0.05
   3   0  10    0.05    0.04
  -4   0 -10    0.24    0.06
  -4   0 -10    0.23    0.08
   4   0  10    0.14    0.06
   4  -1 -10    1.04    0.11
   4  -1 -10    0.86    0.09
  -4   1  10    0.67    0.09
   3  -1 -10    0.42    0.06
   3  -1 -10    0.45    0.07
  -3   1  10    0.52    0.07
  -3   1  10    0.55    0.08
   2  -1 -10    0.24    0.05
   2  -1 -10    0.25    0.05
  -2   1  10    0.47    0.07
  -2   1  10    0.44    0.07
   1  -1 -10    2.78    0.12
   1  -1 -10    2.85    0.12
  -1   1  10    2.87    0.13
  -1   1  10    2.70    0.13
  -1   1  10    2.69    0.12
   0  -1 -10    1.60    0.09
   0  -1 -10    1.74    0.09
   0   1  10    1.61    0.09
   0   1  10    1.70    0.09
   0   1  10    1.61    0.09
   0   1  10    1.60    0.09
  -1  -1 -10    8.19    0.28
   1   1  10    8.22    0.29
   1   1  10    8.22    0.28
   1   1  10    8.39    0.28
   1   1  10    7.85    0.28
  -2  -1 -10    0.52    0.06
  -2  -1 -10    0.45    0.06
   2   1  10    0.63    0.07
   2   1  10    0.53    0.07
   2   1  10    0.54    0.06
   2   1  10    0.58    0.06
  -3  -1 -10    0.37    0.07
  -3  -1 -10    0.34    0.06
   3   1  10    0.44    0.07
   4  -2 -10   -0.01    0.05
   4  -2 -10    0.13    0.06
  -4   2  10    0.09    0.06
   3  -2 -10    1.19    0.11
   3  -2 -10    0.80    0.09
  -3   2  10    0.96    0.10
   2  -2 -10    1.69    0.10
   2  -2 -10    1.56    0.10
  -2   2  10    1.96    0.12
  -2   2  10    1.66    0.11
  -2   2  10    1.70    0.11
   1  -2 -10    0.30    0.05
   1  -2 -10    0.22    0.04
  -1   2  10    0.24    0.05
  -1   2  10    0.30    0.05
  -1   2  10    0.23    0.05
   0  -2 -10    8.00    0.28
   0  -2 -10    8.16    0.28
   0   2  10    7.79    0.28
   0   2  10    8.35    0.28
   0   2  10    8.23    0.28
   0   2  10    8.14    0.27
  -1  -2 -10   27.19    0.85
  -1  -2 -10   28.10    0.86
   1   2  10   28.43    0.86
   1   2  10   28.23    0.86
   1   2  10   28.30    0.87
   1   2  10   27.85    0.85
  -2  -2 -10    0.05    0.04
  -2  -2 -10    0.06    0.04
   2   2  10    0.06    0.04
   2   2  10    0.02    0.03
   2   2  10    0.06    0.04
  -3  -2 -10    4.27    0.20
  -3  -2 -10    3.98    0.18
   3   2  10    4.13    0.18
   3   2  10    4.15    0.18
   3  -3 -10    3.53    0.17
   3  -3 -10    3.61    0.17
  -3   3  10    3.51    0.17
   2  -3 -10    5.10    0.20
   2  -3 -10    5.18    0.19
  -2   3  10    4.65    0.20
  -2   3  10    4.81    0.19
   1  -3 -10    0.46    0.06
   1  -3 -10    0.48    0.05
  -1   3  10    0.35    0.05
  -1   3  10    0.49    0.07
  -1   3  10    0.42    0.06
   0  -3 -10   16.47    0.51
   0   3  10   15.54    0.52
   0   3  10   16.04    0.50
   0   3  10   15.80    0.50
   0   3  10   15.85    0.52
  -1  -3 -10   10.73    0.36
  -1  -3 -10   10.80    0.36
   1   3  10   10.87    0.36
   1   3  10   11.32    0.37
   1   3  10   10.58    0.35
  -2  -3 -10    4.37    0.19
  -2  -3 -10    4.44    0.19
   2   3  10    4.47    0.18
   2   3  10    4.34    0.18
   2   3  10    4.43    0.18
  -3  -3 -10    0.31    0.07
  -3  -3 -10    0.53    0.08
   3   3  10    0.38    0.06
   3   3  10    0.38    0.06
   3   3  10    0.46    0.07
   3  -4 -10    0.53    0.08
  -3   4  10    0.79    0.09
  -3   4  10    0.61    0.08
   2  -4 -10    0.23    0.05
  -2   4  10    0.18    0.05
  -2   4  10    0.28    0.05
   1  -4 -10    5.08    0.20
  -1   4  10    5.34    0.21
  -1   4  10    5.26    0.20
   0  -4 -10   13.15    0.43
   0  -4 -10   13.62    0.47
   0  -4 -10   13.78    0.44
   0   4  10   12.50    0.44
   0   4  10   13.20    0.43
  -1  -4 -10    5.65    0.22
  -1  -4 -10    5.52    0.22
   1   4  10    5.58    0.22
   1   4  10    5.58    0.21
  -2  -4 -10    0.20    0.06
  -2  -4 -10    0.14    0.05
   2   4  10    0.11    0.04
   2   4  10    0.15    0.05
  -3  -4 -10    0.45    0.09
   3   4  10    0.59    0.07
   3   4  10    0.45    0.07
   3  -5 -10    0.00    0.05
  -3   5  10    0.06    0.04
  -3   5  10    0.02    0.05
   2  -5 -10    1.62    0.11
  -2   5  10    1.78    0.11
  -2   5  10    1.81    0.11
   1  -5 -10    0.34    0.06
  -1   5  10    0.27    0.05
  -1   5  10    0.28    0.05
  -1   5  10    0.35    0.05
   0  -5 -10    0.08    0.04
   0  -5 -10    0.15    0.05
   0  -5 -10    0.23    0.05
   0   5  10    0.08    0.04
   0   5  10    0.07    0.04
  -1  -5 -10    4.27    0.18
  -1  -5 -10    3.76    0.17
  -1  -5 -10    4.70    0.25
   1   5  10    3.94    0.18
   1   5  10    3.90    0.16
  -2  -5 -10    0.11    0.05
   2   5  10    0.17    0.05
   2   5  10    0.18    0.05
  -3  -5 -10    0.05    0.07
   3   5  10   -0.01    0.04
   3   5  10    0.00    0.04
  -3   6  10    0.05    0.05
  -3   6  10   -0.04    0.04
  -2   6  10    1.54    0.11
  -2   6  10    1.56    0.10
  -1   6  10    0.79    0.08
  -1   6  10    0.94    0.08
  -1   6  10    0.88    0.08
   0  -6 -10    0.68    0.08
   0  -6 -10    0.67    0.08
   0   6  10    0.53    0.07
   0   6  10    0.50    0.06
  -1  -6 -10    1.62    0.11
  -1  -6 -10    1.39    0.10
   1   6  10    1.37    0.10
   1   6  10    1.56    0.09
  -2  -6 -10    0.10    0.06
   2   6  10    0.04    0.04
   2   6  10    0.16    0.05
   3   6  10    0.73    0.10
   3   6  10    0.78    0.08
  -3   7  10    0.13    0.05
  -3   7  10    0.00    0.05
  -2   7  10    0.05    0.04
  -2   7  10    0.08    0.05
   1  -7 -10    0.26    0.07
   1  -7 -10    0.37    0.07
  -1   7  10    0.36    0.05
  -1   7  10    0.29    0.06
  -1   7  10    0.24    0.06
   0  -7 -10    0.08    0.05
   0  -7 -10    0.05    0.05
   0   7  10    0.04    0.03
   0   7  10    0.02    0.04
  -1  -7 -10    0.01    0.05
  -1  -7 -10   -0.02    0.04
   1   7  10   -0.01    0.04
   1   7  10    0.02    0.03
  -2  -7 -10    0.07    0.06
   2   7  10    0.10    0.05
   2   7  10    0.11    0.05
  -2   8  10    0.00    0.04
  -2   8  10    0.04    0.08
  -2   8  10    0.02    0.04
   1  -8 -10    0.28    0.07
   1  -8 -10    0.31    0.07
  -1   8  10    0.31    0.07
  -1   8  10    0.24    0.06
  -1   8  10    0.30    0.05
   0  -8 -10    1.22    0.10
   0  -8 -10    1.22    0.11
   0   8  10    1.02    0.10
   0   8  10    1.15    0.08
  -1  -8 -10    0.32    0.07
  -1  -8 -10    0.22    0.07
   1   8  10    0.38    0.07
   1   8  10    0.31    0.05
  -2  -8 -10    0.39    0.08
   2   8  10    0.41    0.08
   2   8  10    0.31    0.06
  -2   9  10    1.71    0.12
  -2   9  10    1.70    0.19
  -2   9  10    1.52    0.10
   1  -9 -10    0.38    0.08
   1  -9 -10    0.45    0.09
  -1   9  10    0.39    0.08
  -1   9  10    0.44    0.07
  -1   9  10    0.27    0.05
   0  -9 -10    1.54    0.12
   0  -9 -10    1.16    0.11
   0   9  10    1.32    0.09
   0   9  10    1.43    0.11
  -1  -9 -10    1.04    0.12
  -1  -9 -10    0.95    0.10
   1   9  10    0.93    0.10
   1   9  10    0.94    0.07
   1 -10 -10    0.04    0.06
  -1  10  10    0.01    0.04
  -1  10  10    0.04    0.06
  -1  10  10    0.02    0.05
   0 -10 -10    0.27    0.08
   0 -10 -10    0.14    0.07
   0  10  10    0.25    0.05
   0  10  10    0.24    0.06
   1  10 -11   -0.05    0.05
  -1 -10  11   -0.02    0.05
  -1 -10  11    0.03    0.05
   0  10 -11    0.12    0.06
   0 -10  11    0.01    0.05
   1 -10  11    0.46    0.08
   1   9 -11    0.26    0.07
  -1  -9  11    0.27    0.06
   0   9 -11    0.37    0.08
   0  -9  11    0.44    0.08
   0  -9  11    0.32    0.07
   1  -9  11    7.67    0.30
   2  -9  11    8.54    0.33
   2   8 -11    3.11    0.17
  -2  -8  11    2.90    0.16
   1   8 -11    3.41    0.18
  -1  -8  11    3.73    0.18
   0   8 -11    1.40    0.11
   0  -8  11    1.21    0.09
   0  -8  11    1.29    0.11
   1  -8  11    0.46    0.08
   2  -8  11    0.79    0.10
   2   7 -11    1.73    0.13
  -2  -7  11    1.83    0.13
   1   7 -11    0.06    0.05
  -1  -7  11    0.08    0.04
   0   7 -11    3.61    0.18
   0  -7  11    3.65    0.16
   0  -7  11    3.55    0.17
   1  -7  11   19.44    0.64
   2  -7  11    2.92    0.14
   2  -7  11    2.85    0.16
   3  -7  11    0.08    0.06
   3  -7  11    0.18    0.06
   3   6 -11    0.23    0.07
  -3  -6  11    0.20    0.06
  -3  -6  11    0.38    0.08
   2   6 -11    0.08    0.05
  -2  -6  11   -0.03    0.04
   1   6 -11    0.87    0.09
  -1  -6  11    0.81    0.08
   0   6 -11    0.01    0.04
   0  -6  11    0.05    0.04
   0  -6  11   -0.01    0.03
   1  -6  11    4.36    0.19
   2  -6  11    0.81    0.09
   2  -6  11    1.17    0.09
   3  -6  11    0.17    0.06
   3  -6  11    0.15    0.06
   3   5 -11    0.02    0.05
  -3  -5  11    0.13    0.06
  -3  -5  11    0.10    0.06
   2   5 -11    2.15    0.13
  -2  -5  11    1.98    0.13
   1   5 -11    1.45    0.11
  -1  -5  11    1.38    0.10
   0   5 -11    4.87    0.21
   0  -5  11    5.07    0.20
   0  -5  11    5.28    0.21
   1  -5  11    1.18    0.08
   1  -5  11    1.23    0.09
   1  -5  11    1.21    0.08
   2  -5  11    2.13    0.12
   2  -5  11    2.31    0.13
   3  -5  11    0.06    0.05
   3  -5  11    0.09    0.05
   3   4 -11    1.08    0.11
  -3  -4  11    0.99    0.10
  -3  -4  11    1.01    0.11
   2   4 -11    0.68    0.09
  -2  -4  11    0.64    0.08
  -2  -4  11    0.70    0.08
   1   4 -11    1.85    0.12
  -1  -4  11    1.87    0.11
  -1  -4  11    1.87    0.10
   0   4 -11    0.25    0.05
   0  -4  11    0.21    0.04
   0  -4  11    0.23    0.05
   0  -4  11    0.30    0.05
   1  -4  11    3.38    0.16
   1  -4  11    3.32    0.15
   1  -4  11    3.44    0.14
   2  -4  11    1.12    0.10
   2  -4  11    0.91    0.09
  -3   4 -11    0.29    0.05
   3  -4  11    0.41    0.08
   3  -4  11    0.34    0.07
   3   3 -11    0.49    0.08
  -3  -3  11    0.31    0.06
  -3  -3  11    0.41    0.07
   2   3 -11    1.41    0.11
  -2  -3  11    1.55    0.10
  -2  -3  11    1.58    0.10
   1   3 -11    6.09    0.24
  -1  -3  11    5.87    0.22
  -1  -3  11    6.22    0.23
   0   3 -11    1.64    0.10
   0  -3  11    1.41    0.09
   0  -3  11    1.60    0.10
   0  -3  11    1.51    0.09
   1  -3  11    0.08    0.04
   1  -3  11    0.13    0.04
   1  -3  11    0.17    0.04
  -2   3 -11    0.16    0.04
   2  -3  11    0.05    0.04
   2  -3  11    0.12    0.05
  -3   3 -11    0.19    0.05
   3  -3  11    0.15    0.06
   3  -3  11    0.11    0.05
   3   2 -11    0.23    0.06
   3   2 -11    0.26    0.05
  -3  -2  11    0.17    0.06
  -3  -2  11    0.24    0.06
   2   2 -11    1.37    0.10
   2   2 -11    1.40    0.08
  -2  -2  11    1.34    0.10
  -2  -2  11    1.30    0.10
   1   2 -11    0.47    0.06
   1   2 -11    0.36    0.04
  -1  -2  11    0.49    0.06
  -1  -2  11    0.32    0.05
   0   2 -11    3.38    0.15
   0   2 -11    3.35    0.13
   0  -2  11    3.35    0.15
   0  -2  11    3.16    0.14
   0  -2  11    3.40    0.14
  -1   2 -11    0.11    0.03
   1  -2  11    0.15    0.04
   1  -2  11    0.10    0.04
   1  -2  11    0.16    0.04
  -2   2 -11    1.09    0.08
   2  -2  11    1.23    0.11
   2  -2  11    1.33    0.09
  -3   2 -11    0.13    0.05
   3  -2  11    0.18    0.06
   3  -2  11    0.14    0.06
   3   1 -11    0.69    0.07
   3   1 -11    0.71    0.09
  -3  -1  11    0.64    0.08
  -3  -1  11    0.60    0.08
   2   1 -11    0.09    0.05
   2   1 -11    0.14    0.04
  -2  -1  11    0.06    0.04
  -2  -1  11    0.13    0.05
   1   1 -11    0.14    0.04
   1   1 -11    0.13    0.04
  -1  -1  11    0.18    0.04
  -1  -1  11    0.16    0.05
   0   1 -11    4.19    0.18
   0   1 -11    4.20    0.16
   0  -1  11    4.47    0.17
   0  -1  11    4.20    0.17
   0  -1  11    4.41    0.17
  -1   1 -11    0.42    0.05
   1  -1  11    0.43    0.05
   1  -1  11    0.28    0.05
   1  -1  11    0.38    0.05
  -2   1 -11    1.43    0.09
   2  -1  11    1.48    0.11
   2  -1  11    1.48    0.10
   2  -1  11    1.50    0.08
  -3   1 -11    0.28    0.06
   3  -1  11    0.23    0.06
   3   0 -11    0.14    0.05
   3   0 -11    0.08    0.05
  -3   0  11    0.09    0.06
  -3   0  11    0.10    0.05
   2   0 -11    0.48    0.07
   2   0 -11    0.57    0.06
  -2   0  11    0.52    0.07
  -2   0  11    0.49    0.07
   1   0 -11    1.58    0.09
   1   0 -11    1.66    0.10
  -1   0  11    1.66    0.10
  -1   0  11    1.54    0.10
   0   0 -11    1.52    0.09
   0   0 -11    1.54    0.10
   0   0  11    1.57    0.09
   0   0  11    1.73    0.09
   0   0  11    1.56    0.09
  -1   0 -11    3.44    0.15
   1   0  11    3.57    0.15
   1   0  11    3.43    0.16
   1   0  11    3.67    0.15
  -2   0 -11   10.37    0.36
   2   0  11   11.13    0.38
   2   0  11   10.39    0.35
   2   0  11   10.79    0.37
  -3   0 -11    0.33    0.06
   3   0  11    0.28    0.07
   3  -1 -11   -0.03    0.04
   3  -1 -11    0.05    0.04
  -3   1  11   -0.03    0.04
   2  -1 -11    6.53    0.25
   2  -1 -11    6.47    0.24
  -2   1  11    6.65    0.25
  -2   1  11    6.45    0.25
   1  -1 -11    8.98    0.30
   1  -1 -11    8.94    0.30
  -1   1  11    8.51    0.31
  -1   1  11    8.40    0.31
   0  -1 -11    0.50    0.06
   0  -1 -11    0.59    0.07
   0   1  11    0.50    0.07
   0   1  11    0.60    0.06
   0   1  11    0.49    0.06
   0   1  11    0.57    0.06
  -1  -1 -11   14.69    0.47
   1   1  11   14.17    0.47
   1   1  11   14.23    0.48
   1   1  11   14.47    0.47
   1   1  11   14.84    0.47
  -2  -1 -11    7.52    0.28
   2   1  11    7.41    0.28
   2   1  11    8.15    0.28
  -3  -1 -11    0.39    0.07
   3   1  11    0.46    0.07
   3  -2 -11    0.31    0.06
   3  -2 -11    0.25    0.06
  -3   2  11    0.35    0.07
   2  -2 -11    1.12    0.09
   2  -2 -11    0.89    0.08
  -2   2  11    0.81    0.08
  -2   2  11    0.92    0.09
   1  -2 -11    0.05    0.04
   1  -2 -11    0.01    0.03
  -1   2  11    0.00    0.04
  -1   2  11   -0.03    0.03
  -1   2  11   -0.06    0.03
   0  -2 -11    9.08    0.31
   0   2  11    8.67    0.31
   0   2  11    8.86    0.31
   0   2  11    8.91    0.30
   0   2  11    8.96    0.30
  -1  -2 -11   22.10    0.69
   1   2  11   21.51    0.68
   1   2  11   22.31    0.68
   1   2  11   22.08    0.70
   1   2  11   21.22    0.69
  -2  -2 -11   14.94    0.49
   2   2  11   14.64    0.48
   2   2  11   14.95    0.48
   2   2  11   14.49    0.48
  -3  -2 -11    0.06    0.05
  -3  -2 -11   -0.03    0.05
   3   2  11    0.03    0.05
   3  -3 -11    0.33    0.06
   3  -3 -11    0.25    0.06
  -3   3  11    0.32    0.06
   2  -3 -11    0.02    0.04
   2  -3 -11    0.11    0.05
  -2   3  11    0.13    0.05
  -2   3  11    0.09    0.05
   1  -3 -11    0.83    0.07
   1  -3 -11    0.83    0.08
  -1   3  11    0.86    0.08
  -1   3  11    0.74    0.08
   0  -3 -11    0.05    0.04
   0   3  11    0.02    0.03
   0   3  11    0.03    0.03
   0   3  11   -0.01    0.03
  -1  -3 -11    0.03    0.04
   1   3  11    0.12    0.04
   1   3  11    0.10    0.04
   1   3  11    0.12    0.04
  -2  -3 -11    1.93    0.12
   2   3  11    1.85    0.11
   2   3  11    1.78    0.11
   2   3  11    2.09    0.12
  -3  -3 -11    1.49    0.12
   3   3  11    1.33    0.10
   3  -4 -11   -0.05    0.04
  -3   4  11    0.01    0.05
   2  -4 -11   -0.05    0.04
  -2   4  11   -0.02    0.04
  -2   4  11   -0.05    0.04
   1  -4 -11    5.68    0.22
  -1   4  11    5.67    0.23
  -1   4  11    5.73    0.22
   0  -4 -11    0.34    0.06
   0   4  11    0.24    0.05
   0   4  11    0.34    0.06
  -1  -4 -11    0.60    0.08
   1   4  11    0.68    0.07
   1   4  11    0.75    0.08
  -2  -4 -11    1.24    0.12
  -2  -4 -11    1.28    0.11
   2   4  11    1.35    0.10
   2   4  11    1.23    0.09
  -3  -4 -11   -0.02    0.06
   3   4  11   -0.02    0.04
   3   4  11    0.07    0.05
   3  -5 -11    0.09    0.05
  -3   5  11    0.08    0.05
  -3   5  11    0.11    0.06
   2  -5 -11   -0.05    0.04
  -2   5  11    0.04    0.04
  -2   5  11   -0.02    0.04
   1  -5 -11   -0.02    0.04
  -1   5  11    0.04    0.04
  -1   5  11    0.02    0.04
   0  -5 -11    2.41    0.13
   0   5  11    2.45    0.13
   0   5  11    2.31    0.12
  -1  -5 -11    0.25    0.07
   1   5  11    0.27    0.05
   1   5  11    0.16    0.05
  -2  -5 -11    0.84    0.10
   2   5  11    0.80    0.08
   2   5  11    0.89    0.09
   3   5  11    0.08    0.05
  -3   6  11    0.22    0.06
  -3   6  11    0.10    0.05
  -2   6  11    0.14    0.05
  -2   6  11    0.07    0.05
  -1   6  11    0.28    0.06
  -1   6  11    0.19    0.05
   0   6  11    0.15    0.04
   0   6  11    0.07    0.04
   1   6  11    0.13    0.05
   1   6  11    0.12    0.04
  -2  -6 -11    0.21    0.07
   2   6  11    0.17    0.05
   2   6  11    0.23    0.05
  -2   7  11    1.35    0.11
  -2   7  11    1.15    0.10
  -1   7  11    0.88    0.09
  -1   7  11    0.93    0.09
   0   7  11    1.43    0.09
   0   7  11    1.45    0.11
  -1  -7 -11    1.88    0.15
   1   7  11    1.40    0.10
   1   7  11    1.54    0.12
  -2  -7 -11    0.04    0.06
   2   7  11    0.13    0.05
   2   7  11    0.06    0.05
  -2   8  11   -0.03    0.04
  -2   8  11    0.01    0.04
  -1   8  11    0.14    0.05
  -1   8  11    0.14    0.05
   0   8  11    0.34    0.07
   0   8  11    0.49    0.06
  -1  -8 -11    0.58    0.09
   1   8  11    0.64    0.09
   1   8  11    0.73    0.07
  -1   9  11    3.87    0.19
  -1   9  11    3.74    0.17
   0   9  11    0.13    0.05
   0   9  11    0.11    0.05
   1   9  11    1.09    0.12
   1   9  11    1.07    0.08
   0  10 -12    1.58    0.13
   0 -10  12    1.69    0.13
   1 -10  12    0.33    0.08
   1   9 -12    0.75    0.10
  -1  -9  12    0.84    0.10
  -1  -9  12    0.73    0.09
   0   9 -12    0.05    0.05
   0  -9  12    0.05    0.06
   1  -9  12    1.81    0.13
   2   8 -12   -0.06    0.04
  -2  -8  12    0.04    0.05
   1   8 -12    0.31    0.08
  -1  -8  12    0.27    0.06
   0   8 -12    0.11    0.06
   0  -8  12    0.03    0.04
   0  -8  12    0.03    0.05
   1  -8  12    0.08    0.05
   2  -8  12    4.11    0.20
   2   7 -12    0.37    0.08
  -2  -7  12    0.47    0.08
   1   7 -12    0.07    0.05
  -1  -7  12    0.03    0.04
   0   7 -12    0.99    0.11
   0  -7  12    0.90    0.09
   0  -7  12    0.91    0.10
   1  -7  12    0.45    0.07
   2  -7  12    1.52    0.12
   2   6 -12    2.70    0.16
  -2  -6  12    2.76    0.15
   1   6 -12    0.34    0.07
  -1  -6  12    0.67    0.08
   0   6 -12    0.03    0.05
   0  -6  12   -0.03    0.04
   0  -6  12    0.06    0.04
   1  -6  12    0.18    0.06
   2  -6  12    0.35    0.07
   2  -6  12    0.34    0.06
   3  -6  12    0.84    0.10
   3  -6  12    0.81    0.10
   3   5 -12    0.08    0.06
  -3  -5  12   -0.01    0.05
  -3  -5  12   -0.03    0.04
   2   5 -12    0.01    0.05
  -2  -5  12    0.00    0.04
  -2  -5  12   -0.04    0.04
   1   5 -12    3.42    0.18
  -1  -5  12    4.04    0.17
   0   5 -12    2.05    0.13
   0  -5  12    1.94    0.12
   0  -5  12    2.07    0.11
   1  -5  12    2.05    0.12
   2  -5  12    0.01    0.05
   2  -5  12    0.16    0.05
   3  -5  12    0.05    0.05
   3  -5  12   -0.04    0.05
   3   4 -12    0.00    0.05
  -3  -4  12    0.01    0.05
  -3  -4  12   -0.02    0.05
   2   4 -12    0.30    0.07
  -2  -4  12    0.25    0.06
  -2  -4  12    0.22    0.06
   1   4 -12    0.10    0.05
  -1  -4  12    0.14    0.05
  -1  -4  12    0.13    0.04
   0   4 -12    0.53    0.07
   0  -4  12    0.54    0.07
   0  -4  12    0.44    0.06
   0  -4  12    0.47    0.06
   1  -4  12    0.92    0.07
   1  -4  12    1.10    0.09
   1  -4  12    0.77    0.08
   2  -4  12    0.12    0.05
   2  -4  12    0.06    0.05
  -3   4 -12    0.20    0.05
   3  -4  12    0.25    0.07
   3  -4  12    0.26    0.07
   3   3 -12   -0.03    0.05
  -3  -3  12    0.01    0.04
  -3  -3  12    0.02    0.05
   2   3 -12    0.07    0.05
  -2  -3  12    0.00    0.04
  -2  -3  12    0.06    0.05
   1   3 -12    0.03    0.04
  -1  -3  12    0.05    0.04
  -1  -3  12    0.04    0.04
   0   3 -12    1.04    0.09
   0  -3  12    0.80    0.08
   0  -3  12    0.68    0.07
   0  -3  12    0.87    0.08
   1  -3  12    2.74    0.14
   1  -3  12    2.75    0.13
   1  -3  12    2.83    0.14
  -2   3 -12    0.68    0.06
   2  -3  12    0.60    0.08
   2  -3  12    0.68    0.08
  -3   3 -12    0.07    0.04
   3  -3  12    0.22    0.06
   3  -3  12    0.23    0.07
   3   2 -12    3.77    0.15
   3   2 -12    3.60    0.19
  -3  -2  12    3.70    0.18
  -3  -2  12    3.79    0.18
   2   2 -12    0.09    0.03
   2   2 -12    0.14    0.05
  -2  -2  12    0.08    0.05
  -2  -2  12    0.05    0.04
   1   2 -12    0.06    0.04
   1   2 -12    0.03    0.03
  -1  -2  12    0.03    0.04
  -1  -2  12    0.08    0.04
   0   2 -12    0.90    0.09
   0   2 -12    0.79    0.06
   0  -2  12    0.82    0.08
   0  -2  12    1.04    0.09
   0  -2  12    0.83    0.08
  -1   2 -12    0.69    0.06
   1  -2  12    0.71    0.07
   1  -2  12    0.56    0.07
   1  -2  12    0.80    0.08
  -2   2 -12    1.09    0.08
   2  -2  12    1.17    0.10
   2  -2  12    1.23    0.10
  -3   2 -12    3.31    0.16
   3  -2  12    3.57    0.18
   3  -2  12    3.71    0.18
   3   1 -12    0.07    0.04
   3   1 -12    0.02    0.05
  -3  -1  12    0.04    0.05
  -3  -1  12   -0.03    0.04
   2   1 -12    0.59    0.08
   2   1 -12    0.57    0.06
  -2  -1  12    0.63    0.08
  -2  -1  12    0.47    0.07
   1   1 -12    6.39    0.23
   1   1 -12    6.47    0.25
  -1  -1  12    6.58    0.25
  -1  -1  12    6.22    0.24
   0   1 -12    5.72    0.22
   0   1 -12    5.19    0.20
   0  -1  12    5.38    0.21
   0  -1  12    5.53    0.21
   0  -1  12    6.02    0.22
  -1   1 -12    0.14    0.04
   1  -1  12    0.11    0.04
   1  -1  12    0.15    0.05
   1  -1  12    0.10    0.05
  -2   1 -12    5.67    0.21
   2  -1  12    5.56    0.22
   2  -1  12    5.13    0.22
  -3   1 -12    2.86    0.15
   3  -1  12    3.16    0.16
   3   0 -12    0.09    0.05
   3   0 -12    0.08    0.05
  -3   0  12    0.09    0.05
  -3   0  12    0.11    0.06
   2   0 -12    0.24    0.05
   2   0 -12    0.15    0.05
  -2   0  12    0.20    0.06
  -2   0  12    0.12    0.05
   1   0 -12    0.24    0.05
   1   0 -12    0.28    0.05
  -1   0  12    0.20    0.05
  -1   0  12    0.24    0.05
   0   0 -12    0.05    0.03
   0   0 -12    0.01    0.04
   0   0  12    0.02    0.04
   0   0  12    0.04    0.04
   0   0  12    0.00    0.04
  -1   0 -12    5.37    0.20
   1   0  12    5.30    0.21
   1   0  12    5.27    0.21
   1   0  12    5.29    0.22
  -2   0 -12   17.68    0.57
   2   0  12   17.81    0.59
   2   0  12   18.18    0.58
   2   0  12   17.74    0.57
  -3   0 -12   13.10    0.45
   3   0  12   13.01    0.45
   3  -1 -12    0.02    0.05
   3  -1 -12    0.02    0.05
  -3   1  12   -0.06    0.04
   2  -1 -12    0.80    0.08
   2  -1 -12    0.72    0.08
  -2   1  12    0.84    0.09
  -2   1  12    0.67    0.08
   1  -1 -12    0.08    0.04
   1  -1 -12    0.02    0.04
  -1   1  12   -0.03    0.04
  -1   1  12    0.01    0.04
   0  -1 -12    0.08    0.04
   0  -1 -12    0.10    0.04
   0   1  12    0.06    0.04
   0   1  12    0.08    0.04
   0   1  12    0.12    0.05
  -1  -1 -12    0.08    0.04
   1   1  12    0.17    0.05
   1   1  12    0.09    0.05
   1   1  12    0.16    0.05
  -2  -1 -12    0.10    0.05
   2   1  12    0.10    0.04
   2   1  12    0.03    0.04
  -3  -1 -12    0.49    0.07
   3   1  12    0.64    0.08
   3  -2 -12    0.12    0.05
   3  -2 -12    0.10    0.05
  -3   2  12    0.06    0.05
   2  -2 -12    0.13    0.05
   2  -2 -12    0.07    0.04
  -2   2  12    0.04    0.04
   1  -2 -12    0.16    0.05
   1  -2 -12    0.22    0.05
  -1   2  12    0.25    0.06
  -1   2  12    0.17    0.05
   0  -2 -12    6.44    0.24
   0   2  12    6.31    0.24
   0   2  12    6.05    0.23
   0   2  12    6.17    0.24
  -1  -2 -12    0.27    0.06
   1   2  12    0.41    0.06
   1   2  12    0.16    0.05
  -2  -2 -12    1.40    0.10
   2   2  12    1.24    0.09
   2   2  12    1.36    0.09
  -3  -2 -12    0.16    0.06
   3   2  12    0.05    0.05
   3  -3 -12    0.04    0.05
  -3   3  12    0.08    0.06
   2  -3 -12    0.18    0.06
  -2   3  12    0.10    0.05
   1  -3 -12    0.11    0.05
  -1   3  12    0.03    0.04
  -1   3  12    0.07    0.04
   0  -3 -12    0.03    0.04
   0   3  12    0.02    0.04
   0   3  12    0.03    0.04
  -1  -3 -12    2.69    0.14
   1   3  12    2.62    0.13
   1   3  12    2.64    0.13
  -2  -3 -12    0.22    0.06
   2   3  12    0.12    0.05
   2   3  12    0.12    0.05
  -3  -3 -12    2.01    0.13
   3  -4 -12    0.01    0.05
  -3   4  12   -0.01    0.05
   2  -4 -12    0.06    0.05
  -2   4  12    0.06    0.06
  -2   4  12    0.05    0.05
   1  -4 -12    0.37    0.07
  -1   4  12    0.28    0.06
  -1   4  12    0.21    0.05
   0  -4 -12    0.01    0.04
   0   4  12    0.01    0.03
   0   4  12   -0.04    0.03
  -1  -4 -12    0.08    0.05
   1   4  12    0.01    0.04
   1   4  12    0.00    0.04
  -2  -4 -12    0.09    0.06
   2   4  12    0.03    0.04
   2   4  12    0.09    0.05
   3  -5 -12    0.02    0.06
  -3   5  12   -0.01    0.05
   2  -5 -12    0.17    0.06
  -2   5  12    0.21    0.06
  -2   5  12    0.08    0.05
   1  -5 -12    0.62    0.08
  -1   5  12    1.03    0.10
  -1   5  12    0.95    0.09
   0  -5 -12    0.49    0.07
   0   5  12    0.35    0.06
   0   5  12    0.33    0.06
   1   5  12    1.12    0.10
   1   5  12    0.98    0.09
   2   5  12    0.50    0.07
   2   5  12    0.59    0.08
  -2   6  12    0.01    0.04
  -2   6  12    0.05    0.05
  -1   6  12    0.18    0.05
  -1   6  12    0.15    0.05
   0   6  12    0.05    0.04
   0   6  12    0.00    0.04
   1   6  12    1.35    0.10
   1   6  12    1.32    0.11
   2   6  12    2.21    0.12
   2   6  12    2.32    0.15
  -2   7  12    0.07    0.05
  -2   7  12    0.06    0.05
  -1   7  12    0.06    0.05
  -1   7  12    0.05    0.04
   0   7  12    5.15    0.21
   0   7  12    5.26    0.23
   1   7  12    0.11    0.05
   1   7  12    0.05    0.05
  -1   8  12    3.80    0.17
   0   8  12    0.84    0.10
   0   8  12    1.06    0.09
   1   8  12    0.69    0.09
   1   8  12    0.62    0.08
   0   9 -13    0.29    0.08
   0  -9  13    0.25    0.07
   1  -9  13    0.18    0.07
   1   8 -13    2.89    0.17
  -1  -8  13    2.87    0.17
  -1  -8  13    2.72    0.15
   0   8 -13    0.12    0.06
   0  -8  13    0.05    0.06
   1  -8  13    0.12    0.06
   2  -8  13    0.08    0.05
   2   7 -13   -0.01    0.05
  -2  -7  13    0.02    0.05
   1   7 -13    0.32    0.07
  -1  -7  13    0.22    0.06
   0   7 -13    3.23    0.18
   0  -7  13    3.27    0.15
   0  -7  13    3.34    0.17
   1  -7  13    0.06    0.05
   2  -7  13    1.55    0.11
   2  -7  13    1.54    0.12
   2   6 -13    0.31    0.08
  -2  -6  13    0.24    0.07
  -2  -6  13    0.28    0.06
   1   6 -13    0.25    0.07
  -1  -6  13    0.20    0.06
   0   6 -13    0.43    0.08
   0  -6  13    0.31    0.06
   0  -6  13    0.34    0.07
   1  -6  13    0.43    0.06
   1  -6  13    0.39    0.07
   2  -6  13   -0.02    0.05
   2  -6  13    0.10    0.05
   2   5 -13    0.00    0.05
  -2  -5  13    0.01    0.04
  -2  -5  13    0.04    0.04
   1   5 -13    0.22    0.06
  -1  -5  13    0.22    0.06
  -1  -5  13    0.20    0.05
   0   5 -13   -0.02    0.05
   0  -5  13   -0.02    0.03
   0  -5  13   -0.03    0.04
   1  -5  13    2.07    0.13
   1  -5  13    2.00    0.12
   2  -5  13    1.15    0.11
   2  -5  13    0.81    0.09
   2   4 -13    4.73    0.22
  -2  -4  13    4.47    0.21
  -2  -4  13    4.40    0.19
   1   4 -13   -0.05    0.04
  -1  -4  13    0.01    0.04
  -1  -4  13    0.08    0.04
   0   4 -13    1.01    0.10
   0  -4  13    1.25    0.09
   0  -4  13    1.33    0.10
   0  -4  13    1.50    0.09
   1  -4  13    0.27    0.06
   1  -4  13    0.22    0.06
   1  -4  13    0.12    0.05
   2  -4  13    0.06    0.05
   2  -4  13    0.01    0.05
  -3   4 -13    0.21    0.05
   3  -4  13    0.26    0.07
   3  -4  13    0.35    0.07
   3   3 -13    0.05    0.06
  -3  -3  13    0.00    0.05
  -3  -3  13    0.01    0.05
   2   3 -13    0.50    0.08
  -2  -3  13    0.55    0.07
  -2  -3  13    0.43    0.07
   1   3 -13    1.41    0.11
  -1  -3  13    1.40    0.10
  -1  -3  13    1.42    0.10
   0   3 -13    2.88    0.15
   0  -3  13    2.84    0.14
   0  -3  13    2.75    0.14
   0  -3  13    2.99    0.14
   1  -3  13    1.74    0.11
   1  -3  13    1.50    0.11
   1  -3  13    1.69    0.10
  -2   3 -13    0.02    0.03
   2  -3  13   -0.03    0.04
   2  -3  13    0.00    0.05
  -3   3 -13    0.58    0.07
   3  -3  13    0.79    0.10
   3  -3  13    0.77    0.10
   3   2 -13    3.49    0.15
   3   2 -13    3.73    0.19
  -3  -2  13    3.77    0.19
  -3  -2  13    3.79    0.19
   2   2 -13    0.18    0.04
   2   2 -13    0.12    0.06
  -2  -2  13    0.10    0.05
  -2  -2  13    0.22    0.06
   1   2 -13    0.11    0.05
   1   2 -13    0.09    0.03
  -1  -2  13    0.06    0.04
  -1  -2  13    0.08    0.04
   0   2 -13    0.01    0.03
   0   2 -13   -0.03    0.04
   0  -2  13    0.00    0.04
   0  -2  13    0.09    0.04
   0  -2  13    0.02    0.04
  -1   2 -13    0.05    0.03
   1  -2  13    0.10    0.05
   1  -2  13    0.05    0.04
   1  -2  13    0.10    0.05
  -2   2 -13    0.98    0.08
   2  -2  13    0.69    0.09
   2  -2  13    0.80    0.09
  -3   2 -13    8.61    0.31
   3   1 -13    0.02    0.04
   3   1 -13    0.10    0.06
  -3  -1  13    0.10    0.06
  -3  -1  13    0.09    0.05
   2   1 -13    0.24    0.06
   2   1 -13    0.11    0.04
  -2  -1  13    0.13    0.06
  -2  -1  13    0.08    0.05
   1   1 -13    1.08    0.08
   1   1 -13    0.98    0.10
  -1  -1  13    1.06    0.09
  -1  -1  13    0.98    0.09
   0   1 -13    1.54    0.11
   0   1 -13    1.57    0.09
   0  -1  13    1.51    0.10
   0  -1  13    1.54    0.10
   0  -1  13    1.43    0.10
  -1   1 -13    2.00    0.11
   1  -1  13    2.02    0.11
   1  -1  13    2.07    0.12
   1  -1  13    2.03    0.12
  -2   1 -13    0.03    0.04
   2  -1  13    0.07    0.05
   2  -1  13    0.00    0.04
  -3   1 -13    0.02    0.05
   3  -1  13   -0.02    0.05
   3   0 -13    3.17    0.16
   3   0 -13    3.34    0.17
  -3   0  13    4.37    0.27
  -3   0  13    3.08    0.17
   2   0 -13    0.08    0.05
   2   0 -13    0.12    0.05
  -2   0  13    0.05    0.05
  -2   0  13    0.16    0.06
   1   0 -13    1.40    0.10
   1   0 -13    1.18    0.09
  -1   0  13    1.27    0.10
  -1   0  13    1.36    0.10
   0   0 -13    0.86    0.08
   0   0 -13    0.92    0.09
   0   0  13    0.96    0.09
   0   0  13    0.94    0.09
   0   0  13    0.84    0.09
  -1   0 -13    2.00    0.11
   1   0  13    1.76    0.11
   1   0  13    1.87    0.11
   1   0  13    1.80    0.12
  -2   0 -13    2.08    0.12
   2   0  13    2.30    0.13
  -3   0 -13    2.47    0.14
   3   0  13    2.55    0.15
   3  -1 -13    0.17    0.06
   3  -1 -13    0.18    0.06
  -3   1  13    0.11    0.06
   2  -1 -13    0.01    0.04
   2  -1 -13    0.10    0.05
  -2   1  13    0.08    0.05
  -2   1  13    0.01    0.04
   1  -1 -13    0.18    0.05
   1  -1 -13    0.18    0.05
  -1   1  13    0.23    0.06
  -1   1  13    0.22    0.06
   0  -1 -13    0.41    0.06
   0   1  13    0.52    0.06
   0   1  13    0.48    0.07
   0   1  13    0.41    0.06
  -1  -1 -13    0.12    0.05
   1   1  13    0.05    0.04
   1   1  13    0.14    0.05
   1   1  13    0.10    0.04
  -2  -1 -13    0.50    0.07
   2   1  13    0.44    0.07
   2   1  13    0.49    0.07
  -3  -1 -13   -0.02    0.04
   3   1  13   -0.06    0.05
   3  -2 -13    0.10    0.06
   3  -2 -13    0.09    0.05
  -3   2  13    0.06    0.05
   2  -2 -13    0.04    0.04
   2  -2 -13    0.02    0.04
  -2   2  13    0.04    0.04
   1  -2 -13    0.09    0.04
   1  -2 -13    0.02    0.04
  -1   2  13    0.04    0.03
  -1   2  13   -0.01    0.05
  -1   2  13    0.01    0.04
   0  -2 -13    0.55    0.07
   0   2  13    0.63    0.07
   0   2  13    0.43    0.09
   0   2  13    0.56    0.07
  -1  -2 -13    0.85    0.09
   1   2  13    0.80    0.08
   1   2  13    0.78    0.08
  -2  -2 -13    0.00    0.05
   2   2  13    0.01    0.04
   2   2  13    0.05    0.06
   3  -3 -13    0.05    0.06
  -3   3  13    0.04    0.06
   2  -3 -13    0.32    0.07
  -2   3  13    0.28    0.06
   1  -3 -13    0.11    0.05
  -1   3  13    0.05    0.04
   0  -3 -13    0.17    0.06
   0   3  13    0.12    0.05
  -1  -3 -13    0.22    0.06
   1   3  13    0.30    0.06
  -2  -3 -13    0.06    0.05
   2   3  13    0.03    0.04
   2  -4 -13    0.11    0.06
  -2   4  13    0.09    0.05
   1  -4 -13    0.07    0.05
  -1   4  13    0.08    0.05
  -1   4  13    0.13    0.05
   0  -4 -13    0.44    0.07
   0   4  13    0.33    0.06
   0   4  13    0.32    0.06
  -1  -4 -13    0.26    0.06
   1   4  13    0.29    0.06
   1   4  13    0.30    0.06
  -2  -4 -13    0.85    0.10
   2   4  13    1.06    0.09
   2   4  13    0.86    0.10
   2  -5 -13    0.97    0.10
  -2   5  13    0.78    0.09
  -2   5  13    0.95    0.10
   1  -5 -13    0.01    0.05
  -1   5  13    0.00    0.04
  -1   5  13    0.01    0.04
   0  -5 -13    0.39    0.07
   0   5  13    0.23    0.06
   0   5  13    0.28    0.06
   1   5  13    3.08    0.15
   1   5  13    3.03    0.16
   2   5  13   -0.02    0.04
   2   5  13   -0.06    0.04
  -2   6  13    0.37    0.07
  -2   6  13    0.42    0.07
  -1   6  13    0.87    0.09
  -1   6  13    0.89    0.10
   0   6  13    2.60    0.15
   0   6  13    2.60    0.13
   1   6  13    0.44    0.07
   1   6  13    0.46    0.07
  -1   7  13    0.09    0.05
  -1   7  13    0.19    0.06
   0   7  13    0.42    0.08
   0   7  13    0.89    0.09
   1   7  13    0.24    0.07
   1   7  13    0.19    0.06
   0   8 -14    0.32    0.08
   0  -8  14    0.25    0.07
   1  -8  14    0.86    0.10
   1   7 -14   -0.04    0.05
  -1  -7  14    0.11    0.06
  -1  -7  14    0.01    0.05
   0   7 -14    0.20    0.07
   0  -7  14    0.18    0.06
   0  -7  14    0.28    0.07
   1  -7  14    0.05    0.06
   1   6 -14    2.08    0.15
  -1  -6  14    2.39    0.15
  -1  -6  14    2.14    0.13
   0   6 -14    0.07    0.06
   0  -6  14    0.05    0.05
   0  -6  14    0.08    0.06
   1  -6  14    1.04    0.11
   1  -6  14    1.15    0.10
   2  -6  14    0.01    0.05
   2  -6  14    0.03    0.05
   2   5 -14   -0.01    0.05
  -2  -5  14   -0.04    0.05
  -2  -5  14   -0.03    0.04
   1   5 -14    1.04    0.11
  -1  -5  14    1.31    0.10
  -1  -5  14    1.23    0.10
   0   5 -14    0.87    0.10
   0  -5  14    0.73    0.08
   0  -5  14    0.70    0.08
   0  -5  14    0.80    0.09
   1  -5  14    0.60    0.08
   1  -5  14    0.62    0.08
   2  -5  14    0.40    0.08
   2  -5  14    0.60    0.09
   2   4 -14    3.41    0.19
  -2  -4  14    3.45    0.18
  -2  -4  14    3.35    0.17
   1   4 -14    0.53    0.08
  -1  -4  14    0.44    0.07
  -1  -4  14    0.53    0.07
   0   4 -14    0.71    0.09
   0  -4  14    0.60    0.07
   0  -4  14    0.64    0.08
   0  -4  14    0.79    0.09
   1  -4  14    0.04    0.05
   1  -4  14    0.05    0.04
   2  -4  14    0.34    0.07
   2  -4  14    0.32    0.07
   2   3 -14    0.44    0.08
  -2  -3  14    0.26    0.07
  -2  -3  14    0.53    0.08
   1   3 -14    0.14    0.05
  -1  -3  14    0.13    0.05
  -1  -3  14    0.19    0.06
   0   3 -14    0.55    0.08
   0  -3  14    0.51    0.07
   0  -3  14    0.46    0.07
   0  -3  14    0.51    0.07
   1  -3  14    3.75    0.18
   1  -3  14    3.75    0.16
   1  -3  14    3.97    0.18
  -2   3 -14    2.59    0.12
   2  -3  14    2.69    0.15
   2  -3  14    2.84    0.15
   2   2 -14    5.27    0.23
  -2  -2  14    5.01    0.23
  -2  -2  14    5.19    0.23
   1   2 -14   -0.01    0.05
   1   2 -14    0.03    0.03
  -1  -2  14    0.03    0.05
  -1  -2  14    0.04    0.05
   0   2 -14    2.00    0.13
   0   2 -14    1.98    0.10
   0  -2  14    1.76    0.12
   0  -2  14    1.81    0.11
   0  -2  14    2.13    0.12
  -1   2 -14    1.25    0.08
   1  -2  14    1.22    0.10
   1  -2  14    1.21    0.09
   1  -2  14    1.19    0.10
  -2   2 -14    0.07    0.04
   2  -2  14    0.11    0.06
   2  -2  14    0.19    0.06
   2   1 -14    0.01    0.04
   2   1 -14    0.08    0.05
  -2  -1  14   -0.05    0.04
  -2  -1  14    0.10    0.06
   1   1 -14    0.08    0.05
   1   1 -14    0.06    0.04
  -1  -1  14    0.16    0.06
  -1  -1  14    0.05    0.05
  -1  -1  14    0.03    0.05
   0   1 -14    0.01    0.04
   0   1 -14    0.05    0.05
   0  -1  14    0.06    0.05
   0  -1  14    0.09    0.05
   0  -1  14    0.08    0.05
  -1   1 -14    0.41    0.06
   1  -1  14    0.46    0.07
   1  -1  14    0.47    0.08
   1  -1  14    0.32    0.06
  -2   1 -14    0.02    0.05
   2  -1  14    0.11    0.05
   2  -1  14    0.00    0.05
   2   0 -14    0.00    0.04
   2   0 -14    0.03    0.05
  -2   0  14   -0.01    0.05
  -2   0  14   -0.03    0.04
   1   0 -14    0.30    0.06
   1   0 -14    0.29    0.06
  -1   0  14    0.22    0.06
  -1   0  14    0.28    0.06
  -1   0  14    0.30    0.06
   0   0 -14    0.10    0.04
   0   0  14    0.09    0.04
   0   0  14    0.04    0.05
   0   0  14    0.08    0.04
  -1   0 -14    0.58    0.07
   1   0  14    0.46    0.07
   1   0  14    0.52    0.07
   1   0  14    0.46    0.07
  -2   0 -14    2.06    0.12
   2   0  14    2.11    0.13
   2  -1 -14    0.52    0.07
   2  -1 -14    0.53    0.08
  -2   1  14    0.41    0.07
   1  -1 -14    0.56    0.08
   1  -1 -14    0.62    0.08
  -1   1  14    0.52    0.08
  -1   1  14    0.53    0.07
  -1   1  14    0.37    0.07
   0  -1 -14    0.02    0.04
   0   1  14   -0.03    0.03
   0   1  14   -0.02    0.04
   0   1  14   -0.05    0.04
  -1  -1 -14    0.12    0.05
   1   1  14    0.04    0.04
   1   1  14    0.11    0.05
  -2  -1 -14    0.18    0.06
   2   1  14    0.18    0.05
   2   1  14    0.25    0.06
   2  -2 -14    0.19    0.06
  -2   2  14    0.15    0.06
   1  -2 -14    0.52    0.07
  -1   2  14    0.28    0.06
   0  -2 -14    0.04    0.05
   0   2  14    0.15    0.05
  -1  -2 -14    0.20    0.06
   1   2  14    0.24    0.05
  -2  -2 -14    0.54    0.08
   2   2  14    0.56    0.07
   2  -3 -14    0.24    0.06
  -2   3  14    0.24    0.06
   1  -3 -14    0.53    0.08
  -1   3  14    0.57    0.08
   0  -3 -14    0.22    0.06
   0   3  14    0.33    0.07
  -1  -3 -14    0.90    0.10
   1   3  14    0.75    0.09
  -2  -3 -14    0.65    0.09
   2   3  14    0.72    0.09
   2  -4 -14    0.29    0.07
  -2   4  14    0.38    0.07
   1  -4 -14   -0.01    0.05
  -1   4  14    0.03    0.05
   0  -4 -14    0.68    0.09
   0   4  14    0.66    0.08
  -1  -4 -14    0.49    0.08
   1   4  14    0.50    0.07
  -2  -4 -14    0.22    0.07
   2   4  14    0.31    0.07
   2  -5 -14    0.77    0.10
  -2   5  14    0.83    0.10
   1  -5 -14    3.02    0.17
  -1   5  14    3.44    0.17
  -1   5  14    3.04    0.16
   0  -5 -14    0.70    0.09
   0   5  14    0.71    0.09
   0   5  14    0.80    0.09
   1   5  14    0.29    0.06
   1   5  14    0.29    0.07
  -1   6  14    0.59    0.09
  -1   6  14    0.54    0.08
   0   6  14    0.32    0.06
   0   6  14    0.28    0.07
   1   6  14    7.08    0.29
   1   6  14    7.17    0.27
   0   7 -15    0.81    0.11
   0  -7  15    0.66    0.09
   1   6 -15    3.36    0.19
  -1  -6  15    3.21    0.17
  -1  -6  15    3.26    0.18
  -1  -6  15    3.09    0.16
   0   6 -15    0.72    0.10
   0  -6  15    0.86    0.10
   0  -6  15    0.78    0.09
   0  -6  15    0.72    0.08
   1  -6  15    0.32    0.07
   1  -6  15    0.41    0.07
   1   5 -15    0.70    0.10
  -1  -5  15    0.83    0.09
  -1  -5  15    0.71    0.09
  -1  -5  15    1.16    0.12
   0   5 -15    0.05    0.06
   0  -5  15    0.00    0.04
   0  -5  15   -0.04    0.04
   0  -5  15    0.01    0.04
   1  -5  15    0.05    0.05
   1  -5  15    0.05    0.05
   1   4 -15    4.13    0.20
  -1  -4  15    3.95    0.19
  -1  -4  15    3.87    0.19
  -1  -4  15    3.93    0.19
   0   4 -15   -0.09    0.04
   0  -4  15   -0.05    0.04
   0  -4  15    0.03    0.05
   0  -4  15   -0.02    0.04
   1  -4  15    0.68    0.09
   1  -4  15    0.72    0.09
   2  -4  15    0.86    0.10
   2  -4  15    0.62    0.09
   2   3 -15    0.10    0.06
  -2  -3  15    0.09    0.06
  -2  -3  15    0.25    0.07
   1   3 -15    0.29    0.07
  -1  -3  15    0.26    0.06
  -1  -3  15    0.25    0.07
  -1  -3  15    0.28    0.07
   0   3 -15   -0.05    0.05
   0  -3  15   -0.04    0.04
   0  -3  15    0.00    0.04
   0  -3  15   -0.02    0.04
   1  -3  15    0.00    0.05
   1  -3  15    0.05    0.05
  -2   3 -15    0.04    0.04
   2  -3  15    0.05    0.05
   2  -3  15    0.01    0.05
   2   2 -15    0.20    0.07
  -2  -2  15    0.22    0.06
  -2  -2  15    0.55    0.09
   1   2 -15    0.49    0.08
  -1  -2  15    0.35    0.07
  -1  -2  15    0.26    0.07
  -1  -2  15    0.53    0.08
   0   2 -15    0.24    0.04
   0   2 -15    0.24    0.07
   0  -2  15    0.28    0.06
   0  -2  15    0.32    0.06
   0  -2  15    0.24    0.06
  -1   2 -15    0.01    0.03
   1  -2  15    0.03    0.04
   1  -2  15   -0.01    0.04
   1  -2  15    0.04    0.05
  -2   2 -15    0.14    0.05
   2  -2  15    0.17    0.06
   2  -2  15    0.20    0.06
   2   1 -15   -0.02    0.05
   2   1 -15   -0.02    0.04
  -2  -1  15    0.03    0.06
  -2  -1  15   -0.03    0.05
   1   1 -15    0.82    0.10
   1   1 -15    0.68    0.07
  -1  -1  15    0.74    0.09
  -1  -1  15    0.59    0.09
  -1  -1  15    0.93    0.10
   0   1 -15    0.15    0.05
   0  -1  15    0.18    0.06
   0  -1  15    0.20    0.06
   0  -1  15    0.17    0.06
  -1   1 -15    0.03    0.04
   1  -1  15    0.04    0.05
   1  -1  15    0.01    0.04
   1  -1  15    0.00    0.04
  -2   1 -15    0.07    0.05
   2  -1  15    0.10    0.06
   2   0 -15    0.26    0.07
   2   0 -15    0.22    0.06
  -2   0  15    0.24    0.07
  -2   0  15    0.21    0.06
   1   0 -15    0.11    0.05
   1   0 -15    0.11    0.04
  -1   0  15    0.05    0.05
  -1   0  15    0.13    0.06
  -1   0  15    0.26    0.06
   0   0 -15    0.47    0.06
   0   0  15    0.39    0.07
   0   0  15    0.35    0.07
   0   0  15    0.41    0.07
  -1   0 -15    0.05    0.04
   1   0  15    0.03    0.04
   1   0  15   -0.03    0.05
   1   0  15    0.00    0.04
  -2   0 -15    0.02    0.05
   2   0  15    0.15    0.06
   2  -1 -15    0.31    0.07
   2  -1 -15    0.42    0.07
  -2   1  15    0.24    0.07
   1  -1 -15    0.05    0.05
   1  -1 -15   -0.02    0.04
  -1   1  15    0.04    0.06
  -1   1  15    0.04    0.05
   0  -1 -15    0.17    0.05
   0   1  15    0.26    0.06
   0   1  15    0.20    0.06
  -1  -1 -15    0.53    0.07
   1   1  15    0.70    0.12
   1   1  15    0.41    0.07
  -2  -1 -15    0.32    0.07
   2  -2 -15    0.51    0.08
  -2   2  15    0.45    0.08
   1  -2 -15    0.03    0.05
  -1   2  15    0.07    0.05
   0  -2 -15    0.09    0.05
   0   2  15    0.01    0.04
  -1  -2 -15    0.18    0.06
   1   2  15    0.30    0.06
   1  -3 -15    0.73    0.09
  -1   3  15    0.70    0.09
   0  -3 -15    3.00    0.16
   0   3  15    2.82    0.16
  -1  -3 -15    0.73    0.09
   1   3  15    0.69    0.09
   1  -4 -15    0.25    0.07
  -1   4  15    0.18    0.06
   0  -4 -15    0.28    0.07
   0   4  15    0.17    0.06
  -1  -4 -15    0.31    0.07
   1   4  15    0.20    0.06
   1  -5 -15    1.83    0.13
   0  -5 -15    1.09    0.11
   0   5  15    0.99    0.11
   0   5 -16    0.54    0.10
   0  -5  16    0.71    0.10
   0  -5  16    0.50    0.08
   0  -5  16    0.62    0.08
   1   4 -16    0.06    0.06
  -1  -4  16   -0.03    0.05
  -1  -4  16    0.03    0.05
  -1  -4  16    0.04    0.05
   0   4 -16    1.09    0.12
   0  -4  16    1.41    0.11
   0  -4  16    1.08    0.10
   0  -4  16    1.07    0.11
   1  -4  16    0.07    0.06
   1  -4  16    0.07    0.06
   1   3 -16    0.08    0.06
  -1  -3  16   -0.02    0.05
  -1  -3  16   -0.03    0.05
  -1  -3  16    0.02    0.05
   0   3 -16    0.27    0.07
   0  -3  16    0.16    0.06
   0  -3  16    0.16    0.06
   0  -3  16    0.14    0.06
   1  -3  16   -0.01    0.05
   1  -3  16    0.01    0.06
   1   2 -16    0.40    0.08
  -1  -2  16    0.31    0.07
  -1  -2  16    0.55    0.08
  -1  -2  16    0.43    0.08
   0  -2  16    0.08    0.06
   0  -2  16    0.01    0.04
   0  -2  16    0.03    0.05
  -1   2 -16    0.11    0.04
   1  -2  16   -0.03    0.05
   1  -2  16   -0.03    0.04
   1   1 -16    0.18    0.06
   1   1 -16    0.23    0.05
  -1  -1  16    0.13    0.06
  -1  -1  16    0.22    0.06
  -1  -1  16    0.13    0.07
   0   1 -16    0.07    0.04
   0  -1  16    0.05    0.05
   0  -1  16    0.12    0.06
   0  -1  16    0.09    0.05
  -1   1 -16    0.02    0.04
   1  -1  16    0.04    0.06
   1  -1  16   -0.08    0.04
   1  -1  16    0.09    0.05
   1   0 -16    0.54    0.07
   1   0 -16    0.69    0.09
  -1   0  16    0.63    0.08
  -1   0  16    0.50    0.08
  -1   0  16    0.59    0.09
   0   0 -16    0.03    0.05
   0   0  16   -0.01    0.04
   0   0  16    0.00    0.06
   0   0  16    0.01    0.05
  -1   0 -16    0.05    0.05
   1   0  16    0.04    0.05
   1   0  16    0.01    0.05
   1  -1 -16    0.55    0.07
  -1   1  16    0.55    0.09
   0  -1 -16    0.98    0.10
   0   1  16    0.63    0.09
  -1  -1 -16    1.73    0.12
   1   1  16    1.89    0.12
   1  -2 -16    0.25    0.07
  -1   2  16    0.25    0.07
   0  -2 -16    0.21    0.06
   0   2  16    0.22    0.06
  -1  -2 -16    0.03    0.05
   1   2  16    0.05    0.05
   0  -3 -16    1.64    0.12
   0   0   0    0.00    0.00
;
_shelx_hkl_checksum              54863
loop_
_space_group_symop_operation_xyz
'x, y, z'
'-x, -y, -z'
loop_
_atom_site_label
_atom_site_type_symbol
_atom_site_fract_x
_atom_site_fract_y
_atom_site_fract_z
_atom_site_U_iso_or_equiv
_atom_site_adp_type
_atom_site_occupancy
_atom_site_site_symmetry_order
_atom_site_calc_flag
_atom_site_refinement_flags_posn
_atom_site_refinement_flags_adp
C1 C 0.5503(5) 0.78580(19) 0.48551(13) 0.0297(4) Uani 1 1 d . .
H1A H 0.4403 0.6977 0.4682 0.045 Uiso 1 1 calc R U
H1B H 0.4465 0.8470 0.4423 0.045 Uiso 1 1 calc R U
H1C H 0.8020 0.7880 0.4721 0.045 Uiso 1 1 calc R U
C2 C 0.4924(4) 0.82379(17) 0.59891(13) 0.0239(4) Uani 1 1 d . .
C3 C 0.2056(4) 0.73546(15) 0.75650(12) 0.0198(3) Uani 1 1 d . .
C4 C 0.2938(4) 0.84306(15) 0.82669(13) 0.0209(3) Uani 1 1 d . .
H4 H 0.4272 0.9175 0.8038 0.025 Uiso 1 1 calc R U
C5 C 0.1866(4) 0.84097(15) 0.92929(12) 0.0207(3) Uani 1 1 d . .
H5 H 0.2496 0.9143 0.9764 0.025 Uiso 1 1 calc R U
C6 C -0.0124(4) 0.73336(15) 0.96545(12) 0.0193(3) Uani 1 1 d . .
C7 C -0.1033(4) 0.62684(15) 0.89612(13) 0.0201(3) Uani 1 1 d . .
H7 H -0.2392 0.5534 0.9197 0.024 Uiso 1 1 calc R U
C8 C 0.0017(4) 0.62608(15) 0.79239(12) 0.0195(3) Uani 1 1 d . .
C9 C -0.1069(4) 0.50817(16) 0.72552(13) 0.0236(4) Uani 1 1 d . .
H9 H -0.2535 0.4425 0.7561 0.028 Uiso 1 1 calc R U
C10 C -0.1350(4) 0.72897(15) 1.07467(13) 0.0202(3) Uani 1 1 d . .
C11 C -0.1386(4) 0.83821(17) 1.24172(13) 0.0240(4) Uani 1 1 d . .
H11A H -0.0445 0.9195 1.2794 0.036 Uiso 1 1 calc R U
H11B H -0.3948 0.8321 1.2432 0.036 Uiso 1 1 calc R U
H11C H -0.0552 0.7643 1.2751 0.036 Uiso 1 1 calc R U
N1 N 0.3058(4) 0.72977(14) 0.65190(11) 0.0223(3) Uani 1 1 d . .
O1 O 0.6049(3) 0.92951(12) 0.63924(10) 0.0298(3) Uani 1 1 d . .
O2 O -0.0271(3) 0.48655(12) 0.63454(10) 0.0307(3) Uani 1 1 d . .
O3 O -0.3183(3) 0.63947(11) 1.10733(9) 0.0261(3) Uani 1 1 d . .
O4 O -0.0222(3) 0.83632(11) 1.13454(9) 0.0229(3) Uani 1 1 d . .
H1N H 0.240(6) 0.658(2) 0.6143(16) 0.029(5) Uiso 1 1 d . .
loop_
_atom_site_aniso_label
_atom_site_aniso_U_11
_atom_site_aniso_U_22
_atom_site_aniso_U_33
_atom_site_aniso_U_23
_atom_site_aniso_U_13
_atom_site_aniso_U_12
C1 0.0286(9) 0.0328(10) 0.0267(9) 0.0018(7) 0.0024(7) -0.0022(7)
C2 0.0196(7) 0.0251(8) 0.0272(8) 0.0046(6) 0.0010(6) 0.0009(6)
C3 0.0165(7) 0.0187(8) 0.0247(8) 0.0027(6) 0.0003(5) 0.0032(6)
C4 0.0195(7) 0.0149(7) 0.0281(8) 0.0029(6) 0.0003(6) -0.0001(6)
C5 0.0193(7) 0.0163(7) 0.0262(8) 0.0011(6) -0.0005(6) 0.0006(6)
C6 0.0164(7) 0.0178(7) 0.0241(8) 0.0026(6) 0.0004(6) 0.0022(6)
C7 0.0169(7) 0.0158(7) 0.0275(8) 0.0035(6) 0.0005(6) 0.0005(5)
C8 0.0183(7) 0.0150(7) 0.0253(8) 0.0009(6) -0.0007(6) 0.0021(6)
C9 0.0216(8) 0.0175(8) 0.0309(8) 0.0009(6) 0.0006(6) -0.0014(6)
C10 0.0183(7) 0.0164(7) 0.0258(8) 0.0012(6) -0.0002(6) 0.0010(5)
C11 0.0254(8) 0.0224(8) 0.0236(8) -0.0005(6) 0.0025(6) 0.0007(6)
N1 0.0239(7) 0.0181(7) 0.0243(7) 0.0005(5) 0.0013(5) -0.0004(5)
O1 0.0337(7) 0.0236(6) 0.0302(7) 0.0017(5) 0.0033(5) -0.0070(5)
O2 0.0371(7) 0.0242(6) 0.0285(6) -0.0039(5) 0.0040(5) -0.0048(5)
O3 0.0275(6) 0.0219(6) 0.0279(6) 0.0023(5) 0.0034(5) -0.0043(5)
O4 0.0246(6) 0.0189(6) 0.0239(6) -0.0017(4) 0.0028(4) -0.0026(4)
loop_
_atom_type_symbol
_atom_type_description
_atom_type_scat_dispersion_real
_atom_type_scat_dispersion_imag
_atom_type_scat_source
C C 0.0033 0.0016 'International Tables Vol C Tables 4.2.6.8 and 6.1.1.4'
H H 0.0000 0.0000 'International Tables Vol C Tables 4.2.6.8 and 6.1.1.4'
N N 0.0061 0.0033 'International Tables Vol C Tables 4.2.6.8 and 6.1.1.4'
O O 0.0106 0.0060 'International Tables Vol C Tables 4.2.6.8 and 6.1.1.4'
loop_
_geom_angle_atom_site_label_1
_geom_angle_atom_site_label_2
_geom_angle_atom_site_label_3
_geom_angle
O1 C2 N1 123.64(16)
O1 C2 C1 121.90(15)
N1 C2 C1 114.46(15)
N1 C3 C4 123.38(14)
N1 C3 C8 117.76(14)
C4 C3 C8 118.85(14)
C5 C4 C3 119.97(14)
C4 C5 C6 121.56(14)
C7 C6 C5 118.78(15)
C7 C6 C10 118.43(14)
C5 C6 C10 122.79(14)
C6 C7 C8 120.91(14)
C7 C8 C3 119.92(14)
C7 C8 C9 116.59(14)
C3 C8 C9 123.49(14)
O2 C9 C8 126.31(15)
O3 C10 O4 122.99(15)
O3 C10 C6 124.36(14)
O4 C10 C6 112.65(13)
C2 N1 C3 128.40(14)
C10 O4 C11 115.04(12)
loop_
_geom_bond_atom_site_label_1
_geom_bond_atom_site_label_2
_geom_bond_distance
C1 C2 1.505(2)
C2 O1 1.219(2)
C2 N1 1.375(2)
C3 N1 1.397(2)
C3 C4 1.399(2)
C3 C8 1.421(2)
C4 C5 1.383(2)
C5 C6 1.400(2)
C6 C7 1.387(2)
C6 C10 1.483(2)
C7 C8 1.393(2)
C8 C9 1.470(2)
C9 O2 1.220(2)
C10 O3 1.211(2)
C10 O4 1.3439(19)
C11 O4 1.4478(19)
loop_
_geom_hbond_atom_site_label_D
_geom_hbond_atom_site_label_H
_geom_hbond_atom_site_label_A
_geom_hbond_distance_DH
_geom_hbond_distance_HA
_geom_hbond_distance_DA
_geom_hbond_angle_DHA
N1 H1N O2 0.87(2) 2.00(2) 2.7123(19) 137.7(18)
