#------------------------------------------------------------------------------
#$Date: 2017-05-06 00:37:43 +0300 (Sat, 06 May 2017) $
#$Revision: 196302 $
#$URL: file:///home/coder/svn-repositories/cod/cif/7/11/98/7119884.cif $
#------------------------------------------------------------------------------
#
# This file is available in the Crystallography Open Database (COD),
# http://www.crystallography.net/
#
# All data on this site have been placed in the public domain by the
# contributors.
#
data_7119884
loop_
_publ_author_name
'Ji, Wei'
'Zhang, Shijin'
'Filonenko, Georgy A.'
'Li, Guanying'
'Sasaki, Toshio'
'Feng, Chuanliang'
'Zhang, Ye'
_publ_section_title
;
 Co-organizing synthesis of heterogeneous nanostructures through the
 photo-cleavage of pre-stabilized self-assemblies.
;
_journal_issue                   34
_journal_name_full
'Chemical communications (Cambridge, England)'
_journal_page_first              4702
_journal_page_last               4705
_journal_paper_doi               10.1039/c7cc01912b
_journal_volume                  53
_journal_year                    2017
_chemical_formula_moiety         'C17 H12 O5'
_chemical_formula_sum            'C17 H12 O5'
_chemical_formula_weight         296.27
_chemical_name_systematic        '4-(hydroxymethyl)coumarin 7-benzoate'
_space_group_crystal_system      triclinic
_space_group_IT_number           2
_space_group_name_Hall           '-P 1'
_space_group_name_H-M_alt        'P -1'
_symmetry_cell_setting           triclinic
_symmetry_Int_Tables_number      2
_symmetry_space_group_name_Hall  '-P 1'
_symmetry_space_group_name_H-M   'P -1'
_atom_sites_solution_hydrogens   mixed
_audit_creation_method           SHELXL-2016/6
_audit_update_record
;
2017-02-08 deposited with the CCDC.
2017-04-03 downloaded from the CCDC.
;
_cell_angle_alpha                85.162(4)
_cell_angle_beta                 82.217(4)
_cell_angle_gamma                81.222(5)
_cell_formula_units_Z            2
_cell_length_a                   7.1640(4)
_cell_length_b                   9.2165(5)
_cell_length_c                   10.1606(5)
_cell_measurement_reflns_used    3049
_cell_measurement_temperature    93(2)
_cell_measurement_theta_max      29.0520
_cell_measurement_theta_min      2.9450
_cell_volume                     655.52(6)
_computing_cell_refinement       'CrysAlisPro 1.171.39.7b (Rigaku OD, 2015)'
_computing_data_collection       'CrysAlisPro 1.171.39.7b (Rigaku OD, 2015)'
_computing_data_reduction        'CrysAlisPro 1.171.39.7b (Rigaku OD, 2015)'
_computing_molecular_graphics
'WinGX (Farrugia, 2012); ORTEP-3 (Farrugia, 2012); PLATON (Spek, 2009)'
_computing_publication_material  'enCIFer (Allen, 2004)'
_computing_structure_refinement  'SHELXL-2016/6 (Sheldrick, 2015)'
_computing_structure_solution    'SHELXT-2014/5 (Sheldrick, 2015)'
_diffrn_ambient_temperature      93(2)
_diffrn_measured_fraction_theta_full 0.998
_diffrn_measured_fraction_theta_max 0.913
_diffrn_measurement_device       'four-circle diffractometer'
_diffrn_measurement_device_type  'XtaLAB Pro: Kappa dual offset/far'
_diffrn_measurement_method       '\w scans'
_diffrn_radiation_monochromator  graphite
_diffrn_radiation_probe          x-ray
_diffrn_radiation_type           MoK\a
_diffrn_radiation_wavelength     0.71073
_diffrn_reflns_av_R_equivalents  0.0696
_diffrn_reflns_av_unetI/netI     0.0735
_diffrn_reflns_Laue_measured_fraction_full 0.998
_diffrn_reflns_Laue_measured_fraction_max 0.913
_diffrn_reflns_limit_h_max       8
_diffrn_reflns_limit_h_min       -9
_diffrn_reflns_limit_k_max       12
_diffrn_reflns_limit_k_min       -10
_diffrn_reflns_limit_l_max       12
_diffrn_reflns_limit_l_min       -13
_diffrn_reflns_number            8284
_diffrn_reflns_point_group_measured_fraction_full 0.998
_diffrn_reflns_point_group_measured_fraction_max 0.913
_diffrn_reflns_theta_full        25.242
_diffrn_reflns_theta_max         28.000
_diffrn_reflns_theta_min         2.900
_diffrn_source                   'microfocus sealed X-ray tube'
_diffrn_source_type              'enhance (Mo) X-ray source'
_exptl_absorpt_coefficient_mu    0.112
_exptl_absorpt_correction_T_max  1.000
_exptl_absorpt_correction_T_min  0.541
_exptl_absorpt_correction_type   gaussian
_exptl_absorpt_process_details
;
CrysAlisPro 1.171.39.7b (Rigaku Oxford Diffraction, 2015).
Numerical absorption correction based on gaussian integration over 
a multifaceted crystal model. Empirical absorption correction using 
spherical harmonics, implemented in SCALE3 ABSPACK scaling algorithm.
;
_exptl_crystal_colour            colourless
_exptl_crystal_density_diffrn    1.501
_exptl_crystal_description       plate
_exptl_crystal_F_000             308
_exptl_crystal_recrystallization_method
'slow evaporation from hexane/methylene chloride'
_exptl_crystal_size_max          0.217
_exptl_crystal_size_mid          0.065
_exptl_crystal_size_min          0.046
_refine_diff_density_max         0.463
_refine_diff_density_min         -0.319
_refine_diff_density_rms         0.073
_refine_ls_extinction_method     none
_refine_ls_goodness_of_fit_ref   1.037
_refine_ls_hydrogen_treatment    mixed
_refine_ls_matrix_type           full
_refine_ls_number_parameters     203
_refine_ls_number_reflns         2901
_refine_ls_number_restraints     0
_refine_ls_restrained_S_all      1.037
_refine_ls_R_factor_all          0.0613
_refine_ls_R_factor_gt           0.0504
_refine_ls_shift/su_max          0.000
_refine_ls_shift/su_mean         0.000
_refine_ls_structure_factor_coef Fsqd
_refine_ls_weighting_details
'w=1/[\s^2^(Fo^2^)+(0.0840P)^2^+0.0190P] where P=(Fo^2^+2Fc^2^)/3'
_refine_ls_weighting_scheme      calc
_refine_ls_wR_factor_gt          0.1359
_refine_ls_wR_factor_ref         0.1434
_reflns_Friedel_coverage         0.000
_reflns_number_gt                2365
_reflns_number_total             2901
_reflns_threshold_expression     'I > 2\s(I)'
_cod_data_source_file            c7cc01912b2.cif
_cod_data_source_block           jk093
_cod_depositor_comments          'Adding full bibliography for 7119884.cif.'
_cod_database_code               7119884
_shelx_shelxl_version_number     2016/6
_shelx_space_group_comment
;
The symmetry employed for this shelxl refinement is uniquely defined
by the following loop, which should always be used as a source of
symmetry information in preference to the above space-group names.
They are only intended as comments.
;
_shelx_estimated_absorpt_t_min   0.976
_shelx_estimated_absorpt_t_max   0.995
_shelx_res_file
;
TITL jk093 in P-1
    shelx.res
    created by SHELXL-2016/6 at 10:15:32 on 08-Feb-2017
CELL 0.71073   7.163984   9.216460  10.160640  85.1624  82.2172  81.2222
ZERR    2.00   0.000418   0.000545   0.000496   0.0044   0.0044   0.0049
LATT   1
SFAC  C    H    O
UNIT  34 24 10
MERG   2
OMIT    -2.00  56.00
MORE -1
EQIV $1 -x+2, -y+1, -z+1
HTAB O3 O5_$1
FMAP   2
PLAN    4
SIZE     0.046   0.065   0.217
ACTA
BOND   $H
CONF
LIST   4
L.S.  20
TEMP  -180.15
WGHT    0.084000    0.019000
FVAR       0.81976
O1    3    0.791575    0.443740    0.871658    11.00000    0.02588    0.01503 =
         0.01148   -0.00088   -0.00166   -0.00282
O2    3    0.776693    0.364028    0.674448    11.00000    0.02031    0.01049 =
         0.01117   -0.00233   -0.00168   -0.00280
O3    3    0.773535    0.915991    0.576241    11.00000    0.02224    0.00965 =
         0.01686   -0.00606   -0.00411   -0.00200
O4    3    0.663377    0.178854    0.273978    11.00000    0.01937    0.01312 =
         0.02099   -0.01031   -0.00516   -0.00123
O5    3    0.969746    0.070767    0.247640    11.00000    0.01757    0.02282 =
         0.02231   -0.01266   -0.00211   -0.00402
C1    1    0.783908    0.477491    0.754508    11.00000    0.01323    0.01397 =
         0.01199   -0.00505    0.00043   -0.00176
C2    1    0.782562    0.623803    0.689836    11.00000    0.01440    0.01139 =
         0.01222   -0.00464   -0.00021   -0.00118
AFIX  43
H2    2    0.790575    0.702976    0.741966    11.00000   -1.20000
AFIX   0
C3    1    0.770352    0.652299    0.558158    11.00000    0.01033    0.00972 =
         0.01343   -0.00349    0.00058   -0.00084
C4    1    0.754233    0.531514    0.478293    11.00000    0.01218    0.01073 =
         0.01256   -0.00352   -0.00017   -0.00145
C5    1    0.733268    0.548370    0.341661    11.00000    0.01639    0.01025 =
         0.01248   -0.00156   -0.00149   -0.00145
AFIX  43
H5    2    0.733620    0.642713    0.296140    11.00000   -1.20000
AFIX   0
C6    1    0.712197    0.429939    0.272737    11.00000    0.01783    0.01743 =
         0.01153   -0.00508   -0.00222   -0.00179
AFIX  43
H6    2    0.699834    0.441666    0.180386    11.00000   -1.20000
AFIX   0
C7    1    0.709533    0.293393    0.341743    11.00000    0.01395    0.01088 =
         0.01808   -0.00779   -0.00214   -0.00168
C8    1    0.732723    0.269195    0.474981    11.00000    0.01490    0.00935 =
         0.01740   -0.00301   -0.00015   -0.00168
AFIX  43
H8    2    0.733479    0.174161    0.519278    11.00000   -1.20000
AFIX   0
C9    1    0.755028    0.390872    0.541681    11.00000    0.01142    0.01243 =
         0.01142   -0.00266    0.00032   -0.00094
C10   1    0.770025    0.804120    0.490107    11.00000    0.01802    0.01024 =
         0.01089   -0.00359   -0.00315   -0.00235
AFIX  23
H10A  2    0.882252    0.802654    0.421409    11.00000   -1.20000
H10B  2    0.654878    0.828856    0.444095    11.00000   -1.20000
AFIX   0
C11   1    0.806128    0.071146    0.231246    11.00000    0.01892    0.01167 =
         0.00763   -0.00162    0.00048   -0.00299
C12   1    0.733253   -0.041852    0.164236    11.00000    0.02032    0.01017 =
         0.00791   -0.00169   -0.00222   -0.00238
C13   1    0.539460   -0.051164    0.174582    11.00000    0.01864    0.01217 =
         0.00978   -0.00167   -0.00052   -0.00124
AFIX  43
H13   2    0.449585    0.017338    0.223512    11.00000   -1.20000
AFIX   0
C14   1    0.478500   -0.161255    0.112894    11.00000    0.01763    0.01482 =
         0.01193    0.00139   -0.00371   -0.00534
AFIX  43
H14   2    0.346756   -0.169247    0.120659    11.00000   -1.20000
AFIX   0
C15   1    0.611109   -0.260051    0.039522    11.00000    0.02589    0.01190 =
         0.00941   -0.00155   -0.00465   -0.00504
AFIX  43
H15   2    0.568819   -0.333969   -0.004088    11.00000   -1.20000
AFIX   0
C16   1    0.804558   -0.251323    0.029642    11.00000    0.02474    0.01316 =
         0.00973   -0.00385    0.00015   -0.00061
AFIX  43
H16   2    0.893974   -0.319305   -0.020197    11.00000   -1.20000
AFIX   0
C17   1    0.866877   -0.142951    0.092816    11.00000    0.01661    0.01470 =
         0.01169   -0.00231    0.00005   -0.00219
AFIX  43
H17   2    0.999031   -0.137420    0.087644    11.00000   -1.20000
AFIX   0
H3    2    0.883213    0.901319    0.607444    11.00000    0.02912
HKLF    4




REM  jk093 in P-1
REM R1 =  0.0504 for    2365 Fo > 4sig(Fo)  and  0.0613 for all    2901 data
REM    203 parameters refined using      0 restraints

END

WGHT      0.0840      0.0190

REM Highest difference peak  0.463,  deepest hole -0.319,  1-sigma level  0.073
Q1    1   0.7702  0.4577  0.5128  11.00000  0.05    0.46
Q2    1   0.7606  0.7261  0.5237  11.00000  0.05    0.43
Q3    1   0.7640  0.0290  0.1782  11.00000  0.05    0.41
Q4    1   0.8017  0.5466  0.7274  11.00000  0.05    0.37
;
_shelx_res_checksum              21822
_shelx_hkl_file
;
   0   0  -2   98.72    8.96
   0   0  -3  106.15    9.87
   0   0   3  111.57    9.92
   0   0  -4  482.62   44.35
   0   0   4  512.42   44.42
   0   0  -4  486.11   44.33
   0   0  -5  632.70   59.88
   0   0   5  644.14   59.94
   0   0  -5  710.48   59.88
   0   0  -6    7.67    1.20
   0   0   6    5.37    1.21
   0   0  -6    8.79    1.30
   0   0  -7   64.58    2.36
   0   0  -7   47.26    1.91
   0   0  -8   13.59    2.07
   0   0   8   19.30    2.42
   0   0  -8   14.48    1.99
   0   0   9   49.15    5.33
   0   0  -9   50.96    5.04
   0   0  -9   48.53    4.99
   0   0  10   71.87    8.05
   0   0 -10   77.70    7.71
   0   0 -10   76.68    7.71
   0   0 -11    9.03    1.82
   0   0 -11    6.02    1.78
   0   0 -11    8.05    3.71
   0   0  12   40.50    5.49
   0   0 -12   53.17    6.70
   0   0 -13   42.82    6.70
   0   1 -12   52.56    6.98
   0  -1  12   45.91    6.12
   0  -1  11   15.34    3.42
   0   1 -11   21.23    4.45
   0   1 -11   17.12    2.53
   0   1 -11   18.14    2.52
   0   1 -10    0.93    1.39
   0   1 -10    1.23    1.26
   0   1 -10   -0.69    3.40
   0  -1  10   -0.32    2.10
   0  -1   9  119.92   12.28
   0   1  -9  115.78   11.90
   0   1  -9  153.37   12.18
   0  -1   8    8.09    1.97
   0   1  -8    3.23    1.27
   0   1  -8    3.58    1.33
   0   1  -7   79.84    7.24
   0   1  -7   73.45    7.24
   0  -1   7   77.56    7.54
   0   1  -7   75.58    7.30
   0   1  -6  400.06   40.38
   0   1  -6  517.03   40.49
   0   1  -6  444.37   40.43
   0   1  -5 1189.50   97.46
   0  -1   5 1022.51   97.52
   0   1  -5 1024.53   97.46
   0  -1   4  125.60   12.07
   0   1  -4  127.99   11.98
   0  -1   4  123.40   12.06
   0   1  -4  143.58   12.01
   0   1  -3 2830.96  255.29
   0  -1   3 2837.12  255.34
   0   1  -3 2721.90  255.31
   0  -1   3 3023.47  255.38
   0  -1   2 2138.09  182.00
   0   1  -2 2159.48  181.94
   0   1  -2 1946.40  181.96
   0  -1   2 1853.91  181.97
   0   1  -1 1082.83   96.01
   0   1  -1 1035.98   95.97
   0  -1   1 1089.47   95.98
   0  -1  -1  323.51   30.71
   0  -1  -1  388.71   30.68
   0   1   1  299.34   30.70
   0  -1  -2  938.19   85.49
   0   1   2  963.43   85.49
   0  -1  -3   86.42    8.15
   0   1   3   92.19    8.16
   0   1   4  146.56   13.11
   0  -1  -4  141.32   13.10
   0  -1  -5  118.50   11.48
   0   1   5  133.36   11.51
   0  -1  -6  129.08   11.87
   0  -1  -7   61.83    6.49
   0  -1  -7   75.05    6.51
   0  -1  -8    7.85    1.23
   0   1   8   -0.10    0.54
   0  -1  -8    5.34    1.20
   0   1   9   27.05    2.98
   0  -1  -9   20.04    2.58
   0  -1  -9   20.88    2.56
   0  -1 -10   70.79    7.16
   0   1  10   66.37    7.50
   0  -1 -10   72.03    7.17
   0  -1 -10  108.75    8.57
   0   1  11   79.30    8.49
   0  -1 -11   78.51    8.09
   0  -1 -11  112.61    9.59
   0  -1 -11   82.67    8.12
   0  -1 -12   71.85    7.79
   0  -1 -12   62.69    6.66
   0   1  12   51.50    6.64
   0  -1 -13   45.87    6.67
   0  -2  12    7.60    3.43
   0   2 -12    7.15    4.45
   0   2 -11    6.52    4.01
   0   2 -11   10.39    2.09
   0  -2  11   10.47    3.26
   0   2 -11    8.63    2.06
   0   2 -10   11.91    2.08
   0   2 -10   12.91    3.78
   0   2 -10    6.81    1.79
   0  -2  10    8.54    2.85
   0   2  -9   71.76    6.96
   0   2  -9   68.23    6.92
   0  -2   9   62.97    7.50
   0   2  -9   74.93    7.31
   0   2  -9   90.50    8.32
   0  -2   8    6.60    2.41
   0   2  -8    7.14    1.49
   0   2  -8    2.92    1.73
   0   2  -8    6.49    1.42
   0  -2   7    2.79    1.77
   0   2  -7    0.79    1.30
   0   2  -7    0.95    1.16
   0   2  -6   15.58    1.92
   0   2  -6   11.74    1.99
   0  -2   6   13.92    2.16
   0  -2   5  255.95   29.05
   0  -2   5  371.59   29.17
   0   2  -5  346.25   29.08
   0   2  -5  315.16   28.90
   0   2  -4   90.40    8.19
   0  -2   4   74.73    8.18
   0   2  -4   96.32    8.10
   0  -2   4   80.44    8.25
   0  -2   3 1693.78  135.81
   0   2  -3 1398.10  135.66
   0   2  -3 1455.50  135.75
   0  -2   3 1570.03  135.84
   0   2  -2 3965.98  351.60
   0  -2   2 3832.60  351.63
   0  -2   2 3783.01  351.71
   0   2  -2 4046.41  351.66
   0   2  -1  127.45   12.07
   0  -2   1  129.68   12.02
   0   2  -1  138.86   12.11
   0   2   0  105.12    9.58
   0   2   1  258.94   22.72
   0  -2  -1  244.09   22.88
   0  -2  -1  231.05   22.70
   0   2   1  301.83   22.88
   0   2   2  268.35   26.50
   0  -2  -2  296.84   26.56
   0   2   2  346.13   26.46
   0  -2  -2  331.81   26.45
   0  -2  -2  263.85   26.35
   0  -2  -3   91.30    8.52
   0  -2  -3   94.83    8.49
   0   2   3   93.39    8.48
   0   2   3   88.98    8.52
   0   2   4   28.07    3.04
   0   2   4   33.19    3.02
   0  -2  -4   30.74    3.02
   0  -2  -4   29.38    2.99
   0   2   5    1.82    0.89
   0  -2  -5    2.59    0.75
   0   2   6   70.13    6.62
   0  -2  -6   70.09    6.63
   0   2   7   78.08    7.18
   0  -2  -7   73.40    7.19
   0  -2  -8   20.84    2.46
   0  -2  -9   43.89    4.66
   0  -2  -9   66.20    5.78
   0   2   9   41.23    4.85
   0   2  10  214.09   18.89
   0  -2 -10  178.06   18.54
   0   2  11   36.95    4.27
   0  -2 -11   27.31    3.66
   0  -2 -11   42.50    5.30
   0  -2 -11   38.29    4.23
   0   2  12  150.08   16.31
   0  -2 -12  172.73   16.18
   0  -2 -12  204.42   17.10
   0  -2 -13   47.12    6.74
   0  -3  12    2.76    3.50
   0  -3  11   -1.80    2.97
   0   3 -11   -3.67    3.82
   0   3 -11    0.71    1.79
   0   3 -10    8.45    2.78
   0   3 -10    3.85    1.54
   0   3 -10    5.37    3.57
   0  -3  10    5.27    3.01
   0   3 -10    6.24    1.71
   0  -3   9   -0.36    2.67
   0   3  -9    1.18    1.35
   0   3  -9    1.02    1.38
   0   3  -9    0.99    1.99
   0   3  -9   -0.45    3.09
   0   3  -8   19.61    2.74
   0   3  -8   14.39    2.22
   0  -3   8   15.43    3.33
   0  -3   7   35.45    4.58
   0   3  -7   41.52    4.08
   0  -3   7   37.64    4.37
   0   3  -7   33.85    4.31
   0   3  -6  676.16   65.00
   0  -3   6  694.79   65.08
   0   3  -6  752.44   64.74
   0  -3   5 1966.42  173.46
   0   3  -5 1928.56  173.20
   0   3  -5 1909.13  173.43
   0  -3   5 1890.63  173.52
   0  -3   4    1.83    1.36
   0   3  -4    0.91    1.09
   0  -3   4    1.21    1.45
   0   3  -4    2.15    1.30
   0   3  -3    2.96    1.43
   0  -3   3    2.25    1.36
   0  -3   3    3.13    1.55
   0   3  -3    3.39    1.52
   0  -3   2  187.24   15.27
   0   3  -2  205.76   15.39
   0  -3   2  180.41   15.46
   0   3  -1  109.07    9.79
   0   3  -1  100.18    9.73
   0   3   0   49.13    4.40
   0  -3   0   39.57    4.67
   0  -3  -1   41.64    4.07
   0  -3  -1   42.44    4.49
   0   3   1   46.24    4.10
   0   3   1   44.22    4.35
   0  -3  -2   12.64    1.91
   0   3   2   10.94    1.66
   0  -3  -2   12.89    1.43
   0   3   2   13.38    1.42
   0   3   3  739.47   66.72
   0  -3  -3  715.43   66.63
   0  -3  -3  757.47   66.90
   0   3   3  698.41   66.86
   0  -3  -3  808.47   66.73
   0   3   4   41.97    4.22
   0   3   4   49.55    4.33
   0   3   4   45.06    4.22
   0  -3  -4   46.60    4.37
   0  -3  -4   40.87    4.04
   0  -3  -4   42.38    4.21
   0   3   5  178.94   17.81
   0   3   5  193.73   17.93
   0  -3  -5  180.67   17.91
   0  -3  -5  213.98   17.90
   0  -3  -5  187.02   17.77
   0   3   5  248.83   18.06
   0  -3  -6   -0.28    0.97
   0  -3  -6    0.12    0.94
   0   3   6    1.21    0.98
   0   3   6    0.46    0.83
   0  -3  -7  154.92   15.14
   0  -3  -7  173.52   15.15
   0   3   7  165.19   15.14
   0  -3  -8 1296.44  109.26
   0  -3  -8 1167.82  109.24
   0   3   8 1178.75  109.21
   0  -3  -9   52.50    5.90
   0  -3  -9   75.07    6.76
   0  -3  -9   61.50    5.97
   0  -3 -10  269.49   26.08
   0  -3 -10  293.57   26.15
   0  -3 -10  301.73   26.69
   0  -3 -11    7.54    3.02
   0  -3 -11    3.84    1.65
   0  -3 -11    7.04    2.06
   0  -3 -12    1.40    2.02
   0   3  12    2.23    2.36
   0  -3 -12    4.09    3.35
   0  -4  12   16.35    4.46
   0  -4  11    9.32    3.66
   0   4 -11    1.76    3.68
   0   4 -10   32.97    4.04
   0   4 -10   39.03    5.80
   0   4 -10   41.38    4.14
   0  -4  10   37.54    5.41
   0  -4   9    1.56    2.89
   0   4  -9    1.85    1.41
   0   4  -8  116.34   10.90
   0  -4   8  110.69   11.43
   0   4  -7  232.35   20.24
   0  -4   7  217.31   20.74
   0  -4   7  198.28   20.70
   0   4  -6   11.81    1.84
   0  -4   6    6.53    2.45
   0  -4   5  342.33   32.77
   0   4  -5  354.17   32.35
   0   4  -5  371.33   32.74
   0   4  -4    1.65    1.34
   0  -4   4    3.19    1.75
   0   4  -4    3.15    1.35
   0  -4   4    5.09    1.83
   0   4  -3  201.05   18.51
   0  -4   3  181.32   18.39
   0   4  -3  196.51   18.34
   0  -4   3  231.37   18.75
   0   4  -2    3.66    1.59
   0  -4   2    1.89    1.59
   0   4  -2    2.81    1.60
   0   4  -2    2.25    1.29
   0   4  -1  731.28   69.21
   0   4  -1  811.15   69.30
   0  -4   0   71.39    6.76
   0   4   0   61.98    6.28
   0   4   0   67.30    6.16
   0   4   1   22.33    2.39
   0   4   1   13.36    1.77
   0  -4  -1   23.90    2.61
   0   4   2  315.08   30.75
   0   4   2  355.19   30.49
   0  -4  -2  339.71   30.85
   0  -4  -2  329.02   30.47
   0  -4  -3 1004.31   86.13
   0  -4  -3  951.34   86.40
   0   4   3  963.61   86.14
   0   4   3  859.28   86.34
   0  -4  -4  574.59   50.52
   0  -4  -4  507.74   50.36
   0   4   4  587.97   50.53
   0  -4  -4  606.50   50.42
   0  -4  -4  552.61   50.79
   0   4   4  568.06   50.51
   0   4   4  565.25   50.72
   0  -4  -5    0.19    1.19
   0   4   5   -0.06    0.93
   0  -4  -5   -0.11    0.84
   0  -4  -5    1.29    0.86
   0   4   5   -0.79    1.09
   0   4   5    0.22    0.84
   0   4   6  312.35   26.13
   0  -4  -6  284.58   25.85
   0   4   6  242.38   25.89
   0  -4  -6  284.84   25.99
   0   4   6  337.69   26.19
   0  -4  -6  291.55   26.11
   0  -4  -7    1.30    1.03
   0  -4  -7    0.15    1.03
   0  -4  -7    1.11    1.67
   0   4   7   -0.83    1.16
   0   4   7    0.78    1.18
   0  -4  -8 1112.66   90.64
   0   4   8  947.21   90.81
   0  -4  -8 1035.66   90.94
   0  -4  -8  975.21   90.76
   0   4   8  934.12   90.70
   0  -4  -9  497.40   46.39
   0   4   9  510.08   46.53
   0  -4  -9  540.66   46.26
   0   4   9  489.11   46.32
   0   4  10  439.79   40.20
   0  -4 -10  380.25   40.21
   0  -4 -10  484.03   40.17
   0  -4 -10  476.92   40.63
   0  -4 -11    8.47    1.97
   0  -4 -11    4.17    1.76
   0  -4 -11   11.76    3.25
   0  -5  11    8.08    3.55
   0  -5  10   23.33    4.31
   0   5 -10   19.67    2.88
   0   5 -10   22.53    4.28
   0   5  -9  107.83    9.61
   0   5  -9   98.39   10.19
   0   5  -9   92.39   10.61
   0  -5   9   86.58   10.20
   0   5  -8  178.93   19.69
   0   5  -8  220.44   19.07
   0  -5   8  196.16   19.65
   0   5  -8  211.11   19.66
   0  -5   7   54.76    6.74
   0   5  -7   48.90    6.67
   0   5  -7   64.65    6.75
   0  -5   7   57.14    6.68
   0   5  -7   62.43    5.94
   0   5  -6    6.88    3.14
   0  -5   6   17.95    3.10
   0   5  -6   13.31    2.26
   0  -5   6   14.62    3.22
   0   5  -6   13.59    2.96
   0   5  -5   44.42    4.70
   0   5  -5   38.98    5.33
   0  -5   5   50.96    5.51
   0   5  -4    6.72    2.35
   0  -5   4   10.97    2.45
   0   5  -4    6.11    1.91
   0  -5   4    8.79    1.97
   0   5  -3   27.77    3.58
   0  -5   3   32.22    3.91
   0   5  -3   30.32    3.71
   0  -5   2  112.44    7.49
   0   5  -2   84.35    6.91
   0   5  -2  139.16    7.22
   0   5  -1    3.49    1.83
   0   5  -1    5.50    1.54
   0   5   0    2.23    0.77
   0  -5   0    4.62    1.91
   0   5   0    1.44    1.32
   0  -5  -1    3.66    1.66
   0   5   1    1.65    1.39
   0   5   1    2.12    0.80
   0  -5  -2   31.54    3.62
   0   5   2   26.69    2.88
   0   5   2   32.07    3.42
   0   5   3   16.30    2.49
   0   5   3   18.84    2.03
   0  -5  -3   20.70    2.73
   0  -5  -3   15.99    1.94
   0   5   4    7.90    1.31
   0  -5  -4    6.38    1.18
   0  -5  -4   10.02    2.09
   0   5   4    7.03    1.79
   0  -5  -5  432.88   38.55
   0   5   5  425.88   38.50
   0   5   5  418.62   38.54
   0   5   5  429.71   38.74
   0  -5  -5  416.32   38.90
   0  -5  -6  139.76   13.92
   0  -5  -6  133.33   13.77
   0  -5  -6  174.27   13.85
   0  -5  -6  147.34   14.29
   0   5   6  164.34   14.03
   0   5   6  138.42   14.13
   0   5   6  162.49   13.98
   0  -5  -7  445.14   44.08
   0   5   7  531.26   44.38
   0  -5  -7  465.70   44.15
   0  -5  -7  553.69   44.11
   0   5   7  449.61   44.12
   0   5   7  500.61   44.28
   0   5   8  110.12   11.98
   0  -5  -8  123.30   11.96
   0  -5  -8  139.33   11.94
   0   5   8  130.39   11.96
   0  -5  -8  135.92   12.07
   0   5   9    0.50    1.39
   0  -5  -9    2.13    1.44
   0   5   9   -0.79    1.47
   0  -5  -9    0.45    1.58
   0  -5  -9    1.40    1.93
   0  -5 -10   32.78    3.85
   0   5  10   32.75    4.02
   0   5  10   36.82    3.78
   0  -5 -10   29.21    3.70
   0   5  11   13.01    2.78
   0  -5 -11   14.85    2.44
   0  -6  11   35.35    5.75
   0  -6  10  134.52   13.80
   0   6 -10  139.95   14.09
   0   6 -10  130.66   12.67
   0   6  -9   11.97    4.31
   0  -6   9   13.75    3.84
   0   6  -9   13.05    3.26
   0   6  -9   14.05    2.58
   0   6  -8    4.18    3.59
   0  -6   8    2.79    3.08
   0   6  -8    1.70    1.68
   0  -6   8    0.23    2.56
   0   6  -8   -0.65    2.69
   0   6  -7  192.93   16.55
   0   6  -7  160.56   17.13
   0   6  -7  159.15   17.17
   0  -6   7  179.94   17.39
   0  -6   7  176.93   17.12
   0  -6   6   -1.44    2.98
   0   6  -6    2.14    1.68
   0  -6   6    0.16    2.28
   0   6  -6   -0.57    2.82
   0   6  -6    1.53    2.44
   0  -6   5   13.46    3.23
   0   6  -5   13.72    2.38
   0   6  -5   10.05    3.02
   0   6  -5   12.21    2.91
   0   6  -4    3.83    2.45
   0   6  -4    2.64    2.13
   0  -6   4    2.28    2.36
   0   6  -4    0.97    1.85
   0   6  -3    0.46    2.01
   0   6  -3   -0.64    2.14
   0   6  -3    0.88    1.84
   0  -6   3    2.36    2.28
   0  -6   2   10.01    2.60
   0   6  -2   10.34    2.22
   0   6  -2    8.15    2.12
   0   6  -1    3.99    2.00
   0   6  -1    4.54    1.76
   0   6   0   71.19    6.61
   0   6   0   56.01    6.87
   0   6   0   74.08    7.20
   0  -6   0   83.43    7.50
   0   6   1   43.39    4.50
   0   6   1   35.57    3.78
   0  -6  -1   39.65    4.61
   0  -6  -2   80.83    7.28
   0   6   2   90.93    7.28
   0   6   2   72.03    6.46
   0   6   2   62.18    6.23
   0  -6  -3    3.53    1.89
   0  -6  -3    1.70    0.87
   0   6   3    3.88    1.90
   0   6   3    1.87    0.92
   0   6   4  145.80   13.63
   0   6   4  113.36   13.91
   0  -6  -4  162.74   13.62
   0  -6  -4  162.74   14.33
   0   6   5  467.96   40.21
   0   6   5  453.45   40.55
   0   6   5  477.19   40.25
   0  -6  -5  412.90   40.17
   0  -6  -5  386.91   40.63
   0   6   6   11.78    2.46
   0  -6  -6   17.00    2.06
   0  -6  -6   13.57    3.01
   0   6   6   17.16    2.08
   0   6   6   13.51    2.09
   0   6   7  175.33   13.96
   0  -6  -7  146.67   13.71
   0   6   7  148.51   14.09
   0  -6  -7  150.50   14.09
   0   6   7  129.45   13.65
   0   6   8    3.89    1.51
   0   6   8    2.62    1.48
   0  -6  -8    4.20    1.47
   0  -6  -8    3.20    1.35
   0   6   9    2.04    1.59
   0  -6  -9   -0.28    1.39
   0   6   9    1.15    1.48
   0   6  10    0.66    1.90
   0  -6 -10    1.63    1.60
   0   6  10    0.57    1.69
   0   6  11    9.38    2.14
   0   6  11    6.84    2.49
   0  -7  10   11.25    3.88
   0   7  -9    4.31    4.02
   0   7  -9    2.30    3.13
   0  -7   9   -0.23    3.16
   0   7  -9    0.70    1.81
   0  -7   8  118.19   12.04
   0   7  -8   94.06   11.66
   0  -7   8  114.11   11.52
   0   7  -8  126.69   10.89
   0   7  -8   95.96   11.56
   0  -7   7    3.59    3.19
   0   7  -7    2.20    2.65
   0   7  -7    0.44    3.24
   0   7  -7    1.25    1.94
   0  -7   6   49.80    6.78
   0   7  -6   47.79    6.26
   0   7  -6   50.95    6.50
   0   7  -6   59.49    5.76
   0   7  -5    5.91    2.29
   0   7  -5    3.37    2.92
   0   7  -5    1.44    2.62
   0  -7   5    0.80    3.04
   0   7  -4    1.59    2.63
   0   7  -4    0.64    1.93
   0  -7   4   -0.74    2.68
   0   7  -4   -1.37    2.44
   0  -7   3    4.52    2.53
   0   7  -3    2.46    2.47
   0   7  -3    5.15    2.40
   0   7  -3    4.57    2.69
   0   7  -2    0.20    1.11
   0   7  -2    5.14    2.64
   0  -7   2    8.43    2.89
   0   7  -2    5.24    2.46
   0   7  -1   22.24    3.92
   0   7  -1   33.92    4.20
   0   7  -1   32.05    3.31
   0  -7   0   65.03    7.06
   0   7   0   58.55    6.73
   0   7   0   62.21    6.05
   0  -7  -1  434.54   36.15
   0   7   1  381.50   35.86
   0   7   1  375.85   35.21
   0  -7  -2  125.11   11.63
   0   7   2  103.82   10.35
   0   7   2  113.70   10.60
   0   7   2  119.34   10.29
   0   7   2  105.27   11.31
   0   7   3   23.83    4.13
   0   7   3   33.86    3.46
   0  -7  -3   44.36    4.88
   0  -7  -4  448.24   40.11
   0  -7  -4  443.48   39.26
   0   7   4  373.96   39.72
   0   7   4  446.14   39.33
   0  -7  -5  350.74   35.91
   0   7   5  416.03   35.27
   0  -7  -5  362.17   35.17
   0   7   5  374.22   35.66
   0   7   5  414.77   35.29
   0   7   6    9.68    2.33
   0  -7  -6   10.08    1.76
   0   7   6   10.18    1.76
   0  -7  -6   12.32    2.97
   0   7   6   11.95    1.90
   0   7   7   12.09    1.96
   0   7   7   13.61    2.19
   0  -7  -7   11.14    2.98
   0   7   7   10.34    2.76
   0  -7  -7   13.99    2.00
   0  -7  -8    1.14    1.41
   0   7   8   -0.12    1.74
   0   7   8    0.42    1.39
   0   7   9    5.57    1.86
   0   7   9    3.20    1.60
   0  -7  -9    5.47    1.65
   0  -7 -10   -0.99    1.60
   0   7  10    0.30    1.68
   0   7  10    1.11    1.90
   0   7  11   32.37    3.80
   0   8  -9   85.67    9.73
   0   8  -8  219.66   20.01
   0   8  -8  226.36   18.97
   0   8  -7   -0.27    2.97
   0  -8   7    0.62    3.44
   0   8  -7    1.19    3.46
   0   8  -7   -1.25    1.87
   0   8  -6    1.96    3.11
   0   8  -6    5.35    2.81
   0  -8   6    3.49    3.57
   0  -8   5   10.93    3.79
   0   8  -5    7.33    3.13
   0   8  -5   12.95    3.52
   0   8  -5   16.88    2.89
   0  -8   4   63.30    8.48
   0   8  -4   84.56    7.83
   0   8  -4   73.17    8.09
   0   8  -4   66.33    8.17
   0   8  -3   -0.31    2.76
   0  -8   3   -0.85    2.79
   0   8  -3    1.21    2.94
   0   8  -3    1.52    2.48
   0   8  -2   11.49    3.33
   0   8  -2   11.67    2.13
   0   8  -2   11.17    2.88
   0  -8   2    8.97    3.36
   0   8  -2   20.28    3.45
   0   8  -1    1.26    1.34
   0   8  -1    1.77    2.80
   0   8  -1    0.50    3.22
   0   8   0   98.96    8.53
   0   8   0   81.37    9.29
   0  -8   0   69.84    9.25
   0   8   1    3.40    1.33
   0  -8  -1    2.04    2.44
   0   8   1    2.97    2.58
   0   8   2  488.24   38.05
   0   8   2  374.34   38.63
   0   8   2  409.70   37.58
   0  -8  -2  415.96   38.95
   0   8   3  407.41   34.87
   0  -8  -3  414.95   35.94
   0   8   3  311.17   35.39
   0   8   4   99.59    9.45
   0   8   4  101.54   10.17
   0  -8  -4   94.16   10.45
   0   8   5   15.13    2.16
   0  -8  -5    7.32    3.17
   0   8   5   16.62    2.08
   0  -8  -5   14.08    1.90
   0   8   5    5.37    2.60
   0   8   6   15.43    3.50
   0   8   6   23.74    2.85
   0  -8  -6   20.00    4.13
   0  -8  -6   25.19    2.79
   0   8   6   27.18    3.03
   0  -8  -7   33.65    4.48
   0   8   7   28.81    3.51
   0   8   7   23.96    4.32
   0   8   7   25.53    3.26
   0  -8  -7   30.46    3.27
   0   8   8   25.89    3.24
   0   8   8   19.24    3.94
   0   8   8   20.18    2.75
   0  -8  -8   18.61    2.64
   0   8   9    7.49    2.04
   0  -8  -9   10.02    1.95
   0   8   9    6.16    2.04
   0   8  10   43.73    4.78
   0   9  -8   -2.43    3.49
   0   9  -7    5.63    4.20
   0   9  -7    3.28    2.26
   0   9  -7    1.47    3.50
   0   9  -6   17.49    4.36
   0   9  -6   30.21    3.67
   0   9  -6   16.98    4.75
   0   9  -5   14.02    4.01
   0   9  -5   13.24    3.20
   0  -9   5    8.83    4.01
   0   9  -5    7.00    3.40
   0  -9   4   86.40   10.20
   0   9  -4   69.49    9.47
   0   9  -4  109.47    9.40
   0   9  -4   85.90    9.61
   0   9  -3   17.68    3.66
   0   9  -3   16.13    4.11
   0   9  -3   19.09    3.54
   0  -9   3   16.96    4.46
   0   9  -2    7.00    3.14
   0   9  -2    2.16    2.74
   0   9  -2    3.20    3.72
   0   9  -2    6.96    1.87
   0   9  -1  358.26   32.90
   0   9  -1  378.69   32.34
   0  -9   1  288.89   33.11
   0   9   0  168.16   15.11
   0   9   0  136.65   15.11
   0  -9   0  137.95   15.41
   0   9   0  158.20   14.40
   0   9   1  387.00   32.08
   0  -9  -1  300.90   33.21
   0   9   1  343.90   32.31
   0   9   1  301.90   32.95
   0  -9  -2   21.03    4.17
   0   9   2   20.49    2.65
   0   9   2   17.83    3.66
   0  -9  -3    1.51    3.31
   0   9   3    1.63    1.41
   0   9   3   -1.41    2.43
   0   9   4   -0.22    2.83
   0   9   4   -0.10    1.32
   0  -9  -4   -1.51    3.37
   0   9   5   60.10    6.84
   0   9   5   69.03    6.10
   0  -9  -5   42.35    7.10
   0   9   5   55.61    5.96
   0  -9  -6    7.43    3.51
   0   9   6    5.59    3.06
   0   9   6    8.79    1.94
   0   9   6    8.45    1.83
   0   9   7    0.50    1.60
   0   9   7   -1.96    2.98
   0  -9  -7   -0.25    2.62
   0   9   7    2.42    1.84
   0  -9  -7    1.60    1.36
   0   9   8   21.88    3.13
   0   9   8   11.93    2.36
   0   9   9   41.09    4.58
   0  10  -6    8.11    4.69
   0  10  -5    1.39    4.27
   0  10  -5    0.30    3.33
   0  10  -5    9.40    3.23
   0  10  -4   47.74    5.59
   0  10  -4   37.55    5.75
   0  10  -4   36.59    6.65
   0  10  -3   10.46    3.35
   0  10  -3    7.45    2.29
   0  10  -3    5.74    3.44
   0  10  -2    5.96    3.58
   0  10  -2    2.30    2.87
   0  10  -2    4.27    2.05
   0  10  -1  235.58   20.98
   0  10  -1  236.86   21.72
   0 -10   1  183.47   21.95
   0  10   0  172.19   21.61
   0 -10   0  192.63   22.24
   0  10   0  224.06   21.08
   0  10   1   29.56    4.88
   0  10   1   35.86    4.00
   0 -10  -1   26.83    5.42
   0 -10  -2    0.36    3.50
   0  10   2   -1.03    1.54
   0  10   2    0.27    2.86
   0 -10  -3    2.12    3.63
   0  10   3    2.16    1.56
   0  10   3   -1.05    2.99
   0 -10  -4    6.54    3.82
   0  10   4    6.67    1.91
   0  10   4    3.80    3.22
   0  10   5    1.00    3.20
   0  10   5   -0.79    1.81
   0 -10  -5   -0.99    3.75
   0  10   5    1.95    1.80
   0  10   6   10.58    3.75
   0  10   6   15.97    2.61
   0  10   6   13.22    2.35
   0 -10  -6   16.43    4.24
   0  10   7   37.15    4.51
   0  10   7   40.56    6.04
   0  10   7   46.36    4.86
   0  11  -2   85.66    9.56
   0  11  -2   83.53    8.74
   0  11  -1  141.30   17.97
   0  11  -1  203.31   17.65
   0  11  -1  207.24   18.43
   0  11   0  258.47   20.88
   0  11   0  225.97   21.55
   0  11   1   60.64    7.42
   0  11   1   66.93    6.42
   0  11   1   42.89    7.09
   0  11   2   15.25    4.30
   0  11   2   19.40    2.94
   0  11   3   -2.03    3.54
   0  11   3    0.67    1.89
   0  11   4   50.23    7.24
   0  11   4   64.61    6.40
   0  11   5   66.86    8.41
   0  11   5   58.72    6.96
   0  11   5   80.48    7.17
   0  11   6   14.28    2.62
   0  11   6   18.27    2.97
  -1  11   6   10.88    5.28
  -1  11   5   76.69   10.08
  -1  11   4   -2.72    4.83
  -1  11   3   27.53    3.67
  -1  11   3   18.85    5.48
  -1  11   2    4.58    4.02
  -1  11   2    7.79    2.19
  -1  11   1   30.40    3.99
  -1  11   1   33.34    6.05
  -1  11   1   33.95    5.80
  -1  11   0    4.18    4.45
  -1  11   0   -2.68    3.75
  -1  11   0    0.31    1.99
  -1  11  -1   76.17    9.42
  -1  11  -2  137.76   14.59
  -1  10   6   32.45    3.68
  -1  10   6   31.13    3.86
   1 -10  -6   23.78    5.24
  -1  10   6   27.17    5.74
   1 -10  -5   65.61    8.45
  -1  10   5   68.02    7.01
  -1  10   5   77.91    9.02
   1 -10  -4   -1.27    3.44
  -1  10   4   -1.33    4.11
  -1  10   4    0.25    1.66
  -1  10   3   -0.12    1.61
  -1  10   3   -2.50    3.49
   1 -10  -3    2.25    3.40
   1 -10  -2    0.32    3.46
  -1  10   2   -0.12    1.58
  -1  10   2   -2.40    3.81
  -1  10   1   29.33    5.35
  -1  10   1   39.44    4.37
   1 -10  -1   43.77    6.08
  -1  10   0   27.95    3.69
   1 -10   0   31.15    5.31
  -1  10   0   39.00    5.62
  -1  10   0   23.28    4.79
  -1  10  -1    6.54    2.08
  -1  10  -1    9.55    4.55
  -1  10  -1    8.05    3.51
  -1  10  -2   97.77   11.37
  -1  10  -2  108.44   10.40
  -1  10  -3   43.00    4.56
  -1  10  -3   41.57    5.81
  -1  10  -3   24.44    5.05
  -1  10  -4    6.49    2.29
  -1  10  -4    5.37    3.78
  -1  10  -4    2.86    3.47
  -1  10  -5   20.75    4.30
  -1  10  -5    6.44    3.90
  -1   9   8    3.79    1.83
  -1   9   8    5.25    2.26
  -1   9   7    3.83    2.05
  -1   9   7    2.75    1.70
   1  -9  -6   19.85    4.22
  -1   9   6   27.16    5.17
   1  -9  -6   22.12    2.89
  -1   9   6   24.63    3.21
  -1   9   6   23.53    3.00
   1  -9  -5   -0.27    2.89
  -1   9   5   -0.11    1.62
  -1   9   5   -1.78    3.83
  -1   9   4   41.67    4.72
  -1   9   4   53.58    6.39
   1  -9  -4   41.77    5.86
  -1   9   3   -1.87    3.26
  -1   9   3    2.65    1.50
   1  -9  -3    4.36    2.97
  -1   9   2   36.53    3.82
  -1   9   2   34.35    4.00
  -1   9   2   36.17    5.25
   1  -9  -2   44.50    5.42
  -1   9   1  201.89   16.66
   1  -9  -1  162.58   17.49
  -1   9   1  144.97   17.26
  -1   9   0  147.28   14.15
   1  -9   0  135.82   14.29
  -1   9   0  139.19   13.30
  -1   9   0  138.35   14.12
  -1   9  -1   26.99    5.00
  -1   9  -1   28.09    3.42
   1  -9   1   26.57    4.47
  -1   9  -2   54.39    6.62
  -1   9  -2   32.34    5.90
  -1   9  -2   57.45    5.38
  -1   9  -3    2.53    1.74
   1  -9   3    1.23    3.06
  -1   9  -3    3.57    3.27
  -1   9  -3    1.38    2.96
  -1   9  -4    6.50    3.45
  -1   9  -4   -1.13    3.15
   1  -9   4    7.53    3.49
  -1   9  -5    6.52    3.54
  -1   9  -5   13.51    3.45
  -1   9  -6    4.38    3.21
  -1   9  -6    1.33    5.22
  -1   9  -6    4.20    3.61
  -1   9  -7   41.39    7.58
  -1   9  -7   36.93    6.56
  -1   9  -7   50.63    5.70
  -1   9  -8   -1.21    4.67
  -1   8   9   15.99    2.87
  -1   8   9   27.28    3.38
  -1   8   8   59.92    6.02
  -1   8   8   53.12    5.76
   1  -8  -7   -0.23    2.75
  -1   8   7    2.40    1.53
   1  -8  -7    2.06    1.41
  -1   8   7    3.59    1.78
  -1   8   6    5.09    3.55
  -1   8   6    5.66    1.58
   1  -8  -6    6.33    1.57
   1  -8  -6    3.99    2.78
  -1   8   6    4.38    1.78
  -1   8   5   11.67    1.96
   1  -8  -5    9.84    1.73
   1  -8  -5   14.45    3.43
  -1   8   5    6.15    3.51
  -1   8   4    6.25    1.68
  -1   8   4    7.02    3.26
   1  -8  -4    8.02    2.87
  -1   8   3  170.11   16.80
  -1   8   3  175.97   15.94
   1  -8  -3  160.86   16.63
  -1   8   2  837.54   70.60
   1  -8  -2  814.12   71.45
  -1   8   2  784.26   71.31
  -1   8   2  731.99   70.43
  -1   8   1  994.67   85.27
   1  -8  -1  857.96   85.95
  -1   8   1  914.63   85.93
   1  -8   0   36.26    5.14
  -1   8   0   28.28    4.89
  -1   8   0   41.01    4.08
   1  -8   1   15.57    3.53
  -1   8  -1   16.97    3.76
  -1   8  -1   17.98    2.42
  -1   8  -2    8.94    1.81
  -1   8  -2    7.47    3.54
  -1   8  -2    4.15    2.65
   1  -8   3  278.02   25.94
  -1   8  -3  248.83   25.75
  -1   8  -3  288.78   25.71
  -1   8  -4   90.51    9.14
   1  -8   4   84.79    9.37
  -1   8  -4   88.47    9.86
  -1   8  -4   75.34    9.18
  -1   8  -5   -1.08    4.02
   1  -8   5   -0.83    2.72
  -1   8  -5   -1.33    2.86
  -1   8  -5    1.03    2.64
  -1   8  -6   17.57    4.21
   1  -8   6   19.15    4.24
  -1   8  -6   22.02    3.67
  -1   8  -6   15.44    4.83
  -1   8  -7    1.90    3.82
  -1   8  -7    4.44    4.41
  -1   8  -7    5.83    2.69
   1  -8   7    4.04    3.61
  -1   8  -8   39.20    6.18
  -1   8  -8   18.24    5.88
   1  -8   8   26.49    5.24
  -1   8  -8   30.64    4.12
  -1   8  -9    2.84    4.61
  -1   7  10    1.44    1.79
  -1   7   9   13.38    2.52
   1  -7  -9   12.17    2.24
  -1   7   9   10.23    2.23
  -1   7   8    4.05    1.87
   1  -7  -8    1.95    1.58
   1  -7  -8    4.33    2.48
  -1   7   7  235.59   21.88
   1  -7  -7  229.79   21.87
  -1   7   7  247.82   21.96
   1  -7  -7  236.81   22.42
  -1   7   6  372.34   29.91
   1  -7  -6  351.31   30.46
  -1   7   6  323.59   29.78
   1  -7  -6  293.44   29.76
  -1   7   6  301.41   30.47
   1  -7  -5   -0.34    1.18
  -1   7   5    0.22    2.77
   1  -7  -5    1.63    2.21
  -1   7   5   -0.34    1.32
   1  -7  -4   84.02    9.27
  -1   7   4  105.30    8.65
  -1   7   4   61.91    9.15
   1  -7  -4   90.72    8.51
  -1   7   3  499.56   45.59
  -1   7   3  524.16   45.95
   1  -7  -3  508.51   46.61
  -1   7   3  525.28   46.60
  -1   7   2  608.32   55.67
   1  -7  -2  633.03   56.49
  -1   7   2  708.06   56.50
  -1   7   2  586.93   55.70
  -1   7   1  351.34   32.18
  -1   7   1  345.95   31.49
   1  -7  -1  339.00   32.22
   1  -7   0   59.68    6.76
  -1   7   0   61.29    5.93
  -1   7   0   56.22    6.71
  -1   7  -1    2.54    2.77
  -1   7  -1    1.50    1.19
  -1   7  -2    0.18    2.92
   1  -7   2   -2.02    2.34
  -1   7  -2   -0.65    1.83
  -1   7  -3   37.84    5.63
  -1   7  -3   39.18    4.97
   1  -7   3   32.35    4.79
  -1   7  -3   40.15    4.97
  -1   7  -4    0.23    2.51
  -1   7  -4   -0.22    3.45
  -1   7  -4    5.40    2.94
   1  -7   4    3.96    2.57
   1  -7   5   11.73    3.19
  -1   7  -5   12.87    2.90
  -1   7  -5    8.17    2.98
  -1   7  -5    8.66    3.93
  -1   7  -6   59.39    7.89
   1  -7   6   78.89    7.96
  -1   7  -6   67.43    7.14
  -1   7  -6   63.14    7.75
  -1   7  -7   -0.83    3.56
  -1   7  -7    0.14    2.27
   1  -7   7    0.52    2.81
  -1   7  -7    3.96    3.88
  -1   7  -8   80.94    7.02
  -1   7  -8   69.01    8.30
   1  -7   8   48.29    7.50
  -1   7  -8   53.58    7.99
  -1   7  -9   41.47    7.19
   1  -7   9   54.13    6.26
   1  -7   9   44.96    6.45
  -1   7  -9   46.62    7.30
   1  -7  10    7.81    3.82
  -1   6  11   -0.22    1.64
  -1   6  10   38.41    4.49
  -1   6  10   39.38    4.37
   1  -6  -9    0.83    1.41
  -1   6   9    0.12    1.67
  -1   6   9   -0.29    1.55
   1  -6  -8   15.28    2.67
   1  -6  -8   16.27    2.58
   1  -6  -8   12.06    2.14
  -1   6   8   17.07    2.42
  -1   6   8    9.89    2.08
   1  -6  -8   10.75    2.03
  -1   6   7   66.48    6.39
   1  -6  -7   71.46    6.79
   1  -6  -7   61.71    6.34
  -1   6   7   59.58    6.29
  -1   6   6  331.61   28.32
  -1   6   6  291.76   27.71
  -1   6   6  310.69   27.76
   1  -6  -6  291.67   27.74
   1  -6  -6  310.74   28.09
  -1   6   5   42.03    4.44
   1  -6  -5   43.31    4.47
   1  -6  -5   39.99    5.03
  -1   6   5   59.66    5.73
   1  -6  -4    5.05    0.95
   1  -6  -4    5.08    1.27
  -1   6   4    9.06    2.59
  -1   6   4    8.13    1.39
   1  -6  -4    2.44    1.91
  -1   6   3  179.92   16.30
   1  -6  -3  159.60   17.01
  -1   6   3  171.53   17.08
  -1   6   3  219.54   16.64
   1  -6  -3  167.11   16.34
   1  -6  -3  185.29   16.53
  -1   6   2    1.71    0.92
  -1   6   2    1.44    2.06
   1  -6  -2    1.61    1.73
  -1   6   2    1.41    1.37
  -1   6   1   -0.13    0.85
   1  -6  -1    2.16    1.75
  -1   6   1   -2.35    2.07
  -1   6   0   -0.18    2.04
   1  -6   0    3.39    1.94
  -1   6   0    1.72    0.95
  -1   6  -1   27.98    3.91
  -1   6  -2   54.10    3.80
  -1   6  -2   44.88    3.96
   1  -6   2   33.58    3.16
  -1   6  -3    7.45    2.61
  -1   6  -3    4.17    2.46
  -1   6  -3    2.60    2.90
   1  -6   3    2.53    2.19
  -1   6  -4  104.23   11.25
  -1   6  -4  133.68   11.47
  -1   6  -4   97.37   10.91
   1  -6   4  119.90   11.32
  -1   6  -5   21.03    3.63
  -1   6  -5   22.37    3.45
  -1   6  -5   17.65    3.90
   1  -6   5   16.58    3.30
  -1   6  -6    2.36    3.41
  -1   6  -6    0.75    1.87
   1  -6   6    0.18    2.52
  -1   6  -6   -3.08    2.79
   1  -6   6    2.91    2.14
  -1   6  -7    1.95    1.95
   1  -6   7    2.58    2.92
  -1   6  -7    1.22    2.96
   1  -6   7    0.67    2.60
  -1   6  -7    3.50    3.35
   1  -6   8    4.69    3.18
  -1   6  -8    2.26    3.42
  -1   6  -8    1.38    1.98
  -1   6  -8    6.95    3.72
   1  -6   8    6.81    2.97
  -1   6  -9  167.02   17.58
  -1   6  -9  191.66   16.50
   1  -6   9  138.11   17.00
   1  -6   9  190.27   17.43
  -1   6  -9  178.48   17.90
  -1   6 -10   26.08    5.45
   1  -6  10   21.82    4.72
  -1   6 -10   21.59    5.60
  -1   5  11   25.88    3.29
   1  -5 -10   34.26    3.94
  -1   5  10   29.67    3.84
   1  -5 -10   39.93    4.49
   1  -5  -9    0.82    1.46
   1  -5  -9    7.36    2.22
  -1   5   9    3.20    1.59
   1  -5  -8  609.10   61.29
  -1   5   8  637.25   61.30
   1  -5  -8  830.78   61.46
  -1   5   8  684.55   61.49
   1  -5  -8  664.50   61.40
  -1   5   7   34.96    4.48
  -1   5   7   39.98    4.44
   1  -5  -7   53.00    4.83
   1  -5  -7   44.43    4.53
   1  -5  -7   51.10    4.78
   1  -5  -6  261.93   24.17
  -1   5   6  246.77   23.92
   1  -5  -6  267.36   23.95
  -1   5   6  218.65   23.88
  -1   5   5   44.01    4.39
  -1   5   5   47.90    5.17
   1  -5  -5   47.14    4.48
   1  -5  -5   35.97    4.73
   1  -5  -4    0.85    1.49
  -1   5   4   -0.62    1.81
  -1   5   4    0.65    0.96
   1  -5  -4    1.62    0.94
   1  -5  -3  508.81   49.21
   1  -5  -3  615.80   48.95
  -1   5   3  504.52   48.72
  -1   5   3  565.15   49.42
  -1   5   3  567.64   48.94
   1  -5  -2   98.42    8.75
   1  -5  -2   96.02    8.73
  -1   5   2   96.78    8.74
  -1   5   2   87.39    8.75
  -1   5   2   79.75    9.17
   1  -5  -2   98.08    9.19
   1  -5  -1  132.16   12.12
   1  -5  -1  133.18   11.72
  -1   5   1  117.92   12.17
  -1   5   1  121.57   11.66
  -1   5   0   27.17    3.84
   1  -5   0   32.85    3.68
  -1   5  -1   17.71    2.89
  -1   5  -2  186.47   17.73
  -1   5  -2  195.97   17.70
   1  -5   2  180.18   17.59
   1  -5   3    5.65    1.95
  -1   5  -3    8.84    2.29
  -1   5  -3    4.85    2.56
   1  -5   4  120.57   12.18
  -1   5  -4  126.47   12.05
  -1   5  -4  127.10   12.25
  -1   5  -5  198.82   22.74
  -1   5  -5  253.72   22.61
  -1   5  -5  286.42   23.05
   1  -5   5  241.18   22.75
   1  -5   5  244.50   22.84
  -1   5  -6  575.05   55.02
   1  -5   6  604.19   55.01
   1  -5   6  655.92   55.06
  -1   5  -6  520.87   54.95
  -1   5  -6  636.94   54.65
   1  -5   7  102.27   10.21
  -1   5  -7   96.93   10.22
  -1   5  -7   90.29   10.23
   1  -5   7   92.11    9.92
  -1   5  -7  100.75    9.45
  -1   5  -8    4.80    3.52
   1  -5   8    3.84    2.57
  -1   5  -8    5.95    3.42
  -1   5  -8    5.67    1.99
   1  -5   8    2.46    3.11
  -1   5  -9   54.83    7.71
   1  -5   9   58.79    7.10
   1  -5   9   62.79    7.37
  -1   5  -9   57.11    7.72
  -1   5  -9   66.61    6.40
  -1   5 -10   64.46    6.80
   1  -5  10   63.84    7.89
  -1   5 -10   69.10    8.30
   1  -5  11   75.02    8.85
   1  -4 -11   68.50    6.58
  -1   4  11   46.18    5.89
  -1   4  10    4.79    2.01
   1  -4 -10    9.90    2.48
   1  -4 -10    9.07    1.92
  -1   4  10   10.70    1.98
  -1   4   9  120.61   11.58
   1  -4  -9  122.17   11.63
   1  -4  -9  125.33   11.71
   1  -4  -8    0.83    1.30
   1  -4  -8    0.70    0.90
   1  -4  -8    0.09    1.73
  -1   4   8   -0.25    1.32
  -1   4   7   33.34    3.72
   1  -4  -7   39.31    3.95
   1  -4  -7   36.02    3.73
   1  -4  -7   31.49    3.74
   1  -4  -6  103.56    7.82
   1  -4  -6   77.95    7.63
   1  -4  -6   70.02    7.67
  -1   4   6   74.22    7.56
  -1   4   5   34.66    3.84
   1  -4  -5   48.40    4.10
   1  -4  -5   39.86    4.02
   1  -4  -5   33.45    3.79
   1  -4  -4    0.93    0.78
   1  -4  -4    2.64    1.47
   1  -4  -4    1.04    1.17
  -1   4   4    0.77    0.83
  -1   4   4    1.59    1.77
   1  -4  -3  299.16   25.61
   1  -4  -3  291.82   25.81
  -1   4   3  267.09   25.99
  -1   4   3  253.17   25.42
  -1   4   3  340.48   25.65
  -1   4   2   64.76    6.20
  -1   4   2   68.37    6.24
  -1   4   2   47.25    6.50
   1  -4  -2   74.75    6.22
   1  -4  -2   63.70    6.51
   1  -4  -1  399.47   29.36
   1  -4  -1  288.43   28.86
   1  -4  -1  365.30   29.04
  -1   4   1  271.25   29.23
   1  -4   0   25.42    2.88
   1  -4   0   25.41    3.13
  -1   4  -1 1702.54  153.42
  -1   4  -2  501.50   48.01
  -1   4  -2  499.15   48.06
  -1   4  -2  540.19   48.22
   1  -4   2  576.74   48.07
  -1   4  -3    5.78    1.88
   1  -4   3    6.32    1.71
  -1   4  -3    3.88    1.80
  -1   4  -3    6.20    2.19
   1  -4   4   75.57    6.39
  -1   4  -4   84.19    6.65
  -1   4  -4   87.32    6.77
  -1   4  -4   89.31    6.44
   1  -4   5  164.23   16.54
  -1   4  -5  151.25   16.59
  -1   4  -5  205.82   16.46
  -1   4  -6  284.20   25.36
   1  -4   6  268.38   25.28
  -1   4  -6  246.38   24.82
   1  -4   6  299.82   25.16
  -1   4  -7 1673.17  164.71
   1  -4   7 1984.94  164.76
  -1   4  -7 1806.76  164.22
   1  -4   7 1842.78  164.52
  -1   4  -8   19.11    2.68
   1  -4   8   16.92    3.18
   1  -4   8   21.47    3.77
   1  -4   9    3.26    2.92
   1  -4   9   -1.44    2.33
  -1   4  -9    3.81    3.46
  -1   4  -9   -0.86    1.62
   1  -4  10    1.66    3.20
  -1   4 -10    5.58    3.92
  -1   4 -10    2.60    1.90
   1  -4  11   28.85    4.86
  -1   4 -11   24.42    5.75
   1  -3 -12   52.06    6.58
   1  -3 -11  101.54   10.72
  -1   3  11  103.35   10.94
   1  -3 -11  135.15   10.97
   1  -3 -10    3.24    1.86
   1  -3 -10    1.83    1.57
  -1   3  10    3.07    1.86
  -1   3   9   24.43    3.19
  -1   3   9   26.84    3.17
   1  -3  -9   32.10    3.27
   1  -3  -9   23.46    3.11
   1  -3  -8  152.11   14.52
   1  -3  -8  193.43   14.61
  -1   3   8  138.44   14.50
  -1   3   8  146.96   14.48
   1  -3  -7  255.82   21.49
  -1   3   7  201.48   21.38
   1  -3  -7  273.96   21.30
   1  -3  -7  197.20   21.40
   1  -3  -6  161.67   13.62
  -1   3   6  152.85   13.67
   1  -3  -6  123.41   13.63
   1  -3  -6  154.44   13.70
   1  -3  -5    8.19    1.47
   1  -3  -5   12.36    1.77
  -1   3   5    8.89    1.44
   1  -3  -5   11.70    1.46
   1  -3  -4   21.52    2.91
  -1   3   4   26.44    2.84
   1  -3  -4   41.54    3.15
   1  -3  -4   26.12    2.88
   1  -3  -3  250.92   28.46
  -1   3   3  309.42   28.72
  -1   3   3  318.88   28.35
   1  -3  -3  297.29   28.33
  -1   3   3  308.47   28.26
   1  -3  -2  392.54   34.63
  -1   3   2  371.60   34.63
  -1   3   2  353.11   34.98
   1  -3  -2  415.13   34.92
   1  -3  -1 1026.40   92.89
  -1   3   1 1031.56   92.93
   1  -3   0    1.08    1.45
   1  -3   0    0.99    1.37
   1  -3   1  556.00   51.46
  -1   3  -1  585.12   51.55
   1  -3   2  464.71   34.37
  -1   3  -2  361.41   34.27
  -1   3  -2  448.49   34.51
   1  -3   3  107.85   10.49
  -1   3  -3  111.77   10.53
  -1   3  -3  121.22   10.45
   1  -3   3  103.39   10.29
  -1   3  -3  103.56   10.50
  -1   3  -4  703.43   66.63
   1  -3   4  795.25   66.86
   1  -3   4  696.57   66.65
  -1   3  -4  822.52   66.90
  -1   3  -4  705.79   66.83
  -1   3  -5  113.70    8.84
   1  -3   5   72.28    8.40
  -1   3  -5   88.49    8.41
   1  -3   6  181.29   15.92
  -1   3  -6  153.74   15.67
  -1   3  -6  184.17   16.16
  -1   3  -7   41.36    4.08
  -1   3  -7   30.79    4.69
   1  -3   7   40.90    4.75
   1  -3   7   33.64    4.25
  -1   3  -8    8.65    3.24
  -1   3  -8    4.09    1.71
   1  -3   8    4.74    1.98
   1  -3   8    5.61    2.73
  -1   3  -8    8.76    3.02
   1  -3   9   46.01    5.35
  -1   3  -9   36.80    5.96
   1  -3   9   43.39    5.75
  -1   3  -9   57.96    5.19
  -1   3 -10   25.70    3.03
  -1   3 -10   31.27    5.25
  -1   3 -10   24.54    3.22
   1  -3  10   27.59    4.46
   1  -3  11    5.00    3.48
  -1   3 -11    1.78    4.02
  -1   3 -11    6.54    1.86
   1  -3  12   18.09    4.44
   1  -2 -13   35.34    5.90
   1  -2 -12   13.02    4.18
  -1   2  12   16.86    3.22
   1  -2 -12   19.23    2.99
   1  -2 -11   15.24    2.46
   1  -2 -11    8.86    1.94
  -1   2  11    8.59    2.34
   1  -2 -10    2.01    1.80
   1  -2 -10    0.18    1.26
  -1   2  10    1.54    1.76
   1  -2  -9   20.74    3.01
  -1   2   9   29.34    3.40
   1  -2  -9   34.44    3.30
   1  -2  -8   66.34    7.17
   1  -2  -8   98.85    7.39
  -1   2   8   70.70    7.25
  -1   2   8   71.47    7.36
  -1   2   7   -0.31    0.41
   1  -2  -7    8.08    1.20
  -1   2   7    9.17    1.29
   1  -2  -7   12.10    1.45
   1  -2  -6   34.50    3.58
  -1   2   6   25.19    3.52
   1  -2  -6   28.56    3.52
   1  -2  -6   46.65    3.40
   1  -2  -5   25.96    2.90
   1  -2  -5   30.31    2.96
  -1   2   5   24.91    2.93
   1  -2  -5   34.40    3.01
   1  -2  -4   45.09    3.83
   1  -2  -4   36.84    3.73
  -1   2   4   28.64    3.68
   1  -2  -4   46.35    3.85
  -1   2   3  138.23   14.04
   1  -2  -3  142.35   14.08
   1  -2  -3  139.59   14.18
  -1   2   2   11.47    1.46
  -1   2   2   13.47    2.05
   1  -2  -2   11.77    1.78
   1  -2  -2   11.10    1.70
   1  -2  -1  200.84   21.68
  -1   2   1  202.69   21.81
   1  -2   1   30.46    3.21
  -1   2  -1   31.45    3.42
  -1   2  -2  182.67   17.70
   1  -2   2  201.40   17.76
   1  -2   2  175.02   17.68
   1  -2   2  196.57   17.77
  -1   2  -2  208.26   17.86
  -1   2  -2  200.49   17.80
  -1   2  -3  712.53   57.40
  -1   2  -3  529.79   57.13
   1  -2   3  697.76   57.23
   1  -2   3  643.31   57.29
   1  -2   4  509.07   42.20
  -1   2  -4  415.28   42.36
   1  -2   4  535.38   42.42
  -1   2  -4  419.38   42.16
  -1   2  -5  488.19   40.12
  -1   2  -5  489.06   39.79
   1  -2   5  414.05   39.95
   1  -2   5  384.35   39.74
   1  -2   6    3.97    1.25
  -1   2  -6    4.57    1.28
  -1   2  -6    4.14    2.10
  -1   2  -7    0.87    1.34
  -1   2  -7    2.94    2.16
   1  -2   7    0.14    1.99
   1  -2   7    2.59    1.40
  -1   2  -7    0.17    0.87
  -1   2  -8   -0.28    1.51
  -1   2  -8   -1.94    2.79
   1  -2   8    0.85    1.54
   1  -2   8   -2.49    2.29
  -1   2  -9    0.46    1.45
  -1   2  -9    2.49    1.28
  -1   2  -9    2.85    3.19
   1  -2   9   -0.18    2.38
  -1   2 -10   27.53    3.10
  -1   2 -10   29.50    4.92
   1  -2  10   26.11    4.09
  -1   2 -10   25.82    3.18
  -1   2 -11   83.93    7.38
  -1   2 -11   75.97    8.91
  -1   2 -11   63.35    7.20
   1  -2  11   77.54    8.35
  -1   2 -12    1.90    4.46
   1  -2  12    2.99    3.62
   1  -1 -13    0.56    4.02
   1  -1 -12   66.96    6.52
  -1   1  12   52.83    6.61
   1  -1 -11    4.96    1.79
  -1   1  11    8.07    2.59
   1  -1 -11   11.13    2.44
  -1   1  10   26.92    3.49
   1  -1 -10   20.38    3.03
   1  -1 -10   32.36    3.54
   1  -1  -9   51.94    5.02
  -1   1   9   46.47    4.89
   1  -1  -9   40.80    4.64
   1  -1  -8    1.85    1.69
   1  -1  -8    1.32    1.17
  -1   1   8    2.72    1.51
   1  -1  -7    2.89    1.50
  -1   1   7    0.75    1.04
   1  -1  -7    1.77    1.02
  -1   1   6   60.15    5.79
   1  -1  -6   48.70    5.73
   1  -1  -6   65.11    5.60
   1  -1  -6   66.27    5.94
   1  -1  -5  164.08   17.00
   1  -1  -5  225.40   17.13
   1  -1  -5  215.17   17.13
  -1   1   5  183.14   17.04
  -1   1   5  166.64   17.01
   1  -1  -4  318.34   26.10
   1  -1  -4  354.90   26.27
  -1   1   4  267.67   26.06
   1  -1  -4  249.83   26.03
   1  -1  -3  291.60   21.48
  -1   1   3  199.37   21.40
   1  -1  -2    0.40    0.76
  -1   1   2    0.88    0.56
   1  -1  -1  886.43   93.86
   1  -1  -1  884.16   93.77
  -1   1   0    0.33    0.32
  -1   1  -1 1666.99  129.29
   1  -1   1 1281.96  129.13
   1  -1   2 4122.59  354.16
  -1   1  -2 3679.98  354.29
   1  -1   3   -0.83    0.95
  -1   1  -3    2.36    1.62
  -1   1  -4   28.60    3.19
   1  -1   4   18.98    2.73
  -1   1  -4   20.12    3.10
   1  -1   4   24.00    2.50
   1  -1   5  180.73   18.51
  -1   1  -5  231.24   18.92
  -1   1  -5  192.95   18.60
   1  -1   5  219.99   18.83
  -1   1  -5  248.50   19.13
  -1   1  -6  292.48   24.40
   1  -1   6  246.99   24.31
  -1   1  -7   16.50    1.32
   1  -1   7   -1.46    0.73
  -1   1  -7   14.62    1.57
   1  -1   7   19.56    1.50
  -1   1  -7   21.74    2.82
   1  -1   8    5.63    1.86
  -1   1  -8    7.83    1.66
  -1   1  -8   12.37    3.16
   1  -1   8    8.02    1.47
  -1   1  -8   10.43    1.49
  -1   1  -9    9.47    1.74
  -1   1  -9    9.89    3.44
  -1   1  -9   10.16    1.76
   1  -1   9    7.00    2.45
  -1   1 -10   85.12    8.60
  -1   1 -10   79.18    7.18
  -1   1 -10   60.70    7.01
   1  -1  10   83.92    7.92
  -1   1 -11   28.41    3.37
   1  -1  11   29.59    4.37
  -1   1 -11   28.27    3.61
  -1   1 -11   33.58    5.53
  -1   1 -12   11.07    4.42
  -1   1 -12    4.77    1.80
   1  -1  12    8.12    3.39
  -1   0  12    2.08    2.62
   1   0 -11   60.72    6.06
  -1   0  11   51.38    6.00
   1   0 -11   51.01    5.47
   1   0 -10  230.34   19.89
   1   0 -10  194.65   19.50
  -1   0  10  223.92   19.88
   1   0  -9   34.08    3.57
   1   0  -9   33.53    4.05
  -1   0   9   33.67    3.92
   1   0  -9   31.07    3.51
   1   0  -8   12.07    2.42
  -1   0   8   11.88    2.04
   1   0  -8   12.01    1.75
   1   0  -8   10.80    1.82
   1   0  -7   90.91    7.90
  -1   0   7   77.91    8.00
   1   0  -7   88.32    7.66
   1   0  -7   70.20    7.85
   1   0  -6  513.32   50.93
   1   0  -6  592.52   50.94
   1   0  -6  582.71   50.88
   1   0  -5   42.43    4.43
   1   0  -5   50.12    4.41
  -1   0   5   44.41    4.50
   1   0  -5   46.66    4.46
   1   0  -4   31.03    3.37
  -1   0   4   31.01    3.12
   1   0  -4   32.01    3.07
   1   0  -3  493.64   41.41
   1   0  -3  447.11   41.29
  -1   0   3  448.02   41.32
  -1   0   2  267.07   25.39
  -1   0   2  221.96   25.45
  -1   0   1  551.80   49.55
   1   0  -1  548.60   49.66
  -1   0   0    0.03    0.19
   1   0   0    0.10    0.18
  -1   0  -1   33.61    3.24
  -1   0  -2  129.34   11.89
  -1   0  -2  126.90   11.66
   1   0   3  304.18   24.93
  -1   0  -3  328.67   25.02
  -1   0  -4  584.50   40.95
   1   0   4  410.82   40.51
  -1   0  -5   67.62    5.93
  -1   0  -5   55.30    5.28
   1   0   5   55.03    5.25
  -1   0  -6   13.18    1.51
   1   0   6   10.79    1.33
  -1   0  -6   14.90    2.45
   1   0   7    5.60    0.79
  -1   0  -7    5.99    1.12
  -1   0  -8   23.24    1.81
  -1   0  -8   36.05    3.68
  -1   0  -8   23.08    1.71
   1   0   9  317.25   29.63
  -1   0  -9  400.83   30.30
  -1   0  -9  300.61   29.23
  -1   0  -9  326.61   29.39
  -1   0 -10  303.41   28.82
  -1   0 -10  387.56   30.05
   1   0  10  271.79   29.18
  -1   0 -10  345.53   29.07
  -1   0 -11    3.02    3.47
  -1   0 -11    0.34    1.49
  -1   0 -11   -0.21    1.50
   1   0  11   -1.30    2.41
  -1   0 -12   43.82    6.16
  -1   0 -12   30.47    3.77
   1   0  12   40.31    5.23
  -1   0 -13  265.22   26.02
  -1  -1  12   29.26    4.41
   1   1 -11   12.26    3.17
  -1  -1  11   10.04    2.87
   1   1 -11   13.78    2.30
   1   1 -11   17.20    2.26
   1   1 -10   36.19    3.88
  -1  -1  10   36.49    4.46
   1   1 -10   33.39    4.48
   1   1 -10   34.05    3.79
   1   1  -9   10.35    1.88
   1   1  -9   13.52    1.99
  -1  -1   9   16.88    2.57
   1   1  -8  114.61   11.67
   1   1  -8  123.10   11.72
   1   1  -8  134.85   11.63
  -1  -1   8  131.14   11.98
   1   1  -7   17.24    2.53
   1   1  -7   28.93    2.73
  -1  -1   7   26.67    2.98
   1   1  -7   25.78    2.54
   1   1  -6    5.57    1.16
   1   1  -6    5.51    1.14
  -1  -1   6    2.69    1.01
   1   1  -6    5.37    1.05
   1   1  -5   64.06    6.01
  -1  -1   5   56.68    5.94
   1   1  -5   66.13    5.90
   1   1  -4   33.57    4.25
   1   1  -4   56.03    4.21
  -1  -1   4   38.57    4.12
   1   1  -3  488.88   44.38
  -1  -1   3  496.41   44.40
  -1  -1   2 2810.94  263.37
   1   1  -2 3033.86  263.35
  -1  -1   1 2006.00  182.68
   1   1  -1 2058.11  182.67
   1   1   0    6.88    1.07
  -1  -1   0    6.65    1.06
   1   1   1   66.94    7.16
  -1  -1  -1   92.55    7.17
   1   1   2  405.52   36.08
   1   1   2  440.17   36.28
   1   1   2  390.86   36.15
  -1  -1  -2  362.27   36.14
  -1  -1  -2  411.77   36.09
  -1  -1  -3   16.63    1.86
  -1  -1  -3   11.74    1.22
   1   1   3   11.31    1.31
  -1  -1  -3   10.39    1.33
   1   1   3   15.46    1.66
  -1  -1  -4  248.59   22.05
  -1  -1  -4  213.47   22.09
   1   1   5  230.87   21.53
  -1  -1  -5  201.41   21.66
  -1  -1  -5  260.44   21.63
  -1  -1  -6  399.19   38.13
  -1  -1  -6  500.96   38.66
  -1  -1  -7   46.97    4.56
  -1  -1  -8   61.79    6.00
  -1  -1  -8   47.05    4.85
  -1  -1  -9   59.49    5.74
  -1  -1  -9   39.44    4.31
   1   1  10   22.55    3.66
  -1  -1 -10   28.63    3.12
  -1  -1 -10   40.65    5.03
   1   1  11    0.17    2.19
  -1  -1 -11   -0.81    1.48
  -1  -1 -11    0.08    1.31
  -1  -1 -11    2.13    3.53
  -1  -1 -12   16.11    4.72
   1   1  12   11.33    3.02
  -1  -1 -12   10.33    2.05
  -1  -1 -13   24.60    5.71
   1   2 -12   27.42    5.67
  -1  -2  12   24.11    4.48
   1   2 -11   -0.85    1.43
   1   2 -11   -0.17    2.77
  -1  -2  11    1.80    2.78
   1   2 -10   28.98    3.02
   1   2 -10   18.45    2.87
  -1  -2  10   31.66    3.95
   1   2  -9  121.45   11.89
   1   2  -9  113.14   11.89
  -1  -2   9  131.64   12.33
   1   2  -9  149.22   12.00
   1   2  -8   67.80    7.29
   1   2  -8   87.71    7.45
   1   2  -8   74.14    7.32
  -1  -2   8   80.44    7.69
   1   2  -7   24.76    3.12
   1   2  -7   33.14    3.21
  -1  -2   7   29.93    3.48
   1   2  -7   29.99    3.15
   1   2  -6  168.88   11.68
   1   2  -6  190.87   11.68
   1   2  -6  163.99   11.83
   1   2  -5   74.61    6.50
  -1  -2   5   69.61    6.69
   1   2  -5   59.53    6.71
   1   2  -4  426.42   33.72
   1   2  -4  356.31   33.93
  -1  -2   4  320.10   33.76
  -1  -2   3  592.34   47.59
   1   2  -3  484.41   47.50
   1   2  -3  538.31   47.80
   1   2  -2  105.06    9.32
   1   2  -2   86.97    9.64
  -1  -2   2  105.15    9.40
   1   2  -1  720.32   61.11
   1   2  -1  568.52   61.19
   1   2  -1  610.03   61.42
  -1  -2   1  720.66   61.16
  -1  -2   0   85.42    7.99
   1   2   0   90.00    8.02
   1   2   1  180.13   14.27
   1   2   1  153.60   14.36
   1   2   1  147.43   14.25
   1   2   1  142.51   14.51
  -1  -2  -1  152.94   14.32
  -1  -2  -2  566.96   52.64
   1   2   2  618.77   52.63
   1   2   2  610.62   52.65
  -1  -2  -2  566.77   52.62
   1   2   2  531.15   52.83
  -1  -2  -3   59.55    5.09
  -1  -2  -3   50.98    5.12
   1   2   3   53.60    5.07
   1   2   3   57.46    5.14
   1   2   3   52.20    5.30
  -1  -2  -4  668.33   55.11
   1   2   4  588.16   54.84
  -1  -2  -4  573.84   54.85
  -1  -2  -4  586.51   54.91
   1   2   4  586.94   54.94
   1   2   4  742.76   55.00
   1   2   5  165.81   14.09
  -1  -2  -5  194.33   14.50
   1   2   5  151.29   14.24
  -1  -2  -5  149.79   14.12
  -1  -2  -5  149.77   14.18
   1   2   5  142.43   14.09
  -1  -2  -6  127.07   12.87
  -1  -2  -6  135.36   12.83
   1   2   6  138.93   12.96
  -1  -2  -6  190.39   13.36
  -1  -2  -7   10.75    1.71
  -1  -2  -7   21.74    2.71
  -1  -2  -7   13.34    1.67
   1   2   7   11.22    1.92
  -1  -2  -8   27.91    3.00
  -1  -2  -8   26.37    2.97
  -1  -2  -9  107.77    9.00
  -1  -2  -9   76.94    7.98
  -1  -2 -10  200.16   15.86
  -1  -2 -10  147.97   14.73
  -1  -2 -11   58.11    6.59
  -1  -2 -11   43.43    4.76
  -1  -2 -12   47.64    5.32
  -1  -2 -12   76.49    7.65
  -1  -2 -13    0.30    4.55
  -1  -3  12   82.51    9.25
   1   3 -11   20.41    2.78
  -1  -3  11   23.75    4.22
   1   3 -10   33.44    3.93
   1   3 -10   33.47    3.71
  -1  -3  10   27.56    4.54
   1   3 -10   34.83    3.77
   1   3  -9    0.92    1.27
   1   3  -9    0.25    1.61
   1   3  -9    0.86    1.52
  -1  -3   9    0.16    2.20
   1   3  -8   32.81    3.77
  -1  -3   8   33.23    4.43
   1   3  -8   41.64    4.16
   1   3  -8   37.05    3.80
   1   3  -7  145.60   12.43
   1   3  -7  120.06   12.58
  -1  -3   7  131.30   12.79
   1   3  -6  259.44   24.15
   1   3  -6  264.24   23.89
   1   3  -5   16.96    2.15
   1   3  -5   15.86    1.80
  -1  -3   5    9.72    1.95
   1   3  -4  286.95   24.87
   1   3  -4  275.83   25.23
  -1  -3   4  251.76   25.04
   1   3  -3    1.71    1.38
  -1  -3   3    0.79    1.25
   1   3  -3    1.69    0.79
  -1  -3   2 1517.40  136.99
  -1  -3   2 1704.23  137.39
   1   3  -2 1553.49  136.88
   1   3  -2 1326.54  137.17
   1   3  -1 1981.73  180.70
   1   3  -1 2015.80  180.38
   1   3   0   58.35    5.40
   1   3   1    1.83    0.75
   1   3   1    1.78    1.26
   1   3   1    2.06    0.42
  -1  -3  -1    2.64    1.49
  -1  -3  -2  238.86   21.05
   1   3   2  238.05   21.06
  -1  -3  -2  216.29   21.02
   1   3   2  242.75   21.07
   1   3   2  259.87   21.43
   1   3   3  253.37   20.60
   1   3   3  236.78   20.51
  -1  -3  -3  210.97   20.49
   1   3   3  205.07   20.70
  -1  -3  -4  349.39   31.71
   1   3   4  354.86   31.70
   1   3   4  345.17   31.73
   1   3   4  355.09   31.87
  -1  -3  -5  479.58   43.96
   1   3   5  450.07   44.01
   1   3   5  425.61   43.91
  -1  -3  -5  465.28   43.98
  -1  -3  -5  565.18   44.21
   1   3   5  613.02   44.03
   1   3   6    7.28    0.94
  -1  -3  -6    5.26    1.06
   1   3   6    5.55    1.10
   1   3   6    7.29    1.31
  -1  -3  -6    8.68    1.89
  -1  -3  -6    5.62    1.12
  -1  -3  -7    7.60    1.25
  -1  -3  -7    8.02    2.19
  -1  -3  -7    4.50    1.25
   1   3   7    6.38    1.50
   1   3   7    7.70    1.23
  -1  -3  -8  386.19   35.78
   1   3   8  380.24   35.94
  -1  -3  -8  366.76   35.80
  -1  -3  -9   40.63    4.06
   1   3   9   36.47    4.30
   1   3  10    1.18    1.85
  -1  -3 -10    0.96    1.25
  -1  -3 -10   -1.68    3.10
  -1  -3 -11   19.70    2.73
  -1  -3 -11   32.46    4.86
  -1  -3 -12  138.30   13.62
  -1  -3 -12  167.94   15.08
  -1  -4  12   28.76    5.17
  -1  -4  11  100.25   11.23
   1   4 -11  104.36   10.26
   1   4 -11  129.04   12.20
  -1  -4  10    6.15    3.08
   1   4 -10    7.79    2.06
   1   4  -9   27.27    2.82
  -1  -4   9   30.60    3.97
   1   4  -9   16.61    2.72
  -1  -4   8  161.89   14.90
   1   4  -8  150.17   14.18
   1   4  -7 2008.24  174.85
  -1  -4   7 1814.05  175.22
   1   4  -6  299.04   27.24
   1   4  -5    0.94    1.23
  -1  -4   5    0.85    1.55
   1   4  -5    1.11    0.92
   1   4  -4    1.21    1.18
  -1  -4   4    1.37    1.74
   1   4  -4    1.65    0.94
  -1  -4   4    1.65    1.54
  -1  -4   3  566.09   44.90
  -1  -4   3  601.34   45.44
   1   4  -3  481.98   44.66
   1   4  -2  782.46   73.28
  -1  -4   2  913.97   73.59
   1   4  -2  789.67   72.92
   1   4  -1   86.25    7.62
   1   4  -1   71.44    7.82
  -1  -4   0  468.58   42.87
  -1  -4  -1  384.79   31.63
   1   4   1  356.24   31.38
   1   4   1  364.62   30.95
   1   4   1  315.03   30.92
   1   4   2  248.17   22.58
  -1  -4  -2  264.60   23.16
   1   4   2  242.76   22.95
   1   4   3 1532.86  132.96
   1   4   3 1456.46  132.95
  -1  -4  -3 1443.83  133.37
   1   4   3 1395.39  133.23
  -1  -4  -3 1492.02  132.93
   1   4   4   64.78    5.92
  -1  -4  -4   68.66    5.94
   1   4   4   47.55    6.04
   1   4   4   67.70    5.98
   1   4   5  209.08   19.57
  -1  -4  -5  203.44   19.56
   1   4   5  223.85   19.64
   1   4   5  231.96   19.69
  -1  -4  -6   74.16    7.63
   1   4   6   74.32    7.68
   1   4   6   88.30    7.63
   1   4   6   89.62    7.71
  -1  -4  -7   37.06    3.84
   1   4   7   38.04    3.79
   1   4   7   35.68    3.92
  -1  -4  -7   38.97    4.49
   1   4   7   37.92    3.70
   1   4   8    0.96    1.14
  -1  -4  -8   -0.38    2.41
  -1  -4  -8    0.93    1.24
   1   4   8    1.25    1.58
   1   4   9   55.11    5.18
  -1  -4  -9   51.13    5.21
   1   4   9   47.65    5.39
  -1  -4 -10  179.47   15.96
  -1  -4 -10  160.99   15.14
   1   4  10  156.22   15.35
  -1  -4 -11    0.69    1.36
  -1  -4 -11    1.72    3.57
  -1  -4 -11    0.47    1.80
   1   4  11    3.12    2.14
   1   4  12    2.45    2.34
  -1  -4 -12    1.41    1.64
  -1  -5  11    1.95    3.48
   1   5 -10    3.75    1.68
  -1  -5  10    3.32    3.05
   1   5  -9   27.26    4.37
  -1  -5   9   32.32    4.83
   1   5  -9   35.14    3.64
  -1  -5   8   29.94    4.51
   1   5  -8   28.67    4.08
   1   5  -8   30.28    3.37
  -1  -5   7  153.01   12.86
   1   5  -7  132.29   12.62
   1   5  -7  119.64   12.08
   1   5  -6    7.15    2.01
   1   5  -6    6.62    1.52
   1   5  -5   41.15    4.15
  -1  -5   5   39.36    4.64
  -1  -5   4    7.89    1.99
  -1  -5   4    6.04    2.48
   1   5  -4   10.51    1.54
  -1  -5   3  112.67   12.93
   1   5  -3  140.67   12.34
  -1  -5   2    3.32    2.15
   1   5  -2   -0.39    0.93
   1   5  -2    0.33    1.26
   1   5  -1   79.74    7.65
   1   5   0  121.02   11.01
  -1  -5   0  113.40   11.77
   1   5   1   91.76    8.60
   1   5   1   99.03    8.69
  -1  -5  -1  105.21    9.62
   1   5   1   82.70    9.10
   1   5   2    6.46    1.54
   1   5   2    8.47    1.09
  -1  -5  -2    6.52    2.04
   1   5   3   89.09    7.41
  -1  -5  -3   79.37    8.14
   1   5   3   79.85    7.40
   1   5   3   70.51    7.70
  -1  -5  -3   74.95    7.33
  -1  -5  -4   89.47    9.06
   1   5   4  107.34    9.14
   1   5   4  102.44    9.13
   1   5   4   95.48    9.38
   1   5   5    3.16    1.13
   1   5   5    1.95    0.91
  -1  -5  -5    3.04    0.91
   1   5   5    3.72    1.27
  -1  -5  -6   90.49    9.55
   1   5   6  129.61    9.85
   1   5   6  123.51    9.95
   1   5   6  117.01   10.06
  -1  -5  -6  117.13    9.84
   1   5   7  175.00   15.28
  -1  -5  -7  166.06   15.27
  -1  -5  -7  145.21   15.05
   1   5   7  175.01   15.39
   1   5   7  215.55   15.46
  -1  -5  -8  194.40   19.97
   1   5   8  245.85   20.37
  -1  -5  -8  221.44   20.15
   1   5   8  252.22   20.20
   1   5   8  218.42   20.15
  -1  -5  -9    5.84    1.47
  -1  -5  -9    7.95    1.40
   1   5   9    5.76    1.91
   1   5   9    6.18    1.55
  -1  -5 -10   10.93    1.88
  -1  -5 -10   11.09    1.80
   1   5  10    8.40    2.24
   1   5  10   12.61    1.97
  -1  -5 -11    0.30    1.44
   1   5  11    3.03    2.09
  -1  -5 -12    2.63    1.64
  -1  -6  11    3.65    3.64
   1   6 -10    3.50    1.58
  -1  -6  10   -1.66    3.01
   1   6  -9   36.99    5.12
  -1  -6   9   36.39    5.39
   1   6  -9   39.25    5.91
   1   6  -9   40.48    4.19
   1   6  -8   77.22    7.72
  -1  -6   8   85.90    8.70
   1   6  -8   79.99    8.58
   1   6  -7   16.11    3.17
   1   6  -7   17.15    2.34
  -1  -6   7   13.90    3.21
  -1  -6   6   67.72    7.40
   1   6  -6   65.30    7.37
   1   6  -6   73.24    6.80
  -1  -6   5   26.58    4.31
   1   6  -5   28.22    3.72
   1   6  -5   28.50    3.24
  -1  -6   4    4.95    2.84
   1   6  -4    7.32    2.07
   1   6  -4    5.13    1.56
  -1  -6   3    6.93    2.80
   1   6  -3    8.52    1.82
   1   6  -3    6.78    1.95
   1   6  -2  280.77   23.10
  -1  -6   2  194.29   23.59
   1   6  -1   69.88    6.97
   1   6   0  156.47   14.61
   1   6   0  173.97   14.64
  -1  -6   0  170.43   15.59
   1   6   0  130.53   14.96
   1   6   1  179.34   15.45
   1   6   1  175.03   15.41
   1   6   1  158.52   15.30
  -1  -6  -1  177.83   16.38
   1   6   1  162.46   15.86
   1   6   2    4.38    1.46
   1   6   2    4.65    0.95
  -1  -6  -2    2.77    2.15
   1   6   3  365.43   35.70
  -1  -6  -3  421.56   36.27
   1   6   3  395.27   35.38
   1   6   4    8.57    1.28
   1   6   4    6.42    1.29
  -1  -6  -4    9.92    2.41
   1   6   4    6.51    1.66
  -1  -6  -4    6.67    1.13
   1   6   5    6.68    1.33
   1   6   5    4.54    1.58
   1   6   5    4.13    1.11
  -1  -6  -5    5.47    1.10
  -1  -6  -6   41.52    4.42
   1   6   6   43.14    4.44
   1   6   6   52.77    4.66
   1   6   6   41.47    4.83
  -1  -6  -7  148.69   14.09
   1   6   7  151.76   14.06
   1   6   7  142.35   14.14
   1   6   7  173.91   14.39
   1   6   8   47.66    4.74
   1   6   8   53.16    4.78
   1   6   8   50.30    4.59
  -1  -6  -8   38.08    4.23
  -1  -6  -8   45.35    4.53
   1   6   9   28.28    2.94
  -1  -6  -9   18.52    2.64
   1   6   9   24.89    3.25
  -1  -6  -9   27.79    2.91
   1   6   9   27.81    3.00
   1   6  10    5.53    2.08
  -1  -6 -10    3.76    1.53
   1   6  10    4.85    1.56
  -1  -6 -11   42.84    4.87
   1   6  11   45.93    4.82
   1   6  11   51.08    5.41
  -1  -7   9    3.23    3.23
   1   7  -9   -1.86    3.71
   1   7  -9   -1.25    1.43
   1   7  -9   -2.06    2.85
  -1  -7   8    1.90    2.64
   1   7  -8   -0.77    2.70
   1   7  -8   -1.44    3.70
   1   7  -8   -0.59    1.56
   1   7  -7    2.77    2.74
   1   7  -7    0.26    1.39
   1   7  -7   -3.25    3.22
  -1  -7   7    2.98    2.56
   1   7  -6   17.51    2.49
   1   7  -6   20.44    3.52
   1   7  -5   11.33    2.58
  -1  -7   5    9.89    3.25
   1   7  -5   11.64    2.02
   1   7  -4  190.73   18.01
  -1  -7   4  150.48   18.32
   1   7  -4  205.13   17.59
  -1  -7   3   31.11    4.80
   1   7  -3   27.90    3.86
   1   7  -3   35.12    3.81
   1   7  -2  211.41    5.21
  -1  -7   2  233.14    8.35
   1   7  -1   42.41    4.53
   1   7  -1   33.49    4.25
   1   7   0   52.00    4.58
   1   7   0   47.38    4.60
   1   7   0   34.69    4.88
  -1  -7   0   37.78    5.67
   1   7   0   43.94    4.71
   1   7   1  753.76   65.69
   1   7   1  717.52   65.54
   1   7   1  691.13   66.09
   1   7   1  725.63   65.71
  -1  -7  -1  765.57   66.76
   1   7   2  669.19   60.22
  -1  -7  -2  646.31   61.15
   1   7   2  673.02   60.66
  -1  -7  -3  176.95   17.31
   1   7   3  177.57   16.26
   1   7   3  175.86   16.74
  -1  -7  -4   21.24    3.90
   1   7   4   25.72    2.83
   1   7   4   25.77    3.35
   1   7   4   26.30    2.86
  -1  -7  -5   80.14    8.68
   1   7   5   97.53    8.85
   1   7   5  103.97    8.86
   1   7   5  103.01    9.38
  -1  -7  -6  106.72   10.73
   1   7   6  130.08   10.95
   1   7   6  107.09   10.72
   1   7   6  137.29   11.49
  -1  -7  -7  179.10   18.14
   1   7   7  199.43   18.23
   1   7   7  234.94   18.40
   1   7   7  188.14   18.51
   1   7   8    2.73    1.83
   1   7   8    5.38    1.67
  -1  -7  -8    2.77    1.32
   1   7   8    1.50    1.36
   1   7   9   49.54    4.76
  -1  -7  -9   43.27    4.73
   1   7   9   44.69    5.05
  -1  -7 -10   61.58    6.27
   1   7  10   65.80    6.29
   1   7  10   58.82    6.69
   1   7  11   48.02    5.20
  -1  -7 -11   52.37    5.32
   1   8  -9   -0.28    3.01
   1   8  -8   52.75    6.62
   1   8  -8   50.15    6.79
   1   8  -7   59.25    5.43
   1   8  -7   36.59    6.37
   1   8  -7   48.68    6.48
   1   8  -6    2.48    3.26
   1   8  -6    1.45    1.69
   1   8  -6    0.99    2.39
  -1  -8   5   84.02    8.78
   1   8  -5   75.04    7.97
   1   8  -5   75.49    7.23
   1   8  -5   58.01    7.78
   1   8  -4    1.26    2.18
  -1  -8   4   -0.60    3.24
   1   8  -4    2.67    2.60
   1   8  -4    3.04    1.93
   1   8  -3  119.06   12.66
  -1  -8   3  131.01   13.52
   1   8  -3  147.69   12.46
   1   8  -3  115.33   12.50
   1   8  -2    8.54    2.34
  -1  -8   2    6.21    3.40
   1   8  -2    9.36    2.57
   1   8  -2    5.69    2.48
   1   8  -1   16.65    2.38
   1   8  -1   16.78    2.77
   1   8  -1   15.53    2.78
   1   8  -1   17.76    3.36
   1   8   0  110.57   10.83
   1   8   0  113.16   11.14
   1   8   0  118.89   10.77
   1   8   0  117.26   10.68
  -1  -8   0   99.15   11.86
   1   8   0  108.40   11.23
   1   8   1 1007.62   89.84
  -1  -8  -1  977.63   91.13
   1   8   1  829.61   90.37
   1   8   1 1090.01   90.07
   1   8   2  355.13   31.88
  -1  -8  -2  328.42   32.93
   1   8   2  352.53   32.45
  -1  -8  -3  108.70   11.33
   1   8   3  102.97   10.04
   1   8   3  117.54   10.84
  -1  -8  -4   15.93    3.69
   1   8   4   13.58    1.89
   1   8   4   13.90    1.92
   1   8   4    8.37    2.58
   1   8   5   -0.33    1.24
   1   8   5   -1.55    2.16
   1   8   5    0.79    1.18
  -1  -8  -6   68.88    7.19
   1   8   6   95.60    7.54
   1   8   6   82.75    7.34
   1   8   6   52.37    7.78
   1   8   7    4.62    1.65
  -1  -8  -7    2.06    1.17
   1   8   7    5.24    2.39
   1   8   7    4.14    1.42
   1   8   8    7.24    1.94
   1   8   8    7.79    2.43
   1   8   8    8.95    1.75
  -1  -8  -8    6.73    1.57
   1   8   9    1.52    1.90
  -1  -8  -9    1.46    1.23
   1   8   9    1.79    1.57
  -1  -8 -10   25.00    3.24
   1   8  10   29.65    3.35
   1   8  10   27.64    3.81
   1   8  11  189.15   17.60
   1   9  -8   27.86    4.90
   1   9  -7    2.58    3.79
   1   9  -7    3.36    3.34
   1   9  -6    0.29    2.98
   1   9  -6    1.94    3.27
   1   9  -6    1.40    1.78
   1   9  -5    3.76    2.93
   1   9  -5    2.74    3.01
   1   9  -5    1.58    1.99
   1   9  -4   61.57    8.48
  -1  -9   4   75.06    9.43
   1   9  -4  106.93    8.44
   1   9  -4   76.07    8.84
   1   9  -3    4.66    2.90
   1   9  -3    2.13    2.17
  -1  -9   3    5.37    3.39
   1   9  -3   10.85    2.70
   1   9  -2  107.10    9.19
  -1  -9   2   77.09   10.07
   1   9  -2   78.98    8.97
   1   9  -2  103.17    9.16
   1   9  -2   72.00    9.13
   1   9  -1    2.27    2.21
   1   9  -1    1.75    1.63
   1   9  -1    1.24    2.44
   1   9  -1    0.66    2.78
  -1  -9   0   13.74    3.77
   1   9   0   13.24    2.20
   1   9   0   11.96    3.09
   1   9   0   11.21    2.85
   1   9   0   15.04    2.27
   1   9   0    9.03    3.18
   1   9   1   39.64    4.11
   1   9   1   35.55    3.91
  -1  -9  -1   35.07    5.73
   1   9   1   38.37    4.93
   1   9   2    4.34    1.47
  -1  -9  -2    7.46    3.75
   1   9   2    2.62    2.46
   1   9   3   84.84    9.36
   1   9   3   90.01    8.53
  -1  -9  -3   89.24    9.92
   1   9   4    4.64    2.65
  -1  -9  -4   10.25    3.64
   1   9   4    8.20    1.58
   1   9   4    9.60    1.87
   1   9   5    3.51    2.62
   1   9   5    6.65    1.57
   1   9   5    7.28    1.65
   1   9   6    8.13    1.65
   1   9   6    6.85    2.59
   1   9   6    9.05    1.96
   1   9   7    0.77    2.47
   1   9   7    3.68    1.51
   1   9   7    3.13    2.01
   1   9   8   55.37    5.19
  -1  -9  -8   46.81    4.81
   1   9   8   43.81    4.85
   1   9   8   39.69    5.56
   1   9   9    8.40    2.24
  -1  -9  -9    4.75    1.65
   1   9   9    9.31    1.85
   1   9  10   39.87    4.41
   1  10  -6   34.07    5.52
   1  10  -5   19.86    4.89
   1  10  -5   12.83    3.67
   1  10  -5   15.29    4.05
   1  10  -4   13.94    3.90
   1  10  -4   24.77    4.45
   1  10  -4   26.54    4.88
   1  10  -3    1.41    2.53
   1  10  -3    3.69    3.69
   1  10  -3    4.46    3.39
   1  10  -3    3.69    2.77
   1  10  -2   23.56    4.85
   1  10  -2   42.25    4.96
   1  10  -2   29.42    4.73
   1  10  -2   43.87    4.47
   1  10  -2   28.66    4.88
   1  10  -1    2.93    2.40
   1  10  -1    0.37    3.39
  -1 -10   1    1.11    3.90
   1  10  -1   -1.32    2.91
   1  10  -1    1.85    1.92
   1  10   0    7.16    2.21
   1  10   0    5.20    2.78
  -1 -10   0    4.02    3.65
   1  10   0    8.59    2.12
   1  10   0    4.06    3.20
  -1 -10  -1    5.36    4.02
   1  10   1    4.48    1.77
   1  10   1    6.02    1.74
   1  10   1    4.51    3.14
   1  10   1    3.14    2.65
  -1 -10  -2   57.42    8.06
   1  10   2   56.11    7.25
   1  10   2   65.91    6.37
   1  10   3    4.92    3.18
  -1 -10  -3    4.03    3.59
   1  10   3    7.40    1.80
   1  10   4   -0.28    2.95
   1  10   4    3.76    1.68
   1  10   5   -0.92    1.54
   1  10   5    4.97    2.89
   1  10   6    0.69    1.61
   1  10   6    0.39    1.49
   1  10   6   -2.40    3.10
   1  10   7    2.67    2.66
   1  10   7    1.17    1.51
   1  10   7    4.21    2.12
   1  10   8   74.99    7.59
   1  10   9   49.37    5.21
   1  11  -3   33.36    4.62
   1  11  -2   14.97    4.15
   1  11  -2   20.44    3.40
   1  11  -1   -2.82    2.95
   1  11  -1    1.52    2.35
   1  11   0    1.87    3.09
   1  11   0    1.28    2.13
   1  11   1   -0.15    1.89
   1  11   1    2.50    3.02
   1  11   1    0.90    3.52
   1  11   2    4.36    3.47
   1  11   2    4.95    1.98
   1  11   3   -1.22    3.35
   1  11   3    2.85    1.89
   1  11   4   17.07    2.44
   1  11   4   16.37    3.94
   1  11   4   15.73    2.72
   1  11   5  271.49   30.57
   1  11   5  352.69   29.91
   1  11   6   16.18    2.59
   1  11   6    7.31    3.45
   1  11   6   12.37    2.42
   1  11   7    1.61    2.25
   1  12   1   45.83    5.44
   1  12   3  146.20   14.12
  -2  10   5   69.50    9.21
  -2  10   4   15.66    5.45
  -2  10   4   16.01    2.70
  -2  10   3    0.66    1.73
  -2  10   3    8.51    5.37
  -2  10   2   19.14    5.63
  -2  10   2   13.59    2.43
  -2  10   1   13.70    2.42
  -2  10   1    8.14    4.69
  -2  10   0    8.36    2.08
  -2  10   0    3.25    4.25
  -2  10   0    6.43    4.31
  -2  10  -1   12.68    5.47
  -2  10  -1   30.92    5.61
  -2  10  -1   26.64    3.44
  -2  10  -2    6.78    4.79
  -2  10  -3   26.05    5.83
  -2   9   7   87.58    8.72
   2  -9  -6    6.43    3.02
  -2   9   6    5.07    1.66
   2  -9  -5    2.04    2.79
  -2   9   5    1.47    1.60
  -2   9   4    1.04    4.38
   2  -9  -4    0.27    2.92
  -2   9   4    0.34    1.58
  -2   9   3    3.98    4.56
  -2   9   3    4.09    1.71
   2  -9  -3    2.83    3.12
  -2   9   2   81.88    7.74
  -2   9   2   74.00    7.65
  -2   9   2   92.06    9.98
   2  -9  -2   66.60    8.67
  -2   9   1   83.39   11.11
  -2   9   1   92.58   10.01
   2  -9  -1  107.99   10.95
  -2   9   1  105.77    9.65
   2  -9   0   16.75    3.99
  -2   9   0    8.35    4.17
  -2   9   0   14.52    2.38
  -2   9   0   14.32    4.14
  -2   9  -1   48.49    6.25
  -2   9  -1   37.81    6.47
   2  -9   1   35.80    5.73
  -2   9  -2    4.34    4.00
  -2   9  -3   18.37    4.68
   2  -9   3   12.61    3.88
  -2   9  -3   15.55    4.62
  -2   9  -4   38.94    7.12
  -2   9  -4   55.21    6.75
  -2   9  -4   52.08    5.47
  -2   9  -5    0.42    4.66
  -2   9  -5    3.07    3.58
  -2   9  -5    0.39    1.63
  -2   9  -6   14.54    2.48
  -2   9  -6   11.61    5.59
  -2   9  -7    3.31    5.73
  -2   8   8    1.33    1.59
  -2   8   8    1.63    1.82
   2  -8  -7    1.89    2.74
  -2   8   7    0.92    1.62
  -2   8   7    3.47    1.76
   2  -8  -6    4.20    2.73
   2  -8  -6    5.41    1.71
  -2   8   6    3.88    1.57
  -2   8   5   51.07    5.38
   2  -8  -5   50.63    5.37
   2  -8  -5   50.32    6.37
  -2   8   5   72.33    7.68
  -2   8   4   17.98    2.78
  -2   8   4   27.22    4.94
  -2   8   4   23.99    2.38
   2  -8  -4   19.70    2.65
   2  -8  -4   20.89    3.72
   2  -8  -3   51.12    6.37
  -2   8   3   66.65    7.58
  -2   8   3   55.98    5.46
  -2   8   3   48.89    5.27
   2  -8  -2   40.00    5.92
  -2   8   2   59.86    7.35
  -2   8   2   53.17    5.18
  -2   8   2   48.24    5.38
  -2   8   1   20.82    3.67
   2  -8  -1   24.47    3.99
  -2   8   1   25.17    4.90
  -2   8   1   23.62    2.85
  -2   8   0   19.89    4.59
   2  -8   0   15.49    3.55
   2  -8   1    9.07    3.11
  -2   8  -1   11.02    3.57
  -2   8  -2    8.85    3.91
  -2   8  -2   13.43    4.39
   2  -8   3   20.71    4.00
  -2   8  -3   22.65    4.42
  -2   8  -3   17.12    4.37
  -2   8  -3   18.73    2.56
  -2   8  -4  103.00   11.31
  -2   8  -4  107.02   12.18
  -2   8  -4  114.46   10.47
   2  -8   4  101.35   11.42
  -2   8  -5   12.70    3.69
  -2   8  -5   12.63    4.80
   2  -8   5   13.88    3.81
  -2   8  -6   21.57    5.78
   2  -8   6   22.45    4.31
  -2   8  -6   25.95    4.38
   2  -8   7   21.86    4.43
  -2   8  -7   25.48    6.25
  -2   8  -8  284.64   28.45
  -2   8  -9   50.99    8.52
  -2   7   9   44.84    5.36
  -2   7   9   56.09    5.65
  -2   7   8    6.27    1.83
  -2   7   8    7.03    1.97
  -2   7   7    0.68    1.45
   2  -7  -7    2.71    2.15
   2  -7  -7   -0.45    1.45
  -2   7   7    1.02    1.45
  -2   7   6   -0.38    1.32
   2  -7  -6    0.41    1.47
   2  -7  -6   -0.77    2.27
   2  -7  -5    0.57    2.27
   2  -7  -5    1.72    1.23
  -2   7   5    1.62    1.30
   2  -7  -4   34.93    4.53
  -2   7   4   34.02    3.42
   2  -7  -4   29.49    3.68
   2  -7  -4   36.75    3.68
  -2   7   4   30.98    3.70
  -2   7   4   43.15    5.54
   2  -7  -3    3.91    2.22
  -2   7   3    7.63    3.89
  -2   7   3    5.66    1.53
   2  -7  -3    4.68    1.29
  -2   7   3    6.62    1.82
   2  -7  -3    4.10    1.64
  -2   7   2   30.00    3.95
   2  -7  -2   34.82    4.37
  -2   7   2   32.15    3.54
  -2   7   2   34.68    5.60
   2  -7  -2   33.54    3.79
  -2   7   1   73.44    8.45
  -2   7   1   71.22    7.51
   2  -7  -1   77.62    7.65
   2  -7  -1   66.15    7.05
   2  -7   0   18.18    3.13
  -2   7   0   10.29    3.87
   2  -7   1   19.31    3.42
  -2   7  -1   23.94    4.07
  -2   7  -2    9.78    3.45
  -2   7  -2    7.64    3.56
  -2   7  -2   10.77    1.75
  -2   7  -3   55.80    5.61
  -2   7  -3   59.81    7.28
   2  -7   3   49.21    6.34
  -2   7  -3   60.68    6.89
  -2   7  -4    3.23    3.63
   2  -7   4   -0.23    2.42
  -2   7  -4    2.51    2.96
   2  -7   5   28.22    4.52
  -2   7  -5   27.66    4.50
  -2   7  -5   28.36    5.25
  -2   7  -6   57.15    7.92
   2  -7   6   58.13    7.13
  -2   7  -6   63.98    6.90
   2  -7   7    5.59    3.03
  -2   7  -7    9.03    4.82
  -2   7  -7    7.96    2.73
  -2   7  -8   41.86    9.03
  -2   7  -8   76.22    9.11
   2  -7   8   67.58    7.71
  -2   7  -8   64.37    7.07
  -2   7  -9   12.34    5.48
   2  -7   9    0.55    3.16
  -2   7  -9   -0.82    5.76
  -2   6  10   31.13    3.79
  -2   6   9    5.16    1.81
   2  -6  -8   20.66    2.91
  -2   6   8   14.97    2.59
   2  -6  -8   21.27    2.70
   2  -6  -7    4.25    1.63
  -2   6   7    1.75    1.53
  -2   6   7    4.37    1.61
   2  -6  -7    3.68    2.15
  -2   6   6    0.56    1.28
   2  -6  -6    2.52    2.02
   2  -6  -6   -0.59    1.38
   2  -6  -5   12.77    2.55
   2  -6  -5   14.68    2.08
  -2   6   5   13.85    1.99
  -2   6   4   16.98    2.06
   2  -6  -4   18.06    2.20
   2  -6  -4   15.14    2.75
  -2   6   4   14.23    2.20
  -2   6   4   25.25    4.00
  -2   6   3  120.84   12.60
   2  -6  -3  129.38   11.88
  -2   6   3  124.56   11.39
  -2   6   3  104.89   11.32
   2  -6  -3  133.15   11.38
  -2   6   2   71.76    8.06
   2  -6  -2   65.97    6.56
   2  -6  -2   71.18    6.93
  -2   6   2   67.62    6.88
   2  -6  -2   68.79    7.15
  -2   6   1   30.75    4.90
  -2   6   1   27.54    4.09
   2  -6  -1   35.00    3.83
   2  -6  -1   33.37    4.06
   2  -6   0    8.48    2.19
   2  -6   0    5.42    2.11
  -2   6   0    3.07    3.03
   2  -6   1    0.79    2.09
  -2   6  -1    0.07    0.35
  -2   6  -1    2.01    2.51
  -2   6  -2   78.04    4.74
   2  -6   2   64.76    3.77
  -2   6  -3  109.01    5.23
   2  -6   3  101.67    4.60
  -2   6  -3   99.63    6.04
   2  -6   4    5.34    2.35
  -2   6  -4    3.22    3.60
  -2   6  -4    7.44    2.90
  -2   6  -5    2.19    3.64
   2  -6   5    6.88    2.25
  -2   6  -5    4.47    2.72
  -2   6  -6   17.05    4.82
  -2   6  -6   19.69    3.51
  -2   6  -6   19.94    5.59
   2  -6   6   15.10    3.29
  -2   6  -7  114.33   13.83
  -2   6  -7  123.36   13.75
   2  -6   7  130.50   12.79
  -2   6  -7  130.47   12.40
   2  -6   8    3.05    2.52
  -2   6  -8   12.85    5.10
  -2   6  -8    1.70    2.16
   2  -6   8    1.84    3.18
  -2   6  -8    1.73    4.98
   2  -6   9    3.74    2.80
  -2   6  -9   11.04    4.88
  -2   6  -9    3.70    5.06
   2  -6   9    6.82    3.86
   2  -6  10    3.86    3.66
  -2   5  10   44.62    4.68
  -2   5  10   37.89    4.59
  -2   5   9   11.23    2.39
   2  -5  -9   12.65    2.16
   2  -5  -9   13.01    3.25
  -2   5   9   10.96    2.21
   2  -5  -8    0.11    1.58
   2  -5  -8   -0.56    2.77
  -2   5   8   -0.58    1.59
   2  -5  -8   -0.10    1.35
   2  -5  -7    1.92    1.51
   2  -5  -7    1.40    2.53
  -2   5   7    0.93    1.35
   2  -5  -7    0.93    1.23
   2  -5  -6    1.07    2.56
   2  -5  -6   -0.11    1.50
   2  -5  -6    0.61    1.16
  -2   5   6    1.25    1.23
   2  -5  -5  178.28   15.04
  -2   5   5  147.49   14.93
   2  -5  -5  163.39   15.28
   2  -5  -4   12.14    2.24
   2  -5  -4    8.22    1.56
  -2   5   4    8.42    1.57
  -2   5   4    9.33    1.49
  -2   5   3   52.62    5.43
  -2   5   3   64.14    6.54
   2  -5  -3   50.23    5.36
   2  -5  -3   66.95    6.05
  -2   5   2    7.62    1.98
  -2   5   2   13.89    3.09
   2  -5  -2    6.64    1.95
  -2   5   1  199.89   16.43
   2  -5  -1  170.64   15.72
   2  -5  -1  151.03   15.48
  -2   5   1  160.46   15.45
  -2   5   0  329.86   27.52
   2  -5   0  253.88   26.57
   2  -5   0  329.97   27.00
   2  -5   1   40.39    4.64
  -2   5  -1   46.21    5.03
  -2   5  -2  259.39   22.98
   2  -5   2  235.79   22.78
   2  -5   2  241.72   22.66
  -2   5  -3  221.63   19.50
  -2   5  -3  183.37   19.86
   2  -5   3  206.29   19.33
  -2   5  -4   23.62    3.66
  -2   5  -4   21.46    4.34
   2  -5   4   26.67    3.47
  -2   5  -5   56.10    7.33
   2  -5   5   53.99    6.18
  -2   5  -5   59.31    6.32
  -2   5  -5   64.28    7.63
   2  -5   6    4.63    2.20
  -2   5  -6    0.27    3.93
  -2   5  -6    5.69    4.04
   2  -5   6    0.37    2.60
  -2   5  -6   -1.01    2.38
   2  -5   7   13.93    3.06
  -2   5  -7   10.49    4.37
   2  -5   7   17.62    3.63
  -2   5  -7   13.55    2.72
  -2   5  -7   16.98    4.80
  -2   5  -8    4.59    4.30
   2  -5   8    0.18    2.11
   2  -5   8    3.32    3.21
  -2   5  -8    1.18    2.10
  -2   5  -8   10.95    4.39
  -2   5  -9  119.50   13.70
  -2   5  -9  137.33   12.23
   2  -5   9  117.57   12.55
   2  -5   9  120.68   13.01
   2  -5  10   24.24    4.98
  -2   4  11   12.80    2.67
   2  -4 -10   10.49    3.02
  -2   4  10    7.60    2.09
  -2   4  10   11.30    2.10
   2  -4  -9  271.51   23.41
  -2   4   9  204.11   22.99
   2  -4  -9  221.80   23.06
  -2   4   9  216.85   23.05
  -2   4   8  821.89   83.18
  -2   4   8 1013.32   83.47
   2  -4  -8  987.54   83.19
   2  -4  -8  809.41   83.24
   2  -4  -8 1054.15   83.52
   2  -4  -7  160.80   14.43
  -2   4   7  139.94   14.34
  -2   4   7  140.94   14.35
   2  -4  -7  193.00   14.78
   2  -4  -7  155.59   14.33
   2  -4  -6    9.38    1.51
   2  -4  -6   10.99    1.75
  -2   4   6    8.24    1.37
   2  -4  -6    9.84    2.57
  -2   4   6   -0.08    0.58
   2  -4  -5    8.19    2.55
   2  -4  -5    9.13    1.59
  -2   4   5    8.64    1.66
   2  -4  -5   11.42    2.13
  -2   4   4  725.94   67.27
   2  -4  -4  739.87   67.38
   2  -4  -4  750.73   67.76
   2  -4  -4  805.70   67.72
  -2   4   3 1141.63   93.56
   2  -4  -3  866.36   93.82
  -2   4   2   64.30    6.82
   2  -4  -2   66.26    6.38
  -2   4   2   54.89    5.88
  -2   4   1   84.34    9.55
  -2   4   1   82.28    8.79
   2  -4  -1  115.71    9.35
  -2   4   0  103.24   11.46
   2  -4   0  105.25   10.93
  -2   4   0  115.46   10.40
   2  -4   0  117.84   11.07
  -2   4  -1  382.64   34.84
  -2   4  -1  405.96   35.30
   2  -4   1  373.03   35.15
  -2   4  -2   17.34    1.95
  -2   4  -2   16.02    2.95
   2  -4   2   21.45    2.77
   2  -4   2   17.35    2.69
  -2   4  -3  109.27   11.55
   2  -4   3  140.72   11.69
   2  -4   3  112.66   11.49
   2  -4   4    5.94    1.76
  -2   4  -4    5.41    2.04
   2  -4   5    3.06    1.70
  -2   4  -5    0.24    1.92
   2  -4   5    2.87    2.36
  -2   4  -5    3.39    3.39
   2  -4   6    0.27    1.83
   2  -4   6   -0.56    2.54
  -2   4  -6    1.07    1.88
  -2   4  -6    0.24    3.56
   2  -4   7    5.17    2.90
  -2   4  -7   12.21    3.95
  -2   4  -7    5.86    3.86
  -2   4  -7    1.68    1.94
   2  -4   7    2.22    2.08
   2  -4   8    5.47    2.24
   2  -4   8    5.11    3.08
  -2   4  -8    6.56    2.01
   2  -4   9   10.14    2.58
  -2   4  -9   14.37    2.52
   2  -4   9   13.90    3.76
  -2   4 -10   13.48    2.37
   2  -4  10    6.36    3.61
  -2   4 -10    7.18    4.59
   2  -4  10    7.39    2.73
   2  -4  11    1.38    3.71
  -2   4 -11    2.31    5.08
   2  -3 -11   23.57    3.89
  -2   3  11   22.52    3.51
   2  -3 -10   50.19    5.65
   2  -3 -10   68.63    6.31
  -2   3  10   51.24    5.79
   2  -3  -9  833.85   70.94
  -2   3   9  778.41   70.69
   2  -3  -9  779.57   70.72
  -2   3   9  746.75   70.73
   2  -3  -8  167.43   18.63
  -2   3   8  195.23   18.73
  -2   3   8  172.70   18.64
   2  -3  -8  220.46   19.01
   2  -3  -8  248.44   18.53
   2  -3  -7    2.12    2.06
   2  -3  -7    1.69    1.18
   2  -3  -7    0.60    1.23
  -2   3   7   -1.14    1.31
  -2   3   7    2.03    1.31
   2  -3  -6    0.10    1.88
  -2   3   6    0.23    0.43
   2  -3  -6    0.79    1.49
   2  -3  -6    0.56    1.17
  -2   3   6    1.40    1.31
   2  -3  -5    0.19    1.78
   2  -3  -5    0.81    1.42
   2  -3  -5    1.08    1.13
   2  -3  -4  116.26   10.19
   2  -3  -4   88.23    9.96
  -2   3   4  110.00    9.78
   2  -3  -3  158.68   13.73
  -2   3   3  143.42   13.38
   2  -3  -3  134.62   13.64
  -2   3   2  129.90   12.60
   2  -3  -2  143.89   12.87
  -2   3   1   74.20    6.93
  -2   3   1   84.49    7.34
   2  -3  -1   64.28    7.34
   2  -3  -1   73.25    6.92
   2  -3   0  120.43   10.95
  -2   3   0  111.05   10.96
   2  -3   0  150.56   11.64
   2  -3   1  141.67   13.98
  -2   3  -1  147.83   13.38
   2  -3   2   31.41    3.68
  -2   3  -2   33.61    4.40
   2  -3   2   26.14    3.54
  -2   3  -3  271.63   26.39
   2  -3   3  277.24   26.39
   2  -3   3  268.47   26.50
   2  -3   3  300.61   26.44
  -2   3  -3  355.16   27.23
   2  -3   4  156.53   14.24
  -2   3  -4  127.67   14.09
  -2   3  -5    6.61    2.84
   2  -3   5    2.58    1.37
  -2   3  -5    2.01    1.63
  -2   3  -6  256.47    7.79
  -2   3  -6  218.86    5.34
   2  -3   6  196.17    4.98
   2  -3   7   20.61    3.02
   2  -3   7   26.13    3.82
  -2   3  -7   23.49    3.08
   2  -3   8    0.79    2.57
  -2   3  -8    0.78    3.63
  -2   3  -8    0.54    1.64
   2  -3   8    0.92    1.69
  -2   3  -9    8.57    2.05
  -2   3  -9   10.73    4.31
   2  -3   9   12.53    3.18
   2  -3   9   10.18    2.29
   2  -3  10   -0.47    2.89
  -2   3 -10   -0.13    1.85
   2  -3  10    1.28    2.13
  -2   3 -10    1.62    4.51
   2  -3  11    5.42    3.42
  -2   3 -11    0.36    4.80
  -2   3 -11    3.52    1.71
   2  -2 -12    5.46    3.19
  -2   2  11   22.42    3.35
   2  -2 -11   21.09    3.70
   2  -2 -10  106.46   12.32
  -2   2  10  149.60   12.77
   2  -2 -10  163.45   12.90
  -2   2   9   17.10    2.49
   2  -2  -9   14.51    2.27
   2  -2  -9   19.89    2.94
  -2   2   8   21.70    2.83
  -2   2   8   21.42    2.84
   2  -2  -8   19.21    2.75
   2  -2  -8   29.05    2.53
   2  -2  -8   22.64    3.30
   2  -2  -7   16.83    2.43
   2  -2  -7   17.60    2.94
  -2   2   7   20.16    2.54
  -2   2   7   21.01    2.59
   2  -2  -7   24.00    2.46
   2  -2  -6   16.86    2.13
   2  -2  -6   16.46    2.38
   2  -2  -6   21.15    2.71
  -2   2   6   16.35    2.15
   2  -2  -5  597.76   38.66
   2  -2  -5  307.06   38.41
  -2   2   4   12.09    1.88
   2  -2  -4   16.36    2.36
   2  -2  -4   11.40    2.42
  -2   2   3 1136.34   94.63
   2  -2  -3 1138.65   94.87
  -2   2   2  513.90   41.10
  -2   2   2  442.57   40.88
   2  -2  -2  542.04   41.63
   2  -2  -2  378.42   40.86
   2  -2  -2  564.92   41.33
   2  -2  -1   61.84    6.45
   2  -2  -1   52.71    5.44
  -2   2   1   59.45    5.46
  -2   2   1   69.74    6.07
   2  -2   0   16.21    1.66
  -2   2   0   14.16    1.64
   2  -2   0   17.43    2.96
  -2   2  -1   95.56    8.76
   2  -2   2   12.45    2.43
   2  -2   2   11.19    2.75
   2  -2   3  146.81   15.59
   2  -2   3  193.46   15.75
   2  -2   4  126.14   11.97
   2  -2   5   21.08    2.76
  -2   2  -6   59.44    6.37
   2  -2   6   70.58    6.44
   2  -2   7    4.99    1.33
  -2   2  -7    0.66    1.29
   2  -2   7    0.16    0.81
  -2   2  -7    4.71    1.60
   2  -2   8    4.91    2.56
  -2   2  -8    3.90    3.61
  -2   2  -8    8.07    1.81
   2  -2   8    5.85    1.61
   2  -2   9    1.60    1.37
  -2   2  -9    3.54    3.78
  -2   2  -9    1.08    1.62
   2  -2   9    1.56    2.67
   2  -2  10    1.59    1.76
  -2   2 -10    1.91    1.67
  -2   2 -10   -2.75    4.21
   2  -2  10    3.66    2.89
  -2   2 -10    1.88    1.30
   2  -2  11    2.38    3.13
  -2   2 -11    3.74    4.67
  -2   2 -11    0.76    1.44
  -2   2 -12   -1.16    5.52
   2  -2  12   -1.04    3.59
  -2   1  12   20.08    3.58
   2  -1 -11   47.33    5.15
  -2   1  11   37.44    4.87
  -2   1  10   51.07    5.44
   2  -1 -10   46.22    5.20
   2  -1 -10   55.74    5.57
  -2   1   9    4.30    1.89
   2  -1  -9    3.34    1.91
   2  -1  -9    2.01    1.36
   2  -1  -8  198.22   15.79
   2  -1  -8  158.10   15.56
  -2   1   8  136.25   15.59
   2  -1  -8  159.19   15.42
   2  -1  -8  193.43   15.45
   2  -1  -7   12.95    1.98
   2  -1  -7   17.45    2.32
  -2   1   7   13.08    1.98
  -2   1   7   12.49    1.99
   2  -1  -7   17.31    2.40
   2  -1  -6    3.06    1.60
   2  -1  -5  834.04   63.47
  -2   1   5  628.36   63.23
   2  -1  -4   41.76    4.10
  -2   1   4   35.95    3.68
  -2   1   3  113.25   11.56
   2  -1  -3  140.57   11.94
  -2   1   3  136.76   11.68
  -2   1   2  833.39   79.64
   2  -1  -2 1077.00   80.00
  -2   1   2 1051.13   79.87
   2  -1  -2  789.04   79.64
  -2   1   1  481.46   46.49
  -2   1   1  524.52   46.29
   2  -1  -1  570.34   46.69
   2  -1  -1  499.70   46.31
   2  -1   0 4133.24  387.87
  -2   1   0 4674.03  388.21
  -2   1   0 4408.49  387.88
  -2   1  -1   31.80    3.51
  -2   1  -1   33.32    3.10
  -2   1  -2   38.20    4.20
   2  -1   2   46.75    4.86
   2  -1   3    1.30    2.38
  -2   1  -3   -0.65    1.60
   2  -1   4  300.68   27.55
  -2   1  -5  683.81   76.36
   2  -1   5  939.37   76.05
   2  -1   6   18.21    2.35
   2  -1   7    2.38    1.10
  -2   1  -7    3.66    3.02
  -2   1  -8    2.74    3.63
   2  -1   8    2.74    1.14
  -2   1  -8    4.58    1.13
   2  -1   8   -0.16    1.27
  -2   1  -9  279.66   23.35
  -2   1  -9  231.94   21.79
  -2   1  -9  220.73   21.97
   2  -1   9  267.17   21.90
   2  -1   9  210.20   22.37
   2  -1  10   18.71    3.51
  -2   1 -10   19.83    2.73
  -2   1 -10   27.11    5.30
  -2   1 -10   21.99    2.56
   2  -1  10   20.40    2.45
  -2   1 -11   53.55    5.31
  -2   1 -11   65.63    7.95
  -2   1 -11   46.31    5.39
   2  -1  11   57.94    6.48
  -2   1 -12   25.85    3.15
  -2   1 -12   30.92    6.75
   2  -1  12   24.61    4.69
  -2   0  12    3.02    2.56
   2   0 -11   10.27    2.57
  -2   0  11    2.54    2.37
   2   0 -10   36.90    3.99
   2   0 -10   28.81    3.63
  -2   0  10   31.18    3.94
   2   0  -9   17.90    2.50
   2   0  -9   21.67    2.92
   2   0  -9   21.40    2.26
  -2   0   9   15.89    2.67
   2   0  -8  169.14   14.03
   2   0  -8  122.36   13.74
  -2   0   8  146.02   13.94
   2   0  -8  166.68   13.78
   2   0  -7   22.77    2.72
   2   0  -7   17.54    2.38
  -2   0   7   17.03    2.56
   2   0  -7   26.17    2.61
   2   0  -6  477.16   43.27
   2   0  -5  285.42   22.93
  -2   0   5  228.92   22.75
   2   0  -4   48.59    4.82
  -2   0   4   51.04    4.58
  -2   0   4   43.79    4.58
   2   0  -3   13.19    2.40
   2   0  -3   14.98    1.68
  -2   0   3   14.20    1.63
  -2   0   3   16.32    2.11
  -2   0   3   13.81    1.71
  -2   0   2  716.09   54.89
   2   0  -2  612.93   54.99
   2   0  -2  573.28   54.73
  -2   0   2  583.72   54.73
   2   0  -1 5619.13  493.14
  -2   0   1 5353.81  493.13
   2   0  -1 5547.64  493.43
   2   0   0 9833.59  891.18
  -2   0   0 9999.00  891.16
  -2   0  -1  858.18   83.12
  -2   0  -1  942.94   82.93
   2   0   1  933.56   83.12
   2   0   1  917.48   82.92
   2   0   2   25.25    3.16
  -2   0  -2   35.67    3.17
   2   0   3   17.34    2.21
  -2   0  -3   14.62    1.99
   2   0   3   11.00    2.50
   2   0   4  236.27   22.68
  -2   0  -4  253.56   22.52
   2   0   4  247.59   22.64
   2   0   5  471.82   47.08
  -2   0  -5  615.43   47.73
  -2   0  -5  496.01   46.95
   2   0   5  592.29   47.26
   2   0   5  502.87   47.09
  -2   0  -6   32.85    5.08
  -2   0  -6   51.42    4.58
   2   0   6   44.75    4.47
  -2   0  -7  221.47   19.89
   2   0   7  214.85   19.96
  -2   0  -8   31.91    5.06
  -2   0  -8   29.25    3.02
   2   0   8   27.40    2.85
  -2   0  -9   57.07    7.41
  -2   0  -9   53.35    5.68
   2   0   9   61.50    5.51
  -2   0 -10   61.61    7.53
  -2   0 -10   54.84    5.51
  -2   0 -11   68.52    6.52
  -2   0 -11   79.07    8.95
   2   0  11   55.88    7.27
  -2   0 -12   27.67    6.20
  -2   0 -12   26.43    3.08
   2   0  12   21.75    4.15
  -2   0 -13   16.81    6.81
  -2  -1  12   16.12    3.49
   2   1 -11    7.62    2.66
  -2  -1  11    6.87    2.85
   2   1 -10  188.61   14.41
   2   1 -10  132.00   13.89
  -2  -1  10  144.03   14.23
   2   1  -9   89.27    7.58
   2   1  -9   60.90    7.08
  -2  -1   9   69.93    7.37
   2   1  -9   77.59    6.94
   2   1  -8   55.95    6.86
   2   1  -8   77.32    7.29
  -2  -1   8   75.91    7.13
   2   1  -8   84.25    7.01
   2   1  -7   40.28    4.12
  -2  -1   7   35.44    3.84
   2   1  -7   32.43    3.87
   2   1  -6  332.23   26.55
   2   1  -6  250.00   26.51
   2   1  -5  208.27   22.58
  -2  -1   5  286.16   22.58
  -2  -1   4    0.67    0.69
   2   1  -4    0.73    1.04
   2   1  -4   -0.34    0.80
  -2  -1   3    0.78    0.66
   2   1  -3    0.14    0.78
   2   1  -3    1.04    1.26
  -2  -1   2  241.13   21.72
   2   1  -2  239.84   21.76
   2   1  -1  748.09   67.29
  -2  -1   0 1224.96  111.59
   2   1   0 1315.72  111.52
  -2  -1   0 1250.55  111.52
  -2  -1   0  950.97  111.72
  -2  -1  -1  600.71   48.31
  -2  -1  -1  647.79   48.61
  -2  -1  -2  395.65   34.09
   2   1   2  354.91   34.13
   2   1   3    1.55    1.98
  -2  -1  -3    3.13    0.91
  -2  -1  -3    2.49    0.44
   2   1   3    2.28    1.13
   2   1   4   65.18    6.04
  -2  -1  -4   60.01    5.43
  -2  -1  -4   53.53    5.60
   2   1   4   60.64    5.76
   2   1   5   25.85    3.07
  -2  -1  -5   23.73    2.37
  -2  -1  -5   26.82    2.70
   2   1   5   20.90    2.73
  -2  -1  -6    3.34    1.13
   2   1   6    4.71    1.42
  -2  -1  -6    1.36    2.61
  -2  -1  -6    3.86    0.81
   2   1   6    2.04    1.34
  -2  -1  -7  238.78   20.07
  -2  -1  -7  222.55   20.20
   2   1   7  205.18   20.35
   2   1   7  210.00   20.03
  -2  -1  -8    5.56    3.41
   2   1   8    5.56    0.78
  -2  -1  -8    9.39    1.53
  -2  -1  -8    8.69    1.34
   2   1   8    7.33    1.92
  -2  -1  -9   35.77    3.81
  -2  -1  -9   38.76    4.06
  -2  -1  -9   43.65    5.92
  -2  -1 -10   21.27    3.37
  -2  -1 -10   30.90    3.13
  -2  -1 -10   42.41    5.84
  -2  -1 -11   23.28    5.58
  -2  -1 -11   20.04    2.56
  -2  -1 -12    2.62    1.46
  -2  -1 -12   -1.05    5.11
  -2  -1 -13    9.48    6.44
  -2  -2  12   -0.21    3.04
  -2  -2  11   -0.52    2.57
   2   2 -10   43.12    4.73
   2   2 -10   54.33    5.45
  -2  -2  10   40.06    5.11
   2   2  -9   37.65    4.29
   2   2  -9   32.68    3.42
  -2  -2   9   30.18    4.01
   2   2  -9   29.89    3.41
   2   2  -9   31.15    3.53
   2   2  -8    1.89    1.36
  -2  -2   8    1.37    1.55
   2   2  -8    4.31    2.10
   2   2  -8    1.89    1.14
   2   2  -7   54.38    5.37
   2   2  -7   48.85    5.67
  -2  -2   7   65.01    5.77
   2   2  -7   57.79    5.92
   2   2  -6   79.80    3.43
   2   2  -6   97.56    4.44
   2   2  -6   77.62    4.28
  -2  -2   5   47.51    4.13
   2   2  -5   42.84    4.08
   2   2  -5   35.94    3.92
   2   2  -5   43.30    4.38
   2   2  -5   41.42    4.49
   2   2  -4  183.75   18.96
   2   2  -4  219.43   19.07
   2   2  -4  190.48   19.40
  -2  -2   4  259.72   19.12
  -2  -2   3    5.83    0.85
   2   2  -3    5.07    0.93
   2   2  -3    4.39    0.72
   2   2  -2   28.20    4.20
  -2  -2   2   45.83    3.89
   2   2  -1  378.95   39.00
  -2  -2   1  473.59   38.95
  -2  -2   0  292.88   26.26
   2   2   0  284.52   26.29
  -2  -2  -1   -0.76    1.10
  -2  -2  -1    0.16    0.30
   2   2   1    1.62    1.48
   2   2   1   -0.15    0.50
  -2  -2  -2   39.81    3.88
   2   2   2   46.05    3.97
  -2  -2  -2   36.82    4.38
   2   2   3  185.93   16.10
  -2  -2  -3  183.22   16.12
  -2  -2  -3  151.82   16.21
   2   2   3  170.65   16.27
   2   2   4  718.82   68.83
  -2  -2  -4  781.05   68.67
   2   2   4  873.13   69.02
  -2  -2  -4  715.76   68.77
  -2  -2  -5  144.02   13.42
  -2  -2  -5  146.08   13.30
   2   2   5  136.73   13.50
   2   2   5  167.10   13.70
  -2  -2  -6   77.24    7.00
  -2  -2  -6   77.05    7.13
   2   2   6   69.18    7.21
  -2  -2  -7   54.19    5.33
   2   2   7   61.46    5.25
   2   2   7   44.32    5.36
  -2  -2  -8  101.82    9.82
  -2  -2  -8  126.97   10.15
   2   2   8   92.72   10.11
  -2  -2  -9    9.12    4.11
  -2  -2  -9    8.36    1.79
  -2  -2  -9    9.07    1.50
   2   2   9    9.18    2.30
   2   2  10   29.86    4.15
  -2  -2 -10   33.07    3.50
  -2  -2 -10   34.84    6.06
  -2  -2 -10   33.43    3.69
  -2  -2 -11    1.69    1.47
  -2  -2 -11    1.44    1.35
  -2  -2 -11   -2.41    4.62
   2   2  11    1.82    2.32
  -2  -2 -12    0.69    4.98
  -2  -2 -12    1.04    1.36
   2   2  12    0.78    2.63
  -2  -3  12    2.44    3.36
   2   3 -11    7.96    1.80
  -2  -3  11   10.32    3.26
   2   3 -10   13.35    3.08
   2   3 -10    9.74    1.80
  -2  -3  10   11.98    2.91
   2   3  -9    0.15    2.50
   2   3  -9   -0.07    1.02
  -2  -3   9    1.97    2.17
   2   3  -8   -0.58    1.12
   2   3  -8    0.28    2.23
  -2  -3   8    0.63    1.98
   2   3  -7    5.69    2.18
   2   3  -7    4.96    1.17
   2   3  -7    5.17    1.75
  -2  -3   7    5.40    1.79
   2   3  -6   29.43    2.54
   2   3  -6   29.45    2.38
  -2  -3   6    8.72    2.26
   2   3  -6   25.74    2.94
   2   3  -5  114.20    9.52
   2   3  -5   82.09    9.91
  -2  -3   5   98.22    9.70
   2   3  -4  331.45   41.71
   2   3  -4  555.28   41.61
   2   3  -4  371.53   41.98
  -2  -3   4  505.68   41.71
   2   3  -3    0.17    0.49
   2   3  -3    0.60    1.31
  -2  -3   3   -0.04    0.80
   2   3  -3    0.26    1.42
   2   3  -2   62.46    7.29
  -2  -3   2   81.24    7.18
   2   3  -2   82.57    7.07
   2   3  -2   62.86    7.64
   2   3  -1   89.73    8.51
  -2  -3   0   71.17    6.89
   2   3   0   78.58    7.14
  -2  -3  -1   49.56    4.92
   2   3   1   54.15    5.25
   2   3   1   50.51    4.63
   2   3   2  241.36   21.79
  -2  -3  -2  244.28   21.83
  -2  -3  -2  228.95   22.03
   2   3   2  245.06   21.84
  -2  -3  -3  915.59   81.34
  -2  -3  -3  894.06   81.02
   2   3   3  908.72   81.03
  -2  -3  -3  933.41   81.11
   2   3   3  862.40   81.12
  -2  -3  -4  200.49   18.86
   2   3   4  225.43   18.87
  -2  -3  -4  205.36   18.95
   2   3   4  196.14   19.06
   2   3   4  206.30   18.99
   2   3   5  290.42   26.84
  -2  -3  -5  300.35   26.89
  -2  -3  -5  297.19   26.97
   2   3   5  298.38   27.02
   2   3   5  313.17   27.25
  -2  -3  -6   41.15    4.34
   2   3   6   40.74    4.18
  -2  -3  -6   47.73    4.25
   2   3   6   42.36    4.47
   2   3   6   56.10    4.67
   2   3   7  208.25   20.60
  -2  -3  -7  212.88   20.40
  -2  -3  -7  199.48   20.48
  -2  -3  -8 1529.86  136.90
  -2  -3  -8 1401.97  136.98
   2   3   8 1391.01  137.13
   2   3   8 1585.02  136.72
  -2  -3  -9  229.26   21.10
  -2  -3  -9  225.97   21.21
   2   3   9  241.54   21.47
  -2  -3 -10    3.33    1.50
  -2  -3 -10    3.65    1.25
   2   3  10    4.44    2.05
  -2  -3 -11   -0.21    1.41
  -2  -3 -11    1.28    1.26
   2   3  11    1.47    2.25
  -2  -3 -12   98.24    9.17
   2   3  12   89.22    9.82
  -2  -4  12    5.99    3.54
  -2  -4  11    4.75    3.24
   2   4 -11    9.16    1.86
  -2  -4  10    5.53    2.96
   2   4 -10    9.77    1.74
   2   4  -9    4.73    1.40
   2   4  -9    4.42    2.79
   2   4  -9    8.12    2.03
  -2  -4   9    3.68    2.67
   2   4  -8   25.96    3.32
   2   4  -8   22.40    2.63
  -2  -4   8   22.58    3.56
   2   4  -7   25.90    3.01
   2   4  -7   25.89    2.88
  -2  -4   7   28.57    3.60
   2   4  -6    1.50    2.24
   2   4  -6    5.19    1.19
   2   4  -5    2.89    0.80
   2   4  -5    0.88    1.97
  -2  -4   5   -0.09    1.53
   2   4  -4  364.25   24.01
  -2  -4   4  301.94   23.74
   2   4  -4  333.06   23.48
  -2  -4   3   37.19    4.02
   2   4  -3   39.45    4.23
   2   4  -3   43.14    3.78
   2   4  -3   32.46    4.39
   2   4  -2   16.96    2.63
   2   4  -2   18.84    1.80
   2   4  -2   17.90    2.22
   2   4  -1   90.68    8.21
   2   4  -1   89.30    7.93
   2   4  -1   65.66    8.53
   2   4   0  184.46   16.20
   2   4   0  164.36   16.43
  -2  -4  -1   28.58    2.94
   2   4   1   24.14    3.58
   2   4   1   31.24    2.75
   2   4   1   23.95    3.21
  -2  -4  -2 1623.31  149.78
   2   4   2 1634.81  149.74
   2   4   2 1709.66  149.73
   2   4   2 1759.53  150.36
  -2  -4  -3  726.03   68.08
   2   4   3  799.43   68.00
   2   4   3  748.38   68.03
   2   4   3  680.71   68.51
  -2  -4  -4   90.10    8.65
   2   4   4   89.64    8.47
  -2  -4  -4   85.80    8.33
   2   4   4   98.42    8.36
   2   4   4   91.67    8.47
   2   4   4   91.24    8.91
  -2  -4  -5   35.80    3.83
   2   4   5   41.67    3.83
   2   4   5   46.05    4.08
   2   4   5   42.21    4.35
  -2  -4  -6  152.09   13.67
   2   4   6  151.43   13.66
  -2  -4  -6  151.76   13.77
   2   4   6  138.45   13.82
   2   4   6  151.47   13.94
   2   4   7  537.97   47.82
  -2  -4  -7  528.73   47.87
  -2  -4  -7  518.81   47.94
   2   4   7  452.14   47.97
   2   4   7  626.45   48.07
  -2  -4  -8  453.46   43.11
   2   4   8  397.03   43.24
  -2  -4  -8  434.76   43.17
   2   4   9   -0.35    1.69
  -2  -4  -9   -0.07    1.11
  -2  -4 -10   93.49    8.62
   2   4  10   84.72    8.97
  -2  -4 -11   13.03    1.94
   2   4  11   11.68    2.72
   2   4  12   21.25    3.55
  -2  -4 -12   18.62    2.58
  -2  -5  11    0.68    3.10
  -2  -5  10    0.61    2.88
   2   5 -10   -0.26    1.29
  -2  -5   9  105.83   11.28
   2   5  -9  116.79   10.60
   2   5  -9  108.77   11.09
  -2  -5   8   26.13    3.63
   2   5  -8   14.89    2.99
   2   5  -8   16.93    3.73
   2   5  -8   24.77    2.72
   2   5  -7   76.08    7.67
   2   5  -7   67.15    6.83
   2   5  -7   72.17    7.45
  -2  -5   7   81.82    7.60
   2   5  -6  308.87   25.55
   2   5  -6  265.48   24.89
   2   5  -6  268.90   25.54
   2   5  -5   22.17    3.46
   2   5  -5   24.83    2.58
   2   5  -5   24.65    3.47
  -2  -5   5   25.10    3.24
   2   5  -4    5.51    1.91
   2   5  -4    2.48    0.88
  -2  -5   4    1.19    1.56
   2   5  -4    2.57    1.94
   2   5  -3   81.74    7.90
   2   5  -3   81.08    7.49
   2   5  -2   91.15    8.55
   2   5  -2   89.59    8.27
   2   5  -1  444.65   39.34
   2   5  -1  428.24   39.19
   2   5   0  166.53   15.83
   2   5   0  175.06   15.67
   2   5   1   48.21    4.04
   2   5   1   41.44    4.80
   2   5   1   36.50    4.09
   2   5   1   44.57    4.39
   2   5   2  159.01   14.66
   2   5   2  166.10   14.64
   2   5   2  165.68   15.32
   2   5   2  152.37   14.83
  -2  -5  -3    0.10    0.51
   2   5   3    0.14    1.24
   2   5   3   -0.04    0.63
   2   5   3    0.58    0.59
  -2  -5  -4  162.66   15.25
   2   5   4  197.01   15.34
   2   5   4  176.41   15.35
  -2  -5  -4  150.12   15.21
   2   5   4  197.43   15.93
   2   5   4  164.61   15.24
  -2  -5  -5    7.18    1.46
   2   5   5    9.90    1.43
  -2  -5  -5   11.05    1.24
   2   5   5   10.30    1.97
   2   5   5    9.53    1.27
   2   5   6    2.60    1.48
   2   5   6    2.27    1.21
  -2  -5  -6    1.94    0.85
   2   5   6    3.96    0.89
  -2  -5  -7   34.52    3.32
   2   5   7   29.38    3.28
   2   5   7   32.14    3.61
   2   5   7   34.53    3.55
   2   5   8   -0.14    1.04
   2   5   8    1.17    1.46
  -2  -5  -8    0.65    0.96
   2   5   8   -0.48    1.02
   2   5   9    5.67    1.80
  -2  -5  -9    3.84    1.22
   2   5   9    4.43    1.22
  -2  -5 -10   25.92    2.89
   2   5  10   23.43    3.42
  -2  -5 -11    5.89    1.57
   2   5  11    5.01    2.39
  -2  -6  10    3.06    2.99
  -2  -6   9   43.74    5.85
   2   6  -9   48.63    5.01
   2   6  -9   53.92    5.94
   2   6  -8    1.19    1.20
   2   6  -8    1.10    2.15
  -2  -6   8    1.95    2.60
   2   6  -8   -0.96    2.95
   2   6  -7    7.27    2.92
   2   6  -7    8.58    1.50
  -2  -6   7   11.32    2.80
   2   6  -7    9.66    2.33
   2   6  -6   -0.52    1.89
   2   6  -6    2.02    2.71
   2   6  -6    1.63    1.07
   2   6  -5   19.73    3.54
  -2  -6   5   27.84    3.37
   2   6  -5   29.51    2.89
   2   6  -5   24.26    3.74
   2   6  -4   56.22    5.81
   2   6  -4   53.33    5.01
   2   6  -4   44.30    5.78
   2   6  -3  173.43   13.98
   2   6  -3  143.36   13.45
   2   6  -3  127.87   14.14
   2   6  -2   -0.53    1.05
   2   6  -2    8.21    1.79
   2   6  -2    7.03    1.15
   2   6  -1   48.16    5.16
   2   6  -1   55.59    5.09
   2   6   0   53.03    5.43
   2   6   0   55.87    5.34
   2   6   1    1.44    1.42
   2   6   1    1.26    1.63
   2   6   1    2.82    0.79
   2   6   2  289.53   26.84
   2   6   2  293.90   26.79
   2   6   2  303.57   26.72
   2   6   2  279.97   27.37
   2   6   3   79.47    7.38
   2   6   3   88.35    7.41
   2   6   3   56.14    7.81
   2   6   4  130.87   12.68
   2   6   4  153.57   12.74
   2   6   4  121.83   13.21
   2   6   5    1.76    1.63
  -2  -6  -5    2.25    0.76
   2   6   5    2.59    0.91
   2   6   5    3.08    1.01
   2   6   6    1.29    1.61
   2   6   6    0.22    1.14
  -2  -6  -6    0.24    0.81
   2   6   6    0.85    0.91
  -2  -6  -7    2.32    0.50
   2   6   7    4.00    1.50
   2   6   7    2.38    1.42
  -2  -6  -7    2.43    0.97
  -2  -6  -7    1.12    0.86
   2   6   7    2.64    1.08
   2   6   8    0.30    1.38
  -2  -6  -8   -0.12    0.69
   2   6   8    0.42    1.12
   2   6   8    0.21    1.52
  -2  -6  -8    0.32    1.01
  -2  -6  -9    0.93    1.05
  -2  -6  -9    0.85    0.97
   2   6   9   -0.67    1.23
   2   6   9    0.35    1.61
   2   6   9   -0.06    1.14
  -2  -6 -10   36.05    3.87
   2   6  10   36.54    4.33
   2   6  10   37.37    3.85
   2   6  11   33.57    4.34
   2   7  -9  215.23   20.75
   2   7  -8   37.62    5.19
   2   7  -8   43.21    4.26
  -2  -7   8   39.34    5.14
   2   7  -7    2.94    2.28
   2   7  -7    2.70    1.25
   2   7  -7    3.65    3.11
  -2  -7   7    1.91    2.42
   2   7  -6   -1.40    2.89
   2   7  -6    1.98    2.13
   2   7  -6    0.20    1.17
   2   7  -5   10.25    2.98
   2   7  -5   10.64    1.58
   2   7  -5    8.16    2.42
   2   7  -4   41.83    4.67
   2   7  -4   25.82    4.35
   2   7  -4   39.60    3.75
   2   7  -3   48.08    4.91
   2   7  -3   34.95    4.86
   2   7  -3   42.01    4.20
   2   7  -2    3.23    1.71
   2   7  -2    7.87    1.97
   2   7  -2    8.25    1.53
   2   7  -1    1.52    1.53
   2   7  -1    3.22    1.58
   2   7   0   11.39    2.09
   2   7   0    5.87    2.36
   2   7   0    8.76    1.93
   2   7   1  138.27   13.19
   2   7   1  156.82   13.12
   2   7   1  113.37   13.62
   2   7   2   72.77    6.86
   2   7   2   81.18    6.79
   2   7   2   56.98    7.45
   2   7   2   66.45    6.86
   2   7   3    0.34    0.85
   2   7   3    0.68    1.72
   2   7   3    0.05    0.72
   2   7   4    0.42    1.00
   2   7   4   -0.16    1.42
   2   7   4    0.30    0.88
   2   7   5   18.13    2.14
   2   7   5   17.38    2.85
   2   7   5   17.45    2.18
   2   7   6    1.55    1.65
   2   7   6    1.63    1.18
  -2  -7  -6    1.30    0.92
   2   7   6    0.82    1.02
   2   7   7    4.55    1.90
   2   7   7    2.13    1.42
   2   7   7    4.92    1.21
  -2  -7  -7    4.58    1.11
  -2  -7  -8   37.97    3.68
   2   7   8   36.85    3.72
   2   7   8   35.57    4.09
   2   7   8   26.95    4.11
   2   7   9    3.32    1.78
   2   7   9    6.10    2.01
  -2  -7  -9    4.37    1.29
   2   7   9    7.57    1.52
  -2  -7 -10   24.18    2.96
   2   7  10   28.54    3.00
   2   7  10   25.32    3.53
   2   7  11   50.03    5.72
   2   8  -9   94.82   10.37
   2   8  -8   48.03    6.12
   2   8  -7   15.21    3.37
   2   8  -6   24.66    3.98
   2   8  -6   29.80    4.60
   2   8  -6   26.20    3.07
   2   8  -5  116.49   10.12
   2   8  -5   96.37    8.96
   2   8  -5   77.84    9.62
   2   8  -4  145.48   12.66
   2   8  -4  126.14   11.83
   2   8  -4  114.19   12.48
   2   8  -3    4.45    2.05
   2   8  -3    4.64    1.47
   2   8  -3    6.72    2.54
   2   8  -2    2.90    1.98
   2   8  -2    2.16    2.09
   2   8  -2    1.37    1.60
   2   8  -1  131.24   13.19
   2   8  -1  151.23   13.28
   2   8   0   26.84    2.83
   2   8   0   18.01    3.12
   2   8   0   18.98    3.43
   2   8   0   25.40    3.28
   2   8   1   93.26    7.76
   2   8   1   69.17    8.19
   2   8   1   71.94    7.78
   2   8   2   68.95    6.30
   2   8   2   54.02    6.80
   2   8   2   67.46    6.20
   2   8   2   62.39    6.11
   2   8   3  120.27   10.57
   2   8   3  109.89   10.61
   2   8   3  104.57   11.23
   2   8   4   40.78    4.35
   2   8   4   47.88    4.40
   2   8   4   38.39    5.02
   2   8   5   -0.16    1.69
   2   8   5    1.04    1.30
   2   8   5    0.14    1.16
   2   8   6   23.47    2.66
   2   8   6   25.16    3.49
   2   8   6   23.17    2.79
   2   8   7    1.34    2.26
   2   8   7    0.09    1.31
   2   8   7    0.22    1.14
   2   8   8    6.79    2.51
   2   8   8    7.97    1.84
   2   8   8    6.35    1.45
  -2  -8  -8    6.22    1.33
   2   8   9   -0.41    2.10
  -2  -8  -9    2.05    1.14
   2   8   9   -0.07    1.23
   2   8  10   53.43    5.38
   2   8  10   52.97    5.86
   2   9  -8   19.21    4.20
   2   9  -7   14.98    3.64
   2   9  -7   18.77    4.20
   2   9  -6   39.54    5.40
   2   9  -6   23.20    4.30
   2   9  -6   27.38    4.74
   2   9  -5    1.34    3.30
   2   9  -5    0.68    2.35
   2   9  -4   59.03    5.96
   2   9  -4   51.62    6.66
   2   9  -4   76.45    7.07
   2   9  -3   13.49    2.72
   2   9  -3   12.52    2.26
   2   9  -3   17.41    3.21
   2   9  -2    6.61    2.22
   2   9  -2    9.76    2.59
   2   9  -2    7.19    2.10
   2   9  -1   -1.13    2.23
   2   9  -1    3.43    2.09
   2   9  -1    1.42    1.58
   2   9  -1    2.06    2.17
   2   9   0    1.06    2.26
   2   9   0   -0.59    1.84
   2   9   0    4.87    2.57
   2   9   0    2.59    1.70
   2   9   0    1.02    2.00
   2   9   1  325.29   26.17
   2   9   1  269.54   25.99
   2   9   1  287.64   26.07
   2   9   1  246.74   26.51
   2   9   2    3.24    2.06
   2   9   2    1.81    1.42
   2   9   3   19.38    2.17
   2   9   3   14.03    2.98
   2   9   3   16.46    2.27
   2   9   4   40.14    5.19
   2   9   4   42.71    4.52
   2   9   4   45.59    4.47
   2   9   5    0.20    2.06
   2   9   5    2.63    1.49
   2   9   5   -0.16    1.34
   2   9   6   12.47    2.92
   2   9   6   14.79    2.21
   2   9   6   14.20    2.02
   2   9   7   13.97    3.32
   2   9   7   20.46    2.74
   2   9   7   21.98    2.52
   2   9   8   10.44    2.87
   2   9   8   11.78    2.29
   2   9   8   11.43    1.84
   2   9   9   55.85    5.75
   2   9   9   59.37    6.25
   2  10  -6   15.78    4.17
   2  10  -5   21.24    3.95
   2  10  -5   24.09    4.58
   2  10  -5   12.09    3.86
   2  10  -4    5.25    2.62
   2  10  -4   12.39    3.48
   2  10  -4    7.41    3.30
   2  10  -3   63.14    5.91
   2  10  -3   36.45    5.49
   2  10  -3   41.45    5.66
   2  10  -2    1.84    2.75
   2  10  -2    1.17    2.29
   2  10  -2    1.38    2.72
   2  10  -1   -0.27    2.38
   2  10  -1    1.12    2.90
   2  10  -1   -1.00    1.91
   2  10  -1    4.49    2.52
   2  10   0    4.67    2.53
   2  10   0    5.89    2.50
   2  10   0    7.19    2.84
   2  10   0    4.86    2.01
   2  10   0    4.64    2.79
   2  10   1    1.45    2.45
   2  10   1    1.93    1.86
   2  10   1    2.95    2.42
   2  10   1    1.44    2.69
   2  10   2    2.84    1.22
   2  10   2    4.11    1.67
   2  10   2    1.36    2.21
   2  10   3    5.10    1.45
   2  10   3    5.48    2.79
   2  10   3    8.25    1.73
   2  10   4   35.86    4.67
   2  10   4   32.39    3.64
   2  10   4   31.20    3.55
   2  10   5    0.73    2.27
   2  10   5    0.11    1.56
   2  10   5    0.09    1.41
   2  10   6   40.86    5.72
   2  10   6   43.05    4.67
   2  10   6   48.85    4.80
   2  10   7   99.58    9.25
   2  10   7  100.40    9.37
   2  10   7   79.05   10.13
   2  10   8    5.22    2.08
   2  10   9   48.73    5.57
   2  11  -3   14.42    3.46
   2  11  -2    2.44    2.63
   2  11  -2    3.15    2.49
   2  11  -1  395.94   36.62
   2  11   0  320.98   24.80
   2  11   0  203.05   24.83
   2  11   1    5.02    2.91
   2  11   1    1.91    2.08
   2  11   2    1.08    2.87
   2  11   2    3.66    1.90
   2  11   3   39.79    5.91
   2  11   3   46.89    4.88
   2  11   3   44.17    4.65
   2  11   4   14.59    4.03
   2  11   4   20.40    2.66
   2  11   4   21.24    2.90
   2  11   5   47.35    7.66
   2  11   5   61.75    6.63
   2  11   5   79.76    6.81
   2  11   6    3.68    2.99
   2  11   6    6.35    2.00
   2  11   6    4.71    1.70
   2  12   0   38.87    5.18
   2  12   1   37.94    4.84
   2  12   2    1.50    2.24
   2  12   3    1.52    1.97
   2  12   4  228.69   21.39
  -3  10   2   16.18    6.02
  -3  10   1   31.16    7.11
  -3  10   0   39.74    7.52
  -3   9   5    3.04    1.90
   3  -9  -5    5.93    3.47
   3  -9  -4   17.98    4.26
  -3   9   4   24.76    3.12
   3  -9  -3   55.68    7.19
  -3   9   3   61.06    6.24
   3  -9  -2   33.94    5.51
  -3   9   2   39.58    4.85
  -3   9   2   47.36    7.08
  -3   9   1   15.34    4.09
   3  -9  -1   15.79    3.72
  -3   9   1   24.72    5.98
  -3   9   0    5.02    4.69
   3  -9   0    0.57    2.83
  -3   9   0    1.85    3.94
  -3   9   0    1.90    3.70
  -3   9  -1    7.96    5.24
  -3   9  -1    2.50    1.74
  -3   9  -1    1.20    4.19
  -3   9  -2   41.72    4.83
  -3   9  -2   48.67    6.91
  -3   9  -3   37.21    4.38
  -3   9  -3   47.50    7.25
  -3   9  -4   27.86    6.50
  -3   9  -4   21.90    3.08
  -3   9  -5    0.13    1.66
  -3   9  -5   10.52    6.05
  -3   8   7   57.44    6.05
  -3   8   6   33.95    4.11
   3  -8  -6   41.07    5.11
   3  -8  -5    7.49    2.80
  -3   8   5    7.13    1.81
  -3   8   4   62.09    5.73
   3  -8  -4   55.15    5.82
  -3   8   4   60.05    5.93
   3  -8  -4   44.02    6.48
  -3   8   3  213.55   18.88
   3  -8  -3  194.32   18.83
   3  -8  -3  196.63   19.51
   3  -8  -2  496.12   44.51
  -3   8   2  537.85   46.13
  -3   8   2  451.75   44.54
   3  -8  -2  513.16   45.21
   3  -8  -1  362.62   31.44
   3  -8  -1  347.44   30.78
  -3   8   1  411.72   32.62
   3  -8   0   18.13    3.48
  -3   8   0   27.84    5.80
  -3   8   0   18.81    2.55
  -3   8   0   19.40    4.44
   3  -8   1    3.15    2.60
  -3   8  -1    4.46    4.91
  -3   8  -1   -0.33    1.35
  -3   8  -1    0.26    3.58
  -3   8  -2  105.82   10.42
  -3   8  -2   86.64    8.85
  -3   8  -3   79.42    7.93
  -3   8  -3   83.85    9.34
   3  -8   3   65.96    8.62
   3  -8   4   29.88    5.01
  -3   8  -4   34.80    3.94
  -3   8  -4   37.30    6.94
  -3   8  -4   34.07    5.45
  -3   8  -5    1.70    3.56
   3  -8   5    2.84    3.19
  -3   8  -5    3.51    1.72
  -3   8  -6   14.06    5.84
  -3   8  -6    4.00    1.73
  -3   8  -7   15.54    6.62
  -3   7   8   44.86    4.89
  -3   7   7  125.50   12.13
   3  -7  -7  130.83   12.62
   3  -7  -6    2.56    2.33
   3  -7  -6    0.68    1.56
  -3   7   6    1.41    1.45
  -3   7   5   59.45    6.32
   3  -7  -5   65.49    6.39
  -3   7   5   67.80    6.37
   3  -7  -5   58.26    6.90
  -3   7   4    2.09    1.62
   3  -7  -4    1.10    1.96
   3  -7  -4    0.69    1.20
  -3   7   3  120.79   11.59
   3  -7  -3  121.70   11.95
   3  -7  -3  118.90   12.04
   3  -7  -2  522.71   51.76
   3  -7  -2  630.71   52.33
  -3   7   2  579.83   51.78
  -3   7   1    5.43    2.91
   3  -7  -1    3.94    2.45
   3  -7  -1    2.56    2.43
  -3   7   1   14.74    4.99
  -3   7   1    5.38    1.40
   3  -7   0    1.88    2.41
  -3   7   0    6.15    4.57
  -3   7   0    0.09    1.02
   3  -7   0   -1.46    2.40
   3  -7   1    9.74    2.63
  -3   7  -1    9.72    1.73
   3  -7   1   10.08    2.89
  -3   7  -1   13.75    3.84
  -3   7  -2   18.65    5.32
  -3   7  -2    8.27    3.73
  -3   7  -2   10.73    1.82
  -3   7  -3   67.36    7.07
  -3   7  -3   53.21    5.54
  -3   7  -3   65.79    8.29
   3  -7   3   47.64    6.19
   3  -7   4    3.28    2.67
  -3   7  -4    8.74    3.56
  -3   7  -4   10.81    4.97
  -3   7  -4    4.67    1.48
  -3   7  -5   64.90    7.72
  -3   7  -5   40.58    5.93
  -3   7  -5   45.93    4.73
   3  -7   5   37.83    5.53
   3  -7   6    9.55    3.15
  -3   7  -6   22.59    6.11
  -3   7  -6   11.69    3.62
   3  -7   7   22.01    4.36
  -3   7  -7   37.15    6.84
   3  -7   8    2.14    3.07
  -3   6   9    1.41    1.82
  -3   6   9    2.38    1.74
  -3   6   8   32.34    4.05
  -3   6   8   37.92    4.13
   3  -6  -7    6.35    2.27
   3  -6  -7    5.38    1.78
  -3   6   7    8.62    1.73
   3  -6  -6    1.23    1.85
   3  -6  -6    1.96    1.40
  -3   6   6    4.21    1.58
  -3   6   5   28.80    3.42
   3  -6  -5   34.17    4.04
   3  -6  -5   26.79    3.35
   3  -6  -4   15.40    2.97
  -3   6   4   14.00    2.33
  -3   6   3  142.70   13.97
   3  -6  -3  157.92   14.55
   3  -6  -2   42.14    4.93
  -3   6   2   41.49    4.08
  -3   6   2   30.32    4.50
  -3   6   1   10.60    2.93
   3  -6  -1    6.52    3.03
   3  -6  -1   12.62    2.61
  -3   6   1    2.79    1.06
  -3   6   0   40.32    4.35
   3  -6   0   32.62    5.17
  -3   6   0   67.85    7.04
   3  -6   0   60.10    5.63
   3  -6   1   31.95    4.25
  -3   6  -1   27.48    3.25
  -3   6  -1   35.29    4.65
   3  -6   1   30.73    4.24
   3  -6   2   15.06    3.57
  -3   6  -2   23.76    5.06
  -3   6  -2   28.94    4.38
  -3   6  -2   21.64    2.54
   3  -6   3   22.17    3.41
  -3   6  -3   21.16    2.53
  -3   6  -3   16.65    5.04
   3  -6   3   19.77    3.57
  -3   6  -3   18.06    4.01
  -3   6  -4   12.42    4.74
  -3   6  -4    5.50    1.35
   3  -6   4    4.89    2.28
  -3   6  -4    6.51    2.93
  -3   6  -5  101.90   10.03
   3  -6   5   73.07    8.05
  -3   6  -5   70.03    8.19
  -3   6  -6   60.27    7.78
   3  -6   6   47.14    5.94
  -3   6  -6   49.93    6.06
   3  -6   7    4.10    2.56
  -3   6  -7   13.57    3.19
   3  -6   8   24.40    4.35
  -3   6  -8   31.05    4.29
   3  -6   9    1.17    2.71
   3  -6   9   -0.26    3.25
  -3   5   9   96.23   10.00
  -3   5   9  114.88   10.38
   3  -5  -8   38.71    5.17
   3  -5  -8   30.87    3.85
  -3   5   8   34.27    3.91
  -3   5   8   33.21    3.85
   3  -5  -8   35.19    3.99
  -3   5   7    8.45    1.77
   3  -5  -7   11.96    2.24
   3  -5  -7    8.48    1.79
  -3   5   7    8.07    1.87
   3  -5  -7    6.78    3.33
   3  -5  -6   62.58    6.33
   3  -5  -6   64.43    6.79
  -3   5   5   22.24    2.73
   3  -5  -5   15.42    3.17
  -3   5   4   69.68    6.81
   3  -5  -4   67.93    7.56
  -3   5   3   46.78    2.89
   3  -5  -3   46.77    3.89
   3  -5  -2   -0.80    2.41
   3  -5  -2    2.09    1.10
  -3   5   2    0.23    0.42
  -3   5   2    0.67    2.20
   3  -5  -1   12.00    2.52
   3  -5  -1   11.95    1.29
  -3   5   1   -0.07    0.39
  -3   5   1   10.23    2.61
   3  -5   0    2.93    2.22
   3  -5   0    1.20    2.96
  -3   5   0    0.46    0.45
   3  -5   1   23.98    4.03
  -3   5  -1   27.75    2.90
  -3   5  -1   25.38    4.06
  -3   5  -2   78.79    3.81
  -3   5  -2   88.93    5.57
   3  -5   2   80.86    5.01
   3  -5   2   79.51    5.45
  -3   5  -3   75.70    7.59
  -3   5  -3   50.05    5.03
  -3   5  -3   50.59    6.04
   3  -5   3   45.30    5.84
   3  -5   3   50.52    5.88
  -3   5  -4   28.97    3.40
   3  -5   4   36.28    4.28
  -3   5  -4   56.10    6.57
   3  -5   4   38.15    4.62
  -3   5  -4   29.76    4.41
   3  -5   5    1.03    1.89
  -3   5  -5   -0.87    2.58
   3  -5   6  247.03   23.47
  -3   5  -6  254.68   23.52
   3  -5   7  306.18   28.96
   3  -5   7  314.15   28.71
  -3   5  -7  304.56   28.61
   3  -5   8    4.41    2.31
  -3   5  -8   -1.09    2.30
   3  -5   8    4.05    3.19
   3  -5   9    1.24    2.39
   3  -5   9    2.61    3.50
   3  -5  10    1.71    3.66
   3  -4  -9   27.23    4.28
  -3   4   9   23.24    3.18
  -3   4   9   21.42    3.09
   3  -4  -8   74.47    7.25
  -3   4   8   70.38    7.22
   3  -4  -8   68.03    7.97
   3  -4  -8   83.88    7.30
  -3   4   8   65.19    7.20
   3  -4  -7   94.85    9.12
  -3   4   7   88.97    9.08
  -3   4   7   91.30    9.07
   3  -4  -7   94.52    9.93
   3  -4  -7  107.79    9.46
   3  -4  -6    0.32    2.80
  -3   4   6    2.16    1.28
   3  -4  -6    1.08    2.01
   3  -4  -5    7.68    3.02
  -3   4   5    3.52    1.75
   3  -4  -5    2.19    2.10
  -3   4   4   62.22    2.61
   3  -4  -4   59.38    3.68
  -3   4   3  261.42   25.81
   3  -4  -3  276.93   25.69
   3  -4  -3  331.34   26.36
  -3   4   2    0.32    1.89
   3  -4  -2    0.17    2.05
   3  -4  -2    1.47    0.98
  -3   4   1  118.30   11.67
   3  -4  -1  112.80   11.13
   3  -4  -1  150.35   12.03
   3  -4   0   23.54    3.49
   3  -4   1  694.40   63.36
   3  -4   2  212.10   20.64
   3  -4   2  228.08   20.77
   3  -4   3   11.76    2.86
   3  -4   3   15.52    2.85
  -3   4  -4    3.03    2.25
   3  -4   4    1.29    2.01
   3  -4   4    6.22    2.60
   3  -4   5  341.57    7.81
  -3   4  -5  308.26    7.25
   3  -4   6 1087.49  102.63
   3  -4   6 1227.30  102.54
  -3   4  -6 1083.19  102.41
   3  -4   7  377.05   33.58
  -3   4  -7  364.53   33.10
   3  -4   7  343.80   33.09
   3  -4   8    0.15    1.74
   3  -4   8    2.63    3.09
  -3   4  -8    2.69    1.90
   3  -4   9   19.27    3.38
   3  -4   9   24.74    4.58
  -3   4  -9   22.87    3.22
   3  -4  10   16.64    3.13
   3  -4  10   22.81    4.64
   3  -3 -10   35.56    4.64
  -3   3  10   27.52    3.66
  -3   3  10   25.67    3.53
   3  -3  -9    9.55    3.27
  -3   3   9    8.16    1.99
   3  -3  -9    7.51    1.89
  -3   3   9    8.07    1.96
   3  -3  -8  163.91   17.41
  -3   3   8  174.02   17.42
  -3   3   8  225.53   17.76
   3  -3  -8  199.58   17.58
   3  -3  -8  196.81   17.88
   3  -3  -7   77.31    7.81
  -3   3   7   70.16    7.15
   3  -3  -7   73.61    7.43
   3  -3  -6   20.96    3.59
   3  -3  -6   39.25    4.39
  -3   3   6   31.30    3.32
   3  -3  -5   25.48    3.83
   3  -3  -5   34.68    4.44
  -3   3   5   25.32    3.28
  -3   3   4   70.01    5.87
   3  -3  -4   51.41    5.66
   3  -3  -4   46.68    6.29
   3  -3  -4   67.43    6.58
  -3   3   3   96.04   10.96
   3  -3  -3  121.42   10.80
   3  -3  -3  118.91   11.65
   3  -3  -3  142.82   11.81
  -3   3   2   15.61    2.60
   3  -3  -2   15.82    3.16
   3  -3  -2   14.74    1.85
   3  -3  -1  103.31    9.60
  -3   3   1   97.34    9.58
   3  -3  -1   99.31   10.49
  -3   3   1  128.31   10.34
   3  -3   0   38.42    3.68
  -3   3   0   40.94    3.69
   3  -3   0   47.30    4.97
  -3   3   0   20.08    4.25
  -3   3  -1  550.77   51.27
  -3   3  -1  568.00   50.84
   3  -3   2   -0.16    2.82
   3  -3   2   -1.25    2.13
  -3   3  -2    0.13    0.60
  -3   3  -3  123.74   12.23
   3  -3   3  141.26   12.97
   3  -3   3  168.76   13.10
   3  -3   4   17.39    3.02
   3  -3   4   18.59    2.86
   3  -3   5   23.84    3.61
   3  -3   5   27.61    3.75
   3  -3   6    0.37    1.06
   3  -3   6  158.72    5.25
   3  -3   7   -0.27    1.67
   3  -3   7    0.63    2.70
  -3   3  -7    0.51    1.94
   3  -3   8   84.80    8.90
  -3   3  -8   87.33    8.27
   3  -3   8   76.38    8.09
   3  -3   9   12.78    2.62
   3  -3   9   18.61    3.69
  -3   3  -9   17.67    2.71
   3  -3  10   -1.27    3.07
  -3   3 -10    0.26    1.72
   3  -3  10    0.30    2.01
   3  -3  11    7.99    3.81
   3  -2 -11    0.19    3.11
  -3   2  11   -0.31    2.22
   3  -2 -10   66.33    6.28
  -3   2  10   41.84    5.36
   3  -2  -9    0.66    2.77
   3  -2  -9   -1.03    1.23
  -3   2   9    1.10    1.59
   3  -2  -9   -0.52    1.43
   3  -2  -8   11.82    2.97
  -3   2   8   11.14    1.99
   3  -2  -8    8.49    2.04
   3  -2  -7    4.86    2.62
  -3   2   7    9.95    1.80
   3  -2  -7    7.10    2.53
   3  -2  -6   46.94    5.12
   3  -2  -6   37.49    5.33
  -3   2   6   41.54    4.32
   3  -2  -5   20.82    3.52
   3  -2  -5   17.78    3.12
  -3   2   5   15.44    1.96
  -3   2   5   14.31    2.39
   3  -2  -5   12.43    1.97
   3  -2  -4    2.42    2.35
  -3   2   4    2.89    1.37
   3  -2  -4    0.48    0.97
   3  -2  -3   53.33    5.79
   3  -2  -3   49.32    4.87
  -3   2   3   44.25    5.09
   3  -2  -3   63.56    6.34
  -3   2   2    1.01    1.76
   3  -2  -2   -0.14    2.55
   3  -2  -2    0.87    0.81
  -3   2   2    0.62    0.70
   3  -2  -1    3.24    2.88
   3  -2  -1    0.61    0.81
  -3   2   1   -0.56    2.01
  -3   2   1   -0.33    0.78
  -3   2   0  523.42   53.09
   3  -2   0  677.91   53.71
  -3   2   0  596.47   52.71
   3  -2   0  578.31   52.70
  -3   2  -1  180.12   16.61
  -3   2  -1  191.16   17.08
  -3   2  -2  138.30   11.57
  -3   2  -2  109.74   10.91
  -3   2  -3   19.04    2.65
  -3   2  -3   18.10    1.84
   3  -2   3   16.23    3.36
   3  -2   3   15.53    2.61
   3  -2   3   15.04    3.20
   3  -2   4    0.15    1.84
  -3   2  -4   -0.69    1.80
   3  -2   5   76.38    7.78
   3  -2   6   56.01    5.96
   3  -2   7  178.23   16.83
   3  -2   8   23.89    3.05
   3  -2   9    1.08    2.82
   3  -2   9    1.45    1.50
   3  -2  10    7.55    3.14
  -3   2 -10    9.02    2.19
   3  -2  10    5.71    1.95
   3  -2  11   56.95    7.07
  -3   2 -11   55.69    5.60
  -3   2 -12    3.30    1.56
   3  -1 -11    8.63    3.57
  -3   1  11   11.58    2.64
   3  -1 -10   -1.05    2.89
  -3   1  10   -0.27    1.86
   3  -1  -9   -1.12    2.70
   3  -1  -9   -2.16    1.70
  -3   1   9    0.12    1.66
   3  -1  -9    0.28    1.32
   3  -1  -9   -0.10    1.30
   3  -1  -8   10.57    2.88
  -3   1   8    8.30    1.85
   3  -1  -8   17.19    2.84
   3  -1  -7   22.43    3.36
  -3   1   7   17.41    2.45
   3  -1  -6   19.56    2.82
  -3   1   6   18.50    1.63
   3  -1  -6   11.16    1.44
   3  -1  -5  176.04   14.27
   3  -1  -5  138.34   13.69
  -3   1   4   44.98    4.46
   3  -1  -4   40.00    4.16
   3  -1  -4   43.78    4.78
  -3   1   3   90.01    7.30
   3  -1  -3   66.51    6.95
  -3   1   3   71.42    6.94
   3  -1  -3   83.62    7.71
   3  -1  -2   10.10    2.64
  -3   1   2    6.38    1.99
   3  -1  -2    9.94    1.35
  -3   1   2    9.38    1.29
   3  -1  -1   40.84    6.64
   3  -1  -1   70.00    5.96
  -3   1   1   61.55    5.89
  -3   1   1   67.17    6.58
  -3   1   0   90.95    8.61
   3  -1   0  101.39    8.64
  -3   1   0   76.97    9.20
   3  -1   1  298.03   30.03
  -3   1  -1  378.93   30.07
  -3   1  -1  328.79   30.41
  -3   1  -2  189.94   15.51
  -3   1  -2  159.85   15.00
   3  -1   3   49.72    5.01
  -3   1  -3   42.81    4.22
  -3   1  -3   48.68    4.86
   3  -1   3   63.25    5.88
   3  -1   4  246.32   20.40
   3  -1   4  248.69   20.73
  -3   1  -4  188.24   20.04
   3  -1   5   14.71    2.68
   3  -1   5   13.34    2.57
   3  -1   5   15.11    2.94
  -3   1  -5   14.42    2.32
   3  -1   6    7.71    2.24
   3  -1   6    5.47    1.81
   3  -1   6    3.50    2.38
  -3   1  -6    4.64    1.58
   3  -1   7   19.09    2.66
  -3   1  -7   18.27    2.64
   3  -1   8    9.05    1.96
   3  -1   9   11.19    1.90
  -3   1  -9   13.69    1.82
  -3   1 -10  197.99   16.90
   3  -1  10  166.64   16.96
  -3   1 -11   -0.08    1.19
   3  -1  12   29.88    5.27
  -3   1 -12   35.66    3.84
  -3   0  11  109.78   10.87
   3   0 -10  241.20   20.34
  -3   0  10  195.93   19.86
   3   0  -9    2.30    2.65
   3   0  -9    1.39    1.46
  -3   0   9    2.75    1.82
   3   0  -8    7.91    2.67
  -3   0   8    8.13    1.90
   3   0  -7    5.81    2.55
  -3   0   7    6.45    1.51
   3   0  -6   30.50    3.72
   3   0  -6   22.92    2.85
  -3   0   6   26.66    2.86
   3   0  -5   88.08    8.58
   3   0  -5   84.75    8.09
  -3   0   4  231.21   19.72
   3   0  -4  208.14   19.43
  -3   0   4  189.05   19.37
   3   0  -3    7.38    2.25
  -3   0   3    9.83    1.63
   3   0  -3    8.63    1.23
  -3   0   3    8.92    1.28
   3   0  -2  104.09   10.09
  -3   0   2  115.68   10.12
   3   0  -2  111.76   10.68
  -3   0   2  110.72   10.48
   3   0  -1  466.87   45.14
  -3   0   1  541.55   45.13
   3   0  -1  470.85   45.66
   3   0   0  252.24   23.12
  -3   0   0  258.84   23.11
   3   0   1   12.47    1.42
  -3   0  -1   17.00    1.48
  -3   0  -1    8.99    2.16
  -3   0  -2  272.97   25.67
   3   0   2  297.67   26.07
  -3   0  -2  334.68   26.09
  -3   0  -3  374.12   34.07
   3   0   3  367.10   34.54
  -3   0  -3  409.82   34.45
   3   0   4  114.99   11.09
   3   0   4  114.91   10.87
  -3   0  -4  111.19   10.63
   3   0   5   82.36    7.58
  -3   0  -5   70.79    7.15
   3   0   5   73.24    7.47
   3   0   6   72.28    6.74
   3   0   6   64.34    6.91
  -3   0  -6   64.07    6.31
   3   0   6   56.80    6.70
   3   0   7    8.93    2.48
   3   0   7    8.40    2.09
  -3   0  -7    9.86    1.85
  -3   0  -7    9.72    1.35
  -3   0  -8   32.81    3.43
  -3   0  -8   39.80    3.89
   3   0   8   30.23    3.67
   3   0   8   36.72    4.53
  -3   0  -9  341.24   30.64
  -3   0  -9  341.38   30.91
   3   0   9  334.13   30.71
   3   0   9  327.98   31.35
   3   0  10   19.23    3.77
  -3   0 -10   20.67    2.76
  -3   0 -10   21.19    2.39
   3   0  10   17.97    2.23
  -3   0 -11    1.52    1.24
  -3   0 -12    6.07    1.59
  -3  -1  12    0.18    2.53
  -3  -1  11    0.63    2.37
   3   1 -10   13.10    3.22
  -3  -1  10   11.87    2.41
   3   1  -9   22.02    2.82
   3   1  -9   21.86    3.53
  -3  -1   9   17.23    2.78
   3   1  -8    0.82    2.26
   3   1  -8    3.07    1.94
  -3  -1   8    3.53    1.65
   3   1  -7   55.24    5.82
   3   1  -7   56.55    6.35
  -3  -1   7   68.69    6.05
   3   1  -6  141.18   14.44
   3   1  -6  201.25   15.05
   3   1  -5   39.54    3.95
   3   1  -5   28.18    3.16
  -3  -1   5   31.38    3.14
   3   1  -4  226.72   20.89
  -3  -1   4  276.31   20.97
   3   1  -3   32.67    3.89
   3   1  -3   30.63    3.24
  -3  -1   3   34.91    3.20
   3   1  -2   45.82    4.56
  -3  -1   2   51.31    4.60
   3   1  -1  286.44   25.78
  -3  -1   1  283.97   25.77
   3   1   0    6.24    0.85
  -3  -1   0    5.74    2.28
  -3  -1   0    5.79    0.82
  -3  -1   0    5.93    1.33
  -3  -1  -1  730.18   76.49
   3   1   1  834.39   76.31
  -3  -1  -1  903.30   76.31
  -3  -1  -1  783.52   76.92
   3   1   2  454.25   41.10
  -3  -1  -2  451.34   40.75
  -3  -1  -2  561.57   41.09
   3   1   3    2.57    1.45
  -3  -1  -3    1.82    0.28
  -3  -1  -3    2.16    1.18
   3   1   4    7.63    1.87
  -3  -1  -4   10.58    1.57
   3   1   4    7.81    2.77
   3   1   5    5.98    1.80
   3   1   5    5.14    2.13
  -3  -1  -5    6.86    1.37
  -3  -1  -5    6.27    0.80
  -3  -1  -6   36.45    3.70
  -3  -1  -6   41.76    4.03
   3   1   6   37.61    4.33
   3   1   6   49.08    4.67
  -3  -1  -7  124.76   11.66
  -3  -1  -7  136.74   12.02
   3   1   7  120.54   12.20
   3   1   7  131.37   12.35
  -3  -1  -8   48.01    4.36
  -3  -1  -8   47.42    4.68
   3   1   8   45.73    5.17
   3   1   8   36.12    4.59
  -3  -1  -9   76.26    6.89
  -3  -1  -9   76.90    7.15
   3   1   9   66.90    6.90
   3   1   9   69.26    7.61
  -3  -1 -10   14.77    2.18
  -3  -1 -10   14.98    1.80
   3   1  10   12.70    1.48
   3   1  10   10.90    2.93
  -3  -1 -11   54.75    5.56
  -3  -1 -11   64.47    6.03
   3   1  11   51.05    6.50
  -3  -1 -12    1.33    1.22
   3   1  12    3.43    3.04
  -3  -2  12   20.75    3.76
  -3  -2  11   -0.34    2.49
  -3  -2  10   36.30    4.43
   3   2  -9   25.88    3.50
  -3  -2   9   18.58    3.12
   3   2  -8   35.24    4.00
   3   2  -8   24.62    3.31
  -3  -2   8   33.30    3.64
   3   2  -7   25.20    3.02
   3   2  -7   28.90    3.60
  -3  -2   7   26.66    3.12
   3   2  -6    1.92    1.89
   3   2  -6    1.01    1.13
   3   2  -6    0.75    1.55
   3   2  -5    0.11    1.86
  -3  -2   5    0.22    0.89
   3   2  -5   -0.28    0.94
   3   2  -4  127.97   12.20
  -3  -2   4  136.79   12.17
  -3  -2   3    5.21    0.79
   3   2  -3    5.35    0.95
  -3  -2   2  107.84   10.58
   3   2  -2   77.03   10.69
   3   2  -2  108.12   10.35
  -3  -2   2  127.00   10.29
   3   2  -1    1.36    1.97
  -3  -2   1    0.62    1.46
   3   2  -1    1.45    0.55
  -3  -2   0  124.13   10.00
  -3  -2   0  106.91   10.41
   3   2   0   99.49   10.70
   3   2   0  102.68    9.91
  -3  -2  -1   16.35    2.95
   3   2   1   19.36    1.82
   3   2   1   17.00    2.13
  -3  -2  -1   21.99    2.04
   3   2   1   16.41    3.40
   3   2   2    7.47    1.45
  -3  -2  -2    5.84    2.30
  -3  -2  -2    6.94    1.00
  -3  -2  -3   53.10    5.03
   3   2   3   52.60    5.22
  -3  -2  -4   60.50    5.70
  -3  -2  -4   65.66    5.98
   3   2   4   84.31    6.27
  -3  -2  -5   34.06    3.29
  -3  -2  -5   36.40    3.63
   3   2   5   37.88    4.18
   3   2   5   41.43    3.95
  -3  -2  -6    1.55    1.03
  -3  -2  -6    3.78    0.69
   3   2   6    3.55    1.54
   3   2   6    3.79    1.89
  -3  -2  -7    8.72    1.59
  -3  -2  -7   10.12    1.27
   3   2   7   10.88    2.17
  -3  -2  -8    1.73    1.31
   3   2   8    7.44    1.94
  -3  -2  -8    3.94    0.97
   3   2   8    2.19    1.92
  -3  -2  -9   17.64    2.52
  -3  -2  -9   23.35    2.24
   3   2   9   16.91    3.12
   3   2   9   16.87    2.11
  -3  -2 -10   37.00    4.30
  -3  -2 -10   52.17    4.84
   3   2  10   48.98    5.27
  -3  -2 -11    5.17    1.92
  -3  -2 -11    4.60    1.32
   3   2  11    5.50    2.76
   3   2  12    6.46    3.13
  -3  -3  11   52.06    6.25
  -3  -3  10   23.43    3.71
   3   3  -9   15.18    2.85
   3   3  -9   19.90    3.33
   3   3  -9   16.77    2.39
  -3  -3   9   17.90    2.94
   3   3  -8   55.82    5.97
   3   3  -8   52.82    5.48
   3   3  -8   56.45    5.99
  -3  -3   8   53.35    5.71
   3   3  -7  305.57   33.50
   3   3  -7  425.05   33.41
  -3  -3   7  358.62   33.45
   3   3  -6    1.60    1.21
  -3  -3   5    5.79    1.22
   3   3  -5    4.33    1.18
   3   3  -4   59.49    5.70
   3   3  -4   50.73    6.07
  -3  -3   4   64.19    5.69
   3   3  -3  117.92   11.91
   3   3  -3  133.03   11.52
  -3  -3   3  122.17   11.43
  -3  -3   2 1551.71  130.30
   3   3  -2 1418.70  130.02
   3   3  -2 1388.76  130.37
  -3  -3   2 1448.40  129.93
  -3  -3   1    2.93    1.23
   3   3  -1    3.08    1.93
  -3  -3   0   20.42    2.76
   3   3   0   27.76    3.30
   3   3   1   31.22    3.25
   3   3   1   25.63    4.12
  -3  -3  -1   32.95    3.78
  -3  -3  -1   35.45    3.12
  -3  -3  -2  106.45    7.99
   3   3   2   85.15    7.88
   3   3   2   70.86    8.05
  -3  -3  -2   85.40    8.49
  -3  -3  -3   26.16    3.51
  -3  -3  -3   28.03    2.72
   3   3   3   28.29    2.90
  -3  -3  -4  115.79    9.48
   3   3   4   86.54    9.53
  -3  -3  -5   33.21    3.06
  -3  -3  -5   33.90    3.33
   3   3   5   31.13    3.84
   3   3   5   30.47    3.49
  -3  -3  -6   15.79    1.72
  -3  -3  -6   18.52    2.05
   3   3   6   17.10    2.30
   3   3   6   15.45    2.54
  -3  -3  -7  115.60   10.90
  -3  -3  -7  136.02   11.22
   3   3   7  109.08   11.31
   3   3   8   20.59    2.68
  -3  -3  -8   14.83    2.33
  -3  -3  -8   17.45    1.96
   3   3   8   15.88    2.71
  -3  -3  -9    1.37    1.42
   3   3   9    1.73    1.42
   3   3   9    0.53    0.99
  -3  -3  -9    1.22    0.99
   3   3   9    3.25    1.85
  -3  -3 -10   10.35    1.90
  -3  -3 -10    9.48    1.53
   3   3  10    8.45    2.56
  -3  -3 -11    0.54    1.51
  -3  -3 -11    0.92    1.14
   3   3  11    3.54    2.69
   3   3  12    6.24    2.99
  -3  -4  10   14.08    3.31
   3   4  -9    3.73    2.04
  -3  -4   9    3.92    2.40
   3   4  -8  224.28   20.27
   3   4  -8  184.92   20.65
  -3  -4   8  245.85   20.61
   3   4  -7  921.21   84.11
   3   4  -7  955.01   84.64
   3   4  -6  189.40   18.18
   3   4  -6  181.71   18.47
   3   4  -6  204.52   18.91
  -3  -4   6  222.38   18.39
   3   4  -5   38.88    4.52
   3   4  -5   40.59    4.92
   3   4  -5   44.64    4.09
  -3  -4   5   36.17    4.18
   3   4  -4  140.11   13.38
  -3  -4   4  142.67   13.10
   3   4  -3   18.25    2.80
  -3  -4   3   20.60    2.17
   3   4  -2  441.63   40.24
   3   4  -1    5.05    1.93
  -3  -4   1    3.42    1.42
  -3  -4   0  111.57   10.49
   3   4   0  114.72   10.79
   3   4   1   -0.09    0.37
   3   4   1   -0.63    2.01
  -3  -4  -1   -0.06    1.16
  -3  -4  -2  365.81   33.96
   3   4   2  384.46   33.64
   3   4   2  358.97   33.70
   3   4   3  184.41   16.14
  -3  -4  -3  184.67   16.21
   3   4   3  164.93   16.25
  -3  -4  -3  164.77   16.51
   3   4   4   79.17    7.15
  -3  -4  -4   74.19    7.28
   3   4   4   89.27    7.42
  -3  -4  -4   66.99    7.74
  -3  -4  -5   39.29    4.06
   3   4   5   43.99    4.64
   3   4   5   47.52    4.08
  -3  -4  -5   49.77    4.31
   3   4   5   43.25    4.39
  -3  -4  -6  186.34   17.42
  -3  -4  -6  193.60   17.60
   3   4   6  199.53   18.21
   3   4   6  195.65   17.73
   3   4   6  202.34   17.83
  -3  -4  -7   70.91    6.41
  -3  -4  -7   70.23    6.62
   3   4   7   78.69    7.26
   3   4   7   56.48    6.74
  -3  -4  -8   47.79    4.70
  -3  -4  -8   47.64    4.91
   3   4   8   62.46    5.27
   3   4   8   41.87    5.05
  -3  -4  -9   61.10    6.20
  -3  -4  -9   62.96    6.37
   3   4   9   72.52    6.33
   3   4   9   63.35    6.74
  -3  -4 -10   -0.09    1.40
  -3  -4 -10    0.65    1.06
   3   4  10    1.20    2.02
  -3  -4 -11   41.34    4.29
   3   4  11   42.49    5.15
   3   4  12    7.36    2.88
   3   5  -9    1.56    2.02
  -3  -5   9    0.67    2.53
   3   5  -8   78.10    8.13
   3   5  -8   86.49    7.95
   3   5  -8   86.76    8.72
   3   5  -8   80.81    8.74
  -3  -5   8   89.32    8.68
   3   5  -7   32.69    4.35
  -3  -5   7   31.36    4.06
   3   5  -7   31.55    4.00
   3   5  -7   37.09    3.47
   3   5  -7   26.65    3.12
   3   5  -6    2.93    2.07
  -3  -5   6    1.37    1.59
   3   5  -6    2.58    0.82
   3   5  -6    2.49    2.09
  -3  -5   5   90.88    8.75
   3   5  -5   84.49    8.87
   3   5  -5   93.37    8.34
   3   5  -5   83.79    9.26
  -3  -5   4   44.56    4.81
   3   5  -4   49.84    4.49
   3   5  -4   47.36    5.23
   3   5  -4   45.49    5.57
   3   5  -3   -0.39    1.95
   3   5  -3    0.14    0.32
   3   5  -3    0.95    1.97
   3   5  -2    0.20    1.32
   3   5  -2   13.28    2.17
   3   5  -1    6.74    2.11
   3   5   0   -0.80    1.77
   3   5   1   22.47    3.67
  -3  -5  -1   28.30    2.86
   3   5   1   26.24    2.46
   3   5   1   25.03    3.51
  -3  -5  -2  100.47    9.97
   3   5   2  107.25    9.85
   3   5   2  116.61    9.85
   3   5   2   84.60   10.65
  -3  -5  -3  103.32   11.34
   3   5   3  124.23   11.16
   3   5   3  133.15   11.23
   3   5   3  121.04   12.12
   3   5   4  150.90   13.49
   3   5   4  145.79   13.61
   3   5   4  156.43   14.49
  -3  -5  -4  142.84   13.77
   3   5   5   14.53    3.10
   3   5   5   16.11    2.37
   3   5   5   17.73    1.77
  -3  -5  -5   15.72    2.66
   3   5   5   17.38    2.11
  -3  -5  -6   38.09    3.74
   3   5   6   41.55    3.78
   3   5   6   39.28    4.08
   3   5   6   35.58    4.75
  -3  -5  -6   40.31    4.56
  -3  -5  -7   61.11    6.09
   3   5   7   65.89    6.09
   3   5   7   64.21    6.48
   3   5   7   86.31    7.05
  -3  -5  -8  197.47   18.11
   3   5   8  187.29   18.45
   3   5   8  216.49   18.61
   3   5   9   28.90    3.94
  -3  -5  -9   30.38    3.32
   3   5   9   39.63    3.60
  -3  -5 -10    0.06    0.96
   3   5  10   -0.41    2.14
   3   5  11   62.86    6.94
   3   6  -9   38.88    4.79
  -3  -6   8   43.71    5.60
   3   6  -8   49.31    4.84
   3   6  -8   55.33    5.90
   3   6  -7   81.13    8.75
  -3  -6   7   78.37    8.56
   3   6  -7   90.42    7.96
   3   6  -7   75.95    8.86
   3   6  -6    3.57    2.42
   3   6  -6    2.78    2.27
   3   6  -6    3.30    0.94
  -3  -6   6    2.28    1.56
   3   6  -5    6.65    2.24
   3   6  -5    2.63    2.11
   3   6  -5    3.31    0.84
  -3  -6   5    3.15    1.59
   3   6  -4    6.08    2.27
   3   6  -4    6.05    2.37
   3   6  -4    5.83    0.87
   3   6  -3    0.41    2.05
   3   6  -3    0.56    0.45
   3   6  -3   -1.36    2.10
   3   6  -2    3.97    2.28
   3   6  -2   -0.20    1.27
   3   6  -2    4.82    0.50
   3   6  -1   -0.20    0.93
   3   6  -1    0.23    2.08
   3   6   0   34.35    4.16
   3   6   1   58.26    5.23
   3   6   1   47.50    6.27
   3   6   1   53.86    6.01
   3   6   2    1.93    2.07
   3   6   2    0.96    0.61
   3   6   2    0.68    0.69
   3   6   2    0.79    2.15
  -3  -6  -3   25.73    2.99
   3   6   3   27.13    3.99
   3   6   3   28.66    2.90
   3   6   3   34.87    2.99
  -3  -6  -4   37.00    3.92
   3   6   4   44.56    3.97
   3   6   4   41.66    4.04
   3   6   4   44.18    4.99
  -3  -6  -5   -0.49    1.05
   3   6   5    1.04    1.09
   3   6   5    0.29    0.68
   3   6   5    0.05    1.16
  -3  -6  -6   16.14    2.14
   3   6   6   15.62    1.82
   3   6   6   18.34    2.20
   3   6   6   16.78    2.97
  -3  -6  -7   25.51    3.33
  -3  -6  -7   27.76    2.80
   3   6   7   28.87    3.71
   3   6   7   28.52    2.85
   3   6   7   27.72    3.25
   3   6   8   13.43    2.48
   3   6   8   18.37    1.91
  -3  -6  -8   14.73    1.82
   3   6   8   16.77    2.43
  -3  -6  -8   14.42    2.61
  -3  -6  -9   25.80    2.96
   3   6   9   23.99    3.59
   3   6   9   37.65    3.40
   3   6  10    0.29    2.05
   3   6  11   11.64    2.78
   3   7  -9    6.13    2.74
   3   7  -8   25.16    3.80
   3   7  -7   22.90    3.83
   3   7  -7   21.89    3.54
  -3  -7   7   19.02    3.17
   3   7  -6    2.84    2.45
   3   7  -6    6.58    2.77
   3   7  -6    8.20    1.27
   3   7  -5    0.46    2.30
   3   7  -5    1.54    2.34
   3   7  -5    1.18    0.88
   3   7  -4   74.10    7.79
   3   7  -4   76.64    6.95
   3   7  -4   67.60    8.07
   3   7  -3   13.99    3.20
   3   7  -3   18.27    3.21
   3   7  -3   19.81    1.89
   3   7  -2   27.87    3.69
   3   7  -2   20.05    3.69
   3   7  -2   26.08    2.44
   3   7  -1    3.72    2.48
   3   7  -1    5.16    0.65
   3   7   0  210.86   18.34
   3   7   0  189.42   18.45
   3   7   0  192.77   18.99
   3   7   1 1298.58  140.13
   3   7   1 1744.20  139.99
   3   7   1 1568.63  139.75
   3   7   1 1429.44  140.66
   3   7   2  426.00   37.65
   3   7   2  433.35   37.51
   3   7   2  432.77   38.51
   3   7   2  336.81   37.86
   3   7   3   13.13    1.56
   3   7   3   14.65    2.80
   3   7   3   12.22    1.59
   3   7   4   26.88    3.23
   3   7   4   31.94    3.16
   3   7   4   32.85    3.19
   3   7   4   34.49    4.16
   3   7   5   47.90    4.84
   3   7   5   57.11    5.07
   3   7   5   45.75    5.75
   3   7   6  462.39   41.12
   3   7   6  444.58   41.26
   3   7   6  450.87   41.88
   3   7   7   30.05    3.96
   3   7   7   29.02    3.05
   3   7   7   31.15    3.45
  -3  -7  -8   47.33    4.96
   3   7   8   55.34    5.04
   3   7   8   57.67    5.48
   3   7   8   51.06    5.63
   3   7   9   -0.23    1.64
   3   7   9    0.85    1.81
   3   7   9    1.08    1.07
   3   7  10   53.11    5.84
   3   7  11   49.79    5.73
   3   8  -8   44.94    5.63
   3   8  -7   40.99    5.26
   3   8  -6    1.11    2.42
   3   8  -6    0.70    2.96
   3   8  -5   23.35    3.96
   3   8  -5   25.94    4.10
   3   8  -4  196.50   17.37
   3   8  -4  141.65   18.24
   3   8  -4  212.05   18.27
   3   8  -3    0.75    2.62
   3   8  -3    0.80    0.61
   3   8  -3   -0.24    2.38
   3   8  -2    0.29    2.68
   3   8  -2    0.78    0.56
   3   8  -2    0.24    2.11
   3   8  -1  117.83   11.74
   3   8  -1  119.61   10.92
   3   8   0  297.02   26.76
   3   8   0  292.99   27.43
   3   8   0  223.83   27.67
   3   8   0  320.50   26.97
   3   8   1  301.13   30.62
   3   8   1  365.80   30.45
   3   8   1  331.57   30.13
   3   8   1  346.06   30.41
   3   8   1  297.34   31.13
   3   8   2  101.08    9.08
   3   8   2  100.35    8.87
   3   8   2   76.36    9.79
   3   8   2   86.54    9.37
   3   8   3  180.02   16.35
   3   8   3  177.90   16.25
   3   8   3  171.66   17.29
   3   8   4    0.44    2.26
   3   8   4    2.34    1.04
   3   8   4    2.65    1.07
   3   8   5   19.96    3.77
   3   8   5   31.42    3.00
   3   8   5   27.32    3.03
   3   8   6   16.47    3.13
   3   8   6   17.86    2.40
   3   8   6   17.31    2.05
   3   8   7   49.18    4.44
   3   8   7   39.68    4.65
   3   8   7   41.32    5.27
   3   8   8    1.56    2.12
   3   8   8    2.67    1.67
   3   8   8    3.12    1.18
   3   8   9    4.67    2.09
   3   8  10   30.16    4.08
   3   9  -7    4.16    2.75
   3   9  -6   38.80    5.17
   3   9  -5   15.00    3.25
   3   9  -5   20.16    4.06
   3   9  -4   -0.23    2.14
   3   9  -4    2.65    3.26
   3   9  -3    0.23    2.14
   3   9  -2   12.22    3.09
   3   9  -2   18.43    3.92
   3   9  -2   17.30    1.84
   3   9  -1   13.88    3.61
   3   9  -1   17.31    2.06
   3   9   0   13.68    3.25
   3   9   0   16.13    2.26
   3   9   0   11.76    1.36
   3   9   0   10.64    2.05
   3   9   0    9.49    3.09
   3   9   1    0.38    2.61
   3   9   1   -0.18    0.74
   3   9   1   -0.24    2.22
   3   9   1    0.57    1.30
   3   9   1   -0.20    1.85
   3   9   2    0.70    2.40
   3   9   2    3.32    1.08
   3   9   2    2.82    1.27
   3   9   3    0.81    0.91
   3   9   3    0.22    1.03
   3   9   3    0.69    2.15
   3   9   4   36.36    4.72
   3   9   4   38.04    3.75
   3   9   4   32.76    3.63
   3   9   5    5.06    2.37
   3   9   5    5.92    1.43
   3   9   5    5.80    1.35
   3   9   6    2.58    2.08
   3   9   6   -0.18    1.37
   3   9   6    1.32    1.02
   3   9   7    8.31    2.65
   3   9   7    3.63    1.77
   3   9   7    7.07    1.37
   3   9   8    3.08    2.42
   3   9   8    0.69    1.67
   3   9   9   25.43    3.48
   3   9  10    0.89    2.09
   3  10  -4    2.00    4.11
   3  10  -4    1.41    2.35
   3  10  -3    6.89    3.95
   3  10  -3    6.02    2.43
   3  10  -2    3.52    3.73
   3  10  -2    3.35    2.30
   3  10  -1   16.65    4.30
   3  10  -1   22.40    3.24
   3  10   0   31.12    4.80
   3  10   0   24.76    4.48
   3  10   0   43.27    4.33
   3  10   1   74.71    6.29
   3  10   1   63.05    5.68
   3  10   1   45.36    6.71
   3  10   1   46.80    6.14
   3  10   2   16.49    3.60
   3  10   2   19.06    2.26
   3  10   2   16.63    2.48
   3  10   3   11.61    3.23
   3  10   3   14.69    2.11
   3  10   4   25.41    4.41
   3  10   4   34.69    3.57
   3  10   4   31.89    3.43
   3  10   5   11.48    2.87
   3  10   5   12.68    1.92
   3  10   5   10.90    1.84
   3  10   6    4.40    2.60
   3  10   6    2.75    1.43
   3  10   6    3.44    1.25
   3  10   7   11.45    3.11
   3  10   7   16.43    2.63
   3  10   8    3.46    1.95
   3  11  -2   44.19    5.53
   3  11  -1    2.52    2.62
   3  11   0    1.70    2.47
   3  11   0    1.28    2.27
   3  11   1  103.32    8.91
   3  11   1   67.24    9.07
   3  11   2    8.87    3.10
   3  11   2   11.49    2.22
   3  11   3    5.30    2.73
   3  11   3    5.08    1.65
   3  11   4  110.95    9.96
   3  11   4   85.78   10.72
   3  11   5   60.66    7.27
   3  11   6    1.10    2.82
   3  12   0    0.39    2.89
   3  12   1   17.66    3.34
   3  12   2   21.41    3.33
  -4   9   2  125.09   12.07
  -4   9   1    2.00    1.80
  -4   9   0    0.92    4.14
  -4   9   0   -0.63    1.66
  -4   9  -1   75.13    9.10
  -4   9  -1   73.00    7.47
  -4   9  -2    0.77    1.71
  -4   9  -3  100.06    9.86
   4  -8  -5    9.09    3.14
   4  -8  -4    8.45    3.10
  -4   8   3    6.39    2.85
   4  -8  -3    4.97    2.95
  -4   8   3   10.69    2.04
  -4   8   2   45.30    6.86
   4  -8  -2   72.11    7.22
  -4   8   2   70.55    6.54
   4  -8  -2   63.59    7.38
  -4   8   1    6.36    3.89
   4  -8  -1    9.95    3.27
   4  -8  -1   15.92    3.56
  -4   8   1   10.14    2.04
   4  -8   0   72.05    7.81
  -4   8   0   72.65    7.15
  -4   8   0   75.94    8.67
   4  -8   0   63.55    7.94
  -4   8   0   74.05    8.38
  -4   8  -1   45.79    5.22
  -4   8  -1   49.44    7.03
   4  -8   1   58.33    6.42
   4  -8   1   54.63    6.25
  -4   8  -2   -0.31    4.16
  -4   8  -2    3.57    1.66
  -4   8  -3   18.24    2.74
  -4   8  -4   19.45    2.76
  -4   8  -5    3.99    1.70
  -4   8  -6    1.46    1.60
   4  -7  -6    1.18    2.37
  -4   7   5   10.91    2.44
   4  -7  -5   17.54    3.30
  -4   7   4   12.95    2.70
   4  -7  -4    7.44    2.88
   4  -7  -4   10.14    2.07
  -4   7   4   12.37    2.02
   4  -7  -3    7.34    3.11
  -4   7   3    8.36    2.89
   4  -7  -3   10.35    1.90
  -4   7   3    9.15    1.91
  -4   7   2    1.04    2.61
   4  -7  -2    0.49    2.80
  -4   7   2   -0.11    1.24
   4  -7  -2   -0.63    3.75
  -4   7   1  146.92   14.02
   4  -7  -1  148.48   14.69
   4  -7  -1  186.85   15.23
  -4   7   1  128.63   14.65
   4  -7   0   23.80    4.19
  -4   7   0   27.41    4.63
   4  -7   0   24.30    4.20
  -4   7   0   25.70    2.98
  -4   7   0   20.62    4.46
   4  -7   1    5.74    3.00
   4  -7   1   -0.75    2.32
  -4   7  -1    0.96    1.28
  -4   7  -1    0.52    3.62
  -4   7  -2   18.13    4.45
  -4   7  -2    8.86    1.83
   4  -7   2    9.30    3.38
   4  -7   3    0.97    2.57
  -4   7  -3    3.95    3.80
  -4   7  -3    1.46    1.37
   4  -7   3    1.38    3.18
  -4   7  -4   34.82    5.33
   4  -7   4   33.99    4.64
  -4   7  -4   26.54    3.37
  -4   7  -5   15.03    4.29
   4  -7   5    6.92    2.93
  -4   7  -5    7.39    1.86
   4  -7   6   22.17    3.94
  -4   7  -6   14.73    2.34
  -4   7  -7    9.88    1.96
  -4   7  -8    8.93    1.89
  -4   6   7    7.30    2.01
   4  -6  -7    9.34    2.53
   4  -6  -6    7.52    2.62
  -4   6   5    5.58    2.04
   4  -6  -5    6.13    2.73
  -4   6   5    4.14    1.58
  -4   6   4   28.22    3.93
   4  -6  -4   33.76    3.56
   4  -6  -4   32.62    4.58
  -4   6   4   27.34    3.37
  -4   6   3   77.51    7.86
   4  -6  -3   69.50    7.35
  -4   6   3   83.24    7.43
   4  -6  -3   67.38    8.39
  -4   6   2   28.09    4.11
   4  -6  -2   27.35    3.17
   4  -6  -2   29.69    4.78
  -4   6   2   29.26    3.27
  -4   6   1    0.55    3.18
   4  -6  -1   -1.05    2.97
  -4   6   1    0.57    1.22
   4  -6   0   54.55    7.46
  -4   6   0   61.62    6.20
   4  -6   0   89.08    7.90
  -4   6   0   56.93    7.29
   4  -6   1    4.16    2.81
  -4   6  -1    2.75    1.29
   4  -6   1    3.22    3.17
   4  -6   2   27.48    4.19
  -4   6  -2   21.50    2.81
  -4   6  -2   33.62    4.79
   4  -6   3    0.97    2.69
  -4   6  -3    1.17    3.16
  -4   6  -3   -0.09    1.21
   4  -6   3    0.56    2.89
  -4   6  -4    6.62    3.34
   4  -6   4    3.47    2.76
  -4   6  -4    4.12    1.41
   4  -6   4    4.36    3.29
   4  -6   5   10.39    3.29
  -4   6  -5   16.27    2.15
  -4   6  -5   16.36    3.90
  -4   6  -6   66.39    7.20
   4  -6   6   82.79    8.22
  -4   6  -6   90.93    8.44
  -4   6  -7   72.38    7.26
   4  -6   7   77.47    8.13
   4  -6   8    4.25    2.76
   4  -6   9   21.81    4.25
  -4   5   8   23.51    3.13
  -4   5   7    5.81    1.78
   4  -5  -7   11.44    2.73
  -4   5   6   12.39    2.81
   4  -5  -6   19.86    3.53
  -4   5   6   17.03    2.36
  -4   5   5  120.61   12.89
   4  -5  -5  142.68   12.99
  -4   5   5  165.15   13.04
   4  -5  -5  115.37   13.54
  -4   5   4  118.22   13.52
   4  -5  -4  149.35   13.46
  -4   5   4  150.81   13.39
   4  -5  -4  161.91   14.37
  -4   5   3   12.25    3.04
   4  -5  -3   14.78    3.30
   4  -5  -3   16.63    2.22
  -4   5   3   15.21    2.13
  -4   5   2    1.11    2.38
   4  -5  -2    1.12    2.47
   4  -5  -2    2.21    1.30
  -4   5   2    0.83    1.26
  -4   5   1    0.69    3.09
   4  -5  -1    0.23    2.59
   4  -5  -1   -0.51    1.09
  -4   5   1   -0.73    1.24
   4  -5   0    8.49    2.85
  -4   5   0    4.28    3.28
  -4   5   0    4.89    1.28
   4  -5   1   12.19    3.15
  -4   5  -1   13.36    1.83
   4  -5   1   13.59    4.18
  -4   5  -2    2.85    1.18
   4  -5   2    0.97    2.95
   4  -5   3  106.16   11.89
  -4   5  -3  121.67   11.15
   4  -5   3  124.82   12.20
   4  -5   4   14.20    3.61
  -4   5  -4   15.96    2.07
   4  -5   4   16.01    3.77
  -4   5  -5    0.79    2.78
   4  -5   5    1.78    2.74
  -4   5  -5   -0.47    1.03
   4  -5   5   -2.77    2.98
   4  -5   6   -0.21    2.45
  -4   5  -6   -0.08    1.11
  -4   5  -6   -1.70    2.81
   4  -5   7    4.12    2.61
  -4   5  -7    6.65    3.04
   4  -5   8   25.08    3.76
   4  -5   9    6.84    2.65
   4  -5   9    7.94    3.63
   4  -4  -9  437.29   44.90
  -4   4   9  520.20   44.54
  -4   4   8  307.13   29.97
   4  -4  -8  376.79   30.95
   4  -4  -7    0.40    3.57
  -4   4   7   -0.63    1.37
   4  -4  -7   -0.17    2.18
  -4   4   7   -0.20    1.42
   4  -4  -6   14.78    4.32
  -4   4   6   16.56    2.97
   4  -4  -6   17.05    3.36
   4  -4  -6   17.60    2.48
  -4   4   6   19.82    2.47
  -4   4   5  122.11    9.84
   4  -4  -5  102.28    9.62
  -4   4   5   99.96    9.58
   4  -4  -5   71.82   10.06
  -4   4   4  261.37   22.38
   4  -4  -4  271.57   22.21
  -4   4   4  218.89   22.10
   4  -4  -4  204.95   22.69
  -4   4   3   30.47    3.82
   4  -4  -3   30.02    3.12
   4  -4  -3   22.73    4.04
  -4   4   3   24.20    2.93
  -4   4   2    0.40    2.32
   4  -4  -2   -2.14    2.71
   4  -4  -2    0.61    1.12
  -4   4   2    1.33    1.13
   4  -4  -1   11.67    3.14
   4  -4  -1   10.39    1.59
  -4   4   1   10.62    1.60
  -4   4   1    4.06    3.06
   4  -4   0   70.91    6.25
  -4   4   0   59.68    6.24
  -4   4   0   51.48    7.10
   4  -4   0   81.62    7.60
  -4   4  -1   42.07    4.18
  -4   4  -1   41.13    5.28
  -4   4  -2   60.83    7.18
  -4   4  -2   62.47    6.14
   4  -4   2   73.31    7.78
   4  -4   2   66.59    7.37
   4  -4   3    5.33    2.79
  -4   4  -3    9.35    1.45
   4  -4   3   10.06    3.34
  -4   4  -4   20.86    2.50
   4  -4   4   21.69    3.81
   4  -4   4   30.00    3.99
   4  -4   5    1.75    2.77
  -4   4  -5    4.36    1.12
   4  -4   5    4.84    3.07
   4  -4   6   13.82    3.17
   4  -4   6   12.45    3.51
   4  -4   7  202.10   19.76
   4  -4   7  208.11   19.60
   4  -4   8   11.44    2.50
  -4   4  -8    6.19    2.64
   4  -4   8    4.81    3.19
   4  -4   9    3.15    2.24
   4  -4   9    3.96    3.30
   4  -4  10   33.28    5.55
  -4   3  10   79.64    8.17
   4  -3 -10   85.60    9.13
   4  -3  -9  287.60   24.32
  -4   3   9  238.52   23.52
   4  -3  -8   34.63    5.84
  -4   3   8   42.73    4.64
   4  -3  -8   44.57    5.03
   4  -3  -7   16.20    4.23
  -4   3   7   13.06    2.07
   4  -3  -7   10.82    2.87
   4  -3  -7   12.02    2.16
  -4   3   7   14.87    2.27
  -4   3   6   17.70    2.40
   4  -3  -6   19.07    4.34
   4  -3  -6   12.78    3.53
   4  -3  -6   22.26    2.58
  -4   3   6   18.69    2.50
  -4   3   5   27.54    3.46
   4  -3  -5   30.20    4.73
   4  -3  -5   28.28    3.17
   4  -3  -5   21.88    4.45
  -4   3   5   26.73    3.08
   4  -3  -4   32.10    4.75
  -4   3   4   26.01    3.38
   4  -3  -4   24.48    2.86
  -4   3   4   24.72    2.85
   4  -3  -4   22.73    4.56
  -4   3   3   78.87    7.10
   4  -3  -3   66.86    6.46
  -4   3   3   60.97    6.42
   4  -3  -3   68.74    8.06
   4  -3  -2   67.79    7.37
   4  -3  -2   64.55    5.82
  -4   3   2   53.90    5.71
  -4   3   2   58.57    6.41
   4  -3  -1   51.79    5.24
   4  -3  -1   57.18    7.08
  -4   3   1   59.31    6.16
   4  -3   0  226.86   20.79
  -4   3   0  235.30   21.50
   4  -3   0  223.48   22.03
  -4   3  -1    8.98    2.63
  -4   3  -2  152.00   15.19
   4  -3   2  166.65   15.73
  -4   3  -3   18.58    3.29
   4  -3   3   17.34    3.41
   4  -3   3   12.88    3.91
  -4   3  -4    1.39    2.39
   4  -3   4    0.19    2.48
   4  -3   4    6.30    3.05
   4  -3   5   13.59    3.23
   4  -3   5    7.24    2.82
  -4   3  -5    8.26    2.69
   4  -3   6   39.20    4.79
   4  -3   6   27.85    4.70
  -4   3  -6   35.79    4.46
   4  -3   7   13.80    3.19
   4  -3   8   29.82    4.02
   4  -3   9   20.33    3.18
   4  -3  10    3.93    2.04
   4  -3  10   -0.56    3.32
  -4   2  10  116.42   11.85
   4  -2 -10  137.20   12.71
   4  -2  -9   50.25    5.73
  -4   2   9   38.02    4.57
   4  -2  -8   -2.02    3.04
  -4   2   8    1.16    1.66
   4  -2  -8    0.18    2.64
   4  -2  -8   -1.06    1.51
  -4   2   8    2.25    1.61
   4  -2  -7   34.43    3.87
   4  -2  -7   38.01    5.29
  -4   2   7   36.36    3.93
  -4   2   7   33.04    3.81
   4  -2  -7   33.84    5.03
   4  -2  -6   25.01    4.33
   4  -2  -6   27.74    3.11
  -4   2   6   25.71    3.04
   4  -2  -6   38.58    4.98
  -4   2   6   24.60    3.03
   4  -2  -5    8.54    3.63
  -4   2   5    5.60    2.21
   4  -2  -5   13.74    3.80
   4  -2  -5    7.75    1.62
  -4   2   5    5.99    1.53
  -4   2   4    2.18    1.85
   4  -2  -4    3.35    1.29
   4  -2  -4    4.71    3.30
  -4   2   4    1.04    1.17
   4  -2  -3   36.44    4.96
  -4   2   3   27.24    3.93
   4  -2  -3   35.36    3.44
  -4   2   3   30.86    3.35
  -4   2   2   69.31    6.62
   4  -2  -2   59.70    5.95
  -4   2   1    1.36    2.15
   4  -2  -1    0.45    0.91
  -4   2   1    0.21    0.63
   4  -2   0   90.80    8.20
  -4   2   0   80.49    8.19
  -4   2   0   89.52    9.08
   4  -2   0  128.35   10.10
   4  -2   1  131.44   12.44
  -4   2  -1  135.03   12.47
  -4   2  -1  155.83   13.12
  -4   2  -1  137.40   13.37
  -4   2  -2   31.74    3.33
  -4   2  -2   38.88    4.35
   4  -2   2   50.92    5.57
  -4   2  -3   79.66    8.44
  -4   2  -3   85.74    7.80
   4  -2   3   79.39    9.24
  -4   2  -4   20.82    3.21
  -4   2  -4   21.17    2.22
   4  -2   4   23.59    4.13
   4  -2   5  142.38   14.27
  -4   2  -5  138.20   14.00
   4  -2   5  168.20   14.61
   4  -2   6    1.49    2.45
   4  -2   6    2.10    2.87
  -4   2  -6    1.57    1.97
   4  -2   7    1.79    2.23
   4  -2   7    0.21    2.82
   4  -2   7    0.37    2.85
  -4   2  -7    1.70    1.97
   4  -2   8    9.21    2.54
   4  -2   8    4.54    3.06
  -4   2  -8    8.47    2.20
   4  -2   9   19.29    2.75
  -4   2  -9    9.53    2.50
   4  -2  10    5.87    1.89
  -4   2 -11    3.74    1.42
  -4   1  11    7.27    2.41
   4  -1 -10   13.76    4.00
  -4   1  10   14.83    2.80
   4  -1  -9   15.79    3.70
  -4   1   9    4.17    1.89
   4  -1  -8    4.84    3.13
  -4   1   8    5.05    1.56
   4  -1  -8   14.23    3.40
   4  -1  -8    5.59    1.64
   4  -1  -7    8.38    3.11
  -4   1   7    7.69    1.85
   4  -1  -7    5.03    1.61
  -4   1   7    7.57    1.74
   4  -1  -6   68.42    6.72
  -4   1   6   64.64    6.71
  -4   1   6   68.77    6.70
   4  -1  -6   81.33    7.66
   4  -1  -5    0.65    2.68
  -4   1   5    6.42    1.36
  -4   1   5    3.45    2.18
   4  -1  -5    3.97    1.26
  -4   1   5    3.77    1.41
  -4   1   4   55.37    5.67
   4  -1  -4   50.62    5.34
  -4   1   4   58.74    5.39
   4  -1  -4   52.74    6.51
   4  -1  -3  370.17   37.32
  -4   1   3  476.00   37.75
   4  -1  -3  462.99   38.21
   4  -1  -2    2.24    2.88
  -4   1   2    0.63    1.97
   4  -1  -2    0.75    0.94
  -4   1   2    1.80    0.76
   4  -1  -1  832.56   72.37
  -4   1   1  774.24   72.36
  -4   1   1  804.05   72.82
   4  -1   0  923.62   84.35
  -4   1   0  955.64   84.35
  -4   1   0  913.53   85.00
   4  -1   1    0.40    0.55
  -4   1  -1   -1.69    1.89
  -4   1  -1    1.51    0.64
  -4   1  -2   66.88    7.81
  -4   1  -2   82.09    7.28
  -4   1  -3   29.43    3.52
  -4   1  -3   27.18    2.69
   4  -1   4  377.49   32.26
  -4   1  -4  346.52   31.57
  -4   1  -4  311.24   31.99
   4  -1   4  427.93   32.98
   4  -1   5  763.11   76.89
   4  -1   5  812.77   77.00
  -4   1  -5  876.11   76.78
   4  -1   5 1000.08   77.59
   4  -1   6    5.08    2.76
   4  -1   6    5.08    2.90
   4  -1   6    2.66    2.62
  -4   1  -6    5.33    1.97
   4  -1   7    5.59    2.80
   4  -1   7    5.34    2.53
  -4   1  -7    7.63    1.96
   4  -1   7    8.62    3.14
   4  -1   8   32.02    4.56
   4  -1   8   26.69    3.95
  -4   1  -8   33.43    3.74
   4  -1   9   17.83    3.73
   4  -1   9   17.39    3.00
  -4   1  -9   20.79    2.81
   4  -1  10    4.42    1.77
   4  -1  10    6.93    3.35
  -4   1 -10    4.00    1.91
  -4   1 -10    3.68    1.21
   4  -1  11   23.60    4.64
  -4   1 -11   22.28    2.68
  -4   0  11    9.22    2.60
  -4   0  10   59.88    6.34
   4   0  -9   32.04    4.56
  -4   0   9   30.88    3.50
   4   0  -9   18.57    2.92
   4   0  -8    2.60    3.02
  -4   0   8    1.47    1.43
   4   0  -8    4.46    1.48
   4   0  -7   47.36    5.20
   4   0  -7   36.97    3.94
  -4   0   7   34.96    3.99
   4   0  -6  572.28   58.59
   4   0  -6  623.20   59.15
   4   0  -5   38.93    4.53
  -4   0   5   42.33    5.09
  -4   0   5   52.39    4.72
   4   0  -5   65.32    5.81
   4   0  -4    2.11    2.39
  -4   0   4    1.11    1.66
   4   0  -4    1.39    0.93
  -4   0   4   -0.63    1.07
  -4   0   3   78.05    7.35
   4   0  -3   71.69    6.95
   4   0  -3   74.25    7.86
   4   0  -2  149.54   14.05
  -4   0   2  142.85   14.01
  -4   0   2  187.52   14.64
   4   0  -2  171.76   14.97
   4   0  -1 2973.68  266.21
  -4   0   1 2923.72  266.18
   4   0  -1 3084.77  266.92
   4   0   0 2632.54  243.94
  -4   0   0 2798.81  243.95
  -4   0  -1    0.86    1.59
   4   0   1    1.85    0.55
  -4   0  -1    2.20    0.56
  -4   0  -2  261.47   26.55
  -4   0  -2  297.95   26.17
   4   0   3  357.18   33.29
  -4   0  -3  360.90   32.81
  -4   0  -3  386.30   33.30
  -4   0  -4  111.49   10.05
   4   0   4   98.23   10.71
  -4   0  -4  115.44   10.59
   4   0   5   69.98    8.54
   4   0   5   88.05    8.93
  -4   0  -5   96.07    8.35
   4   0   6   62.27    6.64
   4   0   6   56.59    6.60
  -4   0  -6   55.46    6.03
   4   0   6   77.88    7.30
   4   0   7    9.30    2.85
   4   0   7   14.44    3.62
  -4   0  -7   12.77    2.22
   4   0   7   15.20    3.24
   4   0   8   -2.00    2.43
   4   0   8   -0.14    2.04
  -4   0  -8    1.55    1.57
  -4   0  -8    0.73    0.84
   4   0   9   72.66    8.02
  -4   0  -9   73.36    6.96
  -4   0  -9   72.66    7.35
   4   0   9   75.55    7.44
   4   0  10   10.84    3.38
   4   0  10    8.50    2.03
  -4   0 -10    9.97    2.25
  -4   0 -10   12.73    1.70
  -4   0 -11   66.18    6.42
   4   0  11   67.52    7.81
  -4  -1  11    4.46    2.46
  -4  -1  10   19.88    3.12
   4   1  -9   99.17    9.34
   4   1  -9   73.39    8.31
  -4  -1   9   93.98    8.49
   4   1  -8   17.06    3.56
  -4  -1   8   17.19    2.42
   4   1  -8   12.94    2.23
   4   1  -7   29.46    5.09
   4   1  -7   41.18    4.26
  -4  -1   7   44.30    4.29
   4   1  -6    5.41    2.85
  -4  -1   6    3.59    1.23
   4   1  -6    2.22    1.22
   4   1  -5  179.66   19.39
   4   1  -5  217.36   18.89
  -4  -1   4   96.87    8.85
   4   1  -4   84.40    8.35
  -4  -1   4   86.61    8.27
   4   1  -4  103.46    9.21
   4   1  -3    1.43    2.28
   4   1  -3    0.66    0.84
   4   1  -2    0.33    0.73
  -4  -1   2    0.64    0.67
   4   1  -1  370.12   33.76
  -4  -1   1  377.64   33.77
  -4  -1   0   28.34    3.61
   4   1   0   37.16    3.34
  -4  -1   0   34.95    3.31
  -4  -1  -1   39.94    4.33
  -4  -1  -1   32.21    4.71
   4   1   1   41.83    3.88
  -4  -1  -1   43.14    3.88
  -4  -1  -2    2.32    1.53
  -4  -1  -2    3.06    2.42
  -4  -1  -2    4.64    0.56
   4   1   3   30.15    3.88
  -4  -1  -3   32.57    3.06
  -4  -1  -3   45.81    3.82
   4   1   4   52.21    5.91
  -4  -1  -4   56.23    5.16
  -4  -1  -4   63.68    5.69
   4   1   5  141.80   11.55
   4   1   5  102.55   11.70
  -4  -1  -5  116.11   10.72
  -4  -1  -5  125.14   11.15
   4   1   6   34.13    3.99
  -4  -1  -6   29.50    2.88
   4   1   6   31.10    4.28
  -4  -1  -6   30.32    3.41
   4   1   7    4.99    2.30
  -4  -1  -7    3.97    1.66
  -4  -1  -7    3.92    0.82
   4   1   7    4.04    2.47
   4   1   8    3.12    2.80
  -4  -1  -8    7.74    1.77
   4   1   8    5.91    2.69
  -4  -1  -8    2.88    0.88
  -4  -1  -9  154.43   13.55
  -4  -1  -9  135.57   13.87
   4   1   9  146.09   13.99
   4   1   9  145.40   14.45
   4   1  10   14.92    3.69
   4   1  10   17.64    2.53
  -4  -1 -10   19.53    2.72
  -4  -1 -10   20.04    2.22
   4   1  11   11.96    3.50
  -4  -2  10   33.67    4.20
   4   2  -9   64.25    7.44
  -4  -2   9   62.22    6.67
   4   2  -9   69.43    7.18
   4   2  -8  118.85   10.87
   4   2  -8  101.09    9.93
  -4  -2   8  110.17   10.05
   4   2  -8   88.97   10.62
   4   2  -7   22.80    4.20
   4   2  -7   27.17    3.20
  -4  -2   7   32.37    3.33
   4   2  -6    1.99    2.69
   4   2  -6    6.54    1.41
   4   2  -5    0.78    2.45
  -4  -2   5   -0.27    0.95
   4   2  -5    0.42    0.96
  -4  -2   4    3.43    0.85
   4   2  -4    2.25    1.01
  -4  -2   3   -0.28    0.63
   4   2  -3    0.48    0.78
   4   2  -2  447.33   43.55
  -4  -2   2  510.44   43.51
   4   2  -1   26.20    3.84
   4   2  -1   23.68    2.39
  -4  -2   0  690.28   65.92
   4   2   0  785.95   65.81
  -4  -2   0  624.92   66.27
   4   2   0  701.56   66.50
   4   2   1   30.89    2.88
  -4  -2  -1   28.22    3.14
  -4  -2  -1   37.26    3.97
  -4  -2  -2    0.59    2.08
  -4  -2  -2    1.01    0.99
   4   2   2   -0.13    1.16
  -4  -2  -3   24.01    3.40
   4   2   3   22.41    2.71
  -4  -2  -3   16.37    2.16
   4   2   4   14.83    2.32
  -4  -2  -4   12.93    1.79
   4   2   5   12.47    2.52
  -4  -2  -5   17.12    2.04
   4   2   5   16.60    3.60
   4   2   6   27.86    3.46
  -4  -2  -6   23.56    2.24
  -4  -2  -6   23.21    2.80
   4   2   6   20.70    3.67
  -4  -2  -7   36.00    3.42
  -4  -2  -7   36.41    3.91
   4   2   7   33.85    4.63
   4   2   7   36.17    4.46
  -4  -2  -8  229.32   20.29
  -4  -2  -8  236.95   20.62
   4   2   8  183.57   20.84
  -4  -2  -9    1.41    1.40
   4   2   9    2.48    2.50
  -4  -2  -9    0.95    0.84
   4   2   9    2.21    2.40
  -4  -2 -10   60.86    5.78
  -4  -2 -10   68.78    6.19
   4   2  10   55.61    5.96
   4   2  10   55.08    6.78
   4   2  11   13.83    3.58
   4   2  12   71.72    8.20
  -4  -3  10    6.72    2.40
   4   3  -9   51.51    5.72
  -4  -3   9   44.37    5.22
   4   3  -8   30.88    4.69
   4   3  -8   47.01    5.33
   4   3  -8   36.46    3.99
  -4  -3   8   34.45    4.14
   4   3  -7   88.62    8.62
   4   3  -7   99.05    9.53
   4   3  -7   82.76    9.46
  -4  -3   7   90.16    8.65
   4   3  -6   28.33    3.09
   4   3  -6   26.12    4.19
   4   3  -5  143.68   13.44
  -4  -3   5  146.94   13.41
   4   3  -4    4.05    2.53
  -4  -3   4    6.14    1.02
   4   3  -4    4.41    1.26
   4   3  -3   75.20    4.12
   4   3  -3   81.21    2.30
  -4  -3   3   86.21    1.88
   4   3  -2   28.64    4.02
   4   3  -2   25.31    2.85
  -4  -3   2   30.35    2.71
  -4  -3   1   48.44    4.48
   4   3  -1   47.95    4.54
   4   3  -1   48.46    5.43
   4   3   0    0.15    2.64
  -4  -3   0    0.55    1.64
   4   3   0    0.66    0.50
  -4  -3   0    1.01    0.38
  -4  -3  -1   97.63    9.99
   4   3   1  101.75    9.30
  -4  -3  -1  105.95    9.35
   4   3   1   92.40   10.25
   4   3   2  276.07   30.57
  -4  -3  -2  382.56   30.46
  -4  -3  -2  312.87   30.95
   4   3   3  357.59   29.41
  -4  -3  -3  333.14   29.18
   4   3   4    0.26    1.43
  -4  -3  -4   -0.40    0.88
  -4  -3  -4   -0.15    2.26
  -4  -3  -5  100.41    8.40
   4   3   5   72.70    8.58
  -4  -3  -6   54.75    5.10
   4   3   6   63.41    6.23
  -4  -3  -6   65.23    5.53
   4   3   6   57.60    5.87
   4   3   7 1183.29  112.55
  -4  -3  -7 1260.97  111.97
  -4  -3  -7 1188.03  112.22
   4   3   7 1332.66  112.57
  -4  -3  -8  778.33   70.85
  -4  -3  -8  823.69   71.15
   4   3   8  764.11   71.43
  -4  -3  -9    2.03    1.59
  -4  -3  -9    0.76    0.82
   4   3   9    1.72    2.25
   4   3  10    0.12    1.93
  -4  -3 -10    0.69    1.67
   4   3  10    1.05    1.88
  -4  -3 -10    1.03    0.95
   4   3  10    1.40    2.55
   4   3  11  143.16   14.13
   4   3  12    0.66    2.92
   4   4  -9   22.51    3.93
  -4  -4   9   32.13    3.90
   4   4  -8   15.69    3.28
   4   4  -8   13.06    2.25
  -4  -4   8   15.58    2.68
   4   4  -7    0.22    2.41
   4   4  -7    0.83    1.40
   4   4  -6   10.27    3.11
   4   4  -6   14.60    3.34
   4   4  -6   10.58    1.90
  -4  -4   6   16.29    2.06
   4   4  -5  112.70   12.46
   4   4  -5  128.91   11.84
   4   4  -5  127.78   12.85
  -4  -4   5  130.55   11.82
   4   4  -4   27.48    4.56
   4   4  -4   30.93    3.57
  -4  -4   4   41.06    3.56
   4   4  -4   33.75    4.70
   4   4  -3   10.79    2.84
   4   4  -3    8.42    1.24
  -4  -4   3    5.57    0.94
  -4  -4   2   70.87    7.52
   4   4  -2   81.22    7.08
   4   4  -2   62.57    7.76
   4   4  -1  312.05   27.81
   4   4  -1  297.56   27.14
   4   4   0    7.76    2.92
  -4  -4   0    8.36    1.47
   4   4   0    8.62    1.08
  -4  -4  -1   88.51   11.71
   4   4   1  133.04   11.33
   4   4   1  125.46   12.26
  -4  -4  -2  311.62   26.92
   4   4   2  285.74   26.28
   4   4   2  287.29   26.27
   4   4   2  309.87   26.50
  -4  -4  -2  300.82   26.33
  -4  -4  -3  480.47   39.08
   4   4   3  368.29   39.18
  -4  -4  -3  416.22   39.51
   4   4   4  156.61   16.09
  -4  -4  -4  132.26   16.46
  -4  -4  -5  114.76   11.60
  -4  -4  -5  144.83   11.02
   4   4   5   90.64   11.04
   4   4   6  149.63   17.40
  -4  -4  -6  206.81   17.13
   4   4   6  188.10   17.33
   4   4   7  130.53   11.12
  -4  -4  -7  106.99   10.23
  -4  -4  -7  127.10   10.64
   4   4   7  121.38   10.94
  -4  -4  -8  106.02   10.32
  -4  -4  -8  116.97   10.69
   4   4   8  163.20   11.78
   4   4   8  119.93   11.06
   4   4   9   14.27    3.05
  -4  -4  -9   14.49    2.24
  -4  -4  -9   15.79    1.74
   4   4   9   17.87    3.02
  -4  -4 -10  134.41   12.12
   4   4  10  116.45   12.59
   4   4  11    6.47    3.11
   4   5  -9   -0.45    2.37
  -4  -5   8   23.27    3.55
   4   5  -8   26.21    4.00
   4   5  -7   11.29    2.95
   4   5  -7    9.61    3.54
   4   5  -7   11.29    1.97
   4   5  -6  133.56   13.27
   4   5  -6  137.46   12.56
   4   5  -6  116.41   13.39
  -4  -5   6  139.23   12.68
   4   5  -5   12.95    3.56
   4   5  -5   13.38    3.58
   4   5  -5   23.45    2.57
  -4  -5   5   24.28    2.62
   4   5  -4    2.43    2.59
   4   5  -4    0.80    2.86
   4   5  -4    4.91    1.23
   4   5  -3    7.05    2.85
   4   5  -3    6.05    2.92
   4   5  -2    2.37    2.59
   4   5  -2    2.26    2.19
   4   5  -1    1.36    2.40
   4   5  -1   -0.89    1.04
   4   5   0   -1.17    2.69
  -4  -5  -1   39.54    4.36
   4   5   1   50.76    5.34
  -4  -5  -2  262.64   27.08
   4   5   2  304.52   26.73
   4   5   2  297.47   26.81
  -4  -5  -3   16.31    2.65
   4   5   3   15.05    1.51
   4   5   3   15.66    1.91
  -4  -5  -4    1.27    2.02
   4   5   4    0.12    0.24
   4   5   4    0.32    1.23
  -4  -5  -5  130.04   11.56
   4   5   5  122.01   11.72
  -4  -5  -5  118.99   12.09
  -4  -5  -6   30.12    4.45
   4   5   6   36.44    4.26
  -4  -5  -6   38.88    3.58
   4   5   6   30.14    3.76
   4   5   6   35.95    4.99
   4   5   7   -1.30    2.65
  -4  -5  -7    0.60    1.16
   4   5   7    0.33    2.10
   4   5   7    2.53    1.72
   4   5   8   15.37    3.54
  -4  -5  -8   16.28    2.09
  -4  -5  -8   15.18    1.64
   4   5   8   18.75    2.69
  -4  -5  -9   57.55    5.56
  -4  -5  -9   57.32    5.90
   4   5   9   74.39    6.63
   4   5   9   59.56    6.27
  -4  -5 -10    0.10    1.45
   4   5  10    2.18    2.35
   4   5  11    6.18    2.98
   4   6  -8   -1.23    2.61
   4   6  -7   41.49    4.96
   4   6  -7   39.79    5.44
   4   6  -7   29.06    3.75
   4   6  -6    0.94    2.39
   4   6  -6    1.54    3.13
   4   6  -6    1.36    1.28
   4   6  -5   14.96    3.17
   4   6  -5   10.78    3.21
  -4  -6   5    9.57    1.49
   4   6  -5    7.96    1.71
   4   6  -4    7.06    2.71
   4   6  -4    6.80    3.03
   4   6  -3    6.57    2.68
   4   6  -3    6.99    2.99
   4   6  -2    2.05    2.43
   4   6  -2    4.87    2.88
   4   6  -1   -0.51    1.48
   4   6  -1    0.89    2.71
   4   6   0    7.05    2.94
  -4  -6  -1   89.76    9.54
   4   6   1  109.52   10.77
   4   6   1  126.68   10.40
   4   6   2   34.27    5.01
  -4  -6  -2   37.45    3.82
   4   6   2   38.11    3.49
   4   6   2   34.00    3.45
   4   6   3   16.38    3.59
  -4  -6  -3   19.79    2.47
   4   6   3   21.33    1.97
   4   6   3   16.11    2.10
   4   6   4    6.25    2.80
  -4  -6  -4    4.59    1.82
   4   6   4    7.04    0.89
   4   6   4    7.35    1.33
   4   6   5   -0.50    2.52
  -4  -6  -5    2.66    1.85
   4   6   5   -0.57    1.19
   4   6   5    0.87    0.46
   4   6   5    1.53    2.66
   4   6   6   49.65    5.06
   4   6   6   44.92    4.34
   4   6   6   52.04    6.29
   4   6   6   50.49    4.87
  -4  -6  -6   48.80    5.06
   4   6   7   74.26    8.05
   4   6   7   73.81    7.13
  -4  -6  -7   67.55    7.36
   4   6   8   21.97    3.37
  -4  -6  -8   13.50    3.03
   4   6   8   14.29    2.66
   4   6   9   -1.76    2.30
   4   6   9    1.11    2.02
   4   6  10    1.37    2.37
   4   6  11   11.11    2.98
   4   7  -8   16.01    3.48
   4   7  -7    4.68    2.71
   4   7  -6   22.84    4.39
   4   7  -6   22.71    3.93
   4   7  -5    5.28    2.67
   4   7  -5    5.72    3.27
   4   7  -4    2.72    2.28
   4   7  -4   -2.05    3.26
   4   7  -3    0.25    2.47
   4   7  -3    3.63    3.16
   4   7  -2  125.79   12.53
   4   7  -2  124.95   12.74
   4   7  -1  127.23   15.24
   4   7  -1  185.14   15.30
   4   7   0  184.43   17.56
   4   7   1  107.85    9.44
   4   7   1   83.09   10.46
   4   7   1   92.76   10.27
   4   7   2   19.49    3.86
   4   7   2   23.53    2.23
   4   7   2   18.16    1.99
   4   7   3    0.50    2.47
  -4  -7  -3    0.62    1.26
   4   7   3    0.69    0.72
   4   7   3   -0.87    0.87
   4   7   4    0.25    2.58
  -4  -7  -4    2.27    1.24
   4   7   4    3.14    0.76
   4   7   4    2.18    1.14
  -4  -7  -5   51.03    4.93
   4   7   5   44.64    5.41
   4   7   5   51.59    4.80
   4   7   5   60.87    6.39
   4   7   5   51.36    5.09
  -4  -7  -6    1.57    1.32
   4   7   6    3.37    1.45
   4   7   6    6.52    2.91
   4   7   6    2.88    1.67
   4   7   6    2.54    0.76
   4   7   7    2.94    2.69
  -4  -7  -7    1.97    1.44
   4   7   7    2.26    1.61
   4   7   7    1.26    0.72
   4   7   8   12.98    3.19
   4   7   8   13.76    1.53
   4   7   8   10.42    2.27
   4   7   9   16.54    2.92
   4   7   9   11.26    2.61
   4   7  10   14.41    3.05
   4   8  -8    2.97    2.87
   4   8  -7    3.35    2.74
   4   8  -6    7.84    2.93
   4   8  -5    0.81    2.66
   4   8  -5    6.67    3.91
   4   8  -4  255.67   21.54
   4   8  -4  193.28   21.38
   4   8  -3   48.78    6.64
   4   8  -3   57.56    6.53
   4   8  -2   32.30    4.73
   4   8  -2   39.06    5.30
   4   8  -1    5.74    3.07
   4   8   0    0.98    3.01
   4   8   1   52.07    7.05
   4   8   1   48.45    6.88
   4   8   1   68.40    6.02
   4   8   2   65.48    6.32
   4   8   2   67.60    7.67
   4   8   3   78.27    7.32
   4   8   3   77.85    7.27
   4   8   3   76.15    8.64
   4   8   4   67.19    6.42
   4   8   4   68.78    6.48
   4   8   4   68.15    7.66
   4   8   5   32.81    4.51
   4   8   5   25.65    3.25
   4   8   5   32.84    3.09
   4   8   5   31.41    3.33
   4   8   6    7.16    2.95
   4   8   6    9.61    1.76
   4   8   6    7.94    1.20
   4   8   7   -0.24    2.78
   4   8   7    2.03    1.63
   4   8   7    1.45    0.90
   4   8   8    7.93    2.93
   4   8   8    8.12    2.12
   4   8   9   58.01    6.24
   4   8  10    2.40    2.35
   4   9  -6   13.08    3.35
   4   9  -5   32.71    4.99
   4   9  -4   27.65    4.60
   4   9  -4   29.72    5.36
   4   9  -3   30.35    4.86
   4   9  -3   33.31    5.54
   4   9  -2   25.78    4.47
   4   9  -2   35.03    5.33
   4   9  -1    3.07    3.57
   4   9   0   79.74    6.99
   4   9   0   52.74    7.64
   4   9   0   62.97    7.88
   4   9   1  201.39   16.38
   4   9   1  154.73   17.27
   4   9   1  144.93   16.83
   4   9   2   44.78    6.93
   4   9   2   65.02    5.80
   4   9   2   57.31    5.85
   4   9   3    4.42    2.89
   4   9   3    6.75    1.19
   4   9   3    7.32    1.41
   4   9   4   41.94    5.99
   4   9   4   49.25    4.66
   4   9   4   45.08    4.61
   4   9   5    1.65    2.64
   4   9   5    1.64    1.33
   4   9   5    1.22    1.06
   4   9   6    6.57    1.59
   4   9   6    5.77    2.94
   4   9   7   -0.72    2.62
   4   9   7    1.64    1.62
   4   9   8    0.63    2.29
   4   9   8    0.73    1.73
   4   9   9    4.89    2.26
   4  10  -4   35.78    6.45
   4  10  -3    0.52    4.36
   4  10  -3    0.28    2.50
   4  10  -2   11.78    4.56
   4  10  -2    6.22    2.99
   4  10  -1   14.02    4.65
   4  10   0   32.67    6.48
   4  10   0   80.86    6.37
   4  10   1   -0.58    2.92
   4  10   1   -0.22    1.47
   4  10   2    5.28    3.32
   4  10   2   10.42    1.93
   4  10   3    1.14    2.94
   4  10   3    3.66    1.45
   4  10   4    5.62    3.22
   4  10   4    7.93    1.67
   4  10   5    5.47    2.81
   4  10   6    9.61    3.00
   4  10   7    4.35    2.68
   4  11  -1  577.32   52.93
   4  11   0   78.78    8.19
   4  11   1   -0.97    1.76
   4  11   2    1.41    3.06
   4  11   2    3.93    1.74
   4  11   3    5.98    3.14
   4  11   4  146.98   14.97
   4  11   5   -0.82    2.88
   4  11   6    3.19    2.76
  -5   9  -1    3.37    5.10
  -5   9  -2   -1.28    5.51
  -5   8   2  336.13   28.55
  -5   8   2  270.42   28.88
  -5   8   1  181.81   17.29
  -5   8   1  189.04   18.05
  -5   8   0    1.31    4.46
   5  -8   0    4.15    3.53
  -5   8   0    2.80    1.86
  -5   8  -1    9.29    4.37
  -5   8  -1    2.50    1.66
   5  -8   1    6.13    3.74
  -5   8  -2   33.28    6.41
  -5   8  -2   32.54    3.78
   5  -8   2   31.48    5.31
  -5   8  -3  106.27   10.66
   5  -8   3  122.87   11.84
  -5   8  -4    0.50    1.56
   5  -7  -5   -0.26    2.95
  -5   7   4    3.23    2.75
   5  -7  -4   -0.27    3.17
  -5   7   4    0.88    1.54
  -5   7   3  127.69   13.72
  -5   7   3  140.79   13.26
   5  -7  -3  161.69   14.67
  -5   7   2  200.89   19.39
   5  -7  -2  225.61   20.70
  -5   7   2  212.81   20.01
  -5   7   1    5.12    3.49
   5  -7  -1    3.04    3.50
   5  -7  -1    2.55    4.27
  -5   7   1    4.58    1.70
   5  -7   0    5.39    3.96
  -5   7   0    3.85    4.16
   5  -7   0    7.64    3.28
  -5   7   0    8.06    1.95
   5  -7   1    2.12    3.18
   5  -7   1    6.80    3.90
  -5   7  -1    7.59    4.39
  -5   7  -1    2.21    1.47
   5  -7   2    0.43    3.47
  -5   7  -2    0.92    1.47
  -5   7  -3    9.21    1.87
   5  -7   3    8.85    4.01
  -5   7  -4    1.43    1.54
   5  -7   4    2.85    3.67
  -5   7  -5    4.48    1.69
  -5   7  -6  119.71   11.49
  -5   7  -7   74.75    7.47
  -5   6   6    0.54    2.49
   5  -6  -6   -1.76    3.06
  -5   6   6    0.34    1.51
  -5   6   5    8.74    2.52
   5  -6  -5    6.90    3.22
  -5   6   5    8.17    1.95
  -5   6   4   23.36    3.61
   5  -6  -4   22.76    4.44
   5  -6  -4   24.56    3.02
  -5   6   4   20.78    2.83
  -5   6   3   61.81    6.95
   5  -6  -3   62.37    6.18
   5  -6  -3   63.37    7.60
  -5   6   3   58.78    6.12
  -5   6   2   14.33    4.04
   5  -6  -2   26.33    3.00
   5  -6  -2   19.52    4.47
  -5   6   2   27.82    3.09
  -5   6   1    8.78    3.58
   5  -6  -1    3.83    3.27
  -5   6   1    6.73    1.61
  -5   6   0    1.36    3.73
   5  -6   0    0.30    2.98
  -5   6   0    0.20    1.30
   5  -6   0   -3.65    4.76
  -5   6   0    2.43    3.01
  -5   6  -1    4.29    3.91
   5  -6   1    1.81    2.93
   5  -6   1    3.46    3.95
  -5   6  -1    3.80    1.35
  -5   6  -1    8.17    3.94
  -5   6  -2   11.20    1.90
   5  -6   2   12.44    4.07
   5  -6   3   11.80    3.92
   5  -6   3    9.10    3.54
  -5   6  -3   11.14    1.89
   5  -6   4   21.88    4.19
  -5   6  -4   15.49    2.33
   5  -6   4   17.33    4.24
   5  -6   5    4.90    3.18
  -5   6  -5    3.61    1.46
   5  -6   5   10.49    3.95
  -5   6  -6   17.83    2.47
  -5   6  -7   22.93    2.88
  -5   6  -8    4.13    1.62
  -5   6  -9   18.07    2.51
  -5   5   7   13.05    2.30
  -5   5   7   10.10    2.19
  -5   5   6   50.17    5.82
   5  -5  -6   54.13    6.54
  -5   5   6   51.17    5.35
  -5   5   5    1.46    2.08
   5  -5  -5   -0.49    2.78
   5  -5  -5    1.48    1.65
  -5   5   5    0.71    1.30
  -5   5   4   57.96    6.03
   5  -5  -4   59.36    5.54
   5  -5  -4   43.92    6.51
  -5   5   4   47.96    5.43
  -5   5   3   19.38    3.59
   5  -5  -3   10.68    3.62
   5  -5  -3   20.26    2.44
  -5   5   3   16.07    2.27
  -5   5   2   41.43    6.00
   5  -5  -2   53.95    5.09
   5  -5  -2   54.19    6.52
  -5   5   2   46.78    5.06
  -5   5   1    5.94    3.61
   5  -5  -1   12.02    3.78
   5  -5  -1   11.88    1.87
  -5   5   1   15.24    2.02
  -5   5   0    1.96    3.46
   5  -5   0   -1.84    3.07
  -5   5   0    1.64    1.27
  -5   5   0    1.52    3.02
  -5   5  -1   43.07    6.11
  -5   5  -1   42.24    4.46
   5  -5   1   44.29    5.88
  -5   5  -1   44.35    5.96
  -5   5  -2    6.39    3.55
  -5   5  -2    6.16    1.49
   5  -5   2    6.86    4.06
  -5   5  -3   35.59    4.01
  -5   5  -3   46.93    5.60
   5  -5   3   40.07    5.34
   5  -5   3   39.71    5.81
   5  -5   4  377.00   32.27
  -5   5  -4  310.86   31.23
   5  -5   4  384.61   32.55
  -5   5  -4  381.43   32.27
   5  -5   5  125.51   10.54
  -5   5  -5   83.87    8.92
   5  -5   5  108.70   10.55
  -5   5  -6  498.43   48.52
   5  -5   6  629.48   49.84
   5  -5   6  576.41   49.55
  -5   5  -7   88.66    8.82
   5  -5   7  105.82   10.11
   5  -5   8   19.42    3.61
  -5   5  -8   17.18    2.32
   5  -5   9   14.69    3.30
   5  -4  -8    3.04    4.18
  -5   4   8    3.83    1.88
  -5   4   8    4.64    1.88
   5  -4  -7   14.43    4.95
  -5   4   7   17.31    2.43
   5  -4  -7   10.79    3.09
  -5   4   7   13.24    2.41
  -5   4   6   18.55    3.31
   5  -4  -6   18.44    3.65
   5  -4  -6   17.23    2.50
  -5   4   6   17.36    2.57
  -5   4   5   -0.56    2.01
   5  -4  -5   -1.90    2.92
   5  -4  -5    0.92    1.44
  -5   4   5    0.84    1.37
  -5   4   4   23.15    3.98
   5  -4  -4   33.69    3.52
   5  -4  -4   26.97    4.82
  -5   4   4   32.29    3.45
  -5   4   3   69.59    8.22
   5  -4  -3   74.25    7.57
  -5   4   3   88.35    7.65
   5  -4  -3   72.96    8.87
  -5   4   2   37.19    5.45
   5  -4  -2   46.01    4.59
  -5   4   2   45.11    4.56
   5  -4  -2   44.17    6.16
  -5   4   1    3.93    3.11
   5  -4  -1   -0.85    3.56
   5  -4  -1    0.08    1.15
  -5   4   1   -1.10    1.21
  -5   4   0    3.35    3.44
   5  -4   0    5.00    3.64
  -5   4   0    5.41    1.39
  -5   4  -1 1226.49  105.31
  -5   4  -1 1188.00  104.51
   5  -4   1 1150.19  105.61
  -5   4  -1 1029.86  105.19
  -5   4  -2   20.18    2.34
  -5   4  -2   17.66    4.14
  -5   4  -3   34.60    3.60
  -5   4  -3   32.90    4.98
   5  -4   3   41.02    5.25
   5  -4   3   27.55    5.48
  -5   4  -4  224.22   21.10
   5  -4   4  222.92   22.15
   5  -4   4  261.46   22.34
  -5   4  -4  232.80   21.94
   5  -4   5  273.88   29.21
  -5   4  -5  313.42   28.43
   5  -4   5  367.28   29.68
  -5   4  -5  305.90   29.14
  -5   4  -6  476.27   42.94
   5  -4   6  493.75   44.04
  -5   4  -6  473.44   43.61
   5  -4   6  447.86   43.79
  -5   4  -7   54.42    5.76
   5  -4   7   67.44    7.42
  -5   4  -7   64.99    6.87
   5  -4   7   64.95    7.20
   5  -4   8    1.35    2.50
  -5   4  -8   -0.08    1.02
   5  -4   9   -1.80    2.59
   5  -3  -9    3.50    4.43
  -5   3   9    3.38    2.10
  -5   3   8  209.29   17.55
  -5   3   8  173.56   17.42
   5  -3  -8  169.93   18.48
  -5   3   7   21.64    2.91
   5  -3  -7   20.56    4.21
   5  -3  -7   14.42    4.81
   5  -3  -7   23.14    3.01
  -5   3   7   25.71    3.06
   5  -3  -6    9.01    4.42
  -5   3   6    7.11    2.73
   5  -3  -6   12.18    4.12
   5  -3  -6   11.41    1.94
  -5   3   6    8.16    1.91
  -5   3   5   16.25    2.63
   5  -3  -5    9.73    4.03
   5  -3  -5    7.83    4.41
   5  -3  -5   11.02    1.95
  -5   3   5   11.07    2.06
  -5   3   4   33.78    4.52
   5  -3  -4   35.97    3.99
  -5   3   4   40.79    4.02
   5  -3  -4   38.35    6.28
  -5   3   3   27.11    4.07
   5  -3  -3   29.31    3.23
  -5   3   3   26.66    3.18
   5  -3  -3   33.29    5.78
  -5   3   2   20.44    3.56
   5  -3  -2   21.30    4.82
   5  -3  -2   15.43    2.14
  -5   3   2   15.88    2.13
   5  -3  -1  176.47   15.87
  -5   3   1  166.76   15.85
  -5   3   1  174.58   16.60
   5  -3  -1  174.12   17.69
  -5   3   0   39.25    6.41
   5  -3   0   61.50    5.29
  -5   3   0   47.22    5.24
  -5   3  -1   54.12    6.63
  -5   3  -1   56.62    5.54
  -5   3  -1   60.99    6.88
  -5   3  -2  101.33    9.25
  -5   3  -2  104.72   10.32
  -5   3  -2   93.91   10.62
   5  -3   2   82.24   10.85
  -5   3  -3    8.48    3.17
   5  -3   3    9.77    4.01
  -5   3  -3    8.94    1.37
  -5   3  -4   18.13    3.40
  -5   3  -4   15.82    1.97
   5  -3   4   15.78    4.13
   5  -3   4   19.33    4.51
  -5   3  -5   32.21    3.54
   5  -3   5   42.80    5.19
   5  -3   5   36.75    5.26
  -5   3  -5   42.18    4.94
  -5   3  -6  100.29   10.05
   5  -3   6  104.60   11.09
  -5   3  -6  121.54   10.95
   5  -3   6  131.68   11.43
   5  -3   7    1.79    2.52
  -5   3  -7    1.51    0.99
  -5   3  -7    0.82    2.34
   5  -3   7    3.72    2.96
   5  -3   8   22.02    4.08
  -5   3  -8   28.09    3.79
   5  -3   8   21.87    4.38
   5  -3   9    8.62    2.85
   5  -3   9    5.74    3.40
  -5   2   9    2.73    1.84
   5  -2  -8    5.71    4.22
  -5   2   8    4.50    2.00
  -5   2   8    9.85    1.97
   5  -2  -7   14.13    4.75
  -5   2   7   16.01    2.40
   5  -2  -7   17.34    4.53
   5  -2  -7   16.26    2.44
  -5   2   7   15.94    2.50
   5  -2  -6    4.02    3.83
  -5   2   6    1.69    1.36
  -5   2   6    0.29    2.41
   5  -2  -6    7.24    4.20
   5  -2  -6    1.22    1.42
  -5   2   6    1.63    1.45
   5  -2  -5    5.18    3.55
  -5   2   5    2.29    2.12
   5  -2  -5    6.37    4.23
   5  -2  -5    0.37    1.35
  -5   2   5    0.86    1.36
   5  -2  -4   -2.47    3.58
  -5   2   4    2.87    2.09
   5  -2  -4    0.75    1.25
  -5   2   4   -0.40    1.32
  -5   2   3   13.20    3.65
   5  -2  -3   28.56    2.92
  -5   2   3   27.39    2.89
  -5   2   2  163.47   19.76
  -5   2   2  200.45   19.32
   5  -2  -1  810.61   68.76
  -5   2   1  740.46   68.70
  -5   2   1  706.03   69.23
   5  -2   0   88.15    8.07
  -5   2   0   75.97    9.19
  -5   2  -1  106.42   10.13
   5  -2   1   99.24    9.25
  -5   2  -1   94.89   10.30
  -5   2  -2    5.80    3.43
  -5   2  -2    4.21    2.52
  -5   2  -2    2.15    0.70
  -5   2  -3   68.80    6.88
  -5   2  -3   57.08    5.75
  -5   2  -4    4.10    2.71
   5  -2   4    2.29    4.06
   5  -2   4    7.56    3.84
   5  -2   5    6.99    3.79
  -5   2  -5   11.02    2.65
   5  -2   6   16.61    3.68
   5  -2   6    6.51    2.88
  -5   2  -6   12.06    2.88
   5  -2   7    1.62    2.62
  -5   2  -7    1.37    0.87
   5  -2   7    1.71    2.60
  -5   2  -7    0.71    1.98
   5  -2   7    3.53    3.05
   5  -2   8   26.81    3.99
   5  -2   8   26.97    4.50
   5  -2   8   26.31    4.36
  -5   2  -8   18.68    3.34
   5  -2   9   26.90    4.36
   5  -2   9   33.87    5.32
  -5   2  -9   34.10    4.17
   5  -2  10    3.94    3.64
  -5   1  10    1.10    1.93
  -5   1   9    0.80    1.80
   5  -1  -8    3.15    3.61
  -5   1   8    2.62    1.62
   5  -1  -8    8.80    3.94
   5  -1  -7   10.37    3.97
  -5   1   7   12.77    2.09
   5  -1  -7   10.36    1.99
  -5   1   7   11.04    2.08
   5  -1  -6   -1.13    3.52
  -5   1   6   -0.84    1.22
   5  -1  -6    0.28    1.44
  -5   1   6    0.54    1.45
  -5   1   5   88.81    9.73
   5  -1  -5   93.79    9.31
  -5   1   5  105.73    9.38
   5  -1  -5  107.30   10.79
  -5   1   4  403.03   38.25
   5  -1  -4  453.97   38.08
  -5   1   4  388.16   38.01
   5  -1  -4  453.33   39.06
  -5   1   3   44.33    6.17
   5  -1  -3   57.92    5.61
  -5   1   3   55.84    5.57
   5  -1  -3   84.69    7.59
  -5   1   2  104.53   10.33
   5  -1  -2   95.68   11.21
   5  -1  -2  102.70    9.58
   5  -1  -1  169.41   13.73
  -5   1   1  101.04   14.21
  -5   1   0   32.37    4.56
   5  -1   0   33.48    3.21
  -5   1   0   29.84    3.15
  -5   1   0   31.07    4.00
  -5   1  -1   46.21    5.98
   5  -1   1   46.72    4.61
  -5   1  -1   51.58    4.66
  -5   1  -1   45.86    5.47
  -5   1  -2    7.21    2.42
  -5   1  -2   10.40    1.33
  -5   1  -3    3.89    2.29
  -5   1  -3    6.27    0.98
  -5   1  -4   14.21    1.59
  -5   1  -4    9.40    2.68
  -5   1  -5   33.06    3.36
   5  -1   5   49.87    6.14
   5  -1   5   34.03    4.46
   5  -1   5   24.09    5.15
  -5   1  -5   40.77    4.30
   5  -1   6   56.26    6.21
  -5   1  -6   48.75    4.88
   5  -1   6   51.24    6.41
  -5   1  -6   54.59    5.65
   5  -1   6   72.76    7.40
   5  -1   7    7.73    3.22
   5  -1   7    9.16    3.58
   5  -1   7    8.64    3.23
  -5   1  -7    8.91    2.38
   5  -1   8    0.19    2.61
   5  -1   8    1.38    3.05
  -5   1  -8   -0.40    1.90
   5  -1   8   -0.21    3.21
   5  -1   9  142.78   15.27
  -5   1  -9  156.75   14.59
   5  -1   9  155.39   14.87
   5  -1  10    1.05    3.26
  -5   0  10   31.68    4.06
  -5   0   9    1.09    1.89
   5   0  -8    1.72    3.37
  -5   0   8    2.45    1.54
   5   0  -8    1.60    1.49
   5   0  -7   12.48    3.68
  -5   0   7   11.30    1.98
   5   0  -7    8.82    1.91
   5   0  -6   94.24    9.07
   5   0  -6   83.30   10.02
  -5   0   6  100.33    9.10
  -5   0   5  100.63   11.44
   5   0  -5  119.13   11.07
  -5   0   5  133.49   11.15
  -5   0   5  118.56   11.01
   5   0  -5  100.64   11.92
   5   0  -4  173.56   17.92
   5   0  -4  176.36   16.94
  -5   0   4  204.96   17.02
  -5   0   4  172.18   17.24
  -5   0   3   61.57    6.42
   5   0  -3   53.10    7.13
   5   0  -3   60.35    5.73
  -5   0   3   56.94    5.71
   5   0  -2    3.34    3.35
  -5   0   2   -1.18    2.59
   5   0  -2    2.03    1.08
  -5   0   1   13.13    3.29
  -5   0   1   15.81    1.82
   5   0  -1   14.80    1.83
  -5   0   0  183.11   18.96
   5   0   0  216.90   18.63
  -5   0   0  201.76   18.60
   5   0   1   15.22    1.73
  -5   0  -1   18.26    1.79
  -5   0  -1   11.61    2.75
  -5   0  -2   63.72    6.57
  -5   0  -2   63.01    5.86
  -5   0  -3   51.49    2.43
  -5   0  -3   54.54    3.69
  -5   0  -4   14.31    1.53
   5   0   4   12.53    2.85
  -5   0  -4   18.46    2.77
  -5   0  -5   20.06    2.03
   5   0   5   18.70    4.58
   5   0   5   27.33    3.67
  -5   0  -5   18.50    2.92
  -5   0  -6    8.92    1.10
   5   0   6    8.71    2.90
  -5   0  -6   10.87    2.25
   5   0   6    7.41    3.56
   5   0   7   62.58    7.23
   5   0   7   49.10    6.93
  -5   0  -7   62.81    6.40
   5   0   7   79.37    8.03
   5   0   8    0.21    2.73
   5   0   8    0.23    3.17
  -5   0  -8    1.29    1.78
   5   0   8    0.98    3.20
  -5   0  -8    0.93    0.79
   5   0   9  133.67   15.84
  -5   0  -9  167.14   14.83
  -5   0  -9  158.78   15.28
   5   0   9  170.13   15.64
   5   0  10  159.12   15.92
   5   0  11  204.12   20.03
  -5  -1  10    2.89    1.90
  -5  -1   9   22.25    3.13
   5   1  -8    6.32    3.79
  -5  -1   8    8.48    1.98
   5   1  -8    4.98    1.68
   5   1  -7  302.35   29.68
  -5  -1   7  348.01   29.75
   5   1  -7  335.22   30.55
   5   1  -6   60.70    6.75
  -5  -1   6   75.99    6.77
   5   1  -6   81.49    8.05
   5   1  -5   11.64    3.53
  -5  -1   5    8.95    2.63
   5   1  -5    9.20    1.63
   5   1  -4    5.07    3.34
  -5  -1   4    4.85    2.23
   5   1  -4    3.35    1.14
  -5  -1   3   77.94    8.17
   5   1  -3   80.18    7.77
  -5  -1   3   88.88    7.83
   5   1  -3   78.04    9.15
   5   1  -2    0.16    0.94
   5   1  -1   77.32    7.64
  -5  -1   1   86.74    7.65
   5   1   0   13.08    1.50
  -5  -1   0   12.18    1.45
  -5  -1   0   11.80    2.24
  -5  -1  -1   39.64    4.14
   5   1   1   34.43    3.52
  -5  -1  -1   39.31    3.54
  -5  -1  -2   32.08    3.14
  -5  -1  -2   37.98    2.35
  -5  -1  -3   -0.76    2.87
  -5  -1  -3    0.66    0.33
  -5  -1  -3    3.03    1.56
   5   1   4   56.30    6.40
  -5  -1  -4   61.33    5.58
  -5  -1  -4   64.50    6.18
   5   1   5   -0.15    2.53
  -5  -1  -5    4.59    1.76
   5   1   6    0.79    3.26
   5   1   6    5.09    2.74
  -5  -1  -6    2.28    0.47
  -5  -1  -6    3.26    1.63
  -5  -1  -6    2.90    0.51
  -5  -1  -7   16.15    1.78
   5   1   7   18.24    3.55
   5   1   7   24.67    3.93
  -5  -1  -7   19.22    1.83
  -5  -1  -7   23.73    2.77
   5   1   8   76.60    8.18
  -5  -1  -8   74.44    6.93
  -5  -1  -8   75.87    7.46
   5   1   8  105.35    9.08
   5   1   8   59.02    8.05
   5   1   9  165.98   18.18
  -5  -1  -9  191.70   17.20
  -5  -1  -9  206.01   17.78
   5   1   9  170.33   18.25
   5   1  10   10.95    3.49
  -5  -1 -10    8.65    2.17
   5   1  11    2.21    3.24
  -5  -2   9  173.82   16.33
  -5  -2   8    9.07    1.87
   5   2  -8    6.21    1.80
   5   2  -8    3.86    2.75
   5   2  -7  122.94   12.72
   5   2  -7  117.54   11.68
  -5  -2   7  131.37   11.71
   5   2  -6  135.94   12.70
  -5  -2   6  136.37   12.64
   5   2  -6  133.60   13.62
   5   2  -5    7.35    3.34
   5   2  -5    6.53    1.47
   5   2  -4   53.35    5.29
  -5  -2   4   54.73    5.23
  -5  -2   3    1.40    0.72
   5   2  -3    1.12    1.03
  -5  -2   2   -0.59    0.72
   5   2  -2   12.45    1.10
   5   2  -1   17.58    3.58
  -5  -2   1   -0.14    1.05
   5   2  -1   22.58    1.38
  -5  -2   1   18.78    1.86
   5   2   0   -1.43    3.24
  -5  -2   0    0.15    0.95
  -5  -2   0   -0.76    1.24
   5   2   0   -0.03    0.67
  -5  -2  -1    4.77    1.50
  -5  -2  -1   11.12    2.75
   5   2   1    7.45    0.90
  -5  -2  -2   92.18    8.75
   5   2   3   61.15    6.85
  -5  -2  -3   71.46    6.70
  -5  -2  -3   82.41    7.89
  -5  -2  -4    2.10    3.12
   5   2   4    2.31    2.06
  -5  -2  -4    2.96    1.33
   5   2   5   52.85    5.66
  -5  -2  -5   50.63    5.18
   5   2   6  127.50   12.16
   5   2   6   93.62   12.29
  -5  -2  -6  136.30   11.69
   5   2   7   10.98    3.11
  -5  -2  -7    9.76    0.98
   5   2   7   16.03    3.33
  -5  -2  -7    8.51    1.87
   5   2   8  226.05   22.42
  -5  -2  -8  236.02   21.45
  -5  -2  -8  256.82   21.99
   5   2   8  230.60   22.44
  -5  -2  -9  100.84    9.49
  -5  -2  -9  114.17   10.04
   5   2   9   89.06   10.54
   5   2   9  133.12   11.25
   5   2  10   40.61    5.71
  -5  -2 -10   46.87    4.87
   5   2  11    4.87    3.26
   5   3  -8   12.53    3.88
  -5  -3   8   16.27    2.53
   5   3  -7  261.92   24.60
   5   3  -7  250.39   23.66
   5   3  -7  270.67   24.83
  -5  -3   7  261.02   23.69
   5   3  -6   18.64    2.32
  -5  -3   5    1.00    0.92
   5   3  -5    1.44    1.13
   5   3  -4    1.13    2.97
  -5  -3   4    2.81    0.95
   5   3  -4    2.81    1.08
   5   3  -3  189.09   13.81
  -5  -3   3  195.92   13.66
   5   3  -3  175.60   14.93
   5   3  -2  452.04    8.71
  -5  -3   2  526.93    8.28
  -5  -3   1   11.29    2.57
  -5  -3   1   10.33    1.48
   5   3  -1   11.95    1.41
   5   3  -1   13.60    3.83
   5   3   0    2.29    2.87
  -5  -3   0   -0.56    2.45
   5   3   0    2.51    0.70
  -5  -3   0    2.28    0.85
  -5  -3  -1    6.34    2.58
   5   3   1    3.07    0.58
  -5  -3  -1    3.60    0.88
  -5  -3  -2   46.86    4.53
  -5  -3  -3    2.15    0.97
   5   3   3    0.96    1.65
  -5  -3  -4   26.96    5.03
   5   3   4   24.09    4.06
  -5  -3  -4   45.24    3.74
   5   3   5  254.06   28.01
  -5  -3  -5  338.36   27.81
  -5  -3  -5  309.54   28.60
   5   3   6  327.61   35.12
  -5  -3  -6  404.53   34.54
   5   3   6  375.63   34.85
   5   3   7  185.57   18.21
  -5  -3  -7  200.89   17.66
   5   3   7  178.27   18.03
   5   3   8   72.65    7.49
  -5  -3  -8   70.43    6.67
   5   3   8   57.56    7.22
   5   3   9    7.32    2.89
  -5  -3  -9   11.08    1.98
   5   3  10   37.05    5.26
  -5  -3 -10   40.35    4.45
   5   3  11   14.27    3.95
   5   4  -8  456.30   42.55
   5   4  -7  379.05   35.00
   5   4  -7  370.37   36.10
  -5  -4   7  394.14   35.03
   5   4  -6   23.54    3.99
   5   4  -6   12.81    3.97
   5   4  -6    9.63    1.99
  -5  -4   6   14.06    1.84
   5   4  -5    6.20    3.52
  -5  -4   5    6.04    1.26
   5   4  -5    4.25    1.40
   5   4  -4   48.87    5.85
   5   4  -4   34.87    4.33
  -5  -4   4   50.29    4.25
   5   4  -3   74.73    7.00
   5   4  -3   71.05    7.96
  -5  -4   2  111.94   10.09
   5   4  -2   98.34    9.45
   5   4  -2  107.59   10.61
  -5  -4   1   57.80    6.08
   5   4  -1   47.41    7.03
   5   4  -1   59.93    5.50
   5   4   0    1.33    3.36
  -5  -4   0    2.26    2.19
   5   4   0    2.25    0.72
  -5  -4  -1   10.74    2.81
   5   4   1   14.32    4.03
   5   4   1   13.24    1.36
  -5  -4  -1   13.23    1.28
  -5  -4  -2   79.42    7.27
   5   4   3  486.47   48.84
  -5  -4  -3  564.80   48.62
   5   4   4  366.90   39.02
  -5  -4  -4  461.61   38.78
  -5  -4  -5  244.76   21.31
  -5  -4  -5  236.17   22.19
   5   4   5  211.11   21.61
  -5  -4  -6   53.78    6.65
   5   4   6   43.67    6.62
  -5  -4  -6   60.78    5.42
   5   4   6   50.28    6.00
   5   4   7   39.36    5.52
  -5  -4  -7   53.88    6.65
   5   4   7   46.25    5.89
  -5  -4  -7   57.12    5.11
  -5  -4  -8    2.62    1.60
   5   4   8    0.79    2.50
   5   4   8    0.16    2.24
  -5  -4  -9  161.63   13.93
   5   4   9  126.17   14.27
  -5  -4 -10    3.18    1.65
   5   4  10    1.15    2.93
   5   4  11   -1.72    3.19
   5   5  -8   31.79    5.01
   5   5  -7   21.02    3.98
   5   5  -7   16.83    2.46
   5   5  -6    4.72    3.26
  -5  -5   6    5.23    1.68
   5   5  -6   12.25    3.90
   5   5  -6    5.43    1.64
   5   5  -5   62.70    7.23
   5   5  -5   61.05    7.42
   5   5  -5   58.03    5.84
   5   5  -4    5.52    2.76
   5   5  -4    6.56    3.56
   5   5  -4    3.29    1.23
   5   5  -3   18.70    4.07
   5   5  -3   17.16    2.10
   5   5  -2   37.69    5.89
   5   5  -2   48.87    4.58
  -5  -5   1    2.30    2.07
   5   5  -1    1.17    3.33
   5   5  -1    1.89    0.89
  -5  -5   0   39.14    4.54
   5   5   0   35.58    5.54
   5   5   0   42.31    3.93
  -5  -5  -1   72.86    7.84
   5   5   1   81.03    7.24
   5   5   1   68.42    8.66
  -5  -5  -2  158.20   16.15
   5   5   2  176.96   15.47
   5   5   2  167.87   15.45
   5   5   3  378.49   33.57
  -5  -5  -3  365.92   33.30
  -5  -5  -4   58.02    5.47
   5   5   4   58.30    5.88
   5   5   5   11.03    2.31
  -5  -5  -5   13.70    1.67
  -5  -5  -6   17.99    4.20
   5   5   6   18.38    4.31
  -5  -5  -6   30.01    2.78
   5   5   6   20.03    3.32
  -5  -5  -7   12.26    3.65
  -5  -5  -7   14.15    1.89
   5   5   7   11.26    3.10
   5   5   7   13.07    2.84
  -5  -5  -8   55.79    7.45
  -5  -5  -8   67.13    6.36
   5   5   8   95.01    8.56
   5   5   8   62.66    6.85
   5   5   8   55.94    6.96
   5   5   9    0.52    3.45
  -5  -5  -9    0.27    1.41
  -5  -5  -9    0.22    3.66
   5   5   9    1.29    2.50
  -5  -5 -10   25.41    3.04
   5   5  10   24.62    4.09
   5   5  11    9.75    3.37
   5   6  -8   -0.53    2.65
   5   6  -7   36.68    5.37
   5   6  -6   -1.14    2.79
   5   6  -6    1.19    1.54
   5   6  -5   -0.30    2.86
   5   6  -5    1.60    3.44
   5   6  -5    1.07    1.46
   5   6  -4    4.27    3.27
   5   6  -4    5.88    3.72
   5   6  -4    8.51    1.56
   5   6  -3    1.21    2.96
   5   6  -3    7.96    3.63
   5   6  -3    4.13    1.23
   5   6  -2   15.32    3.56
   5   6  -2   13.27    3.66
   5   6  -2   10.25    1.55
   5   6  -1    0.59    3.23
   5   6  -1    4.54    1.07
   5   6  -1    3.74    2.65
  -5  -6   0  195.19   17.75
   5   6   0  185.16   17.23
   5   6   0  210.61   18.56
  -5  -6  -1  957.15   86.52
   5   6   1  957.75   87.09
  -5  -6  -2   16.22    2.39
   5   6   2   14.14    1.53
   5   6   3  175.51   15.30
   5   6   3  164.71   15.00
   5   6   4    0.31    1.34
   5   6   4   -0.90    3.02
   5   6   5   32.08    3.87
   5   6   5   45.47    5.67
   5   6   6   92.92   10.32
   5   6   6  126.64   11.56
   5   6   6  100.13    9.85
   5   6   7    1.23    3.55
  -5  -6  -7    0.71    2.46
   5   6   7    3.95    2.62
   5   6   7   -0.49    2.04
   5   6   8   15.52    4.27
  -5  -6  -8   14.80    3.66
   5   6   8   14.50    3.24
   5   6   8   13.71    2.82
   5   6   9   10.47    3.55
   5   6   9    7.99    2.71
   5   6  10    0.89    2.77
   5   6  11   40.81    5.34
   5   7  -8    9.77    3.57
   5   7  -7   18.27    4.07
   5   7  -6    1.71    2.93
   5   7  -5   24.56    4.22
   5   7  -5   31.16    5.13
   5   7  -5   19.27    2.65
   5   7  -4   66.93    8.37
   5   7  -4   75.06    6.91
   5   7  -4   60.09    8.14
   5   7  -3   29.79    5.19
   5   7  -3   35.41    5.56
   5   7  -3   36.43    3.70
   5   7  -2  249.44   24.73
   5   7  -2  260.24   24.31
   5   7  -1  111.01   12.45
   5   7  -1  125.01   12.24
   5   7   0  719.26   65.87
   5   7   1  292.06   28.81
   5   7   1  306.81   28.29
  -5  -7  -2  137.53   13.95
   5   7   2  157.13   13.64
   5   7   2  127.88   15.18
   5   7   3    4.89    3.32
   5   7   3    7.09    0.93
   5   7   4  138.88   14.51
   5   7   4  137.90   12.84
   5   7   5   66.07    8.01
   5   7   5   65.31    6.50
   5   7   6  100.00   11.06
   5   7   6  140.46   12.55
   5   7   6  113.69   10.79
   5   7   7    0.89    3.40
   5   7   7    5.85    2.11
   5   7   7    5.84    2.58
   5   7   8    6.47    3.36
   5   7   8    3.23    2.20
   5   7   9   39.41    4.91
   5   7  10   78.79    8.41
   5   7  11   98.20   10.29
   5   8  -6    5.44    3.31
   5   8  -5  109.27   10.11
   5   8  -5   95.67   11.21
   5   8  -4   12.63    3.76
   5   8  -4   15.15    4.92
   5   8  -3   45.67    6.49
   5   8  -3   43.29    6.05
   5   8  -2  233.88   24.38
   5   8  -2  271.53   24.29
   5   8  -1   -0.61    2.86
   5   8   0  170.38   16.99
   5   8   1  142.75   20.06
   5   8   1  186.24   19.98
   5   8   2    8.89    3.54
   5   8   2   13.04    1.67
   5   8   3   86.53    7.83
   5   8   3   66.34    9.39
   5   8   4    2.87    3.41
   5   8   4    1.64    0.74
   5   8   4    0.77    1.21
   5   8   5    0.95    2.85
  -5  -8  -5   -0.52    1.19
   5   8   5    2.56    1.56
   5   8   6   41.96    5.54
   5   8   6   34.61    4.15
   5   8   7    7.86    3.44
   5   8   8   16.24    3.85
   5   8   8   12.84    2.71
   5   9  -4   97.70   10.83
   5   9  -3    8.97    3.56
   5   9  -3    8.25    5.02
   5   9  -2   53.09    7.26
   5   9  -2   74.31    8.11
   5   9  -1    2.93    4.32
   5   9   0   14.00    3.70
   5   9   0   11.83    4.89
   5   9   1   20.74    4.77
   5   9   1   12.34    3.63
   5   9   2    8.29    3.34
   5   9   3   28.97    5.28
   5   9   3   31.47    3.24
   5   9   4    3.44    3.24
   5   9   5   18.24    4.09
   5   9   6   13.02    3.59
   5   9   7    0.94    3.30
   5  10   0    4.60    3.13
   5  10   0   11.38    2.49
   5  10   1   18.49    4.45
   5  10   1   16.85    2.59
   5  10   2    3.34    3.52
   5  10   3   16.20    4.33
   5  10   4   10.30    4.02
   5  10   5    3.11    3.31
   5  10   6   35.14    5.58
   5  10   7   69.82    8.35
  -6   8   0   -2.68    4.65
  -6   8  -1    0.94    5.36
  -6   8  -2    2.84    5.17
  -6   8  -3   72.43   10.01
  -6   7   3    3.47    3.52
  -6   7   2   61.65    7.67
  -6   7   2   64.22    6.49
  -6   7   1   57.50    7.68
   6  -7  -1   61.73    8.59
  -6   7   1   61.24    6.29
  -6   7   0   14.74    4.84
   6  -7   0   18.58    5.61
  -6   7   0   21.28    2.80
  -6   7  -1   11.57    5.27
  -6   7  -1   12.64    2.26
   6  -7   1   15.84    5.08
  -6   7  -2    0.61    4.81
  -6   7  -2    0.91    1.60
  -6   7  -3    0.68    5.27
  -6   7  -3    4.10    1.64
  -6   7  -4   16.73    2.51
  -6   7  -5   20.49    2.81
  -6   6   5    5.57    2.63
  -6   6   4    5.18    2.87
  -6   6   4    1.42    1.65
  -6   6   3    2.49    3.32
  -6   6   3    4.03    1.53
  -6   6   2    7.70    3.74
  -6   6   1    3.25    3.74
  -6   6   1    0.83    1.44
  -6   6   0   -0.76    4.11
  -6   6   0   -0.41    1.51
  -6   6  -1   -3.28    4.39
   6  -6   1    1.26    5.11
  -6   6  -1    0.83    1.37
   6  -6   2   16.26    5.13
  -6   6  -2   12.42    5.36
  -6   6  -2   21.37    2.72
  -6   6  -3    2.62    5.02
   6  -6   3    7.71    4.41
  -6   6  -3    3.24    1.53
  -6   6  -4   48.97    5.11
  -6   6  -5   86.80    8.46
  -6   6  -6  173.35   16.21
  -6   6  -7    4.67    1.60
  -6   5   6    4.36    2.82
   6  -5  -6    5.98    3.42
  -6   5   5    3.41    2.48
   6  -5  -5   -4.17    3.71
  -6   5   5   -0.85    1.70
  -6   5   4   35.64    4.74
   6  -5  -4   36.41    5.36
  -6   5   4   29.89    3.71
  -6   5   3    5.11    3.31
   6  -5  -3    6.14    3.70
   6  -5  -3    8.06    1.81
  -6   5   3    8.50    1.86
  -6   5   2   34.23    5.78
   6  -5  -2   46.11    4.76
   6  -5  -2   40.05    6.25
  -6   5   2   49.00    4.74
  -6   5   1    4.98    3.58
   6  -5  -1    1.77    3.16
   6  -5  -1    3.11    1.39
  -6   5   1    3.69    1.45
  -6   5   0    6.59    4.17
   6  -5   0   10.20    3.85
  -6   5   0   10.19    1.90
  -6   5   0    9.79    3.81
  -6   5  -1    3.65    4.05
   6  -5   1    0.61    3.42
  -6   5  -1    5.43    3.70
  -6   5  -1    3.16    1.42
  -6   5  -2   76.40    9.23
  -6   5  -2   69.18    9.34
  -6   5  -2   85.85    7.79
   6  -5   2   68.57    9.76
  -6   5  -3  251.98   19.56
  -6   5  -3  186.04   17.88
   6  -5   3  214.16   19.48
   6  -5   3  229.31   19.63
  -6   5  -4   -0.25    3.58
   6  -5   4    2.49    3.48
   6  -5   4    7.18    4.35
  -6   5  -4    2.78    1.37
  -6   5  -5    7.05    1.60
  -6   5  -6    4.78    1.53
  -6   5  -7    0.93    1.21
  -6   4   7    9.20    2.19
  -6   4   6   17.51    3.64
   6  -4  -6   17.23    4.36
  -6   4   6   22.61    2.96
  -6   4   5    5.55    2.47
   6  -4  -5    2.91    3.45
  -6   4   5    9.09    2.00
  -6   4   4  190.59   20.10
   6  -4  -4  225.49   19.80
  -6   4   4  208.89   19.71
   6  -4  -4  238.66   21.34
  -6   4   3   17.52    3.95
   6  -4  -3   20.59    5.02
  -6   4   3   25.54    2.87
   6  -4  -3   21.58    2.83
  -6   4   2    3.76    3.11
   6  -4  -2    2.71    3.85
   6  -4  -2    4.01    1.41
  -6   4   2    3.62    1.44
  -6   4   1   23.33    4.11
   6  -4  -1   24.27    5.14
   6  -4  -1   20.39    2.39
  -6   4   1   13.80    2.18
  -6   4   0    0.70    3.60
   6  -4   0   -2.72    3.87
  -6   4   0    4.11    1.39
  -6   4   0    0.67    3.17
  -6   4  -1   32.21    5.10
  -6   4  -1   24.60    2.95
   6  -4   1   17.42    4.77
  -6   4  -1   29.67    5.02
  -6   4  -2  122.73   13.70
  -6   4  -2  137.86   12.67
  -6   4  -2  140.97   14.04
  -6   4  -3  132.25   12.49
  -6   4  -3  119.11   11.12
   6  -4   3   92.46   12.86
   6  -4   3  131.10   12.79
  -6   4  -3  113.49   12.88
   6  -4   4   -0.28    4.28
  -6   4  -4    6.31    3.35
   6  -4   4   -1.98    3.40
  -6   4  -4    1.68    1.08
  -6   4  -5    1.34    3.31
   6  -4   5   -0.57    3.56
   6  -4   5    3.12    3.68
  -6   4  -5    1.22    1.16
   6  -4   6    3.45    3.49
  -6   4  -6    3.02    1.29
  -6   4  -7   38.52    4.15
   6  -4   7   50.95    6.29
   6  -4   8    7.23    3.76
  -6   4  -8   10.31    1.67
  -6   3   8   19.91    3.00
   6  -3  -7   25.25    5.79
  -6   3   7   21.55    2.83
  -6   3   7   18.51    2.94
  -6   3   6   24.10    3.77
   6  -3  -6   22.86    5.16
  -6   3   6   19.65    2.90
  -6   3   5   15.37    3.21
   6  -3  -5   12.31    5.16
   6  -3  -5   18.60    2.54
  -6   3   5   20.23    2.60
  -6   3   4    3.64    2.55
   6  -3  -4    3.67    4.28
   6  -3  -4    0.78    1.38
  -6   3   4    1.37    1.42
  -6   3   3   15.36    3.64
   6  -3  -3   14.98    5.18
   6  -3  -3   17.92    2.49
  -6   3   3   19.12    2.42
  -6   3   2    4.59    3.21
   6  -3  -2    0.38    4.42
   6  -3  -2    0.34    1.22
  -6   3   2   -0.09    1.20
  -6   3   1   48.20    7.91
   6  -3  -1   83.71    7.23
  -6   3   1   74.07    7.18
   6  -3  -1   90.53    9.99
  -6   3   0  391.52   36.06
   6  -3   0  410.68   35.27
  -6   3   0  378.83   35.27
   6  -3   0  445.69   37.54
  -6   3   0  324.26   36.01
  -6   3  -1   35.02    5.84
  -6   3  -1   39.82    3.97
   6  -3   1   31.65    6.50
  -6   3  -1   36.16    5.33
  -6   3  -2   69.11    7.76
  -6   3  -2   65.12    6.45
  -6   3  -2   72.29    8.09
  -6   3  -3    5.00    4.23
  -6   3  -3    5.00    3.11
   6  -3   3    6.76    4.28
  -6   3  -3    8.44    1.40
  -6   3  -4    0.80    3.08
   6  -3   4   -1.96    3.98
   6  -3   4    3.34    4.63
  -6   3  -4   -0.06    0.97
  -6   3  -5   47.12    4.54
   6  -3   5   48.55    6.51
   6  -3   5   35.62    6.48
  -6   3  -5   44.81    5.85
   6  -3   6    3.00    3.65
   6  -3   6   -1.85    3.27
  -6   3  -6    0.34    0.98
  -6   3  -6    1.13    2.53
  -6   3  -7   24.33    2.73
   6  -3   7   26.17    4.77
  -6   3  -7   23.01    4.04
  -6   3  -8   26.97    3.08
   6  -3   8   38.43    5.13
   6  -3   9   21.53    4.25
  -6   2   8   39.85    4.54
   6  -2  -7    1.39    4.39
  -6   2   7    1.81    1.64
   6  -2  -7    1.66    4.40
  -6   2   7    2.20    1.62
   6  -2  -6    7.72    4.53
  -6   2   6    3.63    1.49
  -6   2   6    4.75    2.76
   6  -2  -6    9.42    4.81
   6  -2  -6    3.49    1.64
  -6   2   6    5.93    1.78
   6  -2  -5    6.22    4.88
  -6   2   5    8.91    2.57
   6  -2  -5   19.10    5.11
   6  -2  -5    6.78    1.70
  -6   2   5    6.60    1.83
  -6   2   4    9.98    2.69
   6  -2  -4   11.83    4.82
   6  -2  -4    7.87    1.78
  -6   2   4    8.11    1.70
  -6   2   3   44.73    7.03
   6  -2  -3   66.30    6.39
  -6   2   3   73.24    6.46
  -6   2   2  165.18   17.42
   6  -2  -2  194.03   16.79
  -6   2   2  176.18   16.72
  -6   2   1    3.30    3.13
   6  -2  -1    2.50    1.16
  -6   2   1    1.71    1.27
  -6   2   0   79.18    8.70
   6  -2   0   85.72    7.86
  -6   2   0   74.72    7.81
  -6   2   0   93.32    9.10
   6  -2   0  121.79   10.63
  -6   2  -1   31.42    5.34
  -6   2  -1   31.17    3.26
  -6   2  -1   31.52    4.60
  -6   2  -2   14.85    4.38
  -6   2  -2    9.21    3.28
   6  -2   2   23.24    5.50
  -6   2  -3  169.60   14.94
   6  -2   3  203.39   16.58
  -6   2  -4   13.25    3.28
   6  -2   4   20.53    4.96
   6  -2   5    9.44    4.52
  -6   2  -5    7.97    2.82
   6  -2   6   14.70    4.48
  -6   2  -6   10.83    1.55
  -6   2  -6   17.36    3.24
   6  -2   7   39.46    5.62
  -6   2  -7   32.80    3.47
   6  -2   7   35.14    5.42
  -6   2  -7   36.66    4.47
   6  -2   8    1.45    3.26
  -6   2  -8    2.00    0.97
   6  -2   8   -0.71    3.17
   6  -2   9    4.96    3.00
   6  -2   9    2.33    3.44
  -6   1   9   30.55    3.75
  -6   1   8   15.51    2.62
   6  -1  -7    1.73    4.62
  -6   1   7    8.97    1.98
  -6   1   7    6.56    1.99
   6  -1  -6   34.57    6.19
  -6   1   6   34.90    4.79
   6  -1  -6   31.64    3.98
  -6   1   6   37.19    4.00
  -6   1   6   38.09    3.93
  -6   1   5  131.88   11.78
   6  -1  -5  121.22   11.30
  -6   1   5  110.80   11.23
   6  -1  -5  116.65   12.71
   6  -1  -4    1.05    4.02
  -6   1   4    0.95    2.24
   6  -1  -4    0.43    1.39
  -6   1   4   -1.17    1.42
  -6   1   3  291.53   28.87
   6  -1  -3  300.78   28.32
  -6   1   3  335.44   28.38
   6  -1  -3  294.21   29.68
  -6   1   2  202.96   16.69
   6  -1  -2  163.35   15.67
  -6   1   2  167.12   15.69
  -6   1   1  611.31   58.08
   6  -1  -1  594.99   57.35
  -6   1   1  681.09   57.35
  -6   1   0  318.07   28.67
   6  -1   0  308.65   28.03
  -6   1   0  296.88   28.85
  -6   1  -1   39.25    6.54
   6  -1   1   54.43    4.92
  -6   1  -1   43.98    5.95
  -6   1  -2    3.51    2.79
  -6   1  -2    0.82    0.75
  -6   1  -3  153.16   13.98
  -6   1  -3  150.22   14.71
  -6   1  -4  390.27   35.53
  -6   1  -4  374.43   36.16
   6  -1   4  468.88   37.74
   6  -1   5    5.01    4.71
   6  -1   5   18.91    4.64
  -6   1  -5    8.65    1.21
  -6   1  -5    9.92    2.74
   6  -1   6    1.26    3.79
   6  -1   6    6.28    4.13
  -6   1  -6    1.80    0.71
  -6   1  -6    4.41    2.39
   6  -1   7   23.64    4.83
   6  -1   7   32.39    5.30
  -6   1  -7   27.03    3.73
   6  -1   7   24.29    4.39
   6  -1   8    9.72    3.51
  -6   1  -8   10.27    2.56
   6  -1   8   10.24    3.69
   6  -1   8    8.66    3.80
   6  -1   9  144.85   17.19
   6  -1   9  207.90   17.32
   6  -1  10    0.28    3.73
  -6   0   9   28.83    3.64
  -6   0   8   10.02    2.02
  -6   0   7   44.59    4.77
   6   0  -6  291.41   29.34
  -6   0   6  353.62   29.37
   6   0  -6  317.05   30.63
   6   0  -5   44.40    6.23
  -6   0   5   26.50    4.60
   6   0  -5   37.72    3.93
  -6   0   5   37.48    3.99
  -6   0   5   34.70    3.77
   6   0  -4    1.54    4.10
  -6   0   4    5.08    2.42
   6   0  -4    5.46    1.41
  -6   0   4    2.96    1.37
  -6   0   3   87.00    9.92
   6   0  -3  100.85    9.41
  -6   0   3  106.67    9.43
   6   0  -3   87.86   10.84
  -6   0   2  281.11   28.93
   6   0  -2  318.80   28.37
  -6   0   2  317.73   28.36
   6   0  -2  305.73   29.75
  -6   0   1  770.79   73.56
   6   0  -1  908.39   73.23
  -6   0   0  112.81   13.33
   6   0   0  149.84   12.84
  -6   0  -1   -0.27    2.35
   6   0   1    1.07    0.78
  -6   0  -1    1.05    0.83
  -6   0  -2   13.98    4.11
  -6   0  -2   22.68    3.58
  -6   0  -2   24.94    2.44
  -6   0  -3    0.40    2.28
  -6   0  -3    4.42    3.48
  -6   0  -3    0.54    0.66
  -6   0  -4    3.30    3.83
  -6   0  -4    2.30    0.70
  -6   0  -4    1.30    2.14
  -6   0  -5  130.61   12.03
  -6   0  -5  138.73   12.74
   6   0   6   -4.05    4.07
  -6   0  -6    0.74    0.57
  -6   0  -6    1.05    2.09
   6   0   6    2.57    2.52
  -6   0  -7   13.58    1.49
   6   0   7   18.61    5.30
   6   0   7   13.99    4.12
   6   0   7   13.48    3.56
  -6   0  -7   12.88    2.69
   6   0   8   56.24    7.31
   6   0   8   65.81    7.49
  -6   0  -8   59.54    5.75
  -6   0  -8   72.07    6.59
   6   0   9   17.63    4.36
   6   0   9   20.66    4.69
  -6   0  -9   24.41    3.30
   6   0   9   21.80    4.66
   6   0  10   22.91    4.71
  -6  -1   8   54.44    5.66
  -6  -1   7    2.93    1.38
   6   1  -7    2.01    1.47
   6   1  -6    1.04    4.01
  -6  -1   6    1.20    1.32
   6   1  -6    0.97    1.49
  -6  -1   5   61.79    7.19
   6   1  -5   47.31    8.04
   6   1  -5   67.45    6.44
  -6  -1   5   68.32    6.37
   6   1  -4    3.17    4.13
  -6  -1   4    6.66    1.31
  -6  -1   4    5.22    2.48
   6   1  -4    5.26    1.38
   6   1  -3    0.25    3.44
  -6  -1   3    0.69    2.32
   6   1  -3    0.34    1.08
   6   1  -2   69.68    6.58
  -6  -1   2   67.25    6.57
  -6  -1   1   84.24    9.87
   6   1  -1  112.69    9.58
   6   1   0   41.99    3.75
  -6  -1   0   29.63    4.39
  -6  -1   0   47.31    3.77
  -6  -1  -1   89.12    7.49
   6   1   1   95.69    6.78
  -6  -1  -1  105.08    6.82
  -6  -1  -2  167.55   14.38
  -6  -1  -2  144.30   14.91
  -6  -1  -2  118.18   15.32
  -6  -1  -3    6.99    3.44
  -6  -1  -3    6.56    0.80
  -6  -1  -3    6.01    2.13
  -6  -1  -4   36.04    3.32
  -6  -1  -4   26.08    5.56
  -6  -1  -4   40.20    4.36
  -6  -1  -5    7.30    4.45
  -6  -1  -5    8.78    2.08
   6   1   5    8.50    2.80
   6   1   6   85.36    8.63
   6   1   6   79.54    9.46
  -6  -1  -6   81.28    7.40
  -6  -1  -6   92.12    8.21
   6   1   7  132.18   11.12
   6   1   7   89.06   11.15
  -6  -1  -7  104.24    9.61
  -6  -1  -7  121.45   10.35
   6   1   8    7.55    3.53
   6   1   8    8.48    3.78
   6   1   8   17.75    4.88
  -6  -1  -8   12.78    2.41
   6   1   9  134.83   14.62
  -6  -1  -9  145.12   13.90
   6   1   9  135.22   14.66
   6   1   9  184.89   15.53
  -6  -2   7   11.63    2.01
   6   2  -7    6.95    1.78
   6   2  -6    3.45    3.91
  -6  -2   6    6.87    1.44
   6   2  -6    4.14    1.45
   6   2  -5    9.41    4.15
  -6  -2   5   14.34    1.71
   6   2  -5    9.31    1.76
   6   2  -4   50.41    5.00
   6   2  -3   25.75    3.23
  -6  -2   3   36.18    3.19
  -6  -2   2    7.22    2.60
   6   2  -2   11.99    1.62
   6   2  -1   38.39    6.13
  -6  -2   1   40.99    4.59
  -6  -2   1   29.86    5.14
   6   2  -1   46.87    4.19
  -6  -2   0   -1.83    2.79
  -6  -2   0    0.80    1.68
   6   2   0    0.20    0.77
  -6  -2  -1   16.76    2.50
  -6  -2  -1   13.66    3.71
   6   2   1   16.98    1.77
  -6  -2  -2  180.25   15.56
  -6  -2  -2  140.10   16.13
  -6  -2  -3   15.25    4.48
  -6  -2  -3   24.94    2.95
  -6  -2  -4   87.57    8.24
  -6  -2  -4   76.83    9.34
  -6  -2  -5    4.26    3.87
  -6  -2  -5    3.93    1.69
   6   2   5    2.07    2.31
  -6  -2  -6   18.68    5.26
   6   2   6   24.47    5.62
   6   2   6   27.59    4.27
  -6  -2  -6   36.13    3.59
   6   2   7   12.10    3.50
  -6  -2  -7   17.57    2.35
   6   2   7   12.67    4.02
   6   2   8  230.05   25.43
   6   2   8  239.55   25.55
   6   2   9   26.87    5.35
  -6  -2  -9   45.10    4.67
   6   2   9   36.00    5.71
   6   2  10    1.91    3.34
   6   3  -8    3.13    3.41
  -6  -3   6    8.59    1.56
   6   3  -6    5.74    1.67
   6   3  -5    4.34    1.40
  -6  -3   4    0.17    2.46
  -6  -3   4    2.73    0.86
   6   3  -4    2.16    1.19
   6   3  -3    3.81    3.96
  -6  -3   3    3.32    2.45
  -6  -3   3    6.85    0.98
   6   3  -3    4.82    1.22
  -6  -3   2   36.14    4.45
   6   3  -2   28.25    5.85
  -6  -3   2   33.08    3.84
   6   3  -2   31.50    3.64
  -6  -3   2   42.91    3.54
  -6  -3   1   95.86    8.55
  -6  -3   1   61.38    9.08
   6   3  -1   94.68    8.42
   6   3  -1   96.29   10.04
   6   3   0   37.20    7.57
  -6  -3   0   49.70    6.71
   6   3   0   71.48    5.82
  -6  -3   0   56.21    5.91
  -6  -3  -1    8.19    3.17
   6   3   1    4.38    0.73
  -6  -3  -1    3.83    1.24
  -6  -3  -2   63.20    6.27
  -6  -3  -2   76.37    7.56
  -6  -3  -3   25.10    4.65
  -6  -3  -3   31.26    3.23
  -6  -3  -4   60.41    7.46
   6   3   4   58.68    6.38
  -6  -3  -4   62.71    5.97
  -6  -3  -5   49.98    7.05
   6   3   5   44.57    6.22
  -6  -3  -5   66.03    5.73
   6   3   6  255.73   21.69
  -6  -3  -6  239.46   21.07
   6   3   7  916.17   77.12
   6   3   7  666.58   77.08
  -6  -3  -7  995.54   76.64
  -6  -3  -7  669.47   77.31
   6   3   8  299.21   29.18
   6   3   8  286.03   29.24
  -6  -3  -8  332.47   28.65
   6   3   9   10.25    3.51
  -6  -3  -9   12.03    2.09
   6   3   9   12.68    3.83
   6   3  10   14.72    3.80
   6   3  11   68.61    8.22
   6   4  -8    8.36    3.75
   6   4  -7   56.30    7.44
   6   4  -6   21.61    2.63
   6   4  -5   16.72    4.31
  -6  -4   5   13.72    1.73
   6   4  -5   11.94    1.92
   6   4  -4    1.66    3.68
  -6  -4   4    4.98    0.91
   6   4  -4    5.18    1.29
  -6  -4   3   72.72    6.48
  -6  -4   3   52.90    5.22
   6   4  -3   61.17    7.51
   6   4  -3   59.65    5.40
  -6  -4   3   54.42    5.13
   6   4  -2   20.48    4.91
  -6  -4   2   24.17    3.47
   6   4  -2   22.33    2.45
   6   4  -1    9.77    4.01
  -6  -4   1    7.57    2.42
   6   4  -1    7.58    1.21
   6   4   0    2.40    3.90
  -6  -4   0   -1.81    2.63
  -6  -4   0    1.11    0.26
   6   4   0    0.03    0.64
  -6  -4  -1    4.12    2.86
  -6  -4  -1    4.48    0.69
   6   4   1    4.55    0.72
  -6  -4  -2  388.02   39.66
  -6  -4  -2  439.32   38.88
  -6  -4  -3   79.17    7.27
  -6  -4  -3   70.22    8.36
   6   4   4  152.94   15.31
  -6  -4  -4  173.10   14.98
  -6  -4  -4  145.74   15.80
   6   4   5  150.03   14.97
  -6  -4  -5  173.64   14.51
  -6  -4  -5  116.47   15.31
  -6  -4  -6   37.95    5.88
   6   4   6   36.43    4.86
  -6  -4  -6   39.77    4.00
   6   4   7  176.36   20.16
  -6  -4  -7  211.71   19.42
  -6  -4  -7  180.68   20.44
  -6  -4  -8    2.96    4.14
   6   4   8    7.61    3.17
   6   4   8    4.16    3.15
  -6  -4  -8    3.47    1.43
  -6  -4  -9   25.28    6.17
   6   4   9   33.40    5.30
  -6  -4  -9   51.04    4.66
   6   4   9   38.81    5.55
   6   4  10    3.41    3.41
  -6  -4 -10    6.16    2.00
   6   4  11   30.02    5.13
   6   5  -7    8.36    3.98
   6   5  -6    4.83    3.59
   6   5  -6    4.94    1.51
   6   5  -5    7.41    4.07
   6   5  -5    2.15    1.31
   6   5  -5    3.98    3.51
   6   5  -4    6.56    3.83
   6   5  -4    4.44    1.30
   6   5  -3   84.24    7.89
   6   5  -3   80.40    9.46
   6   5  -2   12.86    4.64
  -6  -5   2   13.29    3.01
   6   5  -2   10.33    1.53
  -6  -5   1   39.03    4.83
   6   5  -1   31.09    5.98
   6   5  -1   41.56    3.92
   6   5   0   28.49    5.13
  -6  -5   0   19.13    3.30
   6   5   0   25.69    2.49
  -6  -5  -1   18.24    3.28
   6   5   1   18.75    1.88
  -6  -5  -2  219.98   20.77
  -6  -5  -3   25.28    4.68
  -6  -5  -3   36.59    3.38
  -6  -5  -4   18.36    3.73
  -6  -5  -4   22.58    2.17
   6   5   4   13.36    2.74
  -6  -5  -5    8.39    3.16
  -6  -5  -5    8.09    1.32
   6   5   5    7.69    2.47
  -6  -5  -6   12.92    4.00
   6   5   6   21.25    3.32
  -6  -5  -6   20.53    2.35
   6   5   7   17.22    4.48
  -6  -5  -7   15.07    4.72
   6   5   7   30.88    4.03
  -6  -5  -7   29.93    3.04
  -6  -5  -8   18.94    4.72
   6   5   8   19.80    3.81
   6   5   8   25.83    4.29
  -6  -5  -8   26.77    2.90
  -6  -5  -9    1.41    3.84
   6   5   9    3.57    2.91
  -6  -5  -9    1.48    1.31
   6   5   9    3.92    3.33
   6   5  10   12.27    3.87
  -6  -5 -10   22.92    2.77
   6   5  11   -1.14    3.29
   6   6  -7    1.65    3.36
   6   6  -6   30.91    5.74
   6   6  -5   46.68    6.53
   6   6  -5   38.76    4.25
   6   6  -4    0.70    3.24
   6   6  -4    3.52    4.16
   6   6  -4    1.02    1.17
   6   6  -3   13.17    4.16
   6   6  -3    8.68    4.30
   6   6  -3    8.99    1.53
   6   6  -2   -1.55    4.13
   6   6  -2    0.31    0.93
   6   6  -2    6.53    3.32
   6   6  -1   11.14    4.56
  -6  -6   1   11.64    2.85
   6   6  -1   12.41    1.55
   6   6   0   32.97    5.70
  -6  -6   0   35.23    4.27
   6   6   0   33.37    3.29
  -6  -6  -1   38.55    4.41
   6   6   1   36.43    3.49
  -6  -6  -2   32.02    3.93
   6   6   2   31.14    2.90
  -6  -6  -3   39.33    4.82
  -6  -6  -4   11.17    3.12
   6   6   4   14.39    2.31
  -6  -6  -5   46.22    5.42
   6   6   5   42.23    4.94
  -6  -6  -6    8.90    3.22
   6   6   6   13.26    2.81
  -6  -6  -7    3.75    3.08
   6   6   7    8.15    2.71
  -6  -6  -7    5.84    1.35
   6   6   7    6.77    3.50
   6   6   7   17.51    4.86
   6   6   8   17.68    4.99
   6   6   8   12.85    2.98
  -6  -6  -8    7.20    3.48
  -6  -6  -8   10.36    1.73
  -6  -6  -9   79.47    7.67
   6   6   9  102.06   10.36
   6   6   9   69.70    8.41
   6   6  10   18.92    4.10
   6   6  11   76.93    8.75
   6   7  -6    0.67    3.46
   6   7  -5    1.39    3.77
   6   7  -5    5.77    1.69
   6   7  -4    2.94    4.00
   6   7  -4    1.04    1.40
   6   7  -3   27.95    5.34
   6   7  -3   28.10    5.90
   6   7  -3   31.42    3.36
   6   7  -2    4.12    3.43
   6   7  -2    4.60    4.76
   6   7  -2    3.54    1.20
   6   7  -1  103.45    9.52
   6   7  -1   95.06   11.36
   6   7  -1  101.45   11.51
   6   7   0  120.94   11.25
   6   7   0  136.08   13.12
   6   7   1   30.04    5.22
   6   7   1   25.81    5.42
  -6  -7  -1   29.44    3.61
   6   7   1   22.25    2.39
  -6  -7  -2   -0.11    1.94
   6   7   2   -0.09    0.53
   6   7   2    0.37    0.49
   6   7   3   57.05    7.93
  -6  -7  -3   53.12    5.60
   6   7   4   31.21    5.99
   6   7   4   27.44    3.21
  -6  -7  -4   31.39    3.78
   6   7   5    4.45    3.97
  -6  -7  -5    2.12    2.35
   6   7   5    0.80    2.01
   6   7   6   16.53    4.66
  -6  -7  -6   10.88    3.03
   6   7   6   11.75    4.57
   6   7   7  190.76   17.17
   6   7   7  148.51   14.98
   6   7   8    2.07    2.66
   6   7   8    2.77    4.68
   6   8  -4   62.80    7.67
   6   8  -4   56.15    5.78
   6   8  -3   66.35    6.86
   6   8  -3   81.51    8.92
   6   8  -3   90.80    9.27
   6   8  -2   17.77    4.47
   6   8  -2   15.39    5.26
   6   8  -2   13.37    1.88
   6   8  -1    0.39    3.57
   6   8  -1   -3.21    5.05
   6   8  -1    0.74    1.06
   6   8   0   60.19    8.03
   6   8   0   59.75    5.69
   6   8   1    1.20    3.65
   6   8   1   -0.27    4.59
   6   8   1   -0.36    1.11
   6   8   2  200.01   20.49
   6   8   3    3.31    3.98
  -6  -8  -3    9.16    2.34
   6   8   4   23.16    5.39
  -6  -8  -4   17.36    2.72
   6   8   5    2.54    4.26
   6   8   6   46.45    7.11
   6   8   7   23.67    5.46
   6   8   8   38.44    6.44
   6   9  -2    0.96    5.21
   6   9  -1    6.19    3.66
   6   9  -1   11.58    5.66
   6   9   0    1.97    5.09
   6   9   1   30.77    5.62
   6   9   2    3.09    3.81
   6   9   3   36.88    6.42
   6   9   4   37.60    6.46
   6   9   6   42.99    6.69
   6   9   7    8.58    4.13
  -7   7   1   14.00    4.62
  -7   7   0    6.75    4.67
  -7   7  -1   36.83    6.94
  -7   6   3    4.59    3.76
  -7   6   2   51.54    6.99
  -7   6   1   86.01    8.77
  -7   6   1  105.10   10.35
  -7   6   0    3.41    4.44
  -7   6   0   -0.85    1.52
  -7   6  -1   13.10    5.10
  -7   6  -2    1.31    5.01
  -7   6  -2    6.48    1.73
  -7   6  -3    8.37    5.33
  -7   6  -3    9.26    2.05
  -7   6  -4    6.30    1.76
  -7   6  -5    1.33    1.47
  -7   5   5   11.04    2.97
  -7   5   4    9.17    3.37
  -7   5   3   16.42    4.43
  -7   5   3   25.77    3.07
  -7   5   2    3.17    3.82
  -7   5   2    1.29    1.63
  -7   5   1    5.49    3.97
  -7   5   1    4.54    1.70
  -7   5   0   25.07    5.18
  -7   5   0   23.36    2.92
  -7   5  -1   31.63    6.25
  -7   5  -1   36.25    3.96
  -7   5  -2    2.81    4.74
  -7   5  -2    1.16    1.25
  -7   5  -3    3.84    4.97
  -7   5  -3    5.50    1.72
  -7   5  -4    6.73    5.50
  -7   5  -4    4.83    1.54
  -7   5  -5  168.24   15.66
  -7   4   6   11.24    3.48
  -7   4   5    2.14    2.74
  -7   4   4  191.29   17.68
  -7   4   4  179.25   17.16
  -7   4   3   10.09    3.71
  -7   4   3   10.71    2.03
  -7   4   2    1.76    3.56
   7  -4  -2   -0.49    1.41
  -7   4   2   -0.68    1.33
  -7   4   1    4.19    3.77
   7  -4  -1    4.89    1.59
  -7   4   1    3.18    1.53
  -7   4   1    7.66    3.67
  -7   4   0   42.53    6.39
  -7   4   0   45.28    4.74
  -7   4   0   56.26    6.97
  -7   4  -1  183.72   16.61
  -7   4  -1  173.60   15.09
  -7   4  -2   -0.30    4.47
  -7   4  -2   -1.84    3.80
  -7   4  -2    1.47    1.35
  -7   4  -3    8.28    4.90
  -7   4  -3    9.61    1.72
  -7   4  -4   26.41    6.60
  -7   4  -4   39.37    4.05
  -7   4  -5  303.56   27.73
  -7   4  -6  285.48   26.10
  -7   3   6   62.64    7.30
  -7   3   6   64.96    6.56
  -7   3   5    0.62    2.64
  -7   3   5    0.11    1.81
  -7   3   4    2.82    2.85
   7  -3  -4    3.34    5.32
  -7   3   4   -0.20    1.53
  -7   3   3   14.75    3.89
   7  -3  -3   16.22    5.82
   7  -3  -3   18.37    2.49
  -7   3   3   15.78    2.37
  -7   3   2   -0.43    3.43
   7  -3  -2    1.30    5.19
   7  -3  -2    4.02    1.51
  -7   3   2    5.11    1.52
  -7   3   1    3.42    3.48
   7  -3  -1    0.44    5.12
   7  -3  -1    1.49    1.20
  -7   3   1    1.12    1.32
  -7   3   1   -1.11    3.22
  -7   3   0   12.18    4.20
   7  -3   0    8.27    5.51
   7  -3   0   14.61    1.91
  -7   3   0   12.33    4.00
  -7   3   0   13.18    2.02
  -7   3  -1   15.10    4.66
   7  -3   1   21.09    5.48
  -7   3  -1   12.54    4.11
  -7   3  -1   16.21    2.12
  -7   3  -2   10.37    4.98
  -7   3  -2    8.90    3.80
  -7   3  -2   11.42    1.80
  -7   3  -3   13.33    4.95
  -7   3  -3   18.02    4.01
   7  -3   3   11.54    5.01
  -7   3  -3   10.20    1.73
   7  -3   4    1.11    5.71
  -7   3  -4    1.90    4.85
  -7   3  -4   -1.79    3.28
   7  -3   4    0.77    4.39
  -7   3  -4   -0.79    1.05
  -7   3  -5   -0.28    1.01
  -7   3  -5    4.60    3.50
  -7   3  -6    6.94    1.36
  -7   2   7    3.28    1.78
  -7   2   6   25.55    4.30
   7  -2  -6   30.94    6.69
  -7   2   6   22.02    3.13
  -7   2   5    0.32    2.56
   7  -2  -5    6.29    5.08
  -7   2   4    3.79    2.56
   7  -2  -4    0.77    1.39
  -7   2   4    1.25    1.55
  -7   2   3   10.11    3.55
   7  -2  -3   31.93    6.48
   7  -2  -3   17.10    2.39
  -7   2   3   17.84    2.43
  -7   2   2    2.56    3.41
   7  -2  -2    0.09    1.19
  -7   2   2    0.08    1.35
  -7   2   1   45.64    6.98
   7  -2  -1   55.62    5.63
  -7   2   1   62.33    5.71
  -7   2   1   51.41    6.79
   7  -2  -1   77.36    9.38
  -7   2   0   49.44    7.15
   7  -2   0   64.81    5.82
  -7   2   0   57.09    5.86
  -7   2   0   48.96    7.02
   7  -2   0   89.12    9.49
  -7   2  -1    8.43    4.10
  -7   2  -1    9.88    3.72
   7  -2   1   22.71    5.63
  -7   2  -1   10.42    1.69
  -7   2  -2    8.57    4.54
  -7   2  -2   19.33    3.75
   7  -2   2   16.37    6.02
  -7   2  -2   12.79    1.80
  -7   2  -3   14.37    4.62
  -7   2  -3   13.34    3.59
   7  -2   3   24.39    5.86
  -7   2  -3   13.17    1.81
  -7   2  -4   19.68    4.16
  -7   2  -4   25.28    2.74
   7  -2   4   32.77    6.35
  -7   2  -5   31.62    3.24
   7  -2   5   35.42    6.56
  -7   2  -5   26.26    4.46
  -7   2  -6  103.17    9.87
  -7   2  -6  108.32   10.94
   7  -2   6  128.93   12.74
   7  -2   7    0.99    4.05
  -7   1   7    0.66    1.66
  -7   1   6    3.35    1.42
  -7   1   6    0.56    2.99
  -7   1   6    4.95    1.97
  -7   1   5    2.51    2.66
   7  -1  -5    0.69    1.41
  -7   1   5   -0.68    1.61
  -7   1   4   10.31    3.02
   7  -1  -4    8.93    1.77
  -7   1   4    9.15    1.92
  -7   1   3    2.77    3.06
   7  -1  -3    0.50    1.26
  -7   1   3    2.16    1.32
  -7   1   2    5.58    3.23
   7  -1  -2    5.90    1.49
  -7   1   2    6.27    1.49
  -7   1   1    8.08    3.51
   7  -1  -1    9.25    1.58
  -7   1   1   11.42    1.72
  -7   1   1    9.05    3.00
  -7   1   0   12.36    4.02
   7  -1   0    9.38    1.51
  -7   1   0    9.06    3.22
  -7   1   0   11.76    1.65
  -7   1  -1   35.23    6.72
  -7   1  -1   46.74    6.26
  -7   1  -1   60.41    5.30
  -7   1  -2    4.89    2.77
  -7   1  -3   44.48    5.43
   7  -1   4   10.85    5.44
  -7   1  -4    0.17    2.62
  -7   1  -5    3.16    4.54
   7  -1   5   13.61    5.66
   7  -1   5    0.72    5.37
  -7   1  -5    1.51    2.53
   7  -1   6   88.66   10.55
   7  -1   6   88.14   11.04
  -7   1  -6   88.40    9.10
   7  -1   7   -1.17    5.13
  -7   1  -7    4.75    2.55
   7  -1   8   41.02    6.70
   7  -1   9  126.80   13.24
  -7   0   7   16.92    2.51
  -7   0   6    1.49    1.39
  -7   0   5   28.39    4.39
   7   0  -5   28.05    3.33
  -7   0   5   26.08    3.08
   7   0  -4    3.44    4.66
  -7   0   4    3.21    2.56
   7   0  -4    0.27    1.34
  -7   0   4    2.13    1.43
  -7   0   3   63.78    7.30
   7   0  -3   63.11    6.48
  -7   0   3   72.22    6.57
  -7   0   2    6.53    3.55
   7   0  -2   17.78    2.14
  -7   0   2   16.99    2.19
  -7   0   1    8.33    3.58
   7   0  -1   10.60    1.63
  -7   0   1   11.35    2.96
  -7   0   1   10.75    1.68
  -7   0   0   91.78   10.25
   7   0   0  100.30    9.46
  -7   0   0  105.78    9.49
  -7   0  -1   90.51    9.12
   7   0   1   87.69    8.20
  -7   0  -2   39.28    5.02
  -7   0  -2   41.51    4.00
  -7   0  -3   35.18    4.71
  -7   0  -3   25.74    5.78
  -7   0  -3   39.29    3.66
  -7   0  -4   46.42    7.17
  -7   0  -4   51.76    4.84
  -7   0  -4   51.67    5.76
  -7   0  -5   70.50    6.58
  -7   0  -5   75.75    7.52
  -7   0  -5   75.71    9.09
  -7   0  -6    6.56    4.95
   7   0   6    9.54    5.10
  -7   0  -6   13.96    2.82
   7   0   7   73.18    9.18
  -7   0  -7   62.71    6.76
   7   0   7   59.79    8.10
   7   0   8    9.20    5.14
   7   0   8   12.12    3.76
   7   0   9   53.28    7.05
   7   0   9   37.07    5.87
  -7  -1   6   21.06    2.66
  -7  -1   5   81.12    8.00
   7   1  -5   57.04    6.87
  -7  -1   5   81.29    6.92
   7   1  -4    5.05    4.46
  -7  -1   4    3.71    1.18
  -7  -1   4    4.24    2.76
   7   1  -4    2.32    1.29
   7   1  -3    5.50    4.80
  -7  -1   3    7.66    2.77
   7   1  -2    7.80    1.50
  -7  -1   2    8.32    2.44
  -7  -1   1    1.66    2.28
   7   1  -1   -0.12    0.98
  -7  -1   1   -0.17    1.04
  -7  -1   0  105.77   12.09
  -7  -1   0  118.05   11.61
   7   1   0  122.13   11.00
   7   1   1   74.33    7.02
  -7  -1  -1   81.79    7.05
  -7  -1  -1   67.55    7.72
  -7  -1  -1   57.28    8.30
  -7  -1  -2   25.17    3.74
  -7  -1  -2   21.25    4.65
  -7  -1  -2   29.01    2.76
  -7  -1  -3   49.58    7.41
  -7  -1  -3   59.14    5.40
  -7  -1  -3   58.24    6.23
  -7  -1  -4   29.24    5.72
  -7  -1  -4   30.16    3.81
  -7  -1  -5    0.84    4.17
  -7  -1  -5    0.12    1.91
  -7  -1  -6    5.06    4.51
   7   1   6   -0.33    4.95
  -7  -1  -6    2.50    1.86
  -7  -1  -7   18.59    5.38
   7   1   7    3.59    4.19
  -7  -1  -7   10.96    2.53
   7   1   7   18.33    3.66
   7   1   8   33.09    6.62
  -7  -1  -8   25.39    3.42
   7   1   8   15.86    4.33
   7   1   9   13.13    5.26
   7   1   9    5.74    3.49
   7   2  -6    7.17    1.75
  -7  -2   5   34.49    5.29
   7   2  -5   38.53    4.06
   7   2  -4   23.96    6.12
   7   2  -4   30.70    3.58
  -7  -2   4   35.50    3.45
   7   2  -3    0.86    1.08
  -7  -2   2   18.47    3.76
   7   2  -2   29.34    2.91
  -7  -2   2   24.31    3.43
  -7  -2   1   43.56    5.52
   7   2  -1   44.05    4.19
  -7  -2   1   36.78    4.69
  -7  -2   0   34.06    5.96
   7   2   0   53.53    4.88
  -7  -2   0   53.03    5.42
  -7  -2  -1   62.02    8.05
   7   2   1   73.72    6.63
  -7  -2  -1   67.46    7.17
  -7  -2  -2    2.16    3.29
  -7  -2  -2    1.29    1.81
  -7  -2  -3    3.27    3.35
  -7  -2  -3   -0.29    1.71
  -7  -2  -4   17.37    4.87
  -7  -2  -4   20.48    2.80
  -7  -2  -5    5.85    4.52
  -7  -2  -5    4.69    1.74
  -7  -2  -6    5.05    4.31
  -7  -2  -6    8.45    1.99
  -7  -2  -7    2.69    4.47
   7   2   7    1.92    4.33
  -7  -2  -7    3.50    1.73
   7   2   7    3.33    2.94
  -7  -2  -8    1.33    5.02
  -7  -2  -8    1.86    1.81
   7   2   8    2.92    3.90
   7   2   8    4.46    3.09
   7   2   9   25.92    6.03
   7   2   9    9.55    3.86
   7   2  10    1.33    3.55
   7   3  -5    0.24    1.29
  -7  -3   4   48.23    5.90
   7   3  -4   46.32    4.72
  -7  -3   3  267.58   25.02
   7   3  -3  257.29   24.37
  -7  -3   3  280.54   24.25
   7   3  -3  223.06   25.70
   7   3  -2    5.21    4.55
  -7  -3   2    4.19    2.33
  -7  -3   2    0.55    0.68
  -7  -3   2    0.24    1.50
   7   3  -2    0.18    1.02
   7   3  -1   10.86    5.10
  -7  -3   1   16.79    2.29
  -7  -3   1   14.06    3.41
   7   3  -1   16.57    1.95
  -7  -3   0   61.68    7.61
   7   3   0   68.95    6.44
  -7  -3   0   70.60    6.69
  -7  -3  -1   10.09    3.42
   7   3   1   14.31    1.58
  -7  -3  -1   17.05    2.16
  -7  -3  -2   50.78    7.42
  -7  -3  -2   69.03    6.35
  -7  -3  -3   21.50    4.39
  -7  -3  -3   19.52    2.49
  -7  -3  -4    1.39    3.59
  -7  -3  -4    2.51    1.36
  -7  -3  -5    0.27    3.84
  -7  -3  -5    1.12    1.36
  -7  -3  -6    5.04    4.27
  -7  -3  -6    7.02    1.76
   7   3   6    9.08    2.95
  -7  -3  -7   72.03    8.99
   7   3   7   84.83    8.16
   7   3   7   53.47    8.57
  -7  -3  -7   73.98    7.28
  -7  -3  -8    9.25    5.05
  -7  -3  -8   11.76    2.14
   7   3   8    8.21    3.65
   7   3   8    7.63    4.17
  -7  -3  -9    4.53    5.07
  -7  -3  -9    3.94    1.74
   7   3   9    7.39    3.64
  -7  -3 -10    6.66    5.61
   7   3  10    9.52    4.24
   7   4  -7  144.69   15.48
   7   4  -5   21.50    2.69
   7   4  -4    6.09    1.39
   7   4  -3    6.94    4.72
  -7  -4   3    9.48    3.35
   7   4  -3   13.15    1.71
  -7  -4   2  146.13   14.29
   7   4  -2  147.14   13.52
   7   4  -2  147.77   15.35
  -7  -4   1   44.74    4.48
   7   4  -1   44.00    6.42
   7   4  -1   43.15    3.30
  -7  -4   1   28.95    2.91
  -7  -4   0   10.40    3.19
   7   4   0   12.53    1.44
  -7  -4   0   10.44    1.17
  -7  -4  -1   45.32    6.90
   7   4   1   60.89    5.62
  -7  -4  -1   62.88    5.66
  -7  -4  -2   41.77    6.24
  -7  -4  -2   53.21    4.92
  -7  -4  -3   15.44    4.03
  -7  -4  -3   13.43    1.74
  -7  -4  -4   16.18    4.46
  -7  -4  -4   30.91    3.10
  -7  -4  -5   11.80    4.10
  -7  -4  -5   13.22    1.89
  -7  -4  -6    0.77    4.04
  -7  -4  -6    3.74    1.30
   7   4   6   -1.41    2.60
   7   4   7   37.17    6.47
  -7  -4  -7   41.99    6.62
   7   4   7   32.00    5.14
  -7  -4  -7   41.91    4.17
  -7  -4  -8    1.12    4.35
  -7  -4  -8    3.92    1.51
   7   4   8    3.15    3.36
   7   4   8    9.48    3.97
  -7  -4  -9   29.45    5.99
  -7  -4  -9   26.22    3.42
   7   4   9   26.23    4.75
   7   4   9   33.59    5.10
  -7  -4 -10    8.33    5.26
   7   4  10    8.88    3.74
   7   5  -6   38.27    6.62
   7   5  -5  126.19   11.88
   7   5  -4   17.19    2.23
   7   5  -3    0.67    1.15
   7   5  -2   -0.89    4.53
  -7  -5   2   -0.89    2.72
   7   5  -2    0.28    0.98
   7   5  -1   16.25    5.24
  -7  -5   1   13.57    3.11
   7   5  -1   13.11    1.65
  -7  -5   0    4.09    2.36
   7   5   0    2.72    0.84
  -7  -5  -1   16.90    3.63
   7   5   1   20.00    1.98
  -7  -5  -2   41.40    5.84
  -7  -5  -2   47.79    4.34
  -7  -5  -3    2.57    3.10
  -7  -5  -3    1.93    0.67
  -7  -5  -4   15.39    3.89
  -7  -5  -4   10.43    1.56
  -7  -5  -5    8.18    3.74
  -7  -5  -5   11.88    1.77
  -7  -5  -6   26.00    4.69
   7   5   6   24.77    3.96
   7   5   7   54.41    8.04
   7   5   7   73.65    7.17
  -7  -5  -7   53.00    7.66
  -7  -5  -8    0.26    4.21
   7   5   8    2.36    2.77
   7   5   8    6.02    3.76
  -7  -5  -9    1.71    4.60
   7   5   9    3.63    3.16
   7   6  -5   26.28    5.77
   7   6  -4    2.46    4.09
   7   6  -4    1.87    1.30
   7   6  -3    2.84    1.19
   7   6  -2    6.47    5.09
   7   6  -2    6.90    1.31
   7   6  -1    0.30    4.75
  -7  -6   1   -0.87    2.81
   7   6  -1    2.46    0.96
   7   6   0   29.03    6.82
  -7  -6   0   40.77    4.88
  -7  -6  -1   50.99    5.74
  -7  -6  -2    1.33    2.49
  -7  -6  -3   12.91    3.25
  -7  -6  -4    1.46    3.04
  -7  -6  -5   28.59    4.62
  -7  -6  -6   48.78    6.29
  -7  -6  -7   31.50    5.02
   7   7  -3   -0.44    4.20
   7   7  -2    8.65    4.62
   7   7  -1   22.42    6.02
   7   7  -1   21.18    5.28
  -7  -7   0  430.63   40.13
   7   7   0  446.31   41.17
  -7  -7  -1  464.70   42.62
  -7  -7  -2    1.05    2.21
  -7  -7  -3    1.26    2.20
  -7  -7  -4   52.46    5.93
  -7  -7  -5  172.79   17.97
   7   7   5  267.54   21.13
  -7  -7  -6   23.20    4.22
   7   7   6   35.45    6.59
   7   7   7   41.51    7.47
   7   7   8   22.33    6.72
   7   8  -1  134.08   14.76
   7   8   0   47.79    8.03
   7   8   1   42.20    7.41
   7   8   2   19.01    5.85
  -7  -8  -2   14.32    3.02
   7   8   3   18.51    6.25
  -7  -8  -3   15.35    3.14
   7   8   4   14.99    6.25
   7   8   5   89.85   11.99
   7   8   6   66.32    9.73
   7   8   7    9.10    5.18
  -8   5   0    2.78    1.71
  -8   5  -1    7.71    1.82
  -8   5  -2   31.82    3.64
  -8   4   2    5.00    1.90
  -8   4   1    0.78    4.06
  -8   4   1    1.91    1.58
  -8   4   0   96.66    9.78
  -8   4   0  125.98   11.65
  -8   4  -1   10.01    4.70
  -8   4  -1    3.89    1.46
  -8   4  -2    3.39    1.38
  -8   3   3    1.68    1.66
  -8   3   2   41.92    6.44
   8  -3  -2   51.45    5.00
  -8   3   2   44.83    4.92
  -8   3   1    1.78    3.78
   8  -3  -1    0.61    1.41
  -8   3   1    0.60    1.34
  -8   3   0    5.28    4.05
  -8   3   0    2.49    1.34
  -8   3  -1    1.93    4.05
  -8   3  -1    2.04    1.47
  -8   3  -2   26.29    5.77
  -8   3  -2   22.34    2.68
  -8   3  -3    2.09    5.29
  -8   2   4    1.03    1.70
  -8   2   3   38.03    6.77
   8  -2  -3   59.07    5.92
  -8   2   3   65.26    5.96
  -8   2   2   21.39    4.65
   8  -2  -2   24.81    2.84
  -8   2   2   21.61    2.80
  -8   2   2   19.30    4.57
  -8   2   1    7.40    3.96
   8  -2  -1    7.74    1.68
  -8   2   1    6.70    3.82
  -8   2   1   12.32    1.93
  -8   2   0    2.08    4.05
  -8   2   0    2.94    3.74
   8  -2   0    0.07    1.14
  -8   2   0   -0.07    1.30
  -8   2  -1   12.93    4.46
  -8   2  -1   10.26    3.62
  -8   2  -1   10.61    1.75
  -8   2  -2   30.00    6.19
  -8   2  -2   36.32    5.36
  -8   2  -2   38.98    3.93
  -8   2  -3    1.33    4.87
  -8   2  -3    0.66    3.18
  -8   2  -4    3.08    5.15
  -8   1   5   11.07    2.25
  -8   1   4    3.72    1.69
  -8   1   3    1.18    3.10
   8  -1  -3    0.93    1.37
  -8   1   3    0.62    1.38
  -8   1   2   27.12    5.68
   8  -1  -2   39.53    4.23
  -8   1   2   43.98    4.31
  -8   1   2   43.42    5.51
  -8   1   1  466.88   43.16
  -8   1   1  444.24   42.90
   8  -1  -1  469.98   42.10
  -8   1   0    9.97    4.40
  -8   1   0   17.22    4.06
   8  -1   0   17.28    2.18
  -8   1   0   20.42    2.31
  -8   1  -1    1.26    3.92
  -8   1  -1    4.71    3.27
  -8   1  -1    4.10    1.31
  -8   1  -2    4.72    2.99
  -8   1  -2    4.34    1.19
  -8   1  -3   41.50    5.73
  -8   1  -4  197.79   19.00
  -8   1  -5    2.73    4.79
  -8   1  -5    1.68    2.69
  -8   1  -6    6.48    5.37
   8   0  -4   13.89    2.14
  -8   0   3   73.81    8.43
   8   0  -3   77.35    7.65
  -8   0   3   82.95    7.73
  -8   0   2  151.43   16.50
  -8   0   2  176.83   16.41
   8   0  -2  172.86   15.63
  -8   0   2  166.82   15.58
  -8   0   1  329.77   32.45
  -8   0   1  305.86   32.08
   8   0  -1  333.20   31.42
  -8   0   1  379.28   31.45
   8   0   0   51.19    5.03
  -8   0   0   42.22    6.01
  -8   0   0   54.50    5.09
  -8   0  -1   38.35    5.17
  -8   0  -1   39.46    3.93
  -8   0  -2   24.45    3.95
  -8   0  -3    0.87    4.21
  -8   0  -3    4.37    2.73
  -8   0  -4    4.91    4.86
  -8   0  -4    7.93    2.77
  -8   0  -5    5.37    5.05
  -8   0  -5   15.53    3.14
  -8   0  -6   16.04    5.38
  -8   0  -6   11.35    2.83
   8   1  -4   -0.45    1.39
  -8  -1   3   20.35    3.77
   8   1  -3   21.90    2.62
   8   1  -2    3.29    1.18
  -8  -1   1    5.65    2.73
   8   1  -1    1.12    1.10
  -8  -1   0    2.57    2.55
   8   1   0    0.60    0.95
  -8  -1  -1   27.76    3.86
  -8  -1  -1   23.87    4.73
  -8  -1  -2   36.25    5.26
  -8  -1  -2   26.54    3.99
  -8  -1  -3   -1.35    3.88
  -8  -1  -3    3.32    2.25
  -8  -1  -4    3.62    4.44
  -8  -1  -4    4.90    2.12
  -8  -1  -5    2.00    5.09
  -8  -1  -5    4.37    2.31
  -8  -1  -6   -0.33    4.63
  -8  -1  -6    2.47    2.10
  -8  -1  -7    5.49    5.18
  -8  -1  -7    6.46    2.35
   8   2  -4    1.76    1.37
   8   2  -3   28.67    3.23
  -8  -2   2    7.78    3.24
   8   2  -2   13.08    1.77
  -8  -2   1   51.43    7.86
   8   2  -1   76.13    6.79
  -8  -2   0   -3.67    3.64
  -8  -2  -1    4.87    3.72
  -8  -2  -1    4.48    2.31
  -8  -2  -2   55.50    6.69
  -8  -2  -2   43.23    5.04
  -8  -2  -3   13.11    4.18
  -8  -2  -3   16.69    2.63
  -8  -2  -4   -0.27    3.96
  -8  -2  -4    0.22    1.75
  -8  -2  -5   47.54    8.11
  -8  -2  -5   67.65    6.50
  -8  -2  -6    7.39    5.19
  -8  -2  -6    9.58    2.31
  -8  -2  -7  202.81   17.22
  -8  -2  -7  131.56   18.39
  -8  -2  -8   10.65    5.44
   8   2   9    5.71    3.78
  -8  -3   3    5.78    3.16
  -8  -3   2   14.34    3.29
  -8  -3   1   21.54    4.01
  -8  -3   0   -0.64    3.30
  -8  -3  -1   13.67    4.17
  -8  -3  -2  169.39   16.88
  -8  -3  -3    3.28    3.90
  -8  -3  -4   25.80    5.25
  -8  -3  -5  122.43   12.95
  -8  -3  -6  110.87   12.50
  -8  -3  -7  339.35   32.71
  -8  -3  -8   62.35    9.77
   8   3   8   84.14    8.61
   8   3   9    8.67    3.85
  -8  -4   3   19.46    4.05
  -8  -4   2   91.29    9.63
  -8  -4   1    1.19    2.46
  -8  -4   0   48.10    5.99
  -8  -4  -1   24.76    4.57
  -8  -4  -2    5.14    3.56
  -8  -4  -3   65.47    7.90
  -8  -4  -4   -2.23    3.91
  -8  -4  -5    5.89    3.93
  -8  -4  -6   66.48    8.34
  -8  -4  -7    4.60    4.37
  -8  -4  -8   19.20    5.92
  -8  -4  -9   32.74    6.93
  -8  -5   2    1.82    3.13
  -8  -5   1    3.72    2.74
  -8  -5   0   17.02    3.33
  -8  -5  -1   12.88    3.46
  -8  -5  -2   10.45    3.69
  -8  -5  -3    6.66    3.75
  -8  -5  -4   12.23    4.22
  -8  -5  -5   46.55    6.62
  -8  -5  -6    4.65    3.89
  -8  -5  -7   11.70    4.29
  -8  -5  -8   -1.86    4.15
  -8  -6   1   40.88    5.52
  -8  -6   0   33.43    4.79
  -8  -6  -1    9.12    2.87
  -8  -6  -2   14.51    3.45
  -8  -6  -3   12.58    3.63
  -8  -6  -4    8.59    3.78
  -8  -6  -5   19.90    4.47
  -8  -6  -6    7.67    4.04
  -8  -7   0   12.83    3.52
  -8  -7  -1   19.82    3.80
  -8  -7  -2   65.89    7.17
  -8  -7  -3    0.89    2.48
  -8  -7  -4   18.20    3.54
  -8  -8  -2   30.49    4.52
  -9  -3  -3    4.43    4.28
  -9  -4  -3   14.29    4.64
  -9  -4  -4   15.57    4.82
  -9  -5  -4    6.18    3.99
   0   0   0    0.00    0.00
;
_shelx_hkl_checksum              31933
loop_
_space_group_symop_operation_xyz
'x, y, z'
'-x, -y, -z'
loop_
_atom_site_label
_atom_site_type_symbol
_atom_site_fract_x
_atom_site_fract_y
_atom_site_fract_z
_atom_site_U_iso_or_equiv
_atom_site_adp_type
_atom_site_occupancy
_atom_site_site_symmetry_order
_atom_site_calc_flag
_atom_site_refinement_flags_posn
_atom_site_refinement_flags_adp
O1 O 0.79157(16) 0.44374(12) 0.87166(10) 0.0175(3) Uani 1 1 d . .
O2 O 0.77669(15) 0.36403(11) 0.67445(10) 0.0139(3) Uani 1 1 d . .
O3 O 0.77354(17) 0.91599(11) 0.57624(11) 0.0158(3) Uani 1 1 d . .
O4 O 0.66338(16) 0.17885(12) 0.27398(11) 0.0172(3) Uani 1 1 d . .
O5 O 0.96975(16) 0.07077(13) 0.24764(11) 0.0202(3) Uani 1 1 d . .
C1 C 0.7839(2) 0.47749(16) 0.75451(14) 0.0130(3) Uani 1 1 d . .
C2 C 0.7826(2) 0.62380(16) 0.68984(14) 0.0126(3) Uani 1 1 d . .
H2 H 0.790575 0.702976 0.741966 0.015 Uiso 1 1 calc R U
C3 C 0.7704(2) 0.65230(15) 0.55816(14) 0.0113(3) Uani 1 1 d . .
C4 C 0.7542(2) 0.53151(15) 0.47829(14) 0.0118(3) Uani 1 1 d . .
C5 C 0.7333(2) 0.54837(16) 0.34166(14) 0.0131(3) Uani 1 1 d . .
H5 H 0.733620 0.642713 0.296140 0.016 Uiso 1 1 calc R U
C6 C 0.7122(2) 0.42994(17) 0.27274(15) 0.0154(3) Uani 1 1 d . .
H6 H 0.699834 0.441666 0.180386 0.018 Uiso 1 1 calc R U
C7 C 0.7095(2) 0.29339(16) 0.34174(15) 0.0139(3) Uani 1 1 d . .
C8 C 0.7327(2) 0.26920(16) 0.47498(15) 0.0139(3) Uani 1 1 d . .
H8 H 0.733479 0.174161 0.519278 0.017 Uiso 1 1 calc R U
C9 C 0.7550(2) 0.39087(16) 0.54168(14) 0.0119(3) Uani 1 1 d . .
C10 C 0.7700(2) 0.80412(15) 0.49011(14) 0.0127(3) Uani 1 1 d . .
H10A H 0.882252 0.802654 0.421409 0.015 Uiso 1 1 calc R U
H10B H 0.654878 0.828856 0.444095 0.015 Uiso 1 1 calc R U
C11 C 0.8061(2) 0.07115(16) 0.23125(14) 0.0128(3) Uani 1 1 d . .
C12 C 0.7333(2) -0.04185(15) 0.16424(13) 0.0127(3) Uani 1 1 d . .
C13 C 0.5395(2) -0.05116(16) 0.17458(14) 0.0137(3) Uani 1 1 d . .
H13 H 0.449585 0.017338 0.223512 0.016 Uiso 1 1 calc R U
C14 C 0.4785(2) -0.16125(16) 0.11289(14) 0.0144(3) Uani 1 1 d . .
H14 H 0.346756 -0.169247 0.120659 0.017 Uiso 1 1 calc R U
C15 C 0.6111(2) -0.26005(16) 0.03952(14) 0.0152(3) Uani 1 1 d . .
H15 H 0.568819 -0.333969 -0.004088 0.018 Uiso 1 1 calc R U
C16 C 0.8046(2) -0.25132(16) 0.02964(14) 0.0161(3) Uani 1 1 d . .
H16 H 0.893974 -0.319305 -0.020197 0.019 Uiso 1 1 calc R U
C17 C 0.8669(2) -0.14295(16) 0.09282(14) 0.0144(3) Uani 1 1 d . .
H17 H 0.999031 -0.137420 0.087644 0.017 Uiso 1 1 calc R U
H3 H 0.883(3) 0.901(2) 0.607(2) 0.029(6) Uiso 1 1 d . .
loop_
_atom_site_aniso_label
_atom_site_aniso_U_11
_atom_site_aniso_U_22
_atom_site_aniso_U_33
_atom_site_aniso_U_23
_atom_site_aniso_U_13
_atom_site_aniso_U_12
O1 0.0259(6) 0.0150(6) 0.0115(5) -0.0009(4) -0.0017(4) -0.0028(4)
O2 0.0203(6) 0.0105(5) 0.0112(5) -0.0023(4) -0.0017(4) -0.0028(4)
O3 0.0222(6) 0.0097(5) 0.0169(5) -0.0061(4) -0.0041(4) -0.0020(4)
O4 0.0194(6) 0.0131(5) 0.0210(6) -0.0103(4) -0.0052(4) -0.0012(4)
O5 0.0176(6) 0.0228(6) 0.0223(6) -0.0127(5) -0.0021(4) -0.0040(5)
C1 0.0132(7) 0.0140(7) 0.0120(7) -0.0051(5) 0.0004(5) -0.0018(5)
C2 0.0144(7) 0.0114(7) 0.0122(7) -0.0046(5) -0.0002(5) -0.0012(5)
C3 0.0103(7) 0.0097(7) 0.0134(7) -0.0035(5) 0.0006(5) -0.0008(5)
C4 0.0122(7) 0.0107(7) 0.0126(7) -0.0035(5) -0.0002(5) -0.0015(6)
C5 0.0164(7) 0.0103(7) 0.0125(7) -0.0016(5) -0.0015(5) -0.0015(5)
C6 0.0178(8) 0.0174(8) 0.0115(7) -0.0051(6) -0.0022(6) -0.0018(6)
C7 0.0140(7) 0.0109(7) 0.0181(7) -0.0078(5) -0.0021(6) -0.0017(6)
C8 0.0149(7) 0.0093(7) 0.0174(8) -0.0030(5) -0.0001(6) -0.0017(6)
C9 0.0114(7) 0.0124(7) 0.0114(7) -0.0027(5) 0.0003(5) -0.0009(5)
C10 0.0180(7) 0.0102(7) 0.0109(7) -0.0036(5) -0.0031(5) -0.0024(5)
C11 0.0189(8) 0.0117(7) 0.0076(6) -0.0016(5) 0.0005(5) -0.0030(6)
C12 0.0203(8) 0.0102(7) 0.0079(7) -0.0017(5) -0.0022(5) -0.0024(6)
C13 0.0186(8) 0.0122(7) 0.0098(7) -0.0017(5) -0.0005(5) -0.0012(6)
C14 0.0176(7) 0.0148(7) 0.0119(7) 0.0014(5) -0.0037(6) -0.0053(6)
C15 0.0259(8) 0.0119(7) 0.0094(7) -0.0015(5) -0.0046(6) -0.0050(6)
C16 0.0247(8) 0.0132(7) 0.0097(7) -0.0039(5) 0.0001(6) -0.0006(6)
C17 0.0166(7) 0.0147(7) 0.0117(7) -0.0023(5) 0.0001(6) -0.0022(6)
loop_
_atom_type_symbol
_atom_type_description
_atom_type_scat_dispersion_real
_atom_type_scat_dispersion_imag
_atom_type_scat_source
C C 0.0033 0.0016 'International Tables Vol C Tables 4.2.6.8 and 6.1.1.4'
H H 0.0000 0.0000 'International Tables Vol C Tables 4.2.6.8 and 6.1.1.4'
O O 0.0106 0.0060 'International Tables Vol C Tables 4.2.6.8 and 6.1.1.4'
loop_
_geom_angle_atom_site_label_1
_geom_angle_atom_site_label_2
_geom_angle_atom_site_label_3
_geom_angle
C9 O2 C1 121.47(11)
C10 O3 H3 108.5(14)
C11 O4 C7 118.37(11)
O1 C1 O2 116.48(13)
O1 C1 C2 126.53(12)
O2 C1 C2 116.99(12)
C3 C2 C1 122.68(12)
C3 C2 H2 118.7
C1 C2 H2 118.7
C2 C3 C4 118.82(13)
C2 C3 C10 122.94(12)
C4 C3 C10 118.24(12)
C9 C4 C5 117.86(12)
C9 C4 C3 118.06(13)
C5 C4 C3 124.06(13)
C6 C5 C4 121.14(14)
C6 C5 H5 119.4
C4 C5 H5 119.4
C5 C6 C7 118.43(13)
C5 C6 H6 120.8
C7 C6 H6 120.8
C8 C7 C6 123.19(13)
C8 C7 O4 119.21(13)
C6 C7 O4 117.33(13)
C7 C8 C9 116.99(13)
C7 C8 H8 121.5
C9 C8 H8 121.5
O2 C9 C4 121.79(12)
O2 C9 C8 115.85(13)
C4 C9 C8 122.35(13)
O3 C10 C3 114.50(11)
O3 C10 H10A 108.6
C3 C10 H10A 108.6
O3 C10 H10B 108.6
C3 C10 H10B 108.6
H10A C10 H10B 107.6
O5 C11 O4 122.84(12)
O5 C11 C12 125.62(13)
O4 C11 C12 111.54(12)
C13 C12 C17 120.57(13)
C13 C12 C11 121.69(13)
C17 C12 C11 117.70(14)
C14 C13 C12 119.58(13)
C14 C13 H13 120.2
C12 C13 H13 120.2
C13 C14 C15 119.87(14)
C13 C14 H14 120.1
C15 C14 H14 120.1
C16 C15 C14 120.60(13)
C16 C15 H15 119.7
C14 C15 H15 119.7
C17 C16 C15 119.86(13)
C17 C16 H16 120.1
C15 C16 H16 120.1
C16 C17 C12 119.49(14)
C16 C17 H17 120.3
C12 C17 H17 120.3
loop_
_geom_bond_atom_site_label_1
_geom_bond_atom_site_label_2
_geom_bond_distance
O1 C1 1.2111(18)
O2 C9 1.3761(18)
O2 C1 1.3890(16)
O3 C10 1.4127(16)
O3 H3 0.87(2)
O4 C11 1.3647(18)
O4 C7 1.4102(16)
O5 C11 1.2055(19)
C1 C2 1.449(2)
C2 C3 1.354(2)
C2 H2 0.9500
C3 C4 1.4588(18)
C3 C10 1.507(2)
C4 C9 1.397(2)
C4 C5 1.410(2)
C5 C6 1.3829(19)
C5 H5 0.9500
C6 C7 1.389(2)
C6 H6 0.9500
C7 C8 1.382(2)
C8 C9 1.3981(19)
C8 H8 0.9500
C10 H10A 0.9900
C10 H10B 0.9900
C11 C12 1.4841(18)
C12 C13 1.393(2)
C12 C17 1.402(2)
C13 C14 1.3892(19)
C13 H13 0.9500
C14 C15 1.395(2)
C14 H14 0.9500
C15 C16 1.390(2)
C15 H15 0.9500
C16 C17 1.390(2)
C16 H16 0.9500
C17 H17 0.9500
loop_
_geom_hbond_atom_site_label_D
_geom_hbond_atom_site_label_H
_geom_hbond_atom_site_label_A
_geom_hbond_distance_DH
_geom_hbond_distance_HA
_geom_hbond_distance_DA
_geom_hbond_angle_DHA
_geom_hbond_site_symmetry_A
O3 H3 O5 0.87(2) 1.98(2) 2.7561(16) 148(2) 2_766
loop_
_geom_torsion_atom_site_label_1
_geom_torsion_atom_site_label_2
_geom_torsion_atom_site_label_3
_geom_torsion_atom_site_label_4
_geom_torsion
C9 O2 C1 O1 175.64(12)
C9 O2 C1 C2 -4.7(2)
O1 C1 C2 C3 -178.82(15)
O2 C1 C2 C3 1.5(2)
C1 C2 C3 C4 1.2(2)
C1 C2 C3 C10 -179.64(13)
C2 C3 C4 C9 -0.9(2)
C10 C3 C4 C9 179.86(13)
C2 C3 C4 C5 177.47(13)
C10 C3 C4 C5 -1.7(2)
C9 C4 C5 C6 0.6(2)
C3 C4 C5 C6 -177.76(13)
C4 C5 C6 C7 0.9(2)
C5 C6 C7 C8 -2.0(2)
C5 C6 C7 O4 171.98(13)
C11 O4 C7 C8 -79.93(17)
C11 O4 C7 C6 105.81(16)
C6 C7 C8 C9 1.6(2)
O4 C7 C8 C9 -172.32(12)
C1 O2 C9 C4 5.1(2)
C1 O2 C9 C8 -174.47(12)
C5 C4 C9 O2 179.33(13)
C3 C4 C9 O2 -2.2(2)
C5 C4 C9 C8 -1.1(2)
C3 C4 C9 C8 177.40(13)
C7 C8 C9 O2 179.62(13)
C7 C8 C9 C4 0.0(2)
C2 C3 C10 O3 -3.1(2)
C4 C3 C10 O3 176.04(12)
C7 O4 C11 O5 -0.9(2)
C7 O4 C11 C12 179.00(12)
O5 C11 C12 C13 165.77(15)
O4 C11 C12 C13 -14.09(19)
O5 C11 C12 C17 -12.3(2)
O4 C11 C12 C17 167.86(12)
C17 C12 C13 C14 -0.3(2)
C11 C12 C13 C14 -178.33(13)
C12 C13 C14 C15 -1.0(2)
C13 C14 C15 C16 1.3(2)
C14 C15 C16 C17 -0.3(2)
C15 C16 C17 C12 -1.0(2)
C13 C12 C17 C16 1.3(2)
C11 C12 C17 C16 179.42(13)
