#------------------------------------------------------------------------------
#$Date: 2017-03-05 06:46:36 +0200 (Sun, 05 Mar 2017) $
#$Revision: 193722 $
#$URL: file:///home/coder/svn-repositories/cod/cif/7/11/95/7119522.cif $
#------------------------------------------------------------------------------
#
# This file is available in the Crystallography Open Database (COD),
# http://www.crystallography.net/
#
# All data on this site have been placed in the public domain by the
# contributors.
#
data_7119522
loop_
_publ_author_name
'Offiler, Caroline A.'
'Jones, Christopher D.'
'Steed, Jonathan W.'
_publ_section_title
;
 Metal 'turn-off', anion 'turn-on' gelation cascade in pyridinylmethyl
 ureas.
;
_journal_issue                   12
_journal_name_full
'Chemical communications (Cambridge, England)'
_journal_page_first              2024
_journal_page_last               2027
_journal_paper_doi               10.1039/c6cc09126a
_journal_volume                  53
_journal_year                    2017
_chemical_formula_moiety         'C14 H15 N3 O'
_chemical_formula_sum            'C14 H15 N3 O'
_chemical_formula_weight         241.29
_space_group_crystal_system      monoclinic
_space_group_IT_number           4
_space_group_name_Hall           'P 2yb'
_space_group_name_H-M_alt        'P 1 21 1'
_symmetry_space_group_name_Hall  'P 2yb'
_symmetry_space_group_name_H-M   'P 1 21 1'
_atom_sites_solution_hydrogens   geom
_atom_sites_solution_primary     direct
_audit_creation_date             2016-11-14
_audit_creation_method
;
Olex2 1.2
(compiled 2016.09.09 svn.r3337 for OlexSys, GUI svn.r5227)
;
_audit_update_record
;
2016-11-15 deposited with the CCDC.
2017-01-20 downloaded from the CCDC.
;
_cell_angle_alpha                90
_cell_angle_beta                 106.629(4)
_cell_angle_gamma                90
_cell_formula_units_Z            2
_cell_length_a                   4.5946(6)
_cell_length_b                   24.212(3)
_cell_length_c                   5.7315(8)
_cell_measurement_reflns_used    2692
_cell_measurement_temperature    120
_cell_measurement_theta_max      30.746
_cell_measurement_theta_min      3.365
_cell_volume                     610.93(14)
_computing_cell_refinement       'SAINT v8.34A (Bruker, 2013)'
_computing_data_reduction        'SAINT v8.34A (Bruker, 2013)'
_computing_molecular_graphics    'Olex2 (Dolomanov et al., 2009)'
_computing_publication_material  'Olex2 (Dolomanov et al., 2009)'
_computing_structure_refinement  'ShelXL (Sheldrick, 2015)'
_computing_structure_solution    'ShelXS (Sheldrick, 2008)'
_diffrn_ambient_temperature      120
_diffrn_measured_fraction_theta_full 0.993
_diffrn_measured_fraction_theta_max 0.990
_diffrn_measurement_device_type  'Bruker APEX-II CCD'
_diffrn_measurement_method       '\f and \w scans'
_diffrn_radiation_type           MoK\a
_diffrn_radiation_wavelength     0.71073
_diffrn_reflns_av_R_equivalents  0.0432
_diffrn_reflns_av_unetI/netI     0.0728
_diffrn_reflns_Laue_measured_fraction_full 0.993
_diffrn_reflns_Laue_measured_fraction_max 0.990
_diffrn_reflns_limit_h_max       6
_diffrn_reflns_limit_h_min       -7
_diffrn_reflns_limit_k_max       28
_diffrn_reflns_limit_k_min       -37
_diffrn_reflns_limit_l_max       8
_diffrn_reflns_limit_l_min       -8
_diffrn_reflns_number            7874
_diffrn_reflns_point_group_measured_fraction_full 0.873
_diffrn_reflns_point_group_measured_fraction_max 0.780
_diffrn_reflns_theta_full        25.242
_diffrn_reflns_theta_max         33.309
_diffrn_reflns_theta_min         3.366
_diffrn_standards_number         0
_exptl_absorpt_coefficient_mu    0.086
_exptl_absorpt_correction_T_max  1.0000
_exptl_absorpt_correction_T_min  0.9247
_exptl_absorpt_correction_type   multi-scan
_exptl_absorpt_process_details
;
SADABS-2014/4 (Bruker,2014/4) was used for absorption correction.
wR2(int) was 0.0786 before and 0.0468 after correction.
The Ratio of minimum to maximum transmission is 0.9247.
The \l/2 correction factor is Not present.
;
_exptl_crystal_colour            'clear colourless'
_exptl_crystal_colour_lustre     clear
_exptl_crystal_colour_primary    colourless
_exptl_crystal_density_diffrn    1.312
_exptl_crystal_description       block
_exptl_crystal_F_000             256
_exptl_crystal_recrystallization_method
'Re-crystallisation from solvent: methanol'
_exptl_crystal_size_max          0.316
_exptl_crystal_size_mid          0.262
_exptl_crystal_size_min          0.124
_refine_diff_density_max         0.230
_refine_diff_density_min         -0.276
_refine_diff_density_rms         0.057
_refine_ls_abs_structure_details
;
 Flack x determined using 769 quotients [(I+)-(I-)]/[(I+)+(I-)]
 (Parsons, Flack and Wagner, Acta Cryst. B69 (2013) 249-259).
;
_refine_ls_abs_structure_Flack   0.1(8)
_refine_ls_extinction_method     none
_refine_ls_goodness_of_fit_ref   1.023
_refine_ls_hydrogen_treatment    constr
_refine_ls_matrix_type           full
_refine_ls_number_parameters     163
_refine_ls_number_reflns         3670
_refine_ls_number_restraints     1
_refine_ls_restrained_S_all      1.023
_refine_ls_R_factor_all          0.0910
_refine_ls_R_factor_gt           0.0586
_refine_ls_shift/su_max          0.000
_refine_ls_shift/su_mean         0.000
_refine_ls_structure_factor_coef Fsqd
_refine_ls_weighting_details
'w=1/[\s^2^(Fo^2^)+(0.0537P)^2^+0.0977P] where P=(Fo^2^+2Fc^2^)/3'
_refine_ls_weighting_scheme      calc
_refine_ls_wR_factor_gt          0.1119
_refine_ls_wR_factor_ref         0.1218
_reflns_Friedel_coverage         0.546
_reflns_Friedel_fraction_full    0.746
_reflns_Friedel_fraction_max     0.562
_reflns_number_gt                2680
_reflns_number_total             3670
_reflns_threshold_expression     'I > 2\s(I)'
_iucr_refine_instructions_details
;

    coagcucl2_mono.res created by SHELXL-2014/7

TITL COAGCuCl2_mono in P21 #4
REM reset to P21 #4
CELL 0.71073 4.5946 24.2121 5.7315 90 106.6287 90
ZERR 2 0.0006 0.003 0.0008 0 0.0042 0
LATT -1
SYMM -X,0.5+Y,-Z
SFAC C H N O
UNIT 28 30 6 2
 
L.S. 4
PLAN  20
TEMP -273.15
BOND
fmap 2
acta
OMIT -1 -17 1
REM <olex2.extras>
REM <HklSrc "%.\\COAGCuCl2_mono.hkl">
REM </olex2.extras>
 
WGHT    0.053700    0.097700
FVAR       0.44616
O1    4    0.047484    0.082303    0.648566    11.00000    0.01163    0.02567 =
         0.02831   -0.00254    0.00968   -0.00206
C2    1    0.712279    0.188022    1.040128    11.00000    0.01574    0.01936 =
         0.02159   -0.00289    0.00925    0.00183
C3    1    0.321588    0.076604    0.661037    11.00000    0.01393    0.01543 =
         0.02112    0.00362    0.00811   -0.00003
N4    3    0.410260    0.045204    0.499528    11.00000    0.01301    0.02506 =
         0.02089   -0.00328    0.00762   -0.00265
AFIX  43
H4    2    0.603771    0.037050    0.526780    11.00000   -1.20000
AFIX   0
N5    3    0.547248    0.100550    0.836741    11.00000    0.01215    0.02612 =
         0.02588   -0.00700    0.00693   -0.00029
AFIX  43
H5    2    0.736236    0.091469    0.848009    11.00000   -1.20000
AFIX   0
C6    1    0.023007   -0.027033    0.314623    11.00000    0.01411    0.01785 =
         0.02282   -0.00384    0.00667    0.00190
C7    1    0.716742    0.222036    0.845722    11.00000    0.02263    0.04095 =
         0.01942    0.00678    0.00379   -0.00055
AFIX  43
H7    2    0.576212    0.216559    0.689846    11.00000   -1.20000
AFIX   0
C8    1    0.491596    0.140599    1.007735    11.00000    0.02299    0.02837 =
         0.02603   -0.00741    0.01496   -0.00662
AFIX  23
H8A   2    0.513788    0.122527    1.166828    11.00000   -1.20000
H8B   2    0.281207    0.154718    0.946715    11.00000   -1.20000
AFIX   0
C9    1    0.191161    0.024684    0.281540    11.00000    0.02199    0.02388 =
         0.01745   -0.00038    0.00687   -0.00193
AFIX  23
H9A   2    0.298290    0.017225    0.157552    11.00000   -1.20000
H9B   2    0.040282    0.054142    0.216616    11.00000   -1.20000
AFIX   0
C10   1    0.919448    0.198556    1.262904    11.00000    0.02802    0.02709 =
         0.01701    0.00080    0.00569   -0.00089
AFIX  43
H10   2    0.913711    0.176031    1.397232    11.00000   -1.20000
AFIX   0
C11   1   -0.195875   -0.048602    0.115915    11.00000    0.02864    0.02530 =
         0.02375   -0.00428    0.00022    0.00251
AFIX  43
H11   2   -0.236403   -0.030431   -0.036953    11.00000   -1.20000
AFIX   0
C12   1   -0.297161   -0.122090    0.355382    11.00000    0.03662    0.02177 =
         0.05864   -0.01401    0.02062   -0.01057
AFIX  43
H12   2   -0.407256   -0.154518    0.369574    11.00000   -1.20000
AFIX   0
C13   1    0.077329   -0.054214    0.533693    11.00000    0.03601    0.02595 =
         0.02222   -0.00408    0.00401   -0.00968
AFIX  43
H13   2    0.225376   -0.040095    0.672462    11.00000   -1.20000
AFIX   0
C14   1    1.130044    0.271034    1.110566    11.00000    0.03329    0.02429 =
         0.05357   -0.01349    0.02369   -0.01029
AFIX  43
H14   2    1.275351    0.299935    1.133385    11.00000   -1.20000
AFIX   0
N15   3    1.129194    0.238957    1.300535    11.00000    0.03707    0.04480 =
         0.03472   -0.01556    0.01101   -0.01272
C16   1   -0.079957   -0.101762    0.555386    11.00000    0.05115    0.02895 =
         0.03181   -0.00008    0.01825   -0.01181
AFIX  43
H16   2   -0.038353   -0.120299    0.707478    11.00000   -1.20000
AFIX   0
C17   1   -0.354537   -0.095304    0.134578    11.00000    0.02804    0.02573 =
         0.04398   -0.01172    0.00050   -0.00310
AFIX  43
H17   2   -0.503687   -0.109256   -0.003917    11.00000   -1.20000
AFIX   0
C18   1    0.928175    0.263735    0.883142    11.00000    0.03886    0.02623 =
         0.04814    0.01184    0.02542    0.00472
AFIX  43
H18   2    0.935082    0.287428    0.752710    11.00000   -1.20000
AFIX   0
HKLF 4
 
REM  COAGCuCl2_mono in P21 #4
REM R1 =  0.0586 for    2680 Fo > 4sig(Fo)  and  0.0910 for all    3670 data
REM    163 parameters refined using      1 restraints
 
END  
     
WGHT      0.0537      0.0977 

REM Highest difference peak  0.230,  deepest hole -0.276,  1-sigma level  0.057
Q1    1   0.5452  0.1790  1.0792  11.00000  0.05    0.23
Q2    1   0.7630  0.1888  0.9126  11.00000  0.05    0.23
Q3    1   0.3290  0.0774  0.5253  11.00000  0.05    0.22
Q4    1  -0.5322 -0.0305 -0.1146  11.00000  0.05    0.21
Q5    1   0.8879  0.1849  1.1145  11.00000  0.05    0.20
Q6    1   1.1896  0.2608  1.4559  11.00000  0.05    0.20
Q7    1   0.8409  0.2621  0.4543  11.00000  0.05    0.20
Q8    1   1.0844  0.2509  0.9743  11.00000  0.05    0.20
Q9    1   0.7346  0.1012  0.7845  11.00000  0.05    0.19
Q10   1   0.6093  0.1203  1.4006  11.00000  0.05    0.19
Q11   1   0.5604  0.1060  0.9770  11.00000  0.05    0.19
Q12   1  -0.6324 -0.0496  0.1173  11.00000  0.05    0.19
Q13   1   0.9850  0.2960  1.3630  11.00000  0.05    0.19
Q14   1  -0.0570 -0.0496  0.2262  11.00000  0.05    0.19
Q15   1  -0.6360 -0.1449  0.1242  11.00000  0.05    0.19
Q16   1  -0.3589 -0.0986  0.2565  11.00000  0.05    0.19
Q17   1   0.6449  0.0985  1.2649  11.00000  0.05    0.18
Q18   1   0.0852 -0.1399  0.7431  11.00000  0.05    0.18
Q19   1   0.0960  0.0791  0.5108  11.00000  0.05    0.18
Q20   1  -0.0375  0.0527  0.5678  11.00000  0.05    0.18

  REM The information below was added by Olex2.
  REM
  REM R1 = 0.0586 for 2680 Fo > 4sig(Fo) and 0.0910 for all 7922 data
  REM n/a parameters refined using n/a restraints
  REM Highest difference peak 0.23, deepest hole -0.28
  REM Mean Shift 0, Max Shift 0.000.
  
  REM +++ Tabular Listing of Refinement Information +++
  REM R1_all = 0.0910
  REM R1_gt = 0.0586
  REM wR_ref = 0.1218
  REM GOOF = 1.023
  REM Shift_max = 0.000
  REM Shift_mean = 0
  REM Reflections_all = 7922
  REM Reflections_gt = 2680
  REM Parameters = n/a
  REM Hole = -0.28
  REM Peak = 0.23
  REM Flack = 0.1(8)
  
  
;
_cod_data_source_file            c6cc09126a2.cif
_cod_data_source_block           coagcucl2_mono
_cod_depositor_comments
'Adding full bibliography for 7119522--7119523.cif.'
_cod_original_cell_volume        610.94(14)
_cod_database_code               7119522
_shelx_space_group_comment
;
The symmetry employed for this shelxl refinement is uniquely defined
by the following loop, which should always be used as a source of
symmetry information in preference to the above space-group names.
They are only intended as comments.
;
_olex2_refinement_description
;
1. Fixed Uiso
 At 1.2 times of:
  All C(H) groups, All C(H,H) groups, All N(H) groups
2.a Secondary CH2 refined with riding coordinates:
 C8(H8A,H8B), C9(H9A,H9B)
2.b Aromatic/amide H refined with riding coordinates:
 N4(H4), N5(H5), C7(H7), C10(H10), C11(H11), C12(H12), C13(H13), C14(H14),
 C16(H16), C17(H17), C18(H18)
;
_shelx_shelxl_version_number     2014/7
_olex2_submission_special_instructions 'No special instructions were received'
loop_
_space_group_symop_operation_xyz
'x, y, z'
'-x, y+1/2, -z'
loop_
_atom_site_label
_atom_site_type_symbol
_atom_site_fract_x
_atom_site_fract_y
_atom_site_fract_z
_atom_site_U_iso_or_equiv
_atom_site_adp_type
_atom_site_occupancy
_atom_site_site_symmetry_order
_atom_site_calc_flag
_atom_site_refinement_flags_posn
O1 O 0.0475(3) 0.08230(7) 0.6486(3) 0.0210(4) Uani 1 1 d .
C2 C 0.7123(5) 0.18802(10) 1.0401(4) 0.0181(5) Uani 1 1 d .
C3 C 0.3216(5) 0.07660(10) 0.6610(4) 0.0162(5) Uani 1 1 d .
N4 N 0.4103(4) 0.04520(9) 0.4995(4) 0.0191(4) Uani 1 1 d .
H4 H 0.6038 0.0371 0.5268 0.023 Uiso 1 1 calc R
N5 N 0.5472(4) 0.10055(9) 0.8367(4) 0.0211(5) Uani 1 1 d .
H5 H 0.7362 0.0915 0.8480 0.025 Uiso 1 1 calc R
C6 C 0.0230(5) -0.02703(10) 0.3146(5) 0.0180(5) Uani 1 1 d .
C7 C 0.7167(6) 0.22204(13) 0.8457(5) 0.0281(6) Uani 1 1 d .
H7 H 0.5762 0.2166 0.6898 0.034 Uiso 1 1 calc R
C8 C 0.4916(6) 0.14060(11) 1.0077(5) 0.0241(6) Uani 1 1 d .
H8A H 0.5138 0.1225 1.1668 0.029 Uiso 1 1 calc R
H8B H 0.2812 0.1547 0.9467 0.029 Uiso 1 1 calc R
C9 C 0.1912(6) 0.02468(11) 0.2815(4) 0.0209(5) Uani 1 1 d .
H9A H 0.2983 0.0172 0.1576 0.025 Uiso 1 1 calc R
H9B H 0.0403 0.0541 0.2166 0.025 Uiso 1 1 calc R
C10 C 0.9194(6) 0.19856(11) 1.2629(5) 0.0242(6) Uani 1 1 d .
H10 H 0.9137 0.1760 1.3972 0.029 Uiso 1 1 calc R
C11 C -0.1959(6) -0.04860(12) 0.1159(5) 0.0274(6) Uani 1 1 d .
H11 H -0.2364 -0.0304 -0.0370 0.033 Uiso 1 1 calc R
C12 C -0.2972(7) -0.12209(12) 0.3554(6) 0.0376(8) Uani 1 1 d .
H12 H -0.4073 -0.1545 0.3696 0.045 Uiso 1 1 calc R
C13 C 0.0773(7) -0.05421(12) 0.5337(5) 0.0290(6) Uani 1 1 d .
H13 H 0.2254 -0.0401 0.6725 0.035 Uiso 1 1 calc R
C14 C 1.1300(7) 0.27103(13) 1.1106(6) 0.0347(7) Uani 1 1 d .
H14 H 1.2754 0.2999 1.1334 0.042 Uiso 1 1 calc R
N15 N 1.1292(6) 0.23896(12) 1.3005(5) 0.0387(7) Uani 1 1 d .
C16 C -0.0800(8) -0.10176(13) 0.5554(5) 0.0360(7) Uani 1 1 d .
H16 H -0.0384 -0.1203 0.7075 0.043 Uiso 1 1 calc R
C17 C -0.3545(7) -0.09530(12) 0.1346(6) 0.0346(7) Uani 1 1 d .
H17 H -0.5037 -0.1093 -0.0039 0.042 Uiso 1 1 calc R
C18 C 0.9282(7) 0.26374(13) 0.8831(6) 0.0350(7) Uani 1 1 d .
H18 H 0.9351 0.2874 0.7527 0.042 Uiso 1 1 calc R
loop_
_atom_site_aniso_label
_atom_site_aniso_U_11
_atom_site_aniso_U_22
_atom_site_aniso_U_33
_atom_site_aniso_U_23
_atom_site_aniso_U_13
_atom_site_aniso_U_12
O1 0.0116(7) 0.0257(9) 0.0283(9) -0.0025(8) 0.0097(7) -0.0021(7)
C2 0.0157(10) 0.0194(11) 0.0216(12) -0.0029(10) 0.0093(9) 0.0018(9)
C3 0.0139(10) 0.0154(11) 0.0211(11) 0.0036(9) 0.0081(9) 0.0000(9)
N4 0.0130(9) 0.0251(11) 0.0209(10) -0.0033(9) 0.0076(8) -0.0026(8)
N5 0.0122(9) 0.0261(11) 0.0259(11) -0.0070(9) 0.0069(8) -0.0003(8)
C6 0.0141(10) 0.0178(11) 0.0228(12) -0.0038(10) 0.0067(9) 0.0019(9)
C7 0.0226(12) 0.0410(17) 0.0194(12) 0.0068(12) 0.0038(10) -0.0006(12)
C8 0.0230(11) 0.0284(14) 0.0260(13) -0.0074(11) 0.0150(10) -0.0066(11)
C9 0.0220(11) 0.0239(13) 0.0175(12) -0.0004(10) 0.0069(9) -0.0019(10)
C10 0.0280(13) 0.0271(14) 0.0170(12) 0.0008(10) 0.0057(10) -0.0009(11)
C11 0.0286(13) 0.0253(14) 0.0237(14) -0.0043(12) 0.0002(11) 0.0025(12)
C12 0.0366(16) 0.0218(14) 0.059(2) -0.0140(14) 0.0206(15) -0.0106(13)
C13 0.0360(15) 0.0260(14) 0.0222(13) -0.0041(11) 0.0040(11) -0.0097(12)
C14 0.0333(15) 0.0243(14) 0.054(2) -0.0135(14) 0.0237(14) -0.0103(13)
N15 0.0371(14) 0.0448(16) 0.0347(14) -0.0156(12) 0.0110(12) -0.0127(13)
C16 0.0511(18) 0.0290(16) 0.0318(15) -0.0001(13) 0.0182(14) -0.0118(14)
C17 0.0280(14) 0.0257(15) 0.0440(18) -0.0117(14) 0.0005(13) -0.0031(12)
C18 0.0389(17) 0.0262(15) 0.0481(19) 0.0118(14) 0.0254(15) 0.0047(13)
loop_
_atom_type_symbol
_atom_type_description
_atom_type_scat_dispersion_real
_atom_type_scat_dispersion_imag
_atom_type_scat_source
C C 0.0033 0.0016 'International Tables Vol C Tables 4.2.6.8 and 6.1.1.4'
H H 0.0000 0.0000 'International Tables Vol C Tables 4.2.6.8 and 6.1.1.4'
N N 0.0061 0.0033 'International Tables Vol C Tables 4.2.6.8 and 6.1.1.4'
O O 0.0106 0.0060 'International Tables Vol C Tables 4.2.6.8 and 6.1.1.4'
loop_
_geom_angle_atom_site_label_1
_geom_angle_atom_site_label_2
_geom_angle_atom_site_label_3
_geom_angle
C7 C2 C8 121.1(2)
C10 C2 C7 117.9(2)
C10 C2 C8 121.1(2)
O1 C3 N4 121.4(2)
O1 C3 N5 122.8(2)
N4 C3 N5 115.81(18)
C3 N4 C9 120.89(19)
C3 N5 C8 122.9(2)
C11 C6 C9 119.0(2)
C13 C6 C9 123.0(2)
C13 C6 C11 117.9(2)
C18 C7 C2 118.8(3)
N5 C8 C2 110.5(2)
N4 C9 C6 115.4(2)
N15 C10 C2 123.7(3)
C17 C11 C6 121.7(3)
C16 C12 C17 119.9(3)
C6 C13 C16 121.1(3)
N15 C14 C18 122.5(3)
C14 N15 C10 117.4(2)
C12 C16 C13 119.7(3)
C11 C17 C12 119.7(3)
C7 C18 C14 119.7(3)
loop_
_geom_bond_atom_site_label_1
_geom_bond_atom_site_label_2
_geom_bond_distance
O1 C3 1.248(3)
C2 C7 1.390(4)
C2 C8 1.508(3)
C2 C10 1.381(3)
C3 N4 1.348(3)
C3 N5 1.352(3)
N4 C9 1.450(3)
N5 C8 1.452(3)
C6 C9 1.512(4)
C6 C11 1.388(3)
C6 C13 1.376(4)
C7 C18 1.375(4)
C10 N15 1.347(4)
C11 C17 1.366(4)
C12 C16 1.377(4)
C12 C17 1.379(5)
C13 C16 1.384(4)
C14 N15 1.338(4)
C14 C18 1.378(5)
loop_
_refln_index_h
_refln_index_k
_refln_index_l
_refln_F_squared_meas
_refln_F_squared_sigma
1 0 0 148.43 3.72
-1 0 0 143.62 3.71
1 0 0 145.09 3.71
-1 0 0 151.29 3.71
2 0 0 33.77 1.08
-2 0 0 33.92 1.05
-2 0 0 32.95 1.05
2 0 0 32.68 1.06
-3 0 0 7.79 0.63
-3 0 0 8.57 0.58
3 0 0 8.33 0.61
3 0 0 8.94 0.76
4 0 0 0.55 0.47
-4 0 0 0.83 0.45
5 0 0 7.13 0.92
-5 0 0 7.52 0.92
6 0 0 1.56 1
-6 0 0 -1.36 0.93
1 -1 0 25.72 0.77
1 -1 0 25.49 0.74
-1 -1 0 25.97 0.77
-1 -1 0 26.49 0.73
-1 1 0 25.78 0.77
1 1 0 26.5 0.74
1 1 0 25.82 0.78
-1 1 0 24.91 0.74
-2 -1 0 19.59 0.73
-2 -1 0 19.23 0.68
2 -1 0 19.22 0.73
2 -1 0 18.5 0.73
2 1 0 18.18 0.7
-2 1 0 18.57 0.72
2 1 0 20.94 0.78
-2 1 0 18.94 0.69
3 -1 0 17.15 0.82
-3 -1 0 15.55 0.78
-3 -1 0 17.23 0.79
3 -1 0 14.54 0.87
-3 1 0 15.5 0.76
-3 1 0 18.1 0.84
3 1 0 16.08 0.93
-4 -1 0 5.19 0.75
4 -1 0 4.92 0.63
-4 -1 0 6.37 0.71
-4 1 0 5.22 0.64
4 1 0 4.6 0.58
5 -1 0 10.24 1.19
-5 -1 0 11.46 1.13
5 1 0 10.02 1.12
-5 1 0 8.83 1.06
6 -1 0 9.73 1.23
6 1 0 9.14 1.25
-6 1 0 5.38 1.15
-1 -2 0 142.47 3.63
1 -2 0 144.73 3.58
1 -2 0 144.33 3.65
-1 -2 0 147.3 3.56
1 2 0 138.13 3.56
-1 2 0 141.34 3.58
1 2 0 139.05 3.69
-2 -2 0 50.25 1.38
2 -2 0 48.22 1.47
-2 -2 0 47.69 1.46
2 -2 0 47.76 1.42
-2 2 0 50.28 1.47
2 2 0 49.6 1.49
2 2 0 47.84 1.39
-2 2 0 47.29 1.39
3 -2 0 6.9 0.71
-3 -2 0 6.16 0.56
3 -2 0 6.37 0.59
-3 -2 0 6.82 0.54
-3 2 0 6.5 0.52
3 2 0 7.33 0.55
3 2 0 6.64 0.76
-4 -2 0 7.23 0.79
-4 -2 0 10.2 0.88
4 -2 0 9.01 0.84
-4 2 0 9.08 0.76
4 2 0 8.14 0.76
5 -2 0 27.26 1.49
-5 -2 0 22.7 1.39
-5 2 0 23.38 1.36
5 2 0 23.95 1.39
-6 -2 0 -0.27 1.07
6 -2 0 0.95 1.06
-6 2 0 3.09 1.07
0 -3 0 -0.02 0.05
0 3 0 0.07 0.09
-1 -3 0 574.17 14.44
1 -3 0 582.49 14.46
1 3 0 590.64 14.45
-1 3 0 590.57 14.46
2 -3 0 24.08 0.92
-2 -3 0 24.03 0.9
-2 -3 0 25.67 0.78
2 -3 0 24.93 0.84
-2 3 0 24.07 0.81
2 3 0 25.94 0.8
-2 3 0 25.27 0.92
2 3 0 25.02 0.94
-3 -3 0 6.51 0.58
3 -3 0 6.65 0.62
3 -3 0 6.82 0.66
-3 -3 0 5.9 0.5
3 3 0 6.38 0.71
-3 3 0 6.51 0.51
-3 3 0 6.17 0.66
3 3 0 5.73 0.52
4 -3 0 32.94 1.45
-4 -3 0 34.22 1.43
-4 -3 0 36.24 1.36
-4 3 0 33.21 1.33
4 3 0 35.99 1.34
-5 -3 0 4.14 0.78
5 -3 0 3.94 0.85
-5 3 0 3.6 0.75
5 3 0 3.85 0.78
-6 -3 0 4.5 1.16
-6 3 0 4.58 1.17
0 -4 0 72.94 1.91
0 4 0 76.92 1.92
1 -4 0 380.74 9.1
1 -4 0 364.54 9.2
-1 -4 0 362.37 9.18
-1 4 0 377.38 9.2
-1 4 0 363.02 9.09
1 4 0 362.18 9.04
-2 -4 0 44.98 1.27
2 -4 0 45.86 1.34
2 -4 0 44.77 1.45
-2 4 0 48.5 1.46
2 4 0 45.56 1.29
2 4 0 46.21 1.45
-2 4 0 46.58 1.32
-3 -4 0 5.06 0.57
3 -4 0 4.74 0.53
-3 -4 0 4.48 0.45
3 -4 0 5.37 0.56
3 4 0 4.99 0.45
-3 4 0 4.8 0.47
-3 4 0 4.54 0.59
-4 -4 0 6.53 0.75
-4 -4 0 7.39 0.81
4 -4 0 7.77 0.89
-4 4 0 6.92 0.72
4 4 0 7.88 0.71
-5 -4 0 7.06 0.94
5 -4 0 8.8 1.07
5 4 0 7.46 0.84
-5 4 0 8.58 1.01
-6 -4 0 1.02 1.08
6 -4 0 1.79 1.2
-6 4 0 -1.69 0.99
0 -5 0 0.5 0.1
1 -5 0 81.41 2.08
1 -5 0 79.16 2.2
-1 -5 0 81.46 2.19
1 5 0 84.48 2.2
-1 5 0 80.77 2.2
-1 5 0 79.72 2.08
-2 -5 0 10.17 0.58
-2 -5 0 10.07 0.39
2 -5 0 11.77 0.5
-2 5 0 11.73 0.47
-2 5 0 10.35 0.63
2 5 0 10.1 0.42
2 5 0 10.13 0.63
-3 -5 0 6.66 0.44
3 -5 0 5.17 0.61
-3 -5 0 5.86 0.62
3 -5 0 5.52 0.62
3 5 0 5.02 0.45
-3 5 0 5.74 0.65
-3 5 0 5.44 0.49
-4 -5 0 31.26 1.2
-4 -5 0 30.97 1.37
4 -5 0 32.36 1.47
-4 5 0 34.06 1.3
4 5 0 31.72 1.22
-5 -5 0 5.16 0.91
5 -5 0 5.67 0.93
-5 5 0 3.96 0.78
5 5 0 4.64 0.74
-6 -5 0 1.43 1.07
6 -5 0 -0.62 1.17
-6 5 0 -0.04 1.1
0 6 0 665.2 16.38
-1 -6 0 75.56 2.1
1 -6 0 79.4 1.98
1 -6 0 74.47 2.11
-1 6 0 77.76 1.99
1 6 0 77.39 2.1
-1 6 0 76.19 2.11
2 -6 0 88.72 2.34
-2 -6 0 86.27 2.47
2 -6 0 85.37 2.5
-2 -6 0 89.23 2.23
-2 6 0 87.93 2.5
-2 6 0 89.08 2.32
2 6 0 86.91 2.49
2 6 0 84.94 2.24
3 -6 0 28.57 1.2
-3 -6 0 28.86 0.89
-3 -6 0 26.05 1.13
3 -6 0 26.25 1.07
-3 6 0 26.25 0.98
3 6 0 27.74 0.92
4 -6 0 15.36 1.13
-4 -6 0 18.55 1.05
-4 -6 0 16.4 0.83
-4 6 0 16.65 0.93
-5 -6 0 2.56 0.78
5 -6 0 2.36 0.83
-5 6 0 3.59 0.79
6 -6 0 1.23 1.26
-6 -6 0 1.39 1.16
-6 6 0 2 1.09
0 -7 0 1.87 0.2
0 7 0 1.08 0.16
1 -7 0 38.7 1.24
-1 -7 0 40.02 1.22
-1 7 0 41.17 1.11
1 7 0 41.05 1.23
2 -7 0 31.6 1.19
-2 -7 0 32.49 1.16
2 -7 0 33.38 1.02
2 7 0 32.14 0.89
-2 7 0 33.7 1
2 7 0 32.59 1.2
-2 7 0 33.85 1.22
-3 -7 0 13.98 0.81
3 -7 0 14.4 0.78
3 -7 0 14.18 0.89
-3 -7 0 14.91 0.56
3 7 0 13.62 0.58
-3 7 0 13.78 0.68
-4 -7 0 70.93 2.37
-4 -7 0 72.52 2.03
4 -7 0 68.33 2.42
4 7 0 67.84 2.05
-4 7 0 71.93 2.19
-5 -7 0 1.04 0.75
5 -7 0 0.19 0.78
5 7 0 1.1 0.58
-5 7 0 -0.35 0.65
6 -7 0 2.7 1.31
-6 -7 0 -0.6 1.07
-6 7 0 0.12 1.1
0 -8 0 12.97 0.48
0 -8 0 12.59 0.48
0 -8 0 12.17 0.47
0 8 0 12.93 0.55
-1 -8 0 31.54 0.82
1 -8 0 30.27 1.05
-1 -8 0 31.01 1.03
1 -8 0 32.39 0.91
1 8 0 32.64 0.84
-1 8 0 31.39 0.92
-1 8 0 32.17 1.07
1 8 0 32.82 1.05
2 -8 0 4.18 0.52
2 -8 0 5.03 0.37
-2 -8 0 4.18 0.46
-2 8 0 4.92 0.56
-2 8 0 4.65 0.33
2 8 0 4.77 0.57
-3 -8 0 25.46 1.12
3 -8 0 24.73 1.17
3 -8 0 22.23 0.98
-3 8 0 23.54 0.9
3 8 0 24.67 0.78
-4 -8 0 13.36 0.72
4 -8 0 15.27 1.15
-4 -8 0 16.31 1.07
4 8 0 14.25 0.73
-4 8 0 13.97 0.88
5 -8 0 1.71 0.89
-5 8 0 0.36 0.69
-6 -8 0 1.48 1.18
6 -8 0 1.69 1.32
-6 8 0 2.62 1.1
0 -9 0 0.36 0.15
0 -9 0 0.3 0.15
0 -9 0 0.12 0.14
0 9 0 0.43 0.18
1 -9 0 123.99 3.11
1 -9 0 116.81 3.27
-1 -9 0 120.46 3.25
-1 -9 0 122.83 3.03
1 9 0 122.68 3.26
-1 9 0 122.02 3.28
1 9 0 121.14 3.04
-1 9 0 121.56 3.12
-2 -9 0 25.6 1.02
2 -9 0 25.89 1.06
2 -9 0 26.28 0.85
-2 9 0 25.68 1.09
-2 9 0 25.06 0.83
2 9 0 24.57 1.07
3 -9 0 23.26 0.98
3 -9 0 25.37 1.19
-3 -9 0 24.22 1.1
-3 9 0 24.31 0.91
3 9 0 21.96 0.71
4 -9 0 28.56 1.53
-4 -9 0 29.33 1.43
4 9 0 28.52 0.98
-4 9 0 28.51 1.2
5 -9 0 1.3 0.95
-5 -9 0 1.25 0.82
-5 9 0 0.71 0.7
-6 -9 0 7.51 1.4
6 -9 0 11.82 1.61
-6 9 0 9.36 1.29
0 -10 0 94.59 2.47
0 -10 0 92.58 2.47
0 -10 0 90.13 2.47
0 10 0 93.1 2.47
-1 -10 0 109.55 3.02
1 -10 0 115.83 2.87
-1 -10 0 111.52 2.8
1 -10 0 106.64 3.06
1 10 0 111.83 3.02
-1 10 0 110.81 3.04
1 10 0 111.95 2.8
-1 10 0 109.07 2.88
-2 -10 0 7.92 0.6
2 -10 0 9.29 0.48
2 -10 0 9 0.67
-2 10 0 9.24 0.44
2 10 0 8.68 0.72
-2 10 0 7.84 0.73
-3 -10 0 61.95 2.03
3 -10 0 60.16 2.07
3 -10 0 56.12 1.8
-3 10 0 59.23 1.75
4 -10 0 1.48 0.7
-4 -10 0 1.66 0.59
-4 10 0 2.91 0.54
4 10 0 2.26 0.31
5 -10 0 4.67 1.34
-5 -10 0 4.04 0.94
-5 10 0 4.15 0.82
-6 -10 0 -0.07 1.14
6 -10 0 -0.94 1.36
-6 10 0 0.65 1.38
0 -11 0 0.61 0.2
0 -11 0 0.02 0.18
0 -11 0 0.06 0.18
0 11 0 0.21 0.21
-1 -11 0 9.01 0.61
-1 -11 0 10 0.37
1 -11 0 8.83 0.59
1 -11 0 9.7 0.44
1 11 0 10.2 0.63
-1 11 0 9.91 0.63
1 11 0 10.41 0.38
-1 11 0 9.1 0.45
2 -11 0 4.43 0.56
2 -11 0 4.45 0.4
-2 -11 0 4.12 0.51
2 11 0 5.31 0.6
-2 11 0 4.98 0.37
-2 11 0 3.86 0.62
3 -11 0 39 1.59
-3 -11 0 38.61 1.5
3 -11 0 35.37 1.31
-3 11 0 37.97 1.25
-4 -11 0 2.35 0.62
4 -11 0 2.89 0.77
-4 11 0 3.93 0.59
5 -11 0 3.33 1.11
-5 -11 0 2.08 0.88
-5 11 0 2.53 0.78
6 -11 0 2.37 1.45
-6 -11 0 1.57 1.24
0 -12 0 18.39 0.74
0 -12 0 20.5 0.76
0 -12 0 20.19 0.75
0 12 0 21.57 0.77
1 -12 0 18.96 0.67
-1 -12 0 19.35 0.82
1 -12 0 17.39 0.82
-1 -12 0 18.91 0.6
1 12 0 19.17 0.85
-1 12 0 18.98 0.87
-1 12 0 18.35 0.69
1 12 0 19.29 0.6
2 -12 0 4.46 0.41
-2 -12 0 4.19 0.48
2 -12 0 5.25 0.62
-2 12 0 3.85 0.39
-3 -12 0 20.21 1.07
3 -12 0 18.99 1.14
3 -12 0 17.01 0.89
-3 12 0 18.94 0.82
4 -12 0 2.24 0.75
-4 -12 0 3.47 0.7
-4 12 0 2.95 0.55
-5 -12 0 2.24 0.91
5 -12 0 2.25 1.04
-5 12 0 1.61 0.75
6 -12 0 2.15 1.54
-6 -12 0 3.79 1.35
0 -13 0 0.74 0.23
0 -13 0 0.48 0.23
0 -13 0 0.51 0.24
0 13 0 0.36 0.26
-1 -13 0 53.01 1.4
1 -13 0 49.11 1.64
1 -13 0 52.39 1.46
-1 -13 0 49.19 1.62
-1 13 0 49.53 1.66
-1 13 0 50.89 1.49
1 13 0 52.9 1.42
2 -13 0 21.78 0.8
-2 -13 0 21.83 1
2 -13 0 21.94 1.06
-2 13 0 20.98 0.81
-3 -13 0 1.57 0.52
3 -13 0 1.19 0.59
3 -13 0 0.55 0.45
-3 13 0 1.37 0.37
4 -13 0 23.34 1.55
-4 -13 0 23.31 1.4
-4 13 0 23.41 1.11
5 -13 0 4.56 1.24
-5 -13 0 4.64 1.07
-5 13 0 3.76 0.86
6 -13 0 3.05 1.63
-6 -13 0 2.19 1.48
0 -14 0 46.7 1.42
0 -14 0 46.04 1.43
0 -14 0 43.28 1.54
0 14 0 49.05 1.46
-1 -14 0 2.05 0.38
-1 -14 0 2.39 0.25
1 -14 0 2.17 0.3
1 -14 0 1.43 0.34
1 14 0 1.97 0.27
-1 14 0 2.21 0.45
2 -14 0 17.44 0.7
2 -14 0 14.15 0.94
-2 -14 0 16.23 0.88
-2 14 0 16.4 0.73
3 -14 0 2.46 0.64
3 -14 0 2.69 0.52
-3 -14 0 3.05 0.61
-3 14 0 2.83 0.44
4 -14 0 6.15 0.99
-4 -14 0 6.38 0.92
-4 14 0 4.13 0.64
-5 -14 0 6.38 1.09
5 -14 0 7.14 1.37
-5 14 0 6.46 0.93
6 -14 0 4.38 1.72
-6 -14 0 1.43 1.36
0 -15 0 1.29 0.3
0 -15 0 0.87 0.29
0 -15 0 1.02 0.29
0 15 0 1.43 0.33
-1 -15 0 1.98 0.39
1 -15 0 2.42 0.44
1 -15 0 2.59 0.33
-1 -15 0 2.48 0.27
1 15 0 1.72 0.25
-1 15 0 2.08 0.49
2 -15 0 12.09 0.64
-2 -15 0 13.11 0.84
2 -15 0 12.39 0.9
-3 -15 0 3.59 0.62
3 -15 0 1.67 0.6
3 -15 0 2.85 0.53
-3 15 0 2.99 0.46
-4 -15 0 6.25 0.91
4 -15 0 7.33 1.09
-4 15 0 6.36 0.74
5 -15 0 1.63 1.2
-5 -15 0 0.52 0.94
-5 15 0 1.59 0.81
6 -15 0 0.8 1.67
-6 -15 0 -0.24 1.29
0 -16 0 123.04 3.31
0 -16 0 119.64 3.34
0 16 0 123.73 3.33
-1 -16 0 47.31 1.35
1 -16 0 47.53 1.62
-1 -16 0 47.25 1.6
1 -16 0 46.47 1.41
-1 16 0 42.69 1.62
1 16 0 48.32 1.36
2 -16 0 6.66 0.77
-2 -16 0 7.62 0.73
2 -16 0 7.36 0.57
-2 16 0 7.76 0.59
-3 -16 0 0.11 0.47
3 -16 0 0.31 0.55
3 -16 0 0.25 0.49
-3 16 0 0.14 0.4
4 -16 0 0.04 0.83
-4 -16 0 0.13 0.74
-4 16 0 0.39 0.58
-5 -16 0 11.25 1.45
5 -16 0 10.29 1.55
-5 16 0 8.22 1.12
6 -16 0 2.93 1.84
-6 -16 0 2.95 1.51
0 -17 0 1.23 0.36
0 -17 0 2.67 0.39
0 17 0 1.06 0.36
1 -17 0 3.89 0.41
-1 -17 0 3.91 0.38
-1 -17 0 5.42 0.59
1 -17 0 3.11 0.48
1 17 0 3.41 0.41
-2 -17 0 2.45 0.51
2 -17 0 1.97 0.49
2 -17 0 1.99 0.41
-2 17 0 2.99 0.43
3 -17 0 9.35 1.13
3 -17 0 8.58 0.84
-3 -17 0 10.8 0.99
-3 17 0 8.91 0.76
-4 17 0 1.22 0.61
-5 -17 0 1.36 0.98
5 -17 0 2.6 1.34
-5 17 0 1.9 1.14
6 -17 0 2.35 1.89
-6 -17 0 0.8 1.47
0 -18 0 12.8 0.72
0 -18 0 13.44 0.71
0 -18 0 9.53 0.73
0 18 0 10.73 0.75
1 -18 0 6.59 0.72
1 -18 0 7.64 0.58
-1 -18 0 8.54 0.5
-1 -18 0 8.57 0.73
1 18 0 7.36 0.49
-2 -18 0 14.98 0.96
2 -18 0 14.61 1.03
2 -18 0 13.33 0.78
-2 18 0 16.1 0.82
3 -18 0 3.9 0.82
3 -18 0 3.6 0.6
-3 -18 0 2.72 0.66
-3 18 0 4.66 0.62
-4 -18 0 4.62 0.93
4 -18 0 5.09 1.17
-4 18 0 4.78 0.76
-5 -18 0 -0.32 1.05
5 -18 0 1.67 1.38
0 -19 0 1.54 0.37
0 -19 0 1.76 0.38
0 -19 0 1.57 0.45
0 19 0 0.49 0.4
-1 -19 0 12.8 0.86
-1 -19 0 13.68 0.63
1 -19 0 12.54 0.9
1 -19 0 13.98 0.75
1 19 0 13.49 0.63
2 -19 0 8.38 0.91
-2 -19 0 8.48 0.84
2 -19 0 6.45 0.69
-3 -19 0 4.61 0.78
3 -19 0 6.15 0.94
-3 19 0 6.43 0.7
4 -19 0 1.29 1.03
-4 -19 0 0.38 0.83
-4 19 0 1.2 0.67
5 -19 0 1.78 1.47
-5 -19 0 0.54 1.15
0 -20 0 17.01 0.92
0 -20 0 17.57 0.9
0 20 0 17.03 0.97
1 -20 0 5.83 0.61
-1 -20 0 7.89 0.54
1 -20 0 6.48 0.78
-1 -20 0 6.72 0.72
1 -20 0 6.31 0.65
1 20 0 6.07 0.56
-2 -20 0 12.4 0.94
2 -20 0 9.17 0.74
2 -20 0 10.37 1.01
-3 -20 0 8.31 0.97
3 -20 0 8.58 1.1
-3 20 0 7.13 0.73
-4 -20 0 2.48 0.94
4 -20 0 3 1.11
-4 20 0 4.6 0.81
-5 -20 0 2.16 1.1
5 -20 0 3.23 1.61
0 -21 0 0.63 0.4
0 -21 0 0.85 0.44
0 21 0 0.6 0.49
-1 -21 0 10.33 0.65
1 -21 0 10.71 0.72
-1 -21 0 11.08 0.88
1 -21 0 10.37 0.91
1 -21 0 8.8 0.75
1 21 0 8.94 0.67
2 -21 0 1.9 0.49
2 -21 0 2.71 0.68
-2 -21 0 2.09 0.61
3 -21 0 9.36 1.14
-3 -21 0 8.72 1.06
-3 21 0 8.64 0.92
-4 -21 0 0 0.84
4 -21 0 0.4 1.07
-4 21 0 -0.2 0.73
5 -21 0 0.51 1.59
-5 -21 0 -2.05 1.1
0 -22 0 18.34 1.01
0 -22 0 20.65 1.04
1 -22 0 13.67 1.01
1 -22 0 12.25 0.81
-1 -22 0 12.29 0.94
1 22 0 13.42 0.77
-2 -22 0 -0.17 0.5
2 -22 0 -0.43 0.61
-3 -22 0 5.66 0.92
3 -22 0 3.89 0.97
4 -22 0 4.15 1.32
-4 -22 0 1.16 0.94
-4 22 0 1.6 1.01
5 -22 0 1.27 1.7
-5 -22 0 -0.08 1.31
0 -23 0 1.32 0.48
0 -23 0 0.66 0.47
-1 -23 0 6.33 0.63
1 -23 0 6.78 0.82
-1 -23 0 7.57 0.82
1 -23 0 6.01 0.66
1 23 0 5.94 0.66
2 -23 0 4.48 0.84
-2 -23 0 6.56 0.86
3 -23 0 4.64 1.27
4 -23 0 7.13 1.52
-4 -23 0 6.55 1.23
-5 -23 0 3.88 1.41
5 -23 0 6.18 1.91
0 -24 0 9.28 0.88
0 -24 0 9.75 0.87
-1 -24 0 6.5 0.8
1 -24 0 5.6 0.78
-1 -24 0 6.05 0.68
1 -24 0 6.29 0.69
1 24 0 4.92 0.57
2 -24 0 4.57 0.92
-2 -24 0 6.67 0.87
3 -24 0 2.71 1.04
-3 -24 0 4.94 0.96
4 -24 0 6.73 1.63
-4 -24 0 5.3 1.19
-5 -24 0 1.9 1.39
5 -24 0 4.68 1.89
0 -25 0 -0.2 0.51
0 -25 0 0.22 0.48
1 -25 0 6.56 0.88
1 -25 0 4.69 0.68
-1 -25 0 5.49 0.77
-1 -25 0 5.73 0.63
2 -25 0 3.49 0.64
2 -25 0 4.05 0.94
-2 -25 0 5.03 0.84
3 -25 0 4.33 1.11
-3 -25 0 4.62 1.03
-4 -25 0 1.13 1.07
4 -25 0 2.7 1.47
5 -25 0 4.18 2.33
-5 -25 0 4.11 1.8
0 -26 0 4.04 0.71
0 -26 0 4.32 0.72
1 -26 0 9.34 0.94
-1 -26 0 9.45 0.98
1 -26 0 10.47 1.05
-1 -26 0 9.14 0.81
2 -26 0 13.03 1.47
2 -26 0 10.32 0.99
-2 -26 0 12.04 1.24
-3 -26 0 5.33 1.13
3 -26 0 5.18 1.19
-4 -26 0 1.52 1.16
4 -26 0 2.28 1.56
0 -27 0 0.76 0.59
0 -27 0 -0.03 0.59
-1 -27 0 1.95 0.51
1 -27 0 1.82 0.65
-1 -27 0 1.17 0.68
1 -27 0 2.84 0.76
-2 -27 0 8.29 1.35
2 -27 0 5.07 0.8
2 -27 0 10.35 1.63
-3 -27 0 0.97 0.95
3 -27 0 0.8 1.12
4 -27 0 3 1.65
-4 -27 0 0.57 1.33
0 -28 0 15.05 1.2
0 -28 0 12.5 1.11
-1 -28 0 10.15 1.07
1 -28 0 10.4 1.14
-1 -28 0 9.74 0.91
1 -28 0 8.68 0.93
-2 -28 0 0.75 0.86
2 -28 0 0.85 0.93
2 -28 0 1.6 0.69
-3 -28 0 15.58 1.76
3 -28 0 16.71 1.81
-4 -28 0 2.73 1.39
4 -28 0 1.31 1.63
0 -29 0 1.42 0.69
0 -29 0 0.12 0.71
1 -29 0 2.98 0.75
1 -29 0 2.18 0.87
-1 -29 0 2.85 0.83
-1 -29 0 3.95 0.67
2 -29 0 0.66 0.72
-2 -29 0 0.39 0.86
2 -29 0 0.04 1.02
3 -29 0 15.31 1.84
-3 -29 0 12.02 1.5
-4 -29 0 2.36 1.39
4 -29 0 4.34 1.77
0 -30 0 7.17 0.98
0 -30 0 7.99 0.99
1 -30 0 1.87 0.75
1 -30 0 0.16 0.88
-1 -30 0 1.72 0.86
-2 -30 0 5.21 1.09
2 -30 0 4.41 1.23
3 -30 0 4.45 1.57
-3 -30 0 3.77 1.31
-4 -30 0 -0.81 1.49
4 -30 0 3.13 1.99
0 -31 0 1.12 0.82
0 -31 0 -0.49 0.77
1 -31 0 10.54 1.22
1 -31 0 9.24 1.4
-1 -31 0 9.33 1.15
-2 -31 0 2.08 1.12
2 -31 0 1.63 1.14
-3 -31 0 4.21 1.37
3 -31 0 4.72 1.57
0 -32 0 4.89 1
0 -32 0 3.87 0.94
1 -32 0 1.75 0.86
-1 -32 0 1.66 0.95
1 -32 0 2.42 1.07
-2 -32 0 2.71 1.15
2 -32 0 2.58 1.29
3 -32 0 4.53 1.66
-3 -32 0 -0.82 1.32
0 -33 0 0.44 0.89
1 -33 0 0.9 1.11
1 -33 0 3.02 1.03
-1 -33 0 0.09 0.98
-2 -33 0 11.76 1.54
2 -33 0 8.53 1.6
3 -33 0 2.77 1.69
-3 -33 0 0.8 1.34
0 -34 0 1.29 1.04
1 -34 0 4.05 1.28
-1 -34 0 3.91 1.22
-2 -34 0 -0.63 1.23
2 -34 0 -0.07 1.42
0 -35 0 -0.75 1.08
-1 -35 0 0.42 1.18
1 -35 0 1.42 1.35
2 -35 0 4.4 1.65
-2 -35 0 0.88 1.32
-1 -36 0 4.91 1.41
1 -36 0 1.51 1.45
-1 -37 0 5.54 1.56
6 0 -1 1.28 0.92
-5 0 1 2.81 0.7
5 0 -1 2.67 0.71
-4 0 1 2.6 0.63
4 0 -1 2.98 0.51
-4 0 1 3.65 0.55
3 0 -1 12.05 0.74
-3 0 1 11.98 0.71
-3 0 1 12.47 0.64
-2 0 1 0.64 0.21
2 0 -1 0.35 0.19
-2 0 1 0.6 0.18
1 0 -1 122.52 3.2
-1 0 1 125.69 3.21
-1 0 1 128.86 3.18
0 0 -1 0.7 0.1
0 0 1 0.8 0.11
-1 0 -1 125.55 3.31
1 0 1 126.62 3.32
-1 0 -1 129.6 3.3
1 0 1 131.62 3.32
2 0 1 96.08 2.7
2 0 1 98 2.72
-2 0 -1 97.59 2.69
-2 0 -1 100.44 2.66
-3 0 -1 21.06 0.96
-3 0 -1 22.25 0.97
3 0 1 21.25 1
4 0 1 37.62 1.54
-4 0 -1 34.85 1.48
-5 0 -1 6.21 1.01
5 0 1 5.96 0.97
-6 0 -1 5.3 1.43
6 -1 -1 6.48 1.12
-6 -1 1 4.54 1.13
6 1 -1 4.61 0.96
-6 1 1 5.52 1.45
5 -1 -1 16.92 1.2
-5 -1 1 14.52 1.16
5 1 -1 13.91 1.11
-5 1 1 14.95 1.09
-4 -1 1 0.42 0.43
-4 -1 1 -0.04 0.54
4 -1 -1 0.71 0.45
-4 1 1 -0.05 0.38
4 1 -1 -0.12 0.39
-3 -1 1 32.25 1.15
-3 -1 1 33.37 1.16
3 -1 -1 34.4 1.19
3 -1 -1 31.72 1.18
-3 1 1 34.25 1.22
-3 1 1 33.79 1.13
3 1 -1 31.64 1.2
3 1 -1 32.58 1.14
2 -1 -1 49.48 1.42
2 -1 -1 47.4 1.46
-2 -1 1 50.76 1.45
-2 -1 1 50.76 1.43
-2 1 1 49.87 1.41
-2 1 1 49.96 1.47
2 1 -1 51.16 1.46
2 1 -1 49.27 1.43
-1 -1 1 497.42 11.94
-1 -1 1 479.63 11.94
1 -1 -1 480.62 11.97
1 1 -1 477.39 11.94
-1 1 1 484.49 11.9
0 -1 1 42.72 1.19
0 -1 -1 46.12 1.17
0 -1 1 45.51 1.18
0 1 -1 45.47 1.18
0 1 1 43.83 1.17
0 1 1 43.89 1.2
1 -1 1 57.29 1.52
1 -1 1 51.53 1.52
-1 -1 -1 55.42 1.52
-1 -1 -1 55.63 1.49
-1 1 -1 54.02 1.5
1 1 1 53.14 1.52
1 1 1 52.84 1.5
-1 1 -1 56.3 1.52
-2 -1 -1 12.15 0.57
2 -1 1 12.77 0.67
2 -1 1 12.63 0.65
-2 -1 -1 11.37 0.6
2 1 1 11.34 0.67
-2 1 -1 12.87 0.61
-2 1 -1 12.77 0.58
2 1 1 11.32 0.58
-3 -1 -1 28.53 1.11
3 -1 1 26.16 1.15
-3 -1 -1 28.43 1.13
-3 1 -1 26.7 1.14
-3 1 -1 28.86 1.11
3 1 1 27.61 1.12
-4 -1 -1 21.08 1.16
4 -1 1 22.59 1.24
4 1 1 22.91 1.17
-4 1 -1 20.23 1.13
-5 -1 -1 3.8 1.14
5 -1 1 5.13 0.97
5 1 1 5.32 0.91
-5 1 -1 4.82 0.94
-6 -1 -1 0.55 1.15
6 -1 1 0.96 1.28
-6 1 -1 3.08 1.3
6 -2 -1 5.81 1.16
-6 -2 1 6.67 1.22
-6 2 1 4.87 1.13
6 2 -1 7.03 1.33
-5 -2 1 21.06 1.29
5 -2 -1 19.62 1.3
-5 2 1 19.52 1.2
5 2 -1 19.04 1.22
-4 -2 1 4.65 0.63
4 -2 -1 4.37 0.61
-4 -2 1 4.31 0.63
4 2 -1 4.36 0.53
-4 2 1 3.7 0.54
-3 -2 1 44.08 1.44
3 -2 -1 43.87 1.46
-3 -2 1 44.2 1.38
3 -2 -1 45.18 1.43
3 2 -1 42.15 1.36
3 2 -1 42.61 1.48
-3 2 1 42.1 1.48
-2 -2 1 53 1.55
2 -2 -1 54.77 1.5
2 -2 -1 51.55 1.57
-2 -2 1 52.62 1.49
-2 2 1 53.79 1.58
2 2 -1 54.68 1.56
-2 2 1 54.31 1.48
2 2 -1 53.19 1.49
1 -2 -1 165.54 4.12
-1 -2 1 160.57 4.09
-1 -2 1 159.73 4.05
-1 2 1 164.42 4.01
1 2 -1 155.86 4.05
-1 2 1 163.31 4.12
0 -2 1 407.38 10.39
0 -2 1 430.95 10.39
0 -2 -1 418.94 10.4
0 2 -1 423.1 10.39
0 2 1 415.59 10.36
0 2 1 429.29 10.4
-1 -2 -1 39.83 1.16
1 -2 1 38.53 1.18
-1 -2 -1 40.65 1.12
1 -2 1 40 1.15
-1 2 -1 40.36 1.17
1 2 1 39.54 1.17
1 2 1 39.58 1.13
-1 2 -1 39.57 1.15
-2 -2 -1 44.2 1.31
2 -2 1 44.48 1.39
2 -2 1 39.45 1.52
-2 -2 -1 43.92 1.39
-2 2 -1 46.77 1.4
2 2 1 43.59 1.43
-2 2 -1 44.41 1.36
2 2 1 44.5 1.35
-3 -2 -1 6.59 0.62
3 -2 1 8.08 0.72
-3 -2 -1 6.87 0.63
-3 2 -1 6.56 0.71
-3 2 -1 7.42 0.62
3 2 1 6.51 0.62
4 -2 1 40.12 1.65
-4 -2 -1 37.67 1.56
-4 2 -1 39.16 1.54
4 2 1 35.92 1.51
5 -2 1 5.42 0.99
5 2 1 4.49 0.89
-5 2 -1 4.07 0.91
6 -2 1 1.43 1.31
-6 -2 -1 1.94 1.27
-6 2 -1 1.15 1.16
-6 -3 1 10.13 1.29
6 -3 -1 8.29 1.25
-6 3 1 7.62 1.15
5 -3 -1 13.83 1.21
-5 -3 1 11.88 1.15
5 3 -1 13.43 1.06
-5 3 1 11.92 1.03
-4 -3 1 0.88 0.45
-4 -3 1 0.86 0.48
4 -3 -1 0.1 0.45
4 3 -1 1.32 0.41
-4 3 1 1.22 0.41
-3 -3 1 8.86 0.63
3 -3 -1 10.78 0.66
3 -3 -1 8.87 0.64
-3 -3 1 8.45 0.54
3 3 -1 8.19 0.74
-3 3 1 8.51 0.73
3 3 -1 8.25 0.51
-3 3 1 9.99 0.54
2 -3 -1 24.35 0.89
-2 -3 1 23.2 0.85
2 -3 -1 24.8 0.77
2 3 -1 23.61 0.76
-2 3 1 24.43 0.9
-2 3 1 24.25 0.74
2 3 -1 24.11 0.88
1 -3 -1 22.59 0.73
-1 -3 1 21.41 0.64
-1 -3 1 22.93 0.71
-1 3 1 20.47 0.58
1 3 -1 23.03 0.64
-1 3 1 21.83 0.73
0 -3 -1 401.68 10.18
0 -3 1 419.95 10.26
0 -3 1 408.49 10.18
0 3 1 410.64 10.15
0 3 1 419.65 10.19
0 3 -1 420.95 10.18
0 3 -1 401.45 10.18
-1 -3 -1 1.68 0.22
1 -3 1 1.55 0.19
1 -3 1 1.63 0.24
1 3 1 1.84 0.2
-1 3 -1 1.26 0.17
1 3 1 1.17 0.21
-1 3 -1 1.33 0.21
2 -3 1 4.85 0.48
-2 -3 -1 5.67 0.46
2 -3 1 5.36 0.47
-2 -3 -1 5.04 0.38
-2 3 -1 5.4 0.43
2 3 1 4.65 0.57
2 3 1 4.6 0.38
-2 3 -1 5.09 0.49
3 -3 1 34.09 1.38
-3 -3 -1 34.53 1.21
-3 -3 -1 34.68 1.31
-3 3 -1 36.32 1.27
3 3 1 34.47 1.25
4 -3 1 11.21 1.05
-4 -3 -1 9.23 0.91
-4 3 -1 10.55 0.87
4 3 1 12.13 0.92
-5 -3 -1 1.75 0.8
5 -3 1 1.77 0.86
-5 3 -1 3.45 0.91
5 3 1 3.09 0.79
-6 -3 -1 0.65 1.18
6 -3 1 1.4 1.31
-6 3 -1 1.22 1.18
6 -4 -1 0.6 1.15
-6 -4 1 1.62 1
-6 4 1 2.82 0.98
-5 -4 1 5.91 0.87
5 -4 -1 6.25 0.91
-5 4 1 6.07 0.79
5 4 -1 6.16 0.73
4 -4 -1 24.07 1.17
4 -4 -1 20.25 1.17
-4 -4 1 21.13 1.11
-4 -4 1 21.42 1
-4 4 1 21.99 0.97
4 4 -1 21.69 0.97
-3 -4 1 15.45 0.8
3 -4 -1 15.27 0.8
3 -4 -1 15.46 0.83
-3 -4 1 15.76 0.66
-3 4 1 14.81 0.92
3 4 -1 15.8 0.65
3 4 -1 13.54 0.87
-3 4 1 14.72 0.65
-2 -4 1 64.43 1.73
2 -4 -1 64.26 1.9
-2 -4 1 63.5 1.87
-2 4 1 66.74 1.91
2 4 -1 65.17 1.88
-2 4 1 66.43 1.72
2 4 -1 63.64 1.72
1 -4 -1 980.94 24.4
-1 4 1 1000 24.41
0 -4 -1 102.7 2.57
0 -4 1 101.11 2.61
0 -4 -1 100.8 2.6
0 4 1 102.23 2.57
0 4 -1 97.59 2.6
0 4 1 101.74 2.62
1 -4 1 35.88 1.15
1 -4 1 37.15 1.09
-1 -4 -1 37.41 1.13
-1 4 -1 38.65 1.15
1 4 1 38.82 1.15
-1 4 -1 36.98 1.09
1 4 1 37.57 1.06
-2 -4 -1 57.5 1.72
-2 -4 -1 58.83 1.6
2 -4 1 54.87 1.76
2 -4 1 54.45 1.67
2 4 1 56.36 1.77
-2 4 -1 57.22 1.74
2 4 1 58.25 1.64
-2 4 -1 56.45 1.67
-3 -4 -1 11.96 0.77
3 -4 1 12.3 0.88
-3 -4 -1 12.23 0.68
-3 4 -1 12.64 0.74
3 4 1 12.06 0.71
-4 -4 -1 12.74 1
4 -4 1 13.86 1.13
4 4 1 14.92 0.96
-4 4 -1 11.78 0.92
-5 -4 -1 0.81 0.8
5 -4 1 0.54 0.82
-5 4 -1 0.11 0.75
5 4 1 0.53 0.71
-6 -4 -1 0.99 1.24
6 -4 1 1.92 1.38
-6 4 -1 2.17 1.19
-6 -5 1 4.88 1.17
6 -5 -1 2.76 1.31
-6 5 1 1.59 0.96
5 -5 -1 1.07 0.71
-5 -5 1 -0.12 0.61
-5 5 1 0.32 0.61
5 5 -1 0.3 0.54
4 -5 -1 10.09 0.95
-4 -5 1 11.21 0.74
-4 -5 1 9.74 0.86
4 -5 -1 11.1 0.92
4 5 -1 9.63 0.74
-4 5 1 10.18 0.71
3 -5 -1 19.71 0.83
3 -5 -1 19.82 0.94
-3 -5 1 18.92 0.9
-3 -5 1 19.65 0.72
-3 5 1 20.04 0.74
3 5 -1 19.81 0.99
-3 5 1 18.58 1.04
3 5 -1 19.54 0.72
-2 -5 1 174.01 4.3
2 -5 -1 175.22 4.32
2 -5 -1 153.8 4.61
-2 -5 1 167.2 4.5
-2 5 1 175.98 4.29
-2 5 1 172.17 4.51
2 5 -1 178.49 4.5
2 5 -1 170.47 4.29
-1 -5 1 256.73 6.56
-1 -5 1 262.37 6.43
-1 -5 1 254.84 6.43
1 -5 -1 261.74 6.58
-1 5 1 264.49 6.59
0 -5 1 247.07 6.12
0 -5 1 251.86 6.13
0 -5 -1 244.44 6.12
0 -5 -1 239.62 6.08
0 5 -1 240.77 6.12
0 5 -1 240.3 6.12
0 5 1 246.18 6.09
-1 -5 -1 29.94 0.95
1 -5 1 28.83 0.99
1 -5 1 31.34 0.92
1 5 1 26.32 0.92
-1 5 -1 30.6 0.92
1 5 1 31 0.87
1 5 1 31.41 0.99
2 -5 1 22.48 0.88
-2 -5 -1 22.91 0.91
2 -5 1 25 1
-2 5 -1 24.46 0.97
2 5 1 23.93 0.81
2 5 1 23.11 1
-2 5 -1 22.98 0.85
-3 -5 -1 38.96 1.45
3 -5 1 39.43 1.54
-3 -5 -1 39.72 1.28
-3 5 -1 38.42 1.36
-4 -5 -1 1.63 0.59
4 -5 1 2.93 0.71
-4 -5 -1 3.51 0.69
4 5 1 3.49 0.59
-4 5 -1 3.26 0.61
5 -5 1 2.05 0.93
-5 -5 -1 0.17 0.79
5 5 1 -0.61 0.72
-5 5 -1 1.02 0.78
6 -5 1 -0.35 1.43
-6 -5 -1 -0.53 1.15
-6 5 -1 -2.21 1.14
-6 -6 1 9.59 1.28
6 -6 -1 10.23 1.46
-6 6 1 6.33 1.12
5 -6 -1 9.65 1.2
-5 -6 1 9.52 1.04
5 6 -1 8.54 0.83
-5 6 1 9.52 0.93
4 -6 -1 10.78 0.97
4 -6 -1 12.62 1.01
-4 -6 1 11.72 0.7
-4 -6 1 13.43 0.94
4 6 -1 11.61 0.67
-4 6 1 12.35 0.74
3 -6 -1 0.49 0.32
3 -6 -1 0.54 0.35
-3 -6 1 0.83 0.23
-3 -6 1 0.41 0.31
3 6 -1 0.4 0.21
-3 6 1 0.6 0.52
-3 6 1 0.43 0.22
2 -6 -1 12.68 0.67
2 -6 -1 13.27 0.47
-2 -6 1 13.11 0.65
-2 -6 1 12.15 0.43
2 6 -1 13.04 0.69
-2 6 1 12.84 0.43
-2 6 1 11.33 0.69
2 6 -1 12.19 0.41
-1 -6 1 31.57 0.85
-1 -6 1 30.3 0.85
-1 -6 1 32.99 1
1 -6 -1 31.52 1.01
-1 6 1 30.77 1.02
0 -6 1 189.87 4.87
0 -6 -1 191.12 4.86
0 -6 -1 189.99 4.82
0 -6 1 195.51 4.86
0 6 1 195.56 4.83
0 6 -1 187.26 4.87
0 6 -1 194.39 4.86
0 6 1 194.22 4.87
1 -6 1 23.3 0.88
1 -6 1 25.88 0.81
-1 -6 -1 24.8 0.85
-1 6 -1 24.19 0.79
1 6 1 24.02 0.74
1 6 1 25.81 0.88
2 -6 1 31.16 1.09
-2 -6 -1 31.96 1.15
2 -6 1 32.08 1.21
-2 6 -1 32.42 1.2
2 6 1 33.04 1.24
2 6 1 33.21 1.01
-2 6 -1 33.22 1.08
-3 -6 -1 54.09 1.83
3 -6 1 53.29 1.92
-3 -6 -1 57.29 1.64
-3 6 -1 56.97 1.76
3 6 1 52.03 1.67
-4 -6 -1 10.95 0.98
-4 -6 -1 10.09 0.94
4 -6 1 15.17 1.19
-4 6 -1 13.41 0.94
4 6 1 13.61 0.9
5 -6 1 1.14 0.9
-5 -6 -1 1.88 0.87
5 6 1 1.93 0.76
-5 6 -1 1.62 0.81
6 -6 1 6.2 1.58
-6 -6 -1 3.65 1.24
-6 6 -1 5.86 1.43
6 -7 -1 3.72 1.23
-6 -7 1 5.06 1.19
-6 7 1 4.83 1
5 -7 -1 12.49 1.3
-5 -7 1 11.94 1.2
5 7 -1 12.32 1.07
-5 7 1 9.88 0.99
4 -7 -1 1.81 0.65
4 -7 -1 1.03 0.56
-4 -7 1 2.23 0.39
-4 -7 1 2.34 0.57
4 7 -1 2.38 0.37
-4 7 1 2.42 0.45
3 -7 -1 3 0.49
-3 -7 1 3.5 0.53
3 -7 -1 3.82 0.41
-3 -7 1 2.86 0.33
3 7 -1 2.93 0.31
-3 7 1 3.35 0.35
-2 -7 1 86.85 2.53
2 -7 -1 88.44 2.56
2 -7 -1 89.08 2.29
-2 -7 1 87.4 2.25
-2 7 1 92.21 2.28
-2 7 1 89.97 2.57
2 7 -1 90 2.54
-1 -7 1 256.15 6.61
1 -7 -1 262.55 6.63
-1 -7 1 251.8 6.44
-1 7 1 270.35 6.63
0 -7 1 187.87 4.71
0 -7 -1 184.37 4.67
0 -7 1 178.79 4.72
0 -7 -1 188.26 4.71
0 7 1 187.99 4.72
0 7 -1 183.41 4.73
0 7 -1 187.22 4.71
-1 -7 -1 77.91 2.2
1 -7 1 78.22 2.25
1 -7 1 80.49 2.14
1 7 1 79.98 2.22
-1 7 -1 75.72 2.14
-1 7 -1 84.87 2.25
1 7 1 78.8 2.19
2 -7 1 32.14 1.25
-2 -7 -1 33.42 1.2
2 -7 1 32.36 1.12
-2 7 -1 34.12 1.11
2 7 1 33.23 1.28
2 7 1 36.07 1.04
-2 7 -1 34.03 1.26
3 -7 1 22.27 1.14
-3 -7 -1 21.7 1.04
-3 7 -1 19.95 0.93
3 7 1 19.93 0.85
-4 -7 -1 13.05 1.06
4 -7 1 15.05 1.24
4 7 1 15.06 0.9
-4 7 -1 11.17 0.92
5 -7 1 1.59 0.97
-5 -7 -1 0.73 0.85
-5 7 -1 -0.39 0.78
5 7 1 1.15 0.76
6 -7 1 2.44 1.5
-6 -7 -1 -0.53 1.28
-6 7 -1 1.71 1.31
6 -8 -1 10.04 1.46
-6 -8 1 9.94 1.39
-6 8 1 8.66 1.23
5 -8 -1 5.13 0.97
-5 -8 1 4.4 0.89
5 8 -1 3.78 0.56
-5 8 1 4.68 0.74
4 -8 -1 1.79 0.63
-4 -8 1 1.61 0.55
-4 -8 1 1.35 0.32
4 -8 -1 2.6 0.66
-4 8 1 1.78 0.44
4 8 -1 1.64 0.31
-3 -8 1 19.22 0.59
3 -8 -1 17.12 0.98
-3 -8 1 17.65 0.95
3 -8 -1 19.72 0.77
-3 8 1 19.87 0.69
3 8 -1 18.14 0.58
2 -8 -1 350.82 8.73
-2 -8 1 346.31 9
2 -8 -1 346.62 9.03
-2 8 1 352.98 8.72
-2 8 1 356.03 9.03
2 8 -1 365.62 9
1 -8 -1 112.03 2.76
-1 -8 1 112.4 2.98
1 -8 -1 106.64 2.98
1 -8 -1 111.43 2.75
-1 -8 1 109.05 2.8
-1 8 1 111.49 2.99
0 -8 -1 49.05 1.37
0 -8 -1 48.36 1.33
0 -8 1 47.89 1.38
0 8 1 47.98 1.34
0 8 1 49.89 1.38
0 8 -1 44.39 1.35
0 8 -1 46.72 1.38
1 -8 1 86.58 2.33
-1 -8 -1 85.5 2.4
1 -8 1 90.07 2.79
-1 8 -1 85.4 2.43
-1 8 -1 86.06 2.34
1 8 1 89.58 2.31
1 8 1 85.54 2.42
2 -8 1 14.37 0.8
2 -8 1 14.18 0.67
-2 -8 -1 14.86 0.74
-2 8 -1 14.11 0.64
2 8 1 12.48 0.86
-2 8 -1 14.41 0.82
2 8 1 14.26 0.55
2 8 1 13.51 0.54
-3 -8 -1 16.01 0.91
3 -8 1 14.93 1.01
3 8 1 15.86 0.71
-3 8 -1 15.53 0.83
-4 -8 -1 7.66 0.92
4 -8 1 5.3 0.91
-4 8 -1 4.48 0.65
4 8 1 6.12 0.63
-5 -8 -1 0.48 0.81
5 -8 1 2.85 1.45
-5 8 -1 2.75 0.9
-6 -8 -1 3.32 1.38
6 -8 1 -0.42 1.51
-6 8 -1 -1 1.21
-6 -9 1 4.75 1.25
6 -9 -1 4.45 1.36
5 -9 -1 2.85 0.88
-5 -9 1 4.25 0.92
-5 9 1 4.07 0.71
-4 -9 1 17.25 1.12
4 -9 -1 16.94 1.06
4 -9 -1 17 1.22
-4 -9 1 17.2 0.72
-4 9 1 20 0.86
4 9 -1 16.83 0.62
3 -9 -1 1.96 0.34
-3 -9 1 0.81 0.37
3 -9 -1 0.89 0.42
-3 9 1 1.08 0.25
2 -9 -1 15.26 0.49
-2 -9 1 14.71 0.76
2 -9 -1 15.67 0.79
-2 9 1 14.7 0.85
2 9 -1 14.9 0.83
-2 9 1 14.94 0.49
1 -9 -1 37.8 1.26
-1 -9 1 38.46 1.24
1 -9 -1 41.31 1.02
1 -9 -1 38.88 1.04
-1 -9 1 37.52 1.06
1 9 -1 36.78 1.04
-1 9 1 40.18 1.27
0 -9 -1 44.09 1.3
0 -9 1 44 1.32
0 -9 -1 44.43 1.27
0 -9 1 44.38 1.31
0 9 -1 44.59 1.31
0 9 1 45.38 1.32
0 9 -1 44.42 1.33
0 9 1 46.39 1.29
1 -9 1 26.59 1.02
1 -9 1 26.16 0.88
-1 -9 -1 25.93 1.05
-1 9 -1 26.75 0.91
1 9 1 28.81 0.85
1 9 1 27.04 1
-1 9 -1 27.66 1.01
2 -9 1 0.41 0.35
2 -9 1 0.5 0.27
-2 -9 -1 0.85 0.31
2 9 1 0.45 0.18
2 9 1 0.65 0.2
-2 9 -1 0.62 0.26
2 9 1 0.54 0.48
-3 -9 -1 15.36 0.92
3 -9 1 15.24 1.04
-3 9 -1 14.22 0.81
3 9 1 16.75 0.68
3 9 1 14.64 0.69
-4 -9 -1 0.58 0.57
4 -9 1 -0.29 0.61
-4 9 -1 1.11 0.53
-5 -9 -1 2.36 0.94
5 -9 1 3.77 1.09
-5 9 -1 1.57 0.85
-6 -9 -1 2.33 1.36
6 -9 1 2.03 1.58
-6 9 -1 0.84 1.26
6 -10 -1 6.8 1.47
-6 -10 1 4.13 1.23
5 -10 -1 3.36 0.95
-5 -10 1 3.76 0.92
-5 10 1 4.27 0.72
4 -10 -1 33.58 1.39
4 -10 -1 37.31 1.72
-4 -10 1 37.18 1.61
-4 10 1 37.3 1.26
3 -10 -1 0.12 0.42
-3 -10 1 0.08 0.33
3 -10 -1 0.35 0.29
-3 10 1 0.41 0.22
2 -10 -1 14.4 0.8
-2 -10 1 14.05 0.78
2 -10 -1 15.31 0.49
-2 10 1 15.18 0.88
-2 10 1 14.3 0.49
1 -10 -1 115.72 2.93
1 -10 -1 117.04 2.91
1 -10 -1 113.83 3.28
-1 -10 1 102.12 3.22
-1 -10 1 116.52 3.13
-1 -10 1 117.7 2.95
-1 10 1 120.52 3.17
1 10 -1 119.16 2.93
0 -10 -1 12.9 0.53
0 -10 1 13.12 0.57
0 -10 1 12.9 0.58
0 -10 -1 12.28 0.55
0 10 -1 12.51 0.59
0 10 -1 14.2 0.57
0 10 1 13.13 0.55
0 10 1 12.5 0.58
-1 -10 -1 96.2 2.8
1 -10 1 103.07 2.71
1 -10 1 100.74 2.85
-1 -10 -1 103.32 2.64
1 10 1 100.05 2.81
1 10 1 104.52 2.66
-1 10 -1 102.91 2.84
-1 10 -1 100.16 2.73
-2 -10 -1 7.22 0.61
2 -10 1 7.3 0.56
2 -10 1 7.09 0.7
2 10 1 7.59 0.4
2 10 1 7.02 0.38
-2 10 -1 8.31 0.52
3 -10 1 40.47 1.68
-3 -10 -1 40.14 1.57
3 10 1 41.11 1.24
-3 10 -1 42.02 1.44
3 10 1 40.96 1.27
-4 -10 -1 4.1 0.79
4 -10 1 5.19 0.93
4 10 1 3.65 0.55
-4 10 -1 3.58 0.63
-5 -10 -1 1.21 0.86
5 -10 1 1.42 1.08
-5 10 -1 -1.11 0.79
-6 -10 -1 5.61 1.66
6 -10 1 2.49 1.62
-6 10 -1 1.65 1.3
-6 -11 1 1.6 1.19
6 -11 -1 4.64 1.45
5 -11 -1 0.57 0.88
-5 11 1 0.23 0.61
-4 -11 1 6.49 0.85
4 -11 -1 4.65 0.79
4 -11 -1 5.24 0.68
-4 11 1 4.96 0.59
3 -11 -1 2.67 0.59
-3 -11 1 2.4 0.52
3 -11 -1 2.03 0.33
-3 11 1 3.15 0.31
-2 -11 1 60.57 1.94
2 -11 -1 64.49 1.61
2 -11 -1 59.27 1.95
-2 11 1 60.34 1.61
-2 11 1 59.19 1.98
-1 -11 1 41.87 1.36
1 -11 -1 40.94 1.36
-1 -11 1 43.85 1.18
1 -11 -1 40.13 1.15
1 -11 -1 40.54 1.12
-1 -11 1 42.61 1.36
1 11 -1 41.28 1.15
-1 11 1 40.91 1.39
0 -11 1 41.49 1.27
0 -11 -1 41.36 1.26
0 -11 1 41.42 1.29
0 -11 -1 42.17 1.24
0 11 -1 39.09 1.29
0 11 -1 41.07 1.26
0 11 1 42.73 1.25
0 11 1 41.09 1.28
1 -11 1 2.52 0.39
1 -11 1 2.82 0.35
-1 -11 -1 3.98 0.42
-1 -11 -1 3.58 0.27
1 11 1 3.53 0.34
-1 11 -1 2.37 0.36
1 11 1 3.74 0.44
-2 -11 -1 3.3 0.49
2 -11 1 3.22 0.41
2 -11 1 2.81 0.53
2 11 1 2.98 0.29
2 11 1 3.29 0.33
-2 11 -1 2.52 0.36
-3 -11 -1 6.57 0.76
3 -11 1 7.86 0.93
-3 11 -1 6.2 0.66
3 11 1 7.19 0.48
3 11 1 5.95 0.46
4 -11 1 10.75 1.2
-4 -11 -1 9.68 1.06
-4 11 -1 8.96 0.89
4 11 1 10.72 0.71
-5 -11 -1 0.66 0.87
5 -11 1 2.6 1.15
-5 11 -1 3.15 0.94
6 -11 1 0.69 1.64
-6 -11 -1 0.24 1.33
-6 11 -1 -0.3 1.41
-6 -12 1 5.72 1.38
6 -12 -1 7.73 1.61
-5 -12 1 2.51 0.95
-5 12 1 1.3 0.64
-4 -12 1 19.65 1.25
4 -12 -1 19.49 1.02
4 -12 -1 19.62 1.36
-4 12 1 17.92 0.86
3 -12 -1 3.47 0.39
-3 -12 1 3.92 0.59
3 -12 -1 3.14 0.6
-3 12 1 3.58 0.34
2 -12 -1 23.43 1.06
-2 -12 1 23.28 1.04
2 -12 -1 22.66 0.76
-2 12 1 24.12 0.73
-1 -12 1 34.39 1.19
1 -12 -1 34.07 0.98
1 -12 -1 34.04 1.19
-1 -12 1 33.49 1.18
-1 -12 1 33.79 1
-1 12 1 34.34 1.22
1 12 -1 29.94 1.02
0 -12 -1 31.54 1.02
0 -12 -1 31.79 1.05
0 -12 1 31.7 1.08
0 -12 1 31.59 1.05
0 12 -1 33.09 1.06
0 12 1 32.11 1.05
0 12 1 31.06 1.07
1 -12 1 18.6 0.88
-1 -12 -1 17.97 0.79
-1 -12 -1 19.08 0.65
1 -12 1 17.87 0.72
1 12 1 17.6 0.87
-1 12 -1 19.28 0.88
1 12 1 19.25 0.69
-1 12 -1 18.77 0.76
2 -12 1 7.21 0.61
-2 -12 -1 7.91 0.66
2 -12 1 7.3 0.76
-2 12 -1 8.07 0.57
2 12 1 8.67 0.62
2 12 1 8.12 0.39
-3 -12 -1 1.56 0.5
3 -12 1 0.92 0.59
3 12 1 1.02 0.29
3 12 1 1.29 0.31
-3 12 -1 1.32 0.43
4 -12 1 2.37 0.81
-4 -12 -1 1.6 0.72
4 12 1 2.4 0.41
-4 12 -1 2.07 0.61
-5 -12 -1 1.04 0.95
5 -12 1 2.59 1.17
-5 12 -1 1.57 0.92
6 -12 1 -1.04 1.72
-6 -12 -1 2.07 1.37
-6 12 -1 -1.49 1.29
6 -13 -1 2.24 1.49
-6 -13 1 -0.93 1.15
-5 -13 1 1.51 0.89
5 -13 -1 1.65 1.04
-5 13 1 2.92 0.66
-4 -13 1 2.1 0.69
4 -13 -1 1.7 0.77
4 -13 -1 1.4 0.72
-4 13 1 1.73 0.45
3 -13 -1 10.51 0.6
-3 -13 1 10.76 0.87
3 -13 -1 11.67 0.95
-3 13 1 11.21 0.55
2 -13 -1 17.67 0.96
-2 -13 1 17.03 0.91
1 -13 -1 18.36 0.6
1 -13 -1 17.58 0.83
-1 -13 1 17.37 0.83
-1 -13 1 16.92 0.83
1 -13 -1 17.04 0.62
-1 -13 1 18.32 0.64
-1 13 1 17.95 0.89
1 13 -1 18.02 0.6
0 -13 1 78 2.21
0 -13 -1 77.75 2.15
0 -13 -1 76.18 2.18
0 -13 1 75.34 2.17
0 13 -1 79.51 2.18
0 13 1 77.15 2.19
1 -13 1 6.89 0.48
-1 -13 -1 6.77 0.52
1 -13 1 6.34 0.62
-1 -13 -1 5.93 0.37
-1 13 -1 6.66 0.65
1 13 1 6.74 0.45
-1 13 -1 7.07 0.53
1 13 1 5.68 0.65
2 -13 1 106.68 3.17
-2 -13 -1 103.97 3.06
2 -13 1 101.67 2.9
-2 13 -1 105.71 2.92
2 13 1 106.28 2.71
-3 -13 -1 21.98 1.17
3 -13 1 23.37 1.33
3 13 1 21.92 0.73
-3 13 -1 21.1 1.01
3 13 1 19.71 0.8
4 -13 1 8.58 1.1
-4 -13 -1 8.71 1.05
-4 13 -1 8.36 0.93
-5 -13 -1 4.12 1.09
5 -13 1 6.79 1.29
-5 13 -1 5.69 1.04
6 -13 1 5.67 1.81
-6 -13 -1 1.07 1.34
6 -14 -1 5.02 1.7
-6 -14 1 3.07 1.31
-5 -14 1 5.93 1.04
5 -14 -1 5.08 1.2
-5 14 1 2.72 0.71
-4 -14 1 5.75 0.9
4 -14 -1 5.03 0.95
-4 14 1 6.07 0.65
3 -14 -1 22.96 1.26
-3 -14 1 21.5 1.16
3 -14 -1 22.4 0.84
-3 14 1 23.71 0.82
-2 -14 1 2.79 0.48
2 -14 -1 2.54 0.27
2 -14 -1 1.78 0.46
-1 -14 1 17.68 0.64
1 -14 -1 17.89 0.65
1 -14 -1 17.34 0.86
1 -14 -1 17.96 0.62
-1 -14 1 16.15 0.84
-1 -14 1 16.1 0.86
1 14 -1 18.23 0.62
-1 14 1 18.18 0.91
0 -14 1 27.3 1
0 -14 -1 27.61 0.97
0 -14 -1 27.43 0.98
0 14 -1 26.08 0.98
0 14 1 26.52 1.01
1 -14 1 24.36 1.08
-1 -14 -1 23.33 0.99
-1 -14 -1 24.73 0.82
1 -14 1 25.33 0.92
1 14 1 23.7 1.1
-1 14 -1 24.46 1.08
-1 14 -1 24.35 0.96
1 14 1 26.51 0.89
2 -14 1 21.93 1.14
-2 -14 -1 21.23 1.04
2 -14 1 20.94 0.96
2 14 1 22.04 0.7
-2 14 -1 23.22 0.95
3 -14 1 3.83 0.73
-3 -14 -1 4.31 0.64
-3 14 -1 4.56 0.6
4 -14 1 6.37 1.1
-4 -14 -1 4.04 0.91
-4 14 -1 5.19 0.78
5 -14 1 12.19 1.59
-5 -14 -1 11.22 1.41
-5 14 -1 10.29 1.24
-6 -14 -1 0.3 1.62
6 -14 1 1.12 1.89
6 -15 -1 2.35 1.59
-6 -15 1 2.96 1.34
5 -15 -1 3.77 1.17
-5 -15 1 3.81 1.04
-4 -15 1 8.68 0.97
4 -15 -1 9.86 1.23
-4 15 1 8.81 0.73
3 -15 -1 19.32 0.79
3 -15 -1 21.13 1.26
-3 -15 1 21.39 1.17
-3 15 1 20.05 0.79
-2 -15 1 9.49 0.76
2 -15 -1 9.49 0.44
2 -15 -1 9.47 0.82
1 -15 -1 23.86 0.82
1 -15 -1 23.66 1.04
-1 -15 1 23.8 1.13
-1 -15 1 23.21 0.81
-1 -15 1 24.16 1.03
1 -15 -1 23.75 0.79
1 15 -1 24.5 0.79
-1 15 1 23.31 1.08
0 -15 1 20.77 0.88
0 -15 -1 21.93 0.86
0 -15 1 20.6 0.88
0 15 -1 20.94 0.88
0 15 1 22.13 0.92
-1 -15 -1 4.51 0.53
1 -15 1 4.06 0.45
1 -15 1 3.02 0.46
-1 -15 -1 3.52 0.36
1 15 1 3.5 0.37
1 15 1 3.42 0.56
-1 15 -1 4.13 0.51
-2 -15 -1 37.15 1.45
2 -15 1 37.96 1.57
2 -15 1 34.54 1.32
-2 15 -1 36.87 1.32
2 15 1 38.91 1.07
3 -15 1 10.41 1.15
-3 -15 -1 11.47 1.01
-3 15 -1 9.53 0.84
-4 -15 -1 1.71 1.04
-4 15 -1 3.41 0.73
-5 -15 -1 3.18 1.14
5 -15 1 4.31 1.35
-5 15 -1 3.67 1.04
-6 -16 1 -0.04 1.44
6 -16 -1 1.18 1.69
5 -16 -1 2.47 1.18
-5 -16 1 1.19 0.91
4 -16 -1 10.59 1.28
-4 -16 1 9.19 1.09
-4 16 1 7.29 0.74
3 -16 -1 22.93 1.33
3 -16 -1 20.86 0.83
-3 -16 1 23.4 1.25
-3 16 1 21.43 0.83
-2 -16 1 1.35 0.47
2 -16 -1 0.69 0.42
2 -16 -1 1.13 0.25
1 -16 -1 49.79 1.46
-1 -16 1 49.46 1.45
-1 -16 1 47.62 1.67
1 -16 -1 50.55 1.69
1 -16 -1 49.74 1.42
1 16 -1 49.14 1.42
0 -16 1 5.89 0.59
0 -16 1 5.79 0.56
0 -16 -1 5.73 0.51
0 -16 -1 5.83 0.54
0 16 -1 4.97 0.56
0 16 1 6.18 0.58
-1 -16 -1 26.23 0.88
1 -16 1 23.93 1
-1 -16 -1 25.02 1.06
1 -16 1 24.83 1.15
1 16 1 25.9 0.93
1 16 1 26.22 1.24
-1 16 -1 24.51 1.03
2 -16 1 0.83 0.53
-2 -16 -1 0.92 0.44
2 16 1 1.35 0.21
-2 16 -1 1.34 0.42
3 -16 1 2.08 0.7
-3 -16 -1 3.83 0.73
-3 16 -1 2.92 0.59
4 -16 1 3.76 1.13
-4 -16 -1 2.98 0.89
-4 16 -1 4.58 0.82
-5 -16 -1 4.93 1.25
5 -16 1 5.27 1.59
-5 16 -1 6.66 1.16
-6 -17 1 1.14 1.39
6 -17 -1 3.61 1.82
5 -17 -1 5.19 1.44
-5 -17 1 7.28 1.26
4 -17 -1 10.18 1.2
-4 -17 1 9.91 1.24
-4 17 1 10.96 1.16
3 -17 -1 19.77 1.32
-3 -17 1 18.82 1.19
3 -17 -1 19.49 0.79
-3 17 1 19.6 0.8
2 -17 -1 1.04 0.49
2 -17 -1 1.59 0.29
-2 -17 1 1.78 0.51
-1 -17 1 1.18 0.25
1 -17 -1 0.67 0.39
-1 -17 1 1.01 0.42
1 -17 -1 1.5 0.3
1 -17 -1 1 0.27
1 17 -1 1.02 0.25
0 -17 -1 10.71 0.68
0 -17 1 8.91 0.64
0 -17 1 9.35 0.68
0 -17 -1 9.51 0.63
0 17 1 10.12 0.74
0 17 -1 9.01 0.68
-1 -17 -1 20.9 1
1 -17 1 20.21 0.93
1 -17 1 19.73 1.06
-1 -17 -1 22.41 0.8
1 17 1 21.69 0.87
-1 17 -1 20.97 0.98
-2 -17 -1 7.34 0.79
2 -17 1 7.65 0.9
-2 17 -1 8.37 0.74
2 17 1 7.38 0.39
3 -17 1 -0.31 0.65
-3 -17 -1 0.76 0.55
-3 17 -1 0.74 0.54
-4 -17 -1 3.5 0.87
4 -17 1 5.19 1.26
-4 17 -1 5.3 0.88
-5 -17 -1 0.94 1.19
5 -17 1 -0.23 1.46
-5 17 -1 1.87 1.11
-6 -18 1 -0.39 1.29
6 -18 -1 -0.32 1.85
5 -18 -1 3.66 1.35
-5 -18 1 2.94 1.18
3 -18 -1 5.59 0.55
-3 -18 1 3.88 0.68
3 -18 -1 5.38 0.82
2 -18 -1 2.74 0.6
2 -18 -1 3.13 0.37
2 -18 -1 2.51 0.34
-2 -18 1 2.56 0.57
-1 -18 1 35.4 1.15
1 -18 -1 34.44 1.14
-1 -18 1 35.19 1.39
1 -18 -1 35.08 1.4
1 -18 -1 35.24 1.18
1 18 -1 36.03 1.12
0 -18 -1 0.32 0.32
0 -18 1 0.74 0.35
0 -18 -1 0.04 0.34
0 18 1 -0.25 0.42
0 18 -1 0.55 0.39
-1 -18 -1 7.62 0.7
1 -18 1 6.6 0.76
-1 -18 -1 8.4 0.53
1 18 1 8.34 0.63
-1 18 -1 7.49 0.69
-2 -18 -1 16.06 1.04
2 -18 1 16.67 1.15
2 18 1 17.23 0.6
-2 18 -1 16.53 0.96
3 -18 1 6.6 1.01
-3 -18 -1 6.58 0.89
-3 18 -1 6.62 0.77
-4 -18 -1 4.28 0.99
4 -18 1 4.28 1.21
-4 18 -1 4.13 0.85
-5 -18 -1 2.44 1.24
5 -18 1 1.53 1.55
-6 -19 1 -1.45 1.49
6 -19 -1 -3.59 1.81
-5 -19 1 3.14 1.08
5 -19 -1 2.48 1.37
4 -19 -1 10.75 1.29
-4 -19 1 9.19 1.1
-3 -19 1 17.09 1.2
3 -19 -1 18.82 1.36
3 -19 -1 17.45 0.82
-2 -19 1 5.15 0.73
2 -19 -1 2.85 0.62
2 -19 -1 3.83 0.46
2 -19 -1 3.94 0.42
1 -19 -1 3.27 0.59
-1 -19 1 2.86 0.56
1 -19 -1 2.66 0.46
1 -19 -1 2.18 0.38
-1 -19 1 2.35 0.37
1 19 -1 2.9 0.36
0 -19 1 6.67 0.66
0 -19 -1 7.12 0.62
0 -19 -1 6.74 0.7
0 -19 -1 6.28 0.64
0 19 -1 5.38 0.67
0 19 1 6.88 0.79
1 -19 1 0.91 0.49
-1 -19 -1 0.97 0.33
-1 -19 -1 0.76 0.41
1 19 1 1.23 0.41
2 -19 1 5.36 0.75
-2 -19 -1 5.39 0.74
-2 19 -1 6.84 0.71
2 19 1 5.55 0.37
3 -19 1 1.59 0.83
-3 -19 -1 0.04 0.61
-3 19 -1 1.08 0.61
4 -19 1 3.06 1.17
-4 -19 -1 1.02 0.81
-4 19 -1 2.4 0.84
5 -19 1 6.18 1.78
-5 -19 -1 3.21 1.53
5 -20 -1 9.65 1.61
-5 -20 1 4.83 1.26
4 -20 -1 6.5 1.21
-4 -20 1 6.8 1.11
-3 -20 1 2.49 0.68
3 -20 -1 2.92 0.79
2 -20 -1 16.82 0.75
2 -20 -1 17.89 1.19
-2 -20 1 16.64 1.11
2 -20 -1 16.98 0.72
-1 -20 1 26.13 0.98
1 -20 -1 23.76 0.94
1 -20 -1 23.88 0.98
-1 -20 1 23.92 1.19
1 -20 -1 23.77 1.2
1 20 -1 25.07 0.92
0 -20 -1 7.94 0.68
0 -20 1 9.44 0.74
0 -20 1 8.83 0.75
0 -20 -1 8.24 0.79
0 -20 -1 7.71 0.74
0 20 1 7.8 0.86
0 20 -1 8.09 0.76
-1 -20 -1 2.19 0.49
1 -20 1 1.89 0.52
1 20 1 2.57 0.47
-2 -20 -1 2.39 0.63
2 -20 1 2.37 0.71
2 20 1 2.81 0.33
-2 20 -1 3.53 0.6
-3 -20 -1 0.95 0.64
3 -20 1 -0.24 0.8
-3 20 -1 1.03 0.69
4 -20 1 11.53 1.49
-4 -20 -1 11.63 1.37
-4 20 -1 12.95 1.33
-5 -20 -1 0.01 1.22
5 -20 1 1.59 1.69
5 -21 -1 7.04 1.68
-5 -21 1 4.21 1.32
4 -21 -1 8.6 1.4
-4 -21 1 8.03 1.18
3 -21 -1 9.75 1.09
-3 -21 1 9.33 1.09
2 -21 -1 11.96 1.08
2 -21 -1 10.42 0.64
-2 -21 1 10.41 0.97
2 -21 -1 9.51 0.68
1 -21 -1 11.09 0.73
1 -21 -1 11.51 0.73
1 -21 -1 9.64 0.94
-1 -21 1 10.69 0.9
1 21 -1 11.6 0.66
0 -21 1 9.79 0.79
0 -21 -1 10.44 0.75
0 -21 1 10.72 0.82
0 -21 -1 9.67 0.76
-1 -21 -1 21.92 1.16
-1 -21 -1 23.89 0.97
1 -21 1 23.25 1.27
1 21 1 23.64 1.07
2 -21 1 0.74 0.62
-2 -21 -1 -0.18 0.52
-2 21 -1 0.12 0.55
2 21 1 0.65 0.23
-3 -21 -1 6.45 1.01
-3 21 -1 5.92 0.9
4 -21 1 4.2 1.31
-4 -21 -1 3.54 1.09
-4 21 -1 3.78 1.05
-5 -21 -1 0.65 1.23
5 -21 1 -1.5 1.69
-5 -22 1 5.43 1.46
5 -22 -1 7.19 1.82
4 -22 -1 5.63 1.28
-4 -22 1 3.19 1.02
3 -22 -1 3.07 0.91
-3 -22 1 3.6 0.86
3 -22 -1 2.32 0.46
-2 -22 1 4.24 0.74
2 -22 -1 4.88 0.85
2 -22 -1 3.75 0.48
1 -22 -1 0.16 0.38
-1 -22 1 0.92 0.5
-1 -22 1 0.2 0.35
1 -22 -1 -0.01 0.51
1 -22 -1 1.16 0.46
1 22 -1 0.64 0.38
0 -22 -1 15.32 0.9
0 -22 -1 17.36 0.97
0 -22 1 15.53 0.98
0 -22 1 16.08 0.97
-1 -22 -1 0.28 0.48
1 -22 1 1.02 0.58
-1 -22 -1 0.63 0.36
1 22 1 0.92 0.47
2 -22 1 6.16 0.93
-2 -22 -1 7.02 0.93
-2 22 -1 7.12 0.84
2 22 1 5.75 0.41
-3 -22 -1 2.85 1.25
3 -22 1 2.18 0.91
-3 22 -1 1.4 0.75
4 -22 1 2.39 1.34
-4 -22 -1 2.18 1.02
-4 22 -1 0.79 0.97
5 -22 1 0.59 1.79
-5 -22 -1 1.1 1.28
-5 -23 1 1.3 1.35
5 -23 -1 1.41 1.66
-4 -23 1 0.07 0.9
4 -23 -1 0.82 1.13
-3 -23 1 5.01 1.13
3 -23 -1 5.27 1.34
3 -23 -1 4.14 0.65
2 -23 -1 1.99 0.86
2 -23 -1 1.35 0.54
-2 -23 1 1.44 0.66
1 -23 -1 6.91 0.83
1 -23 -1 6.53 0.77
-1 -23 1 7.31 0.88
-1 -23 1 6.48 0.66
1 -23 -1 6.3 0.66
1 23 -1 5.63 0.63
0 -23 -1 13 0.89
0 -23 1 14.11 1.01
0 -23 -1 14.72 0.96
0 -23 1 14.26 0.98
-1 -23 -1 26.04 1.06
1 -23 1 24.29 1.35
-1 -23 -1 25.55 1.3
1 23 1 25.07 1.17
2 -23 1 1.32 0.81
-2 -23 -1 0.65 0.62
3 -23 1 11.15 1.38
-3 -23 -1 10.82 1.35
-3 23 -1 13.34 1.33
-4 -23 -1 0.76 1.01
4 -23 1 1.31 1.4
-4 23 -1 0.51 1.02
-5 -23 -1 4.05 1.77
5 -23 1 5.99 2.27
5 -24 -1 2.41 1.75
-5 -24 1 -0.71 1.33
4 -24 -1 7.63 1.55
-4 -24 1 4.61 1.14
3 -24 -1 4.87 1.11
-3 -24 1 2.99 0.8
2 -24 -1 3.03 0.83
2 -24 -1 2.92 0.54
-2 -24 1 1.67 0.69
1 -24 -1 7.63 0.75
-1 -24 1 9.02 0.74
-1 -24 1 8.99 0.96
1 -24 -1 9.77 1.02
1 -24 -1 8.96 0.85
1 24 -1 9.17 0.72
0 -24 1 17.1 1.1
0 -24 -1 18.47 1.08
0 -24 -1 19.18 1.05
0 -24 1 17.62 1.09
-1 -24 -1 25.04 1.33
-1 -24 -1 28.75 1.13
1 -24 1 27.03 1.47
-2 -24 -1 3.49 0.77
2 -24 1 3.6 0.86
3 -24 1 3.86 1.18
-3 -24 -1 3.47 0.94
-3 24 -1 3.63 0.95
-4 -24 -1 1.67 1.04
4 -24 1 1.15 1.54
5 -25 -1 1.66 1.77
-5 -25 1 3.18 1.5
-4 -25 1 0.94 1.15
4 -25 -1 2.41 1.44
3 -25 -1 10.02 1.32
-3 -25 1 7.8 1.12
-2 -25 1 2.69 0.74
2 -25 -1 2.99 0.55
2 -25 -1 1.64 0.8
-1 -25 1 3.07 0.56
1 -25 -1 2.94 0.59
-1 -25 1 1.9 0.66
1 -25 -1 3.89 0.78
0 -25 -1 2.37 0.61
0 -25 1 2.14 0.6
0 -25 1 1.11 0.6
0 -25 -1 2.87 0.6
-1 -25 -1 2.31 0.51
1 -25 1 2.81 0.74
-1 -25 -1 2.93 0.66
2 -25 1 3.9 0.99
-2 -25 -1 2.71 0.8
3 -25 1 6.23 1.31
-3 -25 -1 3.18 1.04
-3 25 -1 3.73 1.06
-4 -25 -1 2.66 1.15
4 -25 1 3.36 1.63
5 -26 -1 2.29 2.72
-5 -26 1 0.32 2.58
4 -26 -1 1.51 1.43
-4 -26 1 0.84 1.25
3 -26 -1 0.19 1.02
-3 -26 1 1.24 0.87
-2 -26 1 2.6 0.83
2 -26 -1 0.58 0.83
2 -26 -1 2.52 0.59
1 -26 -1 3.03 0.79
-1 -26 1 2.77 0.73
-1 -26 1 2.43 0.56
1 -26 -1 3.25 0.64
0 -26 -1 14.74 1.05
0 -26 1 14.58 1.15
0 -26 -1 16.3 1.12
0 -26 1 15.76 1.13
-1 -26 -1 16.38 1.18
-1 -26 -1 15.12 0.94
1 -26 1 16.55 1.35
1 -26 1 14.84 1.14
-2 -26 -1 2.07 0.81
3 -26 1 1.6 1.16
-3 -26 -1 -0.49 0.88
4 -26 1 -0.04 1.59
-4 -26 -1 -2.08 1.09
4 -27 -1 2.3 1.5
-4 -27 1 3.89 1.28
3 -27 -1 0.94 1.09
-3 -27 1 3.01 1.06
2 -27 -1 -0.61 0.83
2 -27 -1 -0.34 0.58
-1 -27 1 -0.08 0.52
1 -27 -1 -0.89 0.53
1 -27 -1 -0.51 0.69
-1 -27 1 0.76 0.68
0 -27 1 13.17 1.17
0 -27 1 12.43 1.17
0 -27 -1 13.25 1.06
0 -27 -1 13.84 1.13
1 -27 1 3.76 0.74
-1 -27 -1 5.52 0.85
-1 -27 -1 5.13 0.64
1 -27 1 4.84 0.94
2 -27 1 12.12 1.43
3 -27 1 1.04 1.3
-3 -27 -1 2.26 1.06
4 -27 1 0.94 1.71
-4 -27 -1 3.49 1.32
4 -28 -1 2.15 1.62
-4 -28 1 3.34 1.39
-3 -28 1 1.22 1.09
3 -28 -1 -0.35 1.09
2 -28 -1 3.92 1.15
-2 -28 1 4.19 0.97
1 -28 -1 1.22 0.65
1 -28 -1 3.11 0.89
-1 -28 1 3.49 0.68
-1 -28 1 3.59 0.84
0 -28 1 2.72 0.78
0 -28 1 3.84 0.8
0 -28 -1 2.81 0.71
0 -28 -1 4.05 0.79
1 -28 1 1.65 0.73
-1 -28 -1 1.12 0.72
-1 -28 -1 1.56 0.6
1 -28 1 2.91 0.9
2 -28 1 6.95 1.28
-2 -28 -1 6.85 1.1
-3 -28 -1 2.84 1.13
3 -28 1 4.56 1.78
-4 -28 -1 -0.52 1.38
4 -28 1 -0.19 1.79
4 -29 -1 3.54 1.74
-4 -29 1 3.86 1.48
-3 -29 1 5.27 1.33
3 -29 -1 2.79 1.31
-2 -29 1 -0.76 0.8
2 -29 -1 0.68 1.03
1 -29 -1 -0.36 0.63
1 -29 -1 1.73 0.85
-1 -29 1 0.76 0.82
-1 -29 1 0.44 0.63
0 -29 1 1.83 0.78
0 -29 1 1.74 0.79
0 -29 -1 1.37 0.77
0 -29 -1 2.58 0.73
-1 -29 -1 12.3 1.3
1 -29 1 12.9 1.27
-1 -29 -1 13.43 1.06
1 -29 1 13.21 1.53
-2 -29 -1 9.16 1.18
2 -29 1 11.43 1.51
3 -29 1 3.07 1.47
-3 -29 -1 2.36 1.12
-4 -29 -1 0.33 1.5
-4 -30 1 -0.81 1.37
4 -30 -1 1.89 1.82
-3 -30 1 1.98 1.23
3 -30 -1 2.02 1.35
2 -30 -1 10.34 1.41
-2 -30 1 12.32 1.4
-1 -30 1 3.81 0.96
-1 -30 1 3.26 0.93
1 -30 -1 3.21 1.01
1 -30 -1 1.65 0.73
0 -30 1 3.28 0.88
0 -30 1 5.02 0.89
0 -30 -1 5.68 0.88
0 -30 -1 5.16 0.92
1 -30 1 4.69 1.11
1 -30 1 4.66 0.93
-1 -30 -1 4.5 0.93
2 -30 1 2.15 1.22
2 -30 1 1.06 0.92
-2 -30 -1 0.65 0.93
3 -30 1 5.09 1.64
-3 -30 -1 5.26 1.3
3 -31 -1 12.32 1.74
-3 -31 1 10.98 1.57
-2 -31 1 2.14 1.06
2 -31 -1 2.83 1.14
1 -31 -1 2.27 1.01
-1 -31 1 0.93 0.94
1 -31 -1 0.49 0.77
0 -31 1 0.46 0.81
0 -31 -1 2 0.81
0 -31 1 1.45 1.26
0 -31 -1 0.84 0.83
1 -31 1 1.32 0.9
1 -31 1 3.32 1.14
2 -31 1 1.74 1.04
-2 -31 -1 2.75 1.04
2 -31 1 2.39 1.29
3 -31 1 5.91 1.81
-3 -31 -1 5.57 1.41
3 -32 -1 5.51 1.57
-3 -32 1 4.64 1.56
2 -32 -1 0.47 1.2
-2 -32 1 1.66 1.11
1 -32 -1 1.36 1.02
-1 -32 1 1.23 0.97
0 -32 1 1.22 0.9
0 -32 -1 1.64 0.84
0 -32 1 -0.48 0.89
0 -32 -1 2.03 0.9
1 -32 1 1.79 1.1
-1 -32 -1 2.32 1.02
-2 -32 -1 4.42 1.2
2 -32 1 1.43 1.39
3 -32 1 3.08 1.87
-3 -32 -1 2.71 1.38
3 -33 -1 4.25 1.65
-3 -33 1 -1.01 1.35
-2 -33 1 2 1.17
2 -33 -1 2.38 1.35
-1 -33 1 6.43 1.25
1 -33 -1 7.47 1.32
0 -33 -1 6.88 1.14
0 -33 1 3.77 1.12
0 -33 1 4.02 1.13
0 -33 -1 5.33 1.01
1 -33 1 1.21 1.08
1 -33 1 0.37 1.22
-1 -33 -1 0.82 1.02
-2 -33 -1 0.54 1.16
2 -33 1 1.73 1.44
-2 -34 1 3.31 1.25
2 -34 -1 5.04 1.49
1 -34 -1 1.04 1.25
-1 -34 1 1.03 1.16
0 -34 1 1.8 1.14
-1 -34 -1 2.23 1.17
1 -34 1 2.3 1.34
1 -34 1 1.57 1.25
-2 -34 -1 3.41 1.3
2 -34 1 1.16 1.59
-2 -35 1 8.49 1.54
2 -35 -1 8.8 1.74
1 -35 -1 -1.16 1.25
-1 -35 1 2.31 1.29
0 -35 1 1.69 1.25
1 -35 1 0.7 1.39
-1 -35 -1 -0.06 1.13
-2 -35 -1 3.21 1.41
2 -35 1 3.19 2.43
1 -36 -1 0.83 1.4
-1 -36 1 2.48 1.43
0 -36 1 -1.24 1.29
1 -36 1 1.84 1.63
-1 -36 -1 2.06 1.34
0 -37 1 -0.9 1.41
6 0 -2 11.39 1.17
-6 0 2 10.18 1.19
-5 0 2 2.92 0.72
5 0 -2 3.73 0.72
-4 0 2 16.3 1.27
4 0 -2 17.44 0.95
-4 0 2 17.26 0.92
4 0 -2 19.96 1.21
-3 0 2 7.99 0.64
3 0 -2 7.15 0.56
-3 0 2 7.19 0.63
-2 0 2 1.49 0.23
-2 0 2 1.39 0.29
2 0 -2 1.45 0.26
-2 0 2 1.39 0.23
1 0 -2 14.6 0.57
-1 0 2 14.67 0.5
-1 0 2 15 0.59
1 0 -2 14.43 0.52
0 0 -2 7.46 0.36
0 0 2 7.82 0.41
0 0 2 7.23 0.36
1 0 2 134.88 3.5
1 0 2 130.12 3.51
-1 0 -2 137.73 3.49
-1 0 -2 124.99 3.57
-2 0 -2 3.9 0.48
-2 0 -2 3.97 0.5
2 0 2 5.03 0.54
3 0 2 7.37 0.77
-3 0 -2 7.15 0.7
-4 0 -2 8.65 0.96
4 0 2 7.62 0.92
5 0 2 7.35 1.14
-5 0 -2 5.9 1.11
-6 0 -2 -0.76 1.3
-6 -1 2 1.63 0.96
6 -1 -2 2.27 0.95
6 1 -2 2.96 0.87
-6 1 2 1.88 0.9
-5 -1 2 3.88 0.75
5 -1 -2 3.21 0.71
-5 1 2 3.33 0.69
5 1 -2 4.36 0.72
-4 -1 2 2.23 0.52
4 -1 -2 4.76 0.69
4 -1 -2 3.37 0.54
-4 -1 2 1.7 0.66
-4 1 2 3.41 0.53
4 1 -2 2.59 0.49
-3 -1 2 2.04 0.35
-3 -1 2 1.82 0.41
3 -1 -2 1.81 0.38
-3 1 2 1.96 0.34
-3 1 2 2.13 0.46
3 1 -2 2.13 0.35
-2 -1 2 19.58 0.73
2 -1 -2 19.77 0.79
-2 -1 2 21.03 0.78
-2 1 2 20.14 0.68
-2 1 2 20.31 0.69
-2 1 2 19.41 0.8
2 1 -2 20.3 0.74
1 -1 -2 54.51 1.46
-1 -1 2 54.66 1.55
1 -1 -2 53.43 1.55
-1 -1 2 56.13 1.49
1 1 -2 53.24 1.54
1 1 -2 54.31 1.5
-1 1 2 53.94 1.56
0 -1 2 66.43 1.87
0 -1 2 70.27 1.84
0 -1 -2 67.82 1.82
0 1 -2 66.45 1.83
0 1 2 69.13 1.88
0 1 2 67.01 1.82
-1 -1 -2 9.49 0.57
1 -1 2 9.61 0.53
-1 1 -2 10.58 0.55
1 1 2 8.95 0.53
1 1 2 8.47 0.53
-1 1 -2 9.36 0.51
2 -1 2 18.01 0.86
-2 -1 -2 17.77 0.81
-2 -1 -2 18.81 0.83
2 1 2 18.42 0.83
-2 1 -2 16.64 0.86
-2 1 -2 17.73 0.81
-3 -1 -2 29.85 1.24
3 -1 2 30.96 1.33
-3 1 -2 28.33 1.22
3 1 2 28.63 1.27
-4 -1 -2 5.72 0.84
4 -1 2 3.55 0.8
-4 1 -2 6.39 0.87
4 1 2 4.48 0.79
5 -1 2 1.73 0.98
-5 -1 -2 -0.42 0.84
-5 1 -2 -0.12 0.91
5 1 2 2.22 0.96
-6 -1 -2 0.2 1.45
-6 1 -2 1.13 1.44
-7 -2 2 4.18 1.6
-6 -2 2 12.69 1.52
6 -2 -2 13.41 1.5
-6 2 2 12.41 1.37
6 2 -2 10.94 1.29
5 -2 -2 4.32 0.77
-5 -2 2 5.16 0.79
-5 2 2 3.21 0.7
5 2 -2 4.04 0.71
-4 -2 2 15.94 0.94
4 -2 -2 15.8 1.04
4 -2 -2 14.98 0.94
-4 -2 2 12.73 1.01
-4 2 2 15.93 0.84
4 2 -2 14.85 0.85
3 -2 -2 21.78 0.96
-3 -2 2 24.09 0.96
-3 -2 2 24.29 0.96
3 2 -2 22.91 0.91
-3 2 2 23.02 1.05
-3 2 2 22.95 0.85
-2 -2 2 4.4 0.37
-2 -2 2 4.92 0.4
2 -2 -2 4.7 0.44
-2 2 2 4.76 0.32
-2 2 2 4.5 0.46
-2 2 2 3.62 0.34
2 2 -2 4.18 0.35
1 -2 -2 41.61 1.25
-1 -2 2 42.06 1.22
-1 -2 2 41.73 1.19
1 -2 -2 41.2 1.13
1 2 -2 41.09 1.22
-1 2 2 42.44 1.12
1 2 -2 39.79 1.2
-1 2 2 41.23 1.26
0 -2 2 21 0.75
0 -2 2 21.65 0.72
0 -2 -2 22.86 0.71
0 2 -2 21.56 0.72
0 2 2 22.63 0.71
0 2 2 22.61 0.77
-1 -2 -2 133.3 3.49
1 -2 2 108.05 3.59
1 -2 2 126.97 3.39
-1 2 -2 134.95 3.43
1 2 2 131.99 3.41
-1 2 -2 128.92 3.4
1 2 2 133.13 3.42
-2 -2 -2 20.78 0.89
-2 -2 -2 21.18 0.9
2 -2 2 21.92 0.96
-2 2 -2 21.43 0.89
2 2 2 21 0.88
-2 2 -2 20.85 0.95
3 -2 2 9.34 0.86
-3 -2 -2 8.68 0.75
3 2 2 7.95 0.77
-3 2 -2 8.2 0.73
-4 -2 -2 9.78 1.01
4 -2 2 9.8 1.17
-4 2 -2 10.6 1.05
4 2 2 9.03 1.09
5 -2 2 3.07 1.06
-5 -2 -2 1.12 0.99
5 2 2 1.66 0.93
-5 2 -2 0.3 0.9
6 -2 2 3.47 1.92
-6 -2 -2 -2.33 1.23
-6 2 -2 -0.87 1.35
-7 -3 2 4.41 1.51
-6 -3 2 1.09 1.26
6 -3 -2 1.44 0.98
-6 3 2 3.46 0.96
5 -3 -2 7.23 0.91
-5 -3 2 5.93 0.87
5 3 -2 6.05 0.74
-5 3 2 7.29 0.8
-4 -3 2 24.66 1.19
-4 -3 2 24.77 1.2
4 -3 -2 25.36 1.18
4 -3 -2 24.98 1.19
4 3 -2 25.09 1.05
-4 3 2 25.11 1.02
3 -3 -2 27.3 1.11
-3 -3 2 28.72 1.04
-3 -3 2 28.83 1.09
-3 3 2 26.75 1.17
-3 3 2 27.82 0.93
3 3 -2 28.51 1.01
-2 -3 2 9.73 0.54
-2 -3 2 9.88 0.52
2 3 -2 10.66 0.48
-2 3 2 10.83 0.41
-2 3 2 10.63 0.42
-2 3 2 10.43 0.61
1 -3 -2 48.28 1.48
1 -3 -2 51.02 1.34
-1 -3 2 49.35 1.43
-1 -3 2 51.59 1.43
1 3 -2 51.2 1.45
-1 3 2 51.56 1.33
-1 3 2 50.51 1.5
0 -3 2 24.24 0.84
0 -3 -2 26.31 0.79
0 -3 2 25.84 0.82
0 3 2 25.67 0.86
0 3 -2 25.28 0.82
0 3 2 25.27 0.8
1 -3 2 38.33 1.28
1 -3 2 39.83 1.24
-1 -3 -2 40.92 1.26
-1 3 -2 38.68 1.23
1 3 2 39.38 1.26
-1 3 -2 41.17 1.28
1 3 2 39.27 1.23
2 -3 2 20.78 0.96
-2 -3 -2 20.4 0.88
-2 3 -2 20.55 0.95
-2 3 -2 19.94 0.87
2 3 2 20.96 0.86
3 -3 2 28.21 1.31
-3 3 -2 26.98 1.18
3 3 2 27.59 1.19
4 -3 2 0.53 0.69
-4 -3 -2 0.4 0.54
4 3 2 0.41 0.63
-4 3 -2 1.47 0.64
-5 -3 -2 0.67 0.91
5 3 2 3.89 1
-5 3 -2 2.07 0.91
6 -3 2 3.86 1.61
-6 -3 -2 3.51 1.35
-6 3 -2 0.78 1.39
-7 -4 2 4.6 1.57
6 -4 -2 1.63 1.03
-6 -4 2 2.18 1.36
-6 4 2 2.01 0.9
5 -4 -2 9.91 1.12
-5 -4 2 9.53 1.13
5 4 -2 9.65 0.92
-5 4 2 9.75 0.93
4 -4 -2 0.62 0.46
4 -4 -2 0.29 0.54
-4 -4 2 -0.1 0.51
-4 -4 2 0.56 0.5
-4 4 2 0.31 0.37
4 4 -2 0.6 0.39
-3 -4 2 26.17 1.07
-3 -4 2 25.85 0.97
3 -4 -2 26.43 1.09
-3 4 2 26.97 0.88
-3 4 2 26.39 1.19
3 4 -2 25.65 0.92
-2 -4 2 9.56 0.55
2 -4 -2 7.18 0.52
-2 -4 2 8.66 0.47
-2 4 2 7.4 0.58
-2 4 2 8.19 0.34
2 4 -2 8.15 0.42
-2 4 2 8.53 0.34
-1 -4 2 95.09 2.51
1 -4 -2 93.78 2.39
1 -4 -2 92.41 2.57
-1 -4 2 96.51 2.51
-1 4 2 95.24 2.59
-1 4 2 96.36 2.39
1 4 -2 91.35 2.53
0 -4 2 59.75 1.71
0 -4 -2 60.13 1.72
0 -4 -2 62.45 1.65
0 -4 2 59.12 1.68
0 4 -2 60.66 1.7
0 4 2 60.27 1.72
0 4 -2 62.07 1.71
0 4 2 61.55 1.66
1 -4 2 87.86 2.57
-1 -4 -2 88.93 2.51
1 -4 2 92.22 2.51
1 4 2 89.8 2.5
-1 4 -2 94.37 2.56
-1 4 -2 92.96 2.51
1 4 2 94.75 2.51
1 4 2 93.45 2.54
-2 -4 -2 4.87 0.5
2 -4 2 4.41 0.54
2 4 2 3.96 0.46
-2 4 -2 5.11 0.5
-2 4 -2 3.35 0.55
-3 -4 -2 5.7 0.69
3 -4 2 7.51 0.82
3 4 2 7.18 0.72
-3 4 -2 7.27 0.72
4 -4 2 10.85 1.19
-4 -4 -2 9.76 1.03
4 4 2 9.48 1.07
-4 4 -2 8.11 0.97
-5 -4 -2 2.92 1.06
5 -4 2 3.93 1.24
5 4 2 3.77 0.98
-5 4 -2 2.65 0.91
-6 -4 -2 2.19 1.53
6 -4 2 1.92 1.6
-6 4 -2 0.4 1.49
-7 -5 2 5.89 1.69
-6 -5 2 2.7 1.05
-6 5 2 5.19 0.99
5 -5 -2 0.61 0.7
-5 -5 2 0.45 0.69
-5 5 2 -0.31 0.54
5 5 -2 0.78 0.54
-4 -5 2 1.52 0.51
-4 -5 2 0.97 0.5
4 -5 -2 1.54 0.54
4 -5 -2 1.81 0.57
4 5 -2 1.24 0.56
-4 5 2 1.26 0.39
-3 -5 2 51.79 1.53
-3 -5 2 48.89 1.67
3 -5 -2 48.69 1.69
3 5 -2 52.89 1.49
-3 5 2 49.35 1.8
-3 5 2 51.2 1.43
2 -5 -2 127.97 3.6
-2 -5 2 136.08 3.56
-2 -5 2 135.33 3.46
-2 5 2 135.01 3.64
-2 5 2 134.08 3.32
2 5 -2 129.26 3.44
-2 5 2 133.9 3.33
-1 -5 2 45.91 1.36
1 -5 -2 45.18 1.2
1 -5 -2 46.33 1.41
-1 -5 2 45.77 1.31
-1 -5 2 47.07 1.33
-1 5 2 48.64 1.44
-1 5 2 44.96 1.2
1 5 -2 45.95 1.38
0 -5 2 134.95 3.48
0 -5 -2 135.63 3.43
0 -5 -2 131.3 3.5
0 -5 2 130.2 3.5
0 5 -2 132.07 3.5
0 5 2 130.37 3.43
0 5 -2 135.35 3.5
0 5 2 138.37 3.52
-1 -5 -2 94.41 2.49
1 -5 2 87.72 2.47
1 -5 2 84.91 2.53
-1 5 -2 90.16 2.47
1 5 2 88.35 2.5
-1 5 -2 91.65 2.52
1 5 2 92.72 2.46
1 5 2 89.59 2.45
-2 -5 -2 1.4 0.32
2 -5 2 1.79 0.41
2 5 2 2.28 0.34
-2 5 -2 2.07 0.38
3 -5 2 3.71 0.65
-3 -5 -2 3.43 0.57
-3 5 -2 2.72 0.49
3 5 2 3.18 0.5
-4 -5 -2 6.69 0.82
4 -5 2 7.87 0.96
-4 5 -2 6.2 0.79
4 5 2 6.57 0.83
5 -5 2 0.4 1.05
-5 -5 -2 0.72 0.86
-5 5 -2 0.44 0.9
5 5 2 1.03 0.91
6 -5 2 -2.95 1.53
-6 -5 -2 0.55 1.36
-6 5 -2 0.19 1.58
6 -6 -2 2.2 1.13
-6 -6 2 1.83 1.03
-6 6 2 1.15 0.99
-5 -6 2 26.94 1.54
5 -6 -2 28.7 1.59
-5 6 2 27.99 1.23
5 6 -2 27.18 1.2
-4 -6 2 5.48 0.69
4 -6 -2 5.02 0.61
4 -6 -2 5.79 0.76
-4 -6 2 5 0.7
4 6 -2 4.58 0.57
-4 6 2 5.35 0.7
3 -6 -2 4.54 0.58
-3 -6 2 4.61 0.46
-3 -6 2 5.2 0.56
-3 6 2 5.83 0.36
3 6 -2 4.3 0.39
-2 -6 2 6.87 0.41
2 -6 -2 7.24 0.55
-2 -6 2 8.18 0.56
-2 -6 2 7.75 0.57
-2 6 2 6.97 0.63
-1 -6 2 128.13 3.32
-1 -6 2 129.73 3.33
1 -6 -2 128.18 3.19
-1 -6 2 131.52 3.38
1 -6 -2 127.27 3.43
1 6 -2 124.53 3.4
-1 6 2 129.34 3.44
-1 6 2 125.68 3.2
0 -6 -2 23.89 0.76
0 -6 -2 23.79 0.84
0 -6 2 24.1 0.85
0 6 -2 23.8 0.84
0 6 2 25.44 0.8
0 6 -2 24.13 0.84
0 6 2 23.74 0.86
-1 -6 -2 31.27 1.03
1 -6 2 27.95 1.08
1 -6 2 30.74 1.03
1 6 2 29.27 0.98
-1 6 -2 29.19 1.07
-1 6 -2 28.64 1.01
1 6 2 30.86 1.08
1 6 2 30.78 1
2 -6 2 5.79 0.65
-2 -6 -2 3.83 0.46
2 6 2 5.7 0.49
-2 6 -2 5.77 0.54
-3 -6 -2 33.05 1.36
3 -6 2 31.45 1.49
3 6 2 30.99 1.24
-3 6 -2 30.67 1.28
4 -6 2 8.89 1.08
-4 -6 -2 7.99 0.93
-4 6 -2 8.52 1.01
4 6 2 7.51 0.86
-5 -6 -2 2.46 0.95
5 -6 2 1.52 1.14
-5 6 -2 2.72 0.96
5 6 2 3.79 0.98
6 -6 2 2.91 1.72
-6 -6 -2 1.53 1.35
-6 6 -2 -0.51 1.51
6 -7 -2 3.21 1.2
-6 -7 2 1.92 1.05
-5 -7 2 0.85 0.71
5 -7 -2 1.94 0.82
-5 7 2 1.58 0.57
-4 -7 2 1.63 0.42
-4 -7 2 1.68 0.53
4 -7 -2 1.61 0.5
4 -7 -2 1.83 0.6
-4 7 2 1.85 0.41
4 7 -2 1.92 0.32
-3 -7 2 10.25 0.54
-3 -7 2 10.74 0.76
3 -7 -2 8.83 0.75
3 7 -2 9.85 0.49
-3 7 2 10.2 0.42
-2 -7 2 28.37 0.87
-2 -7 2 27.77 1.06
-2 -7 2 27.78 1.05
2 -7 -2 27.62 1.07
-2 7 2 25.63 1.11
-1 -7 2 15.95 0.58
1 -7 -2 14.59 0.43
-1 -7 2 14.57 0.64
-1 7 2 14.56 0.73
-1 7 2 14.62 0.45
0 -7 2 80.63 2.16
0 -7 2 75.23 2.18
0 -7 -2 77.65 2.17
0 -7 -2 78.75 2.09
0 7 2 79.41 2.19
0 7 -2 77.57 2.17
0 7 2 78.24 2.12
1 -7 2 19.6 0.8
-1 -7 -2 20.73 0.8
1 -7 2 20.59 0.89
1 7 2 21.25 0.77
-1 7 -2 20.28 0.88
1 7 2 21.01 0.88
-1 7 -2 20.42 0.8
1 7 2 20.06 0.78
-2 -7 -2 6.29 0.59
2 -7 2 6.8 0.69
-2 7 -2 6.66 0.56
2 7 2 6.99 0.56
2 7 2 6.77 0.53
-3 -7 -2 34.53 1.45
3 -7 2 34.92 1.6
-3 7 -2 37.27 1.41
3 7 2 34.07 1.31
-4 -7 -2 0.65 0.59
4 -7 2 -0.43 0.7
-4 7 -2 0.99 0.64
4 7 2 -0.6 0.6
-5 -7 -2 1.27 0.96
5 -7 2 2.11 1.11
-5 7 -2 0.92 0.96
-6 -7 -2 0.62 1.39
6 -7 2 2.61 1.78
-6 7 -2 -1.9 1.52
-6 -8 2 -0.74 0.99
6 -8 -2 0.51 1.13
-5 -8 2 8.33 1.04
5 -8 -2 8.42 1.05
-5 8 2 6.99 0.79
5 8 -2 8.35 0.73
4 -8 -2 2.9 0.52
-4 -8 2 2.6 0.42
4 -8 -2 2.72 0.67
-4 -8 2 2.43 0.58
-4 8 2 2.57 0.4
4 8 -2 2.86 0.36
-3 -8 2 9.54 0.76
3 -8 -2 8.88 0.8
-3 -8 2 9.84 0.51
-3 8 2 9.89 0.39
-2 -8 2 140.76 3.87
2 -8 -2 139.24 3.89
-2 -8 2 146.31 3.63
-2 -8 2 143.94 3.86
-2 -8 2 143.24 3.65
-2 8 2 140.31 3.92
1 -8 -2 45.92 1.17
1 -8 -2 44.85 1.44
-1 -8 2 45.12 1.4
-1 -8 2 46.65 1.32
-1 8 2 45.47 1.19
-1 8 2 43.81 1.47
0 -8 -2 149.15 4
0 -8 -2 152.12 3.93
0 -8 2 151.77 4.03
0 8 -2 153.32 4.01
0 8 2 154.02 4.03
0 8 2 159.82 3.96
0 8 -2 150.32 4.02
-1 -8 -2 8.81 0.52
1 -8 2 8.12 0.61
1 -8 2 9.81 0.56
1 8 2 7.89 0.52
-1 8 -2 8.14 0.63
1 8 2 9.22 0.64
-1 8 -2 8.18 0.5
2 -8 2 11.08 0.8
-2 -8 -2 9.6 0.67
2 8 2 8.73 0.64
-2 8 -2 9.48 0.63
2 8 2 9.41 0.61
-3 -8 -2 6.37 0.75
3 -8 2 4.98 0.72
3 8 2 5.14 0.59
-3 8 -2 6.37 0.73
3 8 2 6.05 0.67
4 -8 2 6.76 1.03
-4 -8 -2 7.42 0.97
-4 8 -2 6.28 0.83
4 8 2 6.25 0.81
5 -8 2 0.41 1.17
-5 -8 -2 -0.1 0.98
-5 8 -2 0.76 0.96
6 -8 2 3.63 1.75
-6 -8 -2 1.04 1.57
-6 8 -2 -0.43 1.52
6 -9 -2 -0.15 1.12
-6 -9 2 -0.27 1.05
5 -9 -2 1.5 0.84
-5 -9 2 2.08 0.8
-5 9 2 1.78 0.56
4 -9 -2 4.58 0.5
4 -9 -2 4.1 0.77
-4 -9 2 3.54 0.64
-4 -9 2 3.93 0.48
-4 9 2 3.67 0.4
3 -9 -2 26.72 1.24
-3 -9 2 27.15 1.21
-2 -9 2 108.02 3.06
-2 -9 2 113.82 2.83
2 -9 -2 107.32 3.1
-2 -9 2 107.61 3.08
-2 -9 2 113.84 2.82
-2 9 2 101.46 3.1
1 -9 -2 25.42 0.69
-1 -9 2 25.92 0.84
1 -9 -2 24.52 0.97
-1 -9 2 25.21 0.94
-1 9 2 25.68 0.72
0 -9 -2 80.07 2.13
0 -9 -2 77.41 2.21
0 -9 2 80.35 2.21
0 9 2 79.78 2.16
0 9 -2 75.93 2.23
0 9 2 78.2 2.23
0 9 -2 78.83 2.21
1 -9 2 22.8 0.88
-1 -9 -2 20.15 0.83
1 -9 2 21.59 0.94
1 9 2 21.9 0.84
1 9 2 21.73 0.97
-1 9 -2 18.51 0.91
-1 9 -2 22.8 0.86
-2 -9 -2 10.71 0.73
2 -9 2 11.4 0.84
2 9 2 11.66 0.64
-2 9 -2 10.11 0.68
3 -9 2 2.64 0.66
-3 -9 -2 2.84 0.53
-3 9 -2 1.7 0.47
3 9 2 3.19 0.49
3 9 2 2.56 0.52
-4 -9 -2 0.48 0.73
4 -9 2 1.71 0.81
4 9 2 0.14 0.64
-4 9 -2 1.86 0.68
-5 -9 -2 2.98 1.12
5 -9 2 3.15 1.21
-5 9 -2 2.93 1.05
6 -10 -2 -0.05 1.21
-6 -10 2 -0.24 1.04
5 -10 -2 1.98 0.91
-5 -10 2 1.26 0.82
-5 10 2 2.57 0.57
4 -10 -2 5.89 0.86
4 -10 -2 6.79 0.64
-4 -10 2 5.29 0.78
-4 10 2 5.88 0.48
-3 -10 2 0.7 0.45
-3 -10 2 0.73 0.17
-3 -10 2 0.76 0.22
3 -10 -2 1.02 0.45
-2 -10 2 25.22 1.07
2 -10 -2 24.27 1.07
-2 -10 2 23.98 0.8
-2 -10 2 24.98 1.07
-2 -10 2 24.89 0.78
-2 10 2 27.96 1.22
1 -10 -2 60.27 1.52
-1 -10 2 58.85 1.77
1 -10 -2 57.34 1.8
-1 -10 2 58.52 1.67
-1 10 2 58.8 1.83
0 -10 2 47.84 1.54
0 -10 -2 45.09 1.58
0 -10 -2 49.82 1.41
0 10 2 50 1.53
0 10 2 51.05 1.46
0 10 -2 47.89 1.52
0 10 -2 49.1 1.49
-1 -10 -2 24.96 0.94
1 -10 2 24.48 1.04
1 -10 2 23.85 0.94
1 10 2 26.07 0.94
-1 10 -2 24.29 1.02
-1 10 -2 23.95 0.95
1 10 2 23.55 1.05
2 -10 2 47.88 1.74
-2 -10 -2 43.91 1.59
-2 10 -2 46.3 1.55
2 10 2 47.95 1.46
-3 -10 -2 16.44 1.03
3 -10 2 14.25 1.16
3 10 2 14.87 0.89
3 10 2 17.16 0.88
-3 10 -2 15.41 0.96
4 -10 2 8.52 1.09
4 10 2 7.38 0.8
-4 10 -2 4.89 0.8
5 -10 2 4.01 1.36
-5 -10 -2 3.24 1.14
-5 10 -2 1.86 1.06
6 -11 -2 -0.41 1.22
-6 -11 2 0.39 1.14
5 -11 -2 2.1 0.93
-5 -11 2 1.61 0.87
-5 11 2 0.86 0.49
-4 -11 2 5.62 0.79
4 -11 -2 6 0.58
4 -11 -2 5.93 0.86
-4 11 2 5.7 0.46
3 -11 -2 51.94 1.92
-3 -11 2 52.01 1.86
-2 -11 2 44.91 1.56
2 -11 -2 45.07 1.58
-2 -11 2 41.69 1.37
-2 -11 2 45.92 1.25
-1 -11 2 30.62 1.11
1 -11 -2 30.33 0.83
1 -11 -2 29.2 1.1
-1 -11 2 29.59 0.97
-1 11 2 29.76 1.17
0 -11 -2 36.38 1.36
0 -11 2 38.82 1.3
0 -11 -2 40.33 1.19
0 11 -2 39.15 1.26
0 11 2 40.85 1.32
0 11 2 38.94 1.23
0 11 -2 38.13 1.31
-1 -11 -2 8.44 0.57
1 -11 2 8.7 0.6
1 -11 2 8.59 0.67
1 11 2 8.48 0.6
-1 11 -2 7.98 0.82
-1 11 -2 8.89 0.58
1 11 2 7.05 0.79
-2 -11 -2 5.21 0.6
2 -11 2 6.45 0.74
-2 11 -2 5.1 0.59
2 11 2 5.27 0.65
2 11 2 5.2 0.58
3 -11 2 20.17 1.34
-3 -11 -2 21 1.16
3 11 2 19.87 0.96
3 11 2 19.63 0.94
-3 11 -2 19.83 1.07
-4 -11 -2 9 1.09
4 -11 2 9.61 1.34
4 11 2 8.71 0.84
-4 11 -2 9.87 1.05
5 -11 2 6.09 1.45
-5 -11 -2 5.95 1.26
-5 11 -2 4.39 1.17
-6 -12 2 3.78 1.31
6 -12 -2 2.92 1.38
-4 -12 2 1.44 0.61
4 -12 -2 1.66 0.73
-4 12 2 1.6 0.3
3 -12 -2 114.66 3.47
-3 -12 2 114.99 3.42
-2 -12 2 1.58 0.23
2 -12 -2 0.69 0.42
-2 -12 2 1.67 0.46
-1 -12 2 26.15 1.06
-1 -12 2 25.73 0.92
1 -12 -2 29.26 0.79
1 -12 -2 28.47 1.09
1 12 -2 26.71 0.91
-1 12 2 28.72 1.16
0 -12 2 12.45 0.67
0 -12 -2 10.56 0.6
0 -12 2 10.78 0.66
0 -12 -2 11.02 0.53
0 12 -2 11.04 0.63
0 12 2 12 0.69
0 12 -2 11.32 0.66
0 12 2 11.34 0.62
-1 -12 -2 10.95 0.64
1 -12 2 10.36 0.76
1 -12 2 9.36 0.73
1 12 2 9.85 0.65
-1 12 -2 10.59 0.65
1 12 2 10.76 0.84
2 -12 2 27.31 1.31
-2 -12 -2 27.22 1.17
2 12 2 26.16 1.06
2 12 2 28.18 1.05
-2 12 -2 27.43 1.12
3 -12 2 4.89 0.86
-3 -12 -2 4.6 0.69
3 12 2 3.41 0.54
-3 12 -2 4.69 0.67
3 12 2 4.28 0.51
4 -12 2 2.41 1.42
-4 -12 -2 0.78 0.72
4 12 2 0.3 0.64
-4 12 -2 0.18 0.69
5 -12 2 5.58 1.47
-5 -12 -2 3.13 1.13
-5 12 -2 2.24 1.13
-6 -13 2 0.84 1.23
6 -13 -2 0.43 1.33
-5 -13 2 0.65 0.91
5 -13 -2 1.84 1.03
-4 -13 2 2 0.66
4 -13 -2 2.17 0.74
3 -13 -2 64.09 2.27
-3 -13 2 65.08 2.22
2 -13 -2 14 0.9
-2 -13 2 15.53 0.56
-2 -13 2 14.15 0.88
1 -13 -2 39.73 1.43
1 -13 -2 39.36 1.13
-1 -13 2 48.8 1.69
-1 -13 2 41.47 1.29
-1 13 2 38.2 1.48
1 13 -2 41.38 1.25
0 -13 -2 10.28 0.6
0 -13 2 10.54 0.67
0 -13 -2 10.52 0.54
0 -13 2 10 0.67
0 13 2 10.92 0.69
0 13 2 9.89 0.63
0 13 -2 10.44 0.67
0 13 -2 9.48 0.63
-1 -13 -2 0.93 0.32
1 -13 2 1.36 0.42
1 13 2 0.3 0.35
1 13 2 1.38 0.53
-1 13 -2 0.81 0.36
-2 -13 -2 7.49 0.71
2 -13 2 9.64 0.92
2 13 2 6.87 0.66
2 13 2 7.69 0.57
-2 13 -2 8.5 0.72
-3 -13 -2 2.78 0.66
3 -13 2 2.06 0.72
3 13 2 2.37 0.52
-3 13 -2 2.16 0.6
-4 -13 -2 3.64 0.92
4 -13 2 7.98 1.24
-4 13 -2 6.44 0.9
5 -13 2 4.57 1.51
-5 -13 -2 0.71 1.1
-5 13 -2 2.82 1.19
6 -14 -2 3.71 1.52
-6 -14 2 4.93 1.45
-5 -14 2 2.75 0.99
5 -14 -2 2.73 1.14
4 -14 -2 31.07 1.74
-4 -14 2 31.62 1.59
-3 -14 2 12.13 0.95
3 -14 -2 12.1 1.01
-2 -14 2 15.31 0.58
-2 -14 2 15.88 0.93
2 -14 -2 15.81 0.95
-1 -14 2 45.89 1.46
1 -14 -2 49.06 1.33
1 -14 -2 47.7 1.31
1 -14 -2 48.46 1.62
-1 14 2 47.27 1.66
1 14 -2 46.44 1.41
0 -14 -2 16.77 0.78
0 -14 -2 17.4 0.73
0 -14 2 15.71 0.84
0 14 -2 16.39 0.81
0 14 -2 17.29 0.86
0 14 2 17.51 0.89
0 14 2 18.16 0.83
-1 -14 -2 18.76 0.87
1 -14 2 18.66 1.02
1 14 2 17.95 1.13
1 14 2 18.97 0.88
-1 14 -2 19.84 0.93
2 -14 2 44.73 1.78
-2 -14 -2 43.96 1.61
2 14 2 39.96 1.42
-2 14 -2 44.58 1.57
2 14 2 44.17 1.44
-3 -14 -2 4.27 0.75
3 -14 2 4.01 0.92
-3 14 -2 4.84 0.74
4 -14 2 14.48 1.57
-4 -14 -2 12.04 1.31
-4 14 -2 11.04 1.15
5 -14 2 3.44 1.57
-5 -14 -2 2 1.18
-5 14 -2 2.34 1.21
6 -15 -2 3.87 1.58
-6 -15 2 2.22 1.36
5 -15 -2 3.03 1.16
-5 -15 2 1.31 0.95
4 -15 -2 8.14 1.08
-4 -15 2 6.91 0.96
3 -15 -2 12.08 1.09
-3 -15 2 10.56 0.94
-2 -15 2 30.58 0.95
2 -15 -2 32.73 1.37
-2 -15 2 30.57 1.34
1 -15 -2 24.54 0.78
1 -15 -2 24.26 0.79
-1 -15 2 25.4 0.95
1 -15 -2 24 1.09
1 15 -2 25.56 0.89
0 -15 -2 22.95 0.97
0 -15 2 22.41 1.02
0 15 -2 24.08 1.05
0 15 2 24.83 1.08
0 15 2 24.76 1.01
0 15 -2 24.22 1.01
-1 -15 -2 27.45 1.01
-1 -15 -2 27.98 1.11
1 -15 2 26.12 1.23
1 15 2 26.72 1.09
-1 15 -2 27.18 1.14
-2 -15 -2 38.84 1.54
2 -15 2 41.31 1.74
2 15 2 39.98 1.34
2 15 2 39.99 1.37
-2 15 -2 40.8 1.52
3 -15 2 -0.37 0.7
-3 -15 -2 -0.1 0.54
3 15 2 0.13 0.42
-3 15 -2 0.34 0.54
4 -15 2 6.26 1.31
-4 -15 -2 5.58 1.02
-4 15 -2 5.1 0.94
5 -15 2 1.46 1.52
-5 -15 -2 -0.31 1.18
-5 15 -2 0.45 1.27
6 -16 -2 6.51 1.72
-6 -16 2 5.33 1.48
-5 -16 2 3.42 1.06
5 -16 -2 5.24 1.3
-4 -16 2 35.34 1.76
4 -16 -2 38.48 1.97
3 -16 -2 1.85 0.65
-3 -16 2 2.46 0.64
-2 -16 2 22.26 0.91
-2 -16 2 19.71 0.72
-2 -16 2 19.7 1.09
2 -16 -2 21 1.14
1 -16 -2 8.99 0.46
1 -16 -2 8.92 0.45
-1 -16 2 7.85 0.67
1 -16 -2 7.81 0.73
1 16 -2 7.51 0.53
0 -16 -2 5.18 0.56
0 -16 2 5.89 0.65
0 -16 -2 5.29 0.5
0 16 -2 5.22 0.62
0 16 2 6.8 0.69
0 16 -2 7.04 0.7
0 16 2 5.97 0.68
-1 -16 -2 0.83 0.4
-1 -16 -2 0.78 0.33
1 -16 2 0.81 0.45
-1 16 -2 0.96 0.45
1 16 2 1.06 0.43
-2 -16 -2 0.47 0.43
2 -16 2 0.48 0.54
-2 16 -2 0.76 0.49
2 16 2 0.85 0.35
2 16 2 0.07 0.46
-3 -16 -2 13.62 1.12
3 -16 2 13.44 1.41
3 16 2 14.27 0.78
-3 16 -2 12.44 1.06
-4 -16 -2 2.89 0.9
4 -16 2 2.28 1.21
-4 16 -2 2.85 0.88
-5 -16 -2 3.73 1.49
5 -16 2 0.58 1.58
-5 16 -2 2.22 1.26
-6 -17 2 4.28 1.54
6 -17 -2 4.57 1.74
5 -17 -2 1.72 1.23
-5 -17 2 1.61 1.07
4 -17 -2 2.61 0.98
-4 -17 2 1.84 0.71
3 -17 -2 7.1 0.94
-3 -17 2 7.98 0.9
-2 -17 2 9.95 0.49
-2 -17 2 9.26 0.87
2 -17 -2 9.65 0.93
-2 -17 2 9.73 0.56
1 -17 -2 7.11 0.47
-1 -17 2 6.06 0.69
1 -17 -2 6.55 0.44
1 -17 -2 6.55 0.75
1 17 -2 7.72 0.54
0 -17 -2 63.9 1.94
0 -17 -2 65.44 2.03
0 -17 2 63.94 2.09
0 17 2 64.69 2.02
0 17 -2 71.22 2.24
0 17 2 64.14 2.11
-1 -17 -2 25.92 1.02
1 -17 2 25.87 1.29
-1 -17 -2 26.05 1.12
-1 17 -2 26.82 1.2
1 17 2 25.52 1.12
2 -17 2 2.85 0.74
-2 -17 -2 2.24 0.55
2 17 2 3.07 0.52
2 17 2 2.39 0.45
-2 17 -2 3.24 0.61
-3 -17 -2 4.78 0.8
3 -17 2 4.54 0.93
-3 17 -2 6.56 0.83
3 17 2 4.95 0.51
-4 -17 -2 7.67 1.2
4 -17 2 6.31 1.4
-4 17 -2 7.67 1.17
-5 -17 -2 1.54 1.25
5 -17 2 3.8 1.73
-5 17 -2 1.68 1.49
-6 -18 2 4.39 1.49
6 -18 -2 7.47 1.88
5 -18 -2 5.12 1.43
-5 -18 2 3.61 1.16
-3 -18 2 0.99 0.61
3 -18 -2 1.44 0.73
-2 -18 2 3.81 0.39
-2 -18 2 4.07 0.63
2 -18 -2 3.7 0.67
-2 -18 2 3.81 0.4
1 -18 -2 49.77 1.46
-1 -18 2 49.58 1.81
1 -18 -2 48.58 1.46
1 -18 -2 49.64 1.78
-1 -18 2 49.55 1.6
1 18 -2 50.75 1.54
0 -18 -2 14.46 0.74
0 -18 2 16.27 0.95
0 -18 -2 13.25 0.81
0 18 2 11.16 0.94
-1 -18 -2 50.36 1.71
-1 -18 -2 50.03 1.58
1 -18 2 48.39 1.88
-1 18 -2 48.97 1.77
1 18 2 47.07 1.66
2 -18 2 5.51 0.82
-2 -18 -2 6.76 0.83
-2 18 -2 6.26 0.75
2 18 2 6.62 0.73
2 18 2 4.88 0.61
3 -18 2 4.9 1.28
-3 -18 -2 4.68 0.85
-3 18 -2 4.76 0.84
4 -18 2 3.42 1.33
-4 -18 -2 0.44 0.93
-4 18 -2 0.98 0.99
5 -18 2 3.48 1.79
-5 -18 -2 -0.49 1.25
-5 18 -2 1.73 1.33
6 -19 -2 0.37 1.81
-6 -19 2 0.77 1.43
-5 -19 2 -0.18 1.07
5 -19 -2 1.67 1.37
-4 -19 2 6.61 1.03
4 -19 -2 8.81 1.24
3 -19 -2 13.43 1.3
-3 -19 2 9.89 1.12
2 -19 -2 2.35 0.67
-2 -19 2 1.99 0.3
-2 -19 2 1.69 0.63
-2 -19 2 2.7 0.32
1 -19 -2 4.32 0.62
-1 -19 2 4.42 0.62
1 -19 -2 4.76 0.48
-1 -19 2 4.17 0.51
1 -19 -2 4.8 0.46
1 19 -2 4.6 0.5
0 -19 2 6.81 0.8
0 -19 -2 6.83 0.71
0 -19 -2 8.91 0.65
1 -19 2 42.64 1.77
-1 -19 -2 45.09 1.61
-1 -19 -2 42.61 1.44
1 19 2 41.48 1.57
-1 19 -2 44.26 1.66
2 -19 2 3.34 0.82
-2 -19 -2 2.68 0.59
2 19 2 2.47 0.69
-2 19 -2 2.87 0.68
3 -19 2 5.68 1.22
-3 -19 -2 4.85 0.93
-3 19 -2 6.35 0.91
-4 -19 -2 1.95 1.01
4 -19 2 0.2 1.24
5 -19 2 5.06 1.87
-5 -19 -2 0.64 1.33
-5 19 -2 0.49 1.58
5 -20 -2 7.76 1.63
4 -20 -2 9.85 1.35
-4 -20 2 7.5 1.12
-3 -20 2 4.59 0.87
3 -20 -2 3.28 0.92
-2 -20 2 1.03 0.6
2 -20 -2 -0.29 0.54
-2 -20 2 0.67 0.28
-2 -20 2 0.54 0.27
1 -20 -2 23.54 0.92
1 -20 -2 22.32 0.9
-1 -20 2 23.79 1.03
1 -20 -2 24.27 1.22
-1 -20 2 24.61 1.24
1 20 -2 21.98 0.97
0 -20 2 18.34 1.07
0 -20 -2 17.71 0.91
0 -20 -2 18.73 1
-1 -20 -2 22.23 1.09
-1 -20 -2 22.15 0.96
1 -20 2 20.66 1.27
-1 20 -2 19.17 1.17
1 20 2 20.21 1.14
2 -20 2 2.65 0.81
-2 -20 -2 3.49 0.69
-2 20 -2 3.12 0.72
-3 -20 -2 -0.38 0.73
3 -20 2 1.68 1
-3 20 -2 2.44 0.79
4 -20 2 10.25 1.71
-4 -20 -2 5.46 1.19
-4 20 -2 9.55 1.34
5 -20 2 2.42 1.87
-5 -20 -2 0.9 1.39
5 -21 -2 2.62 1.46
-5 -21 2 0.54 1.08
-4 -21 2 2.54 0.9
4 -21 -2 6.65 1.27
-3 -21 2 0.91 0.66
3 -21 -2 2 0.84
-2 -21 2 5.75 0.5
-2 -21 2 5.68 0.48
2 -21 -2 5.98 0.88
-2 -21 2 5.86 0.8
1 -21 -2 6.87 0.61
1 -21 -2 7.75 0.64
-1 -21 2 8.3 0.87
1 -21 -2 8.01 0.85
-1 -21 2 7.46 0.71
1 21 -2 6.99 0.71
0 -21 -2 32.49 1.26
0 -21 2 34.58 1.45
0 -21 -2 31.72 1.35
-1 -21 -2 5.83 0.69
1 -21 2 6.64 0.9
-1 -21 -2 6.89 0.79
-1 21 -2 7.72 0.88
1 21 2 7.43 0.93
2 -21 2 4.96 0.91
-2 -21 -2 5.24 0.81
-2 21 -2 4.54 0.81
-3 -21 -2 11.68 1.33
3 -21 2 12.24 1.44
-3 21 -2 10.51 1.3
-4 -21 -2 0.1 0.97
4 -21 2 -0.81 1.33
-4 21 -2 0.21 1.08
-5 -22 2 2.45 1.25
5 -22 -2 5.01 1.69
4 -22 -2 1.78 1.19
-4 -22 2 3.02 0.96
-3 -22 2 3.23 0.88
3 -22 -2 1.14 0.88
2 -22 -2 21.78 1.46
-2 -22 2 23.52 1.39
-2 -22 2 23.61 0.86
-1 -22 2 11.74 1.02
1 -22 -2 13.95 1.08
-1 -22 2 13.16 0.85
1 -22 -2 13.02 0.76
1 22 -2 11.82 0.84
0 -22 -2 31.75 1.29
0 -22 2 30.44 1.43
0 -22 -2 32.84 1.38
-1 -22 -2 3.98 0.56
-1 -22 -2 4.84 0.71
1 -22 2 3.31 0.75
-1 22 -2 4.56 0.76
1 22 2 4.08 0.79
-2 -22 -2 0.57 0.61
2 -22 2 1.85 0.87
-2 22 -2 1.14 0.69
3 -22 2 4.29 1.21
-3 -22 -2 1.27 0.79
-3 22 -2 3.69 0.97
-4 -22 -2 8.41 1.45
4 -22 2 5.91 1.68
-4 22 -2 7.99 1.54
5 -23 -2 2.12 1.66
-5 -23 2 1.11 1.17
-4 -23 2 1.08 0.98
4 -23 -2 2.29 1.27
-3 -23 2 9.96 1.19
-2 -23 2 2.64 0.4
2 -23 -2 1.36 0.75
-2 -23 2 2.97 0.78
-1 -23 2 1.36 0.51
-1 -23 2 0.72 0.6
1 -23 -2 1.32 0.43
1 -23 -2 0.32 0.57
1 -23 -2 1.52 0.47
1 23 -2 0.77 0.5
0 -23 2 31.55 1.48
0 -23 -2 32.41 1.41
0 -23 -2 31.13 1.3
-1 -23 -2 4.53 0.59
1 -23 2 6.14 0.95
-1 -23 -2 5.95 0.77
2 -23 2 0.05 0.79
-2 -23 -2 1.18 0.64
-2 23 -2 1.46 0.78
-3 -23 -2 3.13 0.93
3 -23 2 5.8 1.27
-3 23 -2 4.91 1.13
-4 -23 -2 2.37 1.25
4 -23 2 2.53 1.58
-4 23 -2 3.09 1.33
5 -24 -2 12.76 1.97
-5 -24 2 6.31 1.41
4 -24 -2 8.55 1.51
-4 -24 2 6.54 1.29
-3 -24 2 1.8 0.88
3 -24 -2 3.92 1.1
-2 -24 2 -0.02 0.67
2 -24 -2 0.61 0.74
-2 -24 2 0.71 0.38
1 -24 -2 0.88 0.45
-1 -24 2 0.96 0.49
-1 -24 2 1.67 0.69
1 -24 -2 1.59 0.67
0 -24 -2 1.41 0.59
0 -24 -2 1.95 0.53
0 -24 2 2.77 0.68
1 -24 2 14.19 1.25
-1 -24 -2 12.4 1.03
-1 -24 -2 10.3 0.9
-2 -24 -2 1.6 0.72
-2 24 -2 0.38 0.81
3 -24 2 1.63 1.28
-3 -24 -2 1.67 0.92
-3 24 -2 1.55 1.06
4 -24 2 4.84 1.66
-4 -24 -2 4.21 1.3
-4 24 -2 5.73 1.42
-5 -25 2 1.07 1.41
5 -25 -2 1.36 1.71
-4 -25 2 3.48 1.27
4 -25 -2 5.9 1.48
3 -25 -2 2.58 1.01
-3 -25 2 1.27 0.91
2 -25 -2 5.23 0.98
-2 -25 2 4 0.9
-1 -25 2 2.62 0.6
-1 -25 2 2.67 0.73
1 -25 -2 2.29 0.52
1 -25 -2 1.34 0.69
0 -25 -2 6.64 0.73
0 -25 -2 6.69 0.8
0 -25 2 5.96 0.83
1 -25 2 3.6 0.88
-1 -25 -2 3.01 0.7
-1 -25 -2 1.88 0.58
2 -25 2 2.78 0.99
-2 -25 -2 3.44 0.83
-2 25 -2 1.54 0.93
-3 -25 -2 0.71 0.91
3 -25 2 2.49 1.32
-4 -25 -2 0.59 1.28
4 -25 2 0.52 1.64
-4 25 -2 0.99 1.6
5 -26 -2 -0.64 1.87
-5 -26 2 2.1 1.62
-4 -26 2 9.13 1.52
4 -26 -2 12.14 1.74
3 -26 -2 1.2 1.12
-3 -26 2 2.14 1.01
2 -26 -2 1 0.85
-2 -26 2 1.01 0.9
1 -26 -2 5.18 0.64
-1 -26 2 5.07 0.88
1 -26 -2 5.72 0.88
-1 -26 2 6.84 0.77
0 -26 2 1.55 0.73
0 -26 -2 0.68 0.57
0 -26 -2 1.03 0.65
0 -26 2 1.97 0.67
-1 -26 -2 11.15 1.03
-1 -26 -2 9.73 0.95
1 -26 2 7.94 1.03
2 -26 2 4.29 1.16
3 -26 2 2.22 1.25
-3 -26 -2 0.17 0.91
-3 26 -2 1.38 1.26
-4 -26 -2 -1.64 1.28
4 -26 2 3.36 1.88
4 -27 -2 8.25 1.7
-4 -27 2 5.23 1.31
-3 -27 2 0.28 0.88
3 -27 -2 0.62 1.1
-2 -27 2 0.3 0.78
1 -27 -2 0.67 0.55
1 -27 -2 0.76 0.76
-1 -27 2 0.12 0.7
-1 -27 2 1.39 0.62
0 -27 -2 5.13 0.76
0 -27 2 5.36 0.85
0 -27 -2 4.57 0.79
0 -27 2 3.45 0.86
-1 -27 -2 1.96 0.75
-1 -27 -2 1.12 0.63
1 -27 2 1.63 0.85
-2 -27 -2 0.17 0.8
2 -27 2 1.16 1.09
-3 -27 -2 -1.19 0.99
3 -27 2 -1.04 1.35
-3 27 -2 0.25 1.28
4 -28 -2 0.35 1.62
-4 -28 2 0.99 1.36
-3 -28 2 8.08 1.31
3 -28 -2 7.06 1.45
2 -28 -2 0.3 0.91
-2 -28 2 1.21 0.88
-1 -28 2 0.14 0.67
-1 -28 2 0.73 1.13
1 -28 -2 0.73 0.78
1 -28 -2 0.7 0.62
0 -28 -2 3.74 0.72
0 -28 2 2.44 0.86
0 -28 2 2.76 0.85
0 -28 -2 3.53 0.81
-1 -28 -2 0.79 0.7
-1 -28 -2 1.97 0.69
1 -28 2 2.58 0.98
-2 -28 -2 6.8 1.11
2 -28 2 5.74 1.27
3 -28 2 0.55 1.46
-3 -28 -2 0.68 1.1
4 -29 -2 2.49 1.63
-4 -29 2 0.69 1.32
-3 -29 2 3.64 1.19
3 -29 -2 5.69 1.45
-2 -29 2 0.1 0.92
2 -29 -2 -0.36 0.92
-1 -29 2 1.61 0.9
1 -29 -2 0.33 0.85
-1 -29 2 1.18 0.72
0 -29 2 5.06 1.01
0 -29 -2 3.16 0.77
0 -29 -2 3.38 0.85
-1 -29 -2 0.08 0.75
1 -29 2 0.8 0.98
2 -29 2 4.94 1.36
-2 -29 -2 1.99 0.95
-3 -29 -2 2.33 1.18
3 -29 2 0.9 1.56
-4 -30 2 3.19 1.61
4 -30 -2 1.49 1.73
-3 -30 2 5.4 1.28
3 -30 -2 7.18 1.55
-2 -30 2 2.02 1.02
2 -30 -2 1.48 1.07
1 -30 -2 -0.14 0.93
-1 -30 2 1.2 0.94
-1 -30 2 -0.29 0.84
0 -30 2 2.76 0.99
0 -30 2 2.08 0.95
0 -30 -2 2.48 0.75
0 -30 -2 1.98 0.86
-1 -30 -2 3.81 0.93
1 -30 2 5.02 1.25
1 -30 2 2.36 1.03
2 -30 2 1.73 1.3
-2 -30 -2 1.02 1
-3 -30 -2 -0.53 1.23
3 -30 2 1.73 1.8
3 -31 -2 0.94 1.41
-3 -31 2 3.93 1.35
2 -31 -2 3.95 1.28
-2 -31 2 2.16 1.09
1 -31 -2 7.09 1.37
-1 -31 2 7.65 1.21
0 -31 -2 8.18 0.99
0 -31 -2 10.5 1.18
0 -31 2 7.88 1.19
0 -31 2 8.96 1.2
-1 -31 -2 3.29 1.02
1 -31 2 3.57 1.25
1 -31 2 -0.1 1.02
2 -31 2 0.56 1.4
-2 -31 -2 0.46 1.08
-3 -31 -2 1.42 1.27
3 -31 2 -0.72 1.79
-3 -32 2 2.03 1.39
3 -32 -2 0.86 1.51
2 -32 -2 2.68 1.33
-2 -32 2 1.72 1.16
1 -32 -2 0.9 1.1
-1 -32 2 2.36 1.11
0 -32 -2 1.25 1.3
0 -32 -2 0.51 0.94
0 -32 2 0.87 1.08
0 -32 2 0.42 1.09
1 -32 2 2.2 1.2
1 -32 2 5.19 1.32
-1 -32 -2 3.98 1.04
-2 -32 -2 2.5 1.2
2 -32 2 0.12 1.5
3 -33 -2 0.89 1.63
-3 -33 2 3.37 1.51
2 -33 -2 2.23 1.4
-2 -33 2 2.75 1.25
-1 -33 2 -1.12 1.11
1 -33 -2 0.49 1.14
0 -33 2 1.7 1.15
-1 -33 -2 1.05 1.01
1 -33 2 0.23 1.19
1 -33 2 0.8 1.33
-2 -33 -2 1.21 1.29
2 -33 2 -0.76 1.73
-2 -34 2 3.25 1.37
2 -34 -2 0.4 1.4
-1 -34 2 -0.17 1.14
1 -34 -2 -0.3 1.24
0 -34 2 1.23 1.3
1 -34 2 2.79 1.64
1 -34 2 4.69 1.39
-1 -34 -2 1.75 1.4
2 -35 -2 -1.61 1.45
-2 -35 2 1.89 1.43
1 -35 -2 2.34 1.35
-1 -35 2 1.77 1.46
0 -35 2 -0.68 1.37
1 -35 2 2.59 1.66
1 -35 2 3.9 1.46
-1 -36 2 1.72 1.49
0 -36 2 -0.36 1.41
-6 0 3 5.87 1.08
6 0 -3 7.02 1.03
5 0 -3 2.15 0.7
-5 0 3 3.65 0.72
4 0 -3 23.9 1.13
-4 0 3 21.96 1.06
-3 0 3 39.76 1.3
3 0 -3 40.26 1.39
-3 0 3 38.39 1.47
-2 0 3 3.84 0.36
-2 0 3 4.1 0.51
2 0 -3 4.36 0.46
0 0 3 1 0.31
0 0 3 1.47 0.3
0 0 -3 1.46 0.25
0 0 3 1.76 0.32
1 0 3 68.29 2.05
1 0 3 63.86 2.02
-1 0 -3 69.18 2
2 0 3 0.44 0.39
-2 0 -3 0.7 0.38
3 0 3 0.76 0.54
-3 0 -3 -0.02 0.44
4 0 3 1.67 0.82
-4 0 -3 1.11 0.74
-5 0 -3 1.87 1.2
5 0 3 1.14 1.29
6 -1 -3 3.61 0.98
-6 -1 3 3.15 1.01
6 1 -3 2.18 0.89
-6 1 3 2.65 0.95
5 -1 -3 5.3 0.82
-5 -1 3 3.2 0.79
5 1 -3 4.51 0.75
-5 1 3 4.08 0.74
4 -1 -3 2.01 0.52
-4 -1 3 1.81 0.51
4 1 -3 1.01 0.45
-4 1 3 1.86 0.49
3 -1 -3 3.71 0.49
-3 -1 3 4.3 0.5
-3 -1 3 3.29 0.57
-3 -1 3 4.44 0.48
-3 1 3 4.73 0.52
3 1 -3 3.73 0.44
-3 1 3 4.69 0.52
-3 1 3 3.22 0.56
-2 -1 3 35.86 1.09
-2 -1 3 33.55 1.21
2 -1 -3 33.15 1.18
-2 1 3 34.11 1.03
-2 1 3 31.04 1.24
2 1 -3 34.4 1.17
-1 -1 3 132.4 3.44
1 -1 -3 132.61 3.44
-1 -1 3 131.17 3.55
1 -1 -3 129.56 3.56
-1 1 3 133.22 3.42
-1 1 3 135.05 3.58
1 1 -3 130.12 3.47
0 -1 -3 22.54 0.82
0 -1 3 23.26 0.84
0 -1 3 21.66 0.86
0 -1 3 22.46 0.92
0 1 -3 21.63 0.81
0 1 3 22.31 0.87
0 1 3 21.59 0.82
0 1 3 22.9 0.91
1 -1 3 3.81 0.52
-1 -1 -3 3.69 0.44
-1 1 -3 3.63 0.45
1 1 3 2.96 0.41
1 1 3 3.19 0.48
2 -1 3 1.94 0.5
-2 -1 -3 0.77 0.34
-2 1 -3 0.88 0.36
2 1 3 1.73 0.41
-3 -1 -3 -0.58 0.47
3 -1 3 0.38 0.53
3 1 3 0.49 0.52
-3 1 -3 0.46 0.46
-4 -1 -3 2.58 0.84
4 -1 3 1.67 0.83
-4 1 -3 2.1 0.73
4 1 3 1.1 0.81
-5 -1 -3 2.1 1.24
5 -1 3 0.42 1.21
5 1 3 0.22 1.22
-5 1 -3 -0.61 1.12
6 -2 -3 2.95 1.03
-6 -2 3 3.94 1.03
-6 2 3 2.99 0.95
6 2 -3 2.85 0.88
5 -2 -3 7.01 0.89
-5 -2 3 6.61 0.88
-5 2 3 7.29 0.81
5 2 -3 8.31 0.98
-4 -2 3 4.54 0.64
4 -2 -3 5.74 0.65
4 2 -3 4.72 0.61
-4 2 3 5.91 0.6
-3 -2 3 2.02 0.4
3 -2 -3 3.01 0.47
-3 -2 3 1.67 0.43
-3 -2 3 2.22 0.5
-3 2 3 2.78 0.37
3 2 -3 2.08 0.36
2 -2 -3 40.28 1.36
-2 -2 3 39.47 1.36
-2 -2 3 40.81 1.27
2 2 -3 40.87 1.32
-2 2 3 41.06 1.18
-2 2 3 39.96 1.43
1 -2 -3 37.05 1.23
1 -2 -3 37.32 1.1
-1 -2 3 36.6 1.13
-1 -2 3 35.3 1.21
-1 2 3 36.58 1.26
-1 2 3 35.45 1.08
1 2 -3 34.65 1.16
0 -2 3 26.31 0.96
0 -2 3 24.44 0.91
0 2 3 25.78 0.99
0 2 -3 25.34 0.9
0 2 3 24.79 0.89
1 -2 3 86.59 2.67
1 -2 3 75.45 2.29
-1 -2 -3 77.64 2.24
-1 2 -3 76.56 2.24
1 2 3 72.63 2.25
1 2 3 74.96 2.27
2 -2 3 5.51 0.69
-2 -2 -3 5.38 0.61
2 2 3 5.21 0.63
-2 2 -3 5.17 0.61
-3 -2 -3 11.16 0.94
3 -2 3 10.27 1.03
3 2 3 11.02 1.01
-3 2 -3 9.94 0.88
-4 -2 -3 3.03 0.77
4 -2 3 3.64 0.95
-4 2 -3 2.18 0.81
4 2 3 2.63 0.83
-5 -2 -3 1.19 1.07
5 -2 3 0.23 1.2
5 2 3 -1.36 1.15
-5 2 -3 0.89 1.07
6 -3 -3 1.47 0.97
-6 -3 3 1.23 1
-6 3 3 1.29 0.89
-5 -3 3 10.01 1.11
5 -3 -3 10.22 1.13
-5 3 3 8.08 0.93
5 3 -3 8.94 1
-4 -3 3 15.34 1.13
-4 -3 3 15.29 0.99
4 -3 -3 16.14 1.03
-4 3 3 16.87 0.84
4 3 -3 15.55 0.88
-3 -3 3 2.73 0.51
-3 -3 3 4.01 0.51
3 -3 -3 5.65 0.66
-3 -3 3 2.83 0.52
3 3 -3 5.9 0.54
-3 3 3 4.68 0.44
-3 3 3 4.33 0.45
2 -3 -3 24.68 0.99
-2 -3 3 23.06 0.96
-2 -3 3 23.91 0.89
-2 3 3 25.8 0.77
-2 3 3 23.08 1.07
2 3 -3 23.17 0.9
-1 -3 3 11.36 0.62
-1 -3 3 12.12 0.58
1 -3 -3 12.2 0.51
1 -3 -3 12.56 0.65
-1 3 3 11.32 0.69
-1 3 3 12.52 0.5
0 -3 3 3.45 0.39
0 -3 3 3.6 0.43
0 3 -3 3.19 0.37
0 3 3 3.46 0.35
0 3 3 3 0.4
1 -3 3 13.26 0.75
-1 -3 -3 13.24 0.69
1 3 3 12.48 0.77
1 3 3 11.97 0.75
-1 3 -3 14.77 0.7
1 3 3 12.72 0.7
-2 -3 -3 9.38 0.72
2 -3 3 11.2 0.84
-2 3 -3 10.39 0.73
2 3 3 11.36 0.78
-3 -3 -3 8.16 0.86
3 -3 3 8.67 1.02
-3 3 -3 6.64 0.82
3 3 3 7.24 0.91
4 -3 3 1.22 0.9
-4 -3 -3 2.49 0.85
-4 3 -3 0.88 0.78
4 3 3 1.23 0.82
5 -3 3 0.41 1.23
-5 -3 -3 1.19 1.18
5 3 3 -1.87 1.17
-5 3 -3 0.39 1.25
-6 -4 3 0.66 1.05
6 -4 -3 1.14 1.1
-5 -4 3 9.76 1.03
5 -4 -3 8.47 0.96
5 4 -3 7.5 0.95
-5 4 3 7.94 0.79
-4 -4 3 1.86 0.54
4 -4 -3 1.85 0.55
-4 -4 3 1.06 0.65
-4 4 3 3.06 0.53
4 4 -3 1.84 0.42
-3 -4 3 4.92 0.55
3 -4 -3 3.66 0.52
-3 -4 3 4.17 0.55
-3 -4 3 5.49 0.57
3 4 -3 4.27 0.5
-3 4 3 3.77 0.42
-3 4 3 4.13 0.42
2 -4 -3 19.78 0.87
-2 -4 3 18.95 0.8
-2 -4 3 19.58 0.83
-2 4 3 17.5 0.66
-2 4 3 17.94 0.96
2 4 -3 18.8 0.78
1 -4 -3 74.07 2.18
-1 -4 3 69.61 2.13
-1 -4 3 77.05 2.1
-1 -4 3 71.9 2.11
1 -4 -3 77.83 2.01
-1 4 3 73.69 2.21
1 4 -3 77.19 2.14
-1 4 3 76.32 2
0 -4 3 4.3 0.46
0 -4 3 4.53 0.46
0 4 3 4.69 0.52
0 4 -3 4.75 0.42
0 4 3 4.81 0.45
-1 -4 -3 9.11 0.59
1 -4 3 9.78 0.66
1 4 3 9.6 0.61
1 4 3 9.03 0.69
1 4 3 8.9 0.67
-1 4 -3 9.39 0.59
2 -4 3 8.37 0.78
-2 -4 -3 7.68 0.66
2 4 3 7.62 0.7
-2 4 -3 5.95 0.65
3 -4 3 8.12 0.94
-3 -4 -3 5.51 0.69
3 4 3 6.14 0.75
-3 4 -3 8.12 0.85
-4 -4 -3 4.13 0.83
4 -4 3 3.55 0.91
4 4 3 3.87 0.86
-4 4 -3 5.58 1.02
-5 -4 -3 1.56 1.17
5 -4 3 0.25 1.24
-5 4 -3 1.72 1.14
-7 -5 3 1.57 1.81
6 -5 -3 0.95 1.16
-5 -5 3 2.59 0.78
5 -5 -3 1.01 0.72
5 5 -3 1.3 0.57
-5 5 3 0.72 0.55
-4 -5 3 23.52 1.24
4 -5 -3 24.79 1.27
-4 -5 3 24.77 1.24
-4 5 3 23.89 1
4 5 -3 23.96 1.03
-4 5 3 25.28 0.95
-3 -5 3 34.07 1.3
-3 -5 3 33.43 1.24
-3 -5 3 32.55 1.3
3 -5 -3 31.81 1.33
-3 5 3 34.36 1.01
-3 5 3 35.08 1.02
3 5 -3 32.65 1.16
-2 -5 3 12.39 0.68
2 -5 -3 12.34 0.7
-2 -5 3 12.31 0.7
-2 5 3 11.79 0.86
-2 5 3 12.99 0.45
-1 -5 3 13.85 0.68
-1 -5 3 12.79 0.62
-1 -5 3 13.4 0.65
1 -5 -3 14.02 0.51
1 -5 -3 13.78 0.69
1 5 -3 12.75 0.66
-1 5 3 13.53 0.52
-1 5 3 12.56 0.75
0 -5 -3 18.37 0.83
0 -5 3 21.94 0.85
0 -5 3 21.07 0.87
0 5 3 21.14 0.81
0 5 -3 20.45 0.83
0 5 3 21.5 0.91
-1 -5 -3 5.49 0.49
1 -5 3 5.53 0.58
1 5 3 4.69 0.51
1 5 3 5.73 0.6
1 5 3 5.09 0.62
-1 5 -3 5.02 0.51
-2 -5 -3 25.05 1.08
2 -5 3 24.04 1.2
2 5 3 23.43 1.06
-2 5 -3 23.35 1.06
3 -5 3 3.93 0.77
-3 -5 -3 4.37 0.71
3 5 3 2.68 0.59
-3 5 -3 4.43 0.71
4 -5 3 5.57 1.13
-4 -5 -3 6.71 1.04
-4 5 -3 6.71 1.03
4 5 3 7.5 1.01
5 -5 3 2.16 1.3
-5 -5 -3 0.59 1.14
-5 5 -3 3.16 1.18
5 5 3 -0.39 1.66
6 -6 -3 2.59 1.07
-6 -6 3 1.7 1.11
5 -6 -3 0.57 0.73
-5 -6 3 1.67 0.78
5 6 -3 0.54 0.51
-5 6 3 1.05 0.52
4 -6 -3 2.24 0.64
-4 -6 3 1.96 0.61
-4 -6 3 2.94 0.63
4 6 -3 2.01 0.43
-4 6 3 1.77 0.34
-4 6 3 1.66 0.41
3 -6 -3 4.1 0.55
-3 -6 3 4.5 0.53
-3 -6 3 4.96 0.6
-3 6 3 3.63 0.32
-3 6 3 4.8 0.34
3 6 -3 4.33 0.49
2 -6 -3 2.01 0.37
-2 -6 3 3.04 0.38
-2 -6 3 3.38 0.46
-2 6 3 4.11 0.61
-2 6 3 2.7 0.26
-2 6 3 3.16 0.24
1 -6 -3 26.25 1.02
-1 -6 3 27.29 0.96
1 -6 -3 25.69 0.81
-1 -6 3 26.97 0.98
-1 -6 3 26.62 0.98
-1 6 3 26.76 1.1
1 6 -3 25.62 0.99
-1 6 3 26.42 0.83
0 -6 -3 33.49 1.16
0 -6 3 33.04 1.18
0 -6 3 33.05 1.14
0 6 3 30.89 1.2
0 6 -3 31.92 1.14
0 6 3 34.4 1.1
1 -6 3 12.69 0.79
-1 -6 -3 13.46 0.69
1 6 3 13.28 0.7
1 6 3 14.34 0.79
-1 6 -3 13.4 0.72
1 6 3 12.81 0.85
2 -6 3 14.11 1
-2 -6 -3 13.51 0.83
-2 6 -3 13.21 0.82
2 6 3 13.12 0.82
3 -6 3 11.83 1.22
-3 -6 -3 11.2 0.94
3 6 3 10.69 0.96
-3 6 -3 10.17 0.92
-4 -6 -3 1.87 0.78
4 6 3 2.86 0.82
-4 6 -3 1.41 0.8
5 -6 3 6.34 1.41
-5 -6 -3 2.41 1.1
-5 6 -3 3.8 1.21
6 -7 -3 2.52 1.15
-6 -7 3 3.12 1.18
5 -7 -3 8.49 1.05
-5 -7 3 10.33 1.26
-5 7 3 9.04 0.76
5 7 -3 8.18 0.84
4 -7 -3 4.59 0.74
-4 -7 3 5.16 0.67
-4 -7 3 4.9 0.77
4 7 -3 5.17 0.59
-4 7 3 4.12 0.43
-4 7 3 4.42 0.45
-3 -7 3 35.98 1.4
-3 -7 3 35.04 1.27
3 -7 -3 36.26 1.45
-2 -7 3 3.24 0.44
-2 -7 3 5.18 0.48
2 -7 -3 3.64 0.5
1 -7 -3 90.64 2.61
-1 -7 3 88.72 2.53
-1 -7 3 88.71 2.54
-1 -7 3 90.46 2.55
1 -7 -3 94.84 2.37
-1 7 3 93.31 2.38
1 7 -3 88.65 2.58
-1 7 3 90.02 2.65
0 -7 3 9.51 0.61
0 -7 3 10.4 0.63
0 -7 -3 10 0.61
0 7 3 9.41 0.59
0 7 -3 9.17 0.59
0 7 3 10.48 0.71
1 -7 3 25.47 1.12
-1 -7 -3 27.57 1.03
-1 7 -3 25.52 1.04
1 7 3 26.43 1.09
1 7 3 26.17 1.02
1 7 3 30.17 1.47
-2 -7 -3 10.38 0.75
2 -7 3 9.11 0.88
-2 7 -3 10.47 0.75
2 7 3 10.7 0.74
3 -7 3 2.99 0.77
-3 -7 -3 2.75 0.62
-3 7 -3 2.27 0.57
3 7 3 2.74 0.62
-4 -7 -3 3.42 0.85
4 -7 3 3.57 1.11
-4 7 -3 4.53 0.95
4 7 3 4.48 0.91
-5 -7 -3 9.75 1.47
5 -7 3 13.56 1.77
-5 7 -3 11.44 1.65
-6 -8 3 0.35 1.1
6 -8 -3 0.72 1.11
5 -8 -3 3.15 0.88
-5 -8 3 4.07 0.92
5 8 -3 4.5 0.6
4 -8 -3 18.41 1.24
-4 -8 3 19.27 1.02
-4 -8 3 17.58 1.21
-3 -8 3 14.87 0.82
3 -8 -3 16.54 1
-3 -8 3 16.96 0.97
2 -8 -3 1.86 0.41
-2 -8 3 2.7 0.36
-2 -8 3 2.29 0.47
-2 -8 3 2.63 0.4
-1 -8 3 30.99 1.05
1 -8 -3 28.73 0.86
-1 -8 3 28.35 1.08
1 -8 -3 29.24 1.13
-1 -8 3 30.28 1.07
-1 8 3 27.98 1.21
1 8 -3 28.43 1.11
-1 8 3 29.22 0.9
0 -8 -3 19.69 0.87
0 -8 3 18.71 0.87
0 -8 3 19.41 0.84
0 8 3 21 0.84
0 8 -3 19.55 0.88
0 8 3 18.97 0.93
0 8 -3 18.35 0.83
-1 -8 -3 26.94 1.02
1 -8 3 26.78 1.15
1 8 3 26.23 1.02
1 8 3 25.14 1.08
-1 8 -3 24.79 1.04
2 -8 3 17.41 1.1
-2 -8 -3 17.42 0.95
-2 8 -3 17.57 0.95
2 8 3 17.85 0.91
-3 -8 -3 23.1 1.28
3 -8 3 23.62 1.49
-3 8 -3 25.16 1.28
3 8 3 24.04 1.25
4 -8 3 1.92 1.01
-4 -8 -3 2.24 0.81
-4 8 -3 1.86 0.9
4 8 3 2.27 0.8
5 -8 3 3.54 1.39
-5 -8 -3 3.47 1.27
-5 8 -3 1.38 1.37
6 -9 -3 2.69 1.24
-6 -9 3 2.48 1.15
5 -9 -3 3.31 0.97
-5 -9 3 3.91 0.91
-4 -9 3 3.9 0.56
-4 -9 3 1.26 0.62
4 -9 -3 2.45 0.7
3 -9 -3 20.03 1.09
-3 -9 3 17.28 0.87
-3 -9 3 20.05 1.07
-2 -9 3 9.23 0.55
-2 -9 3 9.46 0.62
2 -9 -3 9.13 0.74
1 -9 -3 31.49 1.19
-1 -9 3 30.84 1.09
1 -9 -3 32.23 0.91
-1 -9 3 29.34 1.14
1 9 -3 31.26 1.18
-1 9 3 30.22 1.27
-1 9 3 32.15 0.96
0 -9 3 12.17 0.72
0 -9 -3 12.3 0.69
0 9 -3 11.25 0.72
0 9 3 11.13 0.77
0 9 3 10.19 0.67
0 9 -3 12.47 0.7
1 -9 3 3.05 0.5
-1 -9 -3 3.15 0.41
1 9 3 3.28 0.42
-1 9 -3 4.07 0.51
1 9 3 3.36 0.52
-2 -9 -3 12.84 0.85
2 -9 3 13.96 1.05
-2 9 -3 12.29 0.85
2 9 3 13.39 0.81
3 -9 3 14.76 1.33
-3 -9 -3 14.18 1.05
3 9 3 13.52 1.02
-3 9 -3 13.59 1.06
4 -9 3 1.68 1.07
-4 -9 -3 0.58 0.82
-4 9 -3 2.9 0.95
4 9 3 0.92 0.76
-5 -9 -3 1.84 1.24
5 -9 3 2.99 1.49
-5 9 -3 3.49 1.33
-6 -10 3 1.73 1.21
6 -10 -3 3.96 1.34
-5 -10 3 6.96 1.01
5 -10 -3 6.87 1.09
4 -10 -3 1.86 0.74
-4 -10 3 2.33 0.51
-4 -10 3 2.2 0.64
3 -10 -3 105.71 3.21
-3 -10 3 105 3.17
-3 -10 3 108.48 2.89
-3 -10 3 102.42 2.81
-2 -10 3 14.78 0.68
2 -10 -3 13.02 0.86
-2 -10 3 14.16 0.71
1 -10 -3 33.98 0.97
-1 -10 3 34.17 1.17
1 -10 -3 31.8 1.26
1 10 -3 32.37 1.26
-1 10 3 34.42 1.02
0 -10 3 43.23 1.51
0 -10 -3 45.11 1.49
0 -10 -3 45.09 1.38
0 10 -3 44.52 1.52
0 10 3 44.39 1.55
0 10 -3 44.16 1.5
0 10 3 45.15 1.45
1 -10 3 2.85 0.49
-1 -10 -3 3.46 0.43
1 10 3 4.89 0.59
-1 10 -3 2.67 0.43
-2 -10 -3 20.35 1.06
2 -10 3 21.57 1.23
-2 10 -3 20.59 1.06
2 10 3 23.37 1.03
-3 -10 -3 14.05 1.1
3 -10 3 13.65 1.34
-3 10 -3 14.65 1.12
3 10 3 14.67 1.04
-4 -10 -3 7.61 1.11
4 -10 3 8.32 1.32
4 10 3 10.58 1.25
-4 10 -3 9.22 1.19
5 -10 3 -0.63 1.55
-5 -10 -3 0.14 1.15
-5 10 -3 -2.57 1.29
-6 -11 3 1.05 1.19
6 -11 -3 3.92 1.39
-5 -11 3 5.63 1.06
-4 -11 3 21.94 1.35
4 -11 -3 23.2 1.39
-4 -11 3 21.65 0.94
-4 -11 3 22.27 0.83
-3 -11 3 43.61 1.34
-3 -11 3 43.43 1.41
3 -11 -3 46.41 1.78
-3 -11 3 46.23 1.74
-2 -11 3 10.79 0.61
2 -11 -3 11.34 0.8
-2 -11 3 10.86 0.64
1 -11 -3 7.54 0.37
-1 -11 3 7.69 0.59
1 -11 -3 8.55 0.67
1 11 -3 7.42 0.65
-1 11 3 8.06 0.47
0 -11 3 0.23 0.29
0 -11 -3 0.36 0.23
0 -11 -3 0.31 0.33
0 11 3 0.74 0.44
0 11 3 0.97 0.39
0 11 -3 0.29 0.34
1 -11 3 1.59 0.53
-1 -11 -3 0.93 0.32
1 11 3 0.78 0.47
-1 11 -3 1.3 0.38
-2 -11 -3 11.94 0.85
2 -11 3 11.12 1.03
2 11 3 11.19 0.79
-2 11 -3 11.97 0.85
-3 -11 -3 18.99 1.23
3 -11 3 18.39 1.47
-3 11 -3 20.2 1.37
3 11 3 17.64 1.12
-4 -11 -3 5.34 1.08
4 -11 3 5.99 1.27
4 11 3 4.97 0.91
-4 11 -3 5.74 1.08
-5 -11 -3 0.97 1.12
5 -11 3 -0.05 1.53
-5 11 -3 2.58 1.47
6 -12 -3 1.44 1.31
-6 -12 3 3.19 1.32
5 -12 -3 -0.39 0.9
4 -12 -3 6.45 0.96
-4 -12 3 5.42 0.61
-4 -12 3 6.76 0.92
-4 -12 3 5.99 0.46
-3 -12 3 28.07 0.95
-3 -12 3 27.38 1.34
-3 -12 3 27.05 1
3 -12 -3 26.85 1.35
-2 -12 3 21.71 0.87
2 -12 -3 19.06 1.05
-2 -12 3 20.2 0.84
-2 -12 3 20.14 1.04
-1 -12 3 6.6 0.56
1 -12 -3 5.47 0.34
1 -12 -3 6.22 0.64
-1 12 3 5.89 0.45
1 12 -3 6.37 0.63
0 -12 -3 27.69 1.1
0 -12 -3 28.69 0.97
0 -12 3 26.42 1.15
0 12 -3 26.35 1.14
0 12 3 27.52 1.11
0 12 3 26.72 1.26
1 -12 3 1.03 0.46
-1 -12 -3 0.47 0.33
1 12 3 0.28 0.49
-1 12 -3 1.28 0.38
2 -12 3 18.54 1.26
-2 -12 -3 17.4 1.01
-2 12 -3 16.89 1
2 12 3 17.96 0.91
-3 -12 -3 4.53 0.74
3 -12 3 5.76 1.08
-3 12 -3 4.76 0.78
3 12 3 4.76 0.69
-4 -12 -3 2.81 0.92
4 -12 3 1.74 1.13
-4 12 -3 1.82 0.93
-5 -12 -3 2.36 1.17
5 -12 3 0.52 1.63
-5 12 -3 -0.54 1.38
-6 -13 3 1.81 1.33
6 -13 -3 2.83 1.47
5 -13 -3 1.97 1.09
-5 -13 3 0.74 0.9
-4 -13 3 25.39 1.51
4 -13 -3 25.53 1.53
-3 -13 3 0.9 0.55
-3 -13 3 0.25 0.35
-3 -13 3 0.57 0.3
3 -13 -3 0.18 0.54
-2 -13 3 21.31 0.89
-2 -13 3 22.07 1.12
2 -13 -3 21.52 1.14
-2 -13 3 21.25 0.91
-1 -13 3 17.96 0.85
1 -13 -3 18.67 0.97
1 -13 -3 18.92 0.63
-1 13 3 19.01 0.72
0 -13 -3 1.87 0.32
0 -13 3 1.79 0.42
0 -13 -3 1.65 0.42
0 13 -3 1.72 0.47
0 13 3 1.65 0.47
-1 -13 -3 30.51 1.19
1 -13 3 32.65 1.41
1 13 3 30.12 1.3
-1 13 -3 28.33 1.24
2 -13 3 1.1 0.66
-2 -13 -3 1.38 0.5
-2 13 -3 0.81 0.47
2 13 3 1.76 0.43
-3 -13 -3 2.97 0.69
3 -13 3 4.63 0.98
3 13 3 3.6 0.64
-3 13 -3 2.87 0.68
4 -13 3 3.68 1.3
-4 -13 -3 5.6 1.01
-4 13 -3 5.3 1.09
-5 -13 -3 -0.49 1.19
5 -13 3 -2.58 1.62
-5 13 -3 -0.56 1.5
6 -14 -3 -0.43 1.39
-6 -14 3 2.05 1.32
5 -14 -3 0.81 1.04
-5 -14 3 1.91 1.01
-4 -14 3 11.16 1.22
4 -14 -3 10.32 1.17
-3 -14 3 7.99 0.92
3 -14 -3 9.1 0.97
-3 -14 3 7.7 0.59
-3 -14 3 8.04 0.52
-2 -14 3 53.11 1.86
-2 -14 3 50.45 1.57
2 -14 -3 54.07 1.89
-2 -14 3 46.04 1.69
1 -14 -3 13.03 0.51
-1 -14 3 12.32 0.76
1 -14 -3 12.91 0.84
-1 14 3 13.11 0.62
0 -14 -3 22.11 1.03
0 -14 -3 20.69 0.85
0 -14 3 22.41 1.1
0 14 -3 21.62 1.06
0 14 3 22 1.05
1 -14 3 31.79 1.47
-1 -14 -3 32.37 1.24
-1 14 -3 30.53 1.32
-2 -14 -3 25.39 1.21
2 -14 3 24.07 1.44
-2 14 -3 20.38 1.18
2 14 3 23.78 1.06
-3 -14 -3 4.82 0.82
3 14 3 3.15 0.64
-3 14 -3 4.23 0.82
4 -14 3 3.76 1.27
-4 -14 -3 2.35 0.97
-4 14 -3 3.16 1.05
-5 -14 -3 1.83 1.39
5 -14 3 3.13 1.82
-5 14 -3 0.23 1.55
6 -15 -3 -0.55 1.46
-6 -15 3 2.33 1.44
-5 -15 3 1.47 1
5 -15 -3 -0.33 1.1
-4 -15 3 0.89 0.74
4 -15 -3 0.11 0.79
-3 -15 3 1.76 0.31
-3 -15 3 1.36 0.37
-3 -15 3 1.76 0.6
3 -15 -3 1.89 0.69
-2 -15 3 5.27 0.68
-2 -15 3 4.8 0.48
2 -15 -3 3.89 0.64
1 -15 -3 16.43 0.61
1 -15 -3 17.46 0.97
-1 -15 3 15.86 0.88
-1 15 3 17.31 0.73
0 -15 3 4.36 0.61
0 -15 -3 3.25 0.51
0 -15 -3 3.94 0.48
0 15 3 2.2 0.58
0 15 -3 3.83 0.6
-1 -15 -3 23.1 1.04
1 -15 3 21.93 1.28
-1 15 -3 22.48 1.14
2 -15 3 4.81 0.85
-2 -15 -3 6.85 0.77
-2 15 -3 8.36 0.86
2 15 3 5.98 0.72
3 -15 3 8.35 1.29
-3 15 -3 6.99 0.91
3 15 3 5.59 0.73
-4 -15 -3 -1.21 0.89
4 -15 3 0.34 1.21
-4 15 -3 0.37 0.98
-5 -15 -3 -0.78 1.15
5 -15 3 0.57 1.75
-5 15 -3 2.23 1.55
6 -16 -3 1.37 1.59
-6 -16 3 2.55 1.49
-5 -16 3 6.29 1.26
5 -16 -3 6.73 1.36
4 -16 -3 9.81 1.23
-4 -16 3 12.69 1.27
3 -16 -3 14.74 1.21
-3 -16 3 16.13 0.86
-3 -16 3 14.46 1.14
-3 -16 3 16.16 0.66
-2 -16 3 20.28 1.17
-2 -16 3 19.56 0.87
2 -16 -3 21.72 1.21
1 -16 -3 53.95 1.91
1 -16 -3 54.15 1.52
-1 -16 3 55.87 1.82
0 -16 -3 16.99 0.77
0 -16 3 15.59 1.01
0 -16 -3 17.76 0.95
0 16 -3 16.26 0.99
0 16 3 16.01 1.02
1 -16 3 26.6 1.39
-1 -16 -3 27.91 1.17
-1 16 -3 25.55 1.27
-2 -16 -3 3.48 0.62
2 -16 3 4.75 0.91
2 16 3 3.26 0.52
-2 16 -3 4.02 0.72
3 -16 3 1.38 1.02
-3 -16 -3 1.52 0.74
-3 16 -3 1.97 0.78
3 16 3 1.73 0.62
4 -16 3 0.28 1.31
-4 -16 -3 -0.35 0.96
-4 16 -3 0.3 1.05
5 -16 3 5.39 2.01
-5 16 -3 -1.2 1.44
6 -17 -3 -1.4 1.61
-6 -17 3 0.67 1.45
5 -17 -3 9.8 1.53
-5 -17 3 10.09 1.41
4 -17 -3 11.93 2.13
-4 -17 3 14.09 1.5
3 -17 -3 7.48 0.98
-3 -17 3 5.82 0.46
-3 -17 3 6.68 0.88
2 -17 -3 5.02 0.74
-2 -17 3 3.97 0.66
-2 -17 3 4.61 0.76
-2 -17 3 4.66 0.52
-1 -17 3 38.8 1.45
1 -17 -3 38.02 1.15
1 -17 -3 39.42 1.56
0 -17 -3 8.93 0.8
0 -17 -3 8.67 0.62
0 -17 3 7.03 0.86
0 17 3 8.42 0.94
0 17 -3 8.89 0.85
-1 -17 -3 2.15 0.49
1 -17 3 2.69 0.69
-1 17 -3 1.42 0.53
2 -17 3 4.64 0.91
-2 -17 -3 2.3 0.59
2 17 3 3.65 0.56
-2 17 -3 2.97 0.72
-3 -17 -3 2.94 0.81
3 -17 3 2.93 1.06
-3 17 -3 4.43 0.91
3 17 3 2.15 0.66
4 -17 3 2.58 1.41
-4 -17 -3 -0.73 0.99
-4 17 -3 2.49 1.2
6 -18 -3 0.26 1.64
-6 -18 3 2.7 1.57
5 -18 -3 1.23 1.21
-5 -18 3 1.25 1.14
4 -18 -3 1.85 0.99
-4 -18 3 4.14 0.98
3 -18 -3 5.87 0.91
-3 -18 3 5.15 0.83
-2 -18 3 3.94 0.51
-2 -18 3 3.72 0.54
2 -18 -3 4.51 0.76
-2 -18 3 3.35 0.65
1 -18 -3 11 0.9
-1 -18 3 8.98 0.84
1 -18 -3 10.64 0.52
0 -18 -3 82.86 2.51
0 -18 3 83.78 2.61
0 -18 -3 77.59 2.33
0 18 -3 83.59 2.64
0 18 3 74.35 2.47
-1 -18 -3 10.7 0.82
1 -18 3 9.97 1.08
-1 18 -3 9.02 0.96
-2 -18 -3 3.4 0.69
2 -18 3 2.61 0.81
2 18 3 4.85 0.6
-2 18 -3 2.62 0.71
3 -18 3 0.52 1.13
-3 -18 -3 1.19 0.81
-4 -18 -3 5.24 1.24
4 -18 3 3.28 1.62
-4 18 -3 3.41 1.25
-6 -19 3 8.47 1.69
6 -19 -3 6.16 1.93
-5 -19 3 3.22 1.28
5 -19 -3 3.17 1.44
-4 -19 3 8.56 1.21
4 -19 -3 7.64 1.27
-3 -19 3 0.83 0.69
3 -19 -3 0.35 0.77
-2 -19 3 8.55 0.7
-2 -19 3 6.75 0.71
2 -19 -3 10.38 1.03
-2 -19 3 8.96 1
1 -19 -3 3.33 0.36
1 -19 -3 3.05 0.62
-1 -19 3 3.54 0.59
0 -19 -3 5.83 0.61
0 -19 -3 6.83 0.82
0 -19 3 5.57 0.72
0 19 -3 6.78 0.85
0 19 3 5.26 0.79
1 -19 3 18.81 1.31
-1 -19 -3 16.74 0.99
-1 19 -3 15.8 1.16
2 -19 3 9.23 1.18
-2 -19 -3 8.12 0.96
2 19 3 7.3 0.82
-2 19 -3 7.53 0.98
-3 -19 -3 11.7 1.37
3 -19 3 12.3 1.6
-3 19 -3 11.93 1.38
4 -19 3 2.52 1.62
-4 -19 -3 1.57 1.15
-4 19 -3 0.99 1.24
-5 -20 3 5.17 1.4
5 -20 -3 2.7 1.52
-4 -20 3 1.35 0.9
4 -20 -3 -2.03 0.95
3 -20 -3 2.34 0.87
-3 -20 3 2.77 0.8
-2 -20 3 4.33 0.76
-2 -20 3 4.18 0.55
-2 -20 3 2.95 0.51
2 -20 -3 4.65 0.78
1 -20 -3 0.49 0.48
-1 -20 3 0.3 0.49
1 -20 -3 1.23 0.44
1 -20 -3 -0.34 0.27
0 -20 -3 57.77 1.98
0 -20 3 55.78 2.08
0 -20 -3 56.19 1.79
0 20 -3 53.3 2.08
-1 -20 -3 1.55 0.5
1 -20 3 3.35 0.83
-1 20 -3 3.71 0.74
2 -20 3 2.87 1.18
-2 -20 -3 2.84 0.66
2 20 3 2.77 0.57
-2 20 -3 3.97 0.88
3 -20 3 3.59 1.27
-3 -20 -3 4.01 1.01
-3 20 -3 2.9 1
-4 -20 -3 1.39 1.19
4 -20 3 2.99 1.68
-4 20 -3 1.54 1.38
-5 -21 3 2.5 1.34
5 -21 -3 4.13 1.57
4 -21 -3 17.65 1.93
-4 -21 3 14.22 1.66
3 -21 -3 0.76 0.85
-3 -21 3 0.94 0.95
2 -21 -3 2.95 0.79
-2 -21 3 2.38 0.73
-2 -21 3 2.94 0.52
1 -21 -3 2.5 0.6
1 -21 -3 2.39 0.49
1 -21 -3 1.66 0.38
-1 -21 3 2.19 0.58
0 -21 -3 2.81 0.48
0 -21 3 2.1 0.62
0 -21 -3 3.89 0.66
-1 -21 -3 2.06 0.57
1 -21 3 2.18 0.79
-1 21 -3 1.76 0.69
-2 -21 -3 0.74 0.65
2 -21 3 0.46 0.96
2 21 3 0.7 0.51
-2 21 -3 1.52 0.8
3 -21 3 3.77 1.43
-3 -21 -3 2.75 0.91
-3 21 -3 2.71 1.07
4 -21 3 6.44 1.78
-4 -21 -3 1.61 1.2
-4 21 -3 4.04 1.4
5 -22 -3 3.57 1.58
-5 -22 3 5.76 1.38
-4 -22 3 0.47 1.02
4 -22 -3 0.84 1.16
3 -22 -3 0.52 0.96
-3 -22 3 1.19 0.83
2 -22 -3 2.91 0.8
-2 -22 3 2.86 0.77
-2 -22 3 2.2 0.52
1 -22 -3 1.48 0.41
1 -22 -3 1.2 0.61
-1 -22 3 2.09 0.61
0 -22 -3 22.53 1.25
0 -22 -3 20.01 1.04
0 -22 3 24.92 1.4
-1 -22 -3 3.55 0.63
1 -22 3 5.64 0.99
-1 22 -3 4.76 0.86
-2 -22 -3 1.58 0.74
2 -22 3 1.36 1.03
-2 22 -3 1.78 0.87
2 22 3 0.85 0.55
-3 -22 -3 3.29 0.96
3 -22 3 4.04 1.37
-3 22 -3 4.31 1.21
-4 -22 -3 -1.32 1.19
4 -22 3 1.88 1.73
-4 22 -3 1.43 1.42
-5 -23 3 11.7 1.81
5 -23 -3 7.38 1.79
4 -23 -3 9.4 1.53
-4 -23 3 7.61 1.31
-3 -23 3 1.59 0.91
3 -23 -3 2.67 1.03
2 -23 -3 2.12 0.77
-2 -23 3 2.44 0.55
-2 -23 3 1.37 0.77
1 -23 -3 15.25 1.21
-1 -23 3 15.14 1.12
0 -23 -3 10.58 0.85
0 -23 -3 9.8 1.02
0 -23 3 10.96 1.2
-1 -23 -3 1.85 0.62
1 -23 3 1.54 0.83
-1 23 -3 1.31 0.74
2 -23 3 0.33 0.94
-2 -23 -3 0.11 0.85
3 -23 3 4.72 1.55
-3 -23 -3 4.74 1.1
-3 23 -3 3.33 1.26
-4 -23 -3 2.31 1.33
4 -23 3 1.7 1.78
-4 23 -3 6.7 1.75
-5 -24 3 4.63 1.56
5 -24 -3 0.69 1.57
4 -24 -3 1.98 1.32
-4 -24 3 2.3 1.23
-3 -24 3 0.3 0.88
3 -24 -3 1.19 0.91
-2 -24 3 2.98 0.59
2 -24 -3 2.93 0.87
-1 -24 3 4.58 0.79
1 -24 -3 3.66 0.84
-1 -24 3 4.25 0.86
1 -24 -3 4.38 0.52
0 -24 3 2.22 0.78
0 -24 -3 1.67 0.54
0 -24 -3 2.62 0.72
1 -24 3 2.9 0.97
-1 -24 -3 2.86 0.7
-1 24 -3 2.7 0.88
-2 -24 -3 1.08 0.81
2 -24 3 0.69 1.08
-2 24 -3 3.32 1.06
3 -24 3 7.17 1.69
-3 -24 -3 3.15 1.09
-3 24 -3 2.23 1.3
5 -25 -3 0.66 1.74
-5 -25 3 4.23 1.67
4 -25 -3 3.87 1.46
-4 -25 3 6.38 1.39
-3 -25 3 -1.11 0.92
3 -25 -3 0.45 1.07
-2 -25 3 5.04 1.06
2 -25 -3 3.53 1.07
-2 -25 3 4.49 0.65
1 -25 -3 3.53 0.53
1 -25 -3 4.13 0.85
-1 -25 3 4.43 0.98
-1 -25 3 5.35 0.8
0 -25 3 3.86 0.87
0 -25 -3 2.61 0.73
0 -25 -3 2.72 0.6
-1 -25 -3 0.48 0.61
1 -25 3 0.16 0.86
-2 -25 -3 3.6 0.9
2 -25 3 8.06 1.46
-2 25 -3 5.63 1.24
3 -25 3 1.53 1.47
-3 -25 -3 1.35 1.06
-3 25 -3 -2.06 1.21
-4 -26 3 1.32 1.29
4 -26 -3 -0.16 1.37
3 -26 -3 6.91 1.29
-3 -26 3 7.37 1.24
-2 -26 3 4 1.09
2 -26 -3 4.87 1.07
-1 -26 3 22.58 1.4
-1 -26 3 23.76 1.64
1 -26 -3 25.56 1.6
0 -26 -3 7.39 0.95
0 -26 -3 7.25 0.78
0 -26 3 6.36 0.99
-1 -26 -3 1.16 0.69
1 -26 3 0.53 1.01
-2 -26 -3 2.67 0.91
2 -26 3 2.34 1.21
-2 26 -3 3.05 1.17
3 -26 3 2.49 1.71
-3 -26 -3 1.12 1.05
-3 26 -3 2.98 1.54
4 -27 -3 17.07 1.96
-4 -27 3 15.33 2.34
-3 -27 3 2.75 1.12
3 -27 -3 0.39 1.2
-2 -27 3 4.44 1.1
2 -27 -3 3.66 1.03
-1 -27 3 2.51 0.81
-1 -27 3 1.97 0.86
1 -27 -3 2.84 0.9
0 -27 3 3.24 0.94
0 -27 -3 1.17 0.62
0 -27 -3 3.37 0.9
-1 -27 -3 2.72 0.77
1 -27 3 3.05 1.08
2 -27 3 -0.64 1.21
-2 -27 -3 -1.07 0.86
-2 27 -3 -0.33 1.21
3 -27 3 2.28 1.65
-3 -27 -3 0.87 1.17
-3 27 -3 2.74 1.53
-4 -28 3 2.28 1.34
4 -28 -3 4.03 2.15
-3 -28 3 2.17 1.18
3 -28 -3 2.48 1.23
-2 -28 3 5.01 1.2
2 -28 -3 2.95 1.07
-1 -28 3 2.75 0.8
-1 -28 3 1.13 0.92
1 -28 -3 1.29 0.91
0 -28 3 1.25 0.9
0 -28 -3 0.53 0.84
0 -28 -3 0.33 0.61
1 -28 3 0.93 1.08
-1 -28 -3 1.55 0.78
2 -28 3 -0.19 1.31
-2 -28 -3 -0.19 0.95
-3 -28 -3 4.08 1.28
3 -28 3 4.68 1.83
-3 28 -3 -0.52 1.65
-4 -29 3 3.67 1.48
4 -29 -3 3.61 1.7
-3 -29 3 0.52 1.23
3 -29 -3 1.02 1.32
-2 -29 3 1.09 1.05
2 -29 -3 3.74 1.2
-1 -29 3 -1.05 0.96
-1 -29 3 1.31 0.79
1 -29 -3 0.66 1.12
0 -29 -3 0.45 0.87
0 -29 3 1.34 0.94
0 -29 -3 1.31 0.72
0 -29 3 1.69 1.05
-1 -29 -3 2.02 0.94
1 -29 3 3.83 1.26
2 -29 3 1.67 1.39
-2 -29 -3 -0.36 1.04
4 -30 -3 0.68 1.86
-4 -30 3 3.59 1.99
3 -30 -3 2.84 1.45
-3 -30 3 0.42 1.17
2 -30 -3 3.55 1.26
-2 -30 3 1.93 1.15
-1 -30 3 5.28 1.17
1 -30 -3 3.93 1.14
0 -30 3 1.75 1.15
0 -30 -3 3.79 1.01
0 -30 3 2.83 1.22
-1 -30 -3 1.55 0.88
1 -30 3 1.64 1.32
2 -30 3 4.51 1.64
-2 -30 -3 1.98 1.15
-3 -31 3 0.96 1.29
3 -31 -3 -0.3 1.45
-2 -31 3 2.2 1.22
2 -31 -3 0.83 1.22
-1 -31 3 1.55 1.24
1 -31 -3 -0.42 1.07
0 -31 3 0.62 1.06
0 -31 3 1.33 1.11
0 -31 -3 0.96 1.06
-1 -31 -3 0.1 0.98
1 -31 3 1.6 1.33
-2 -31 -3 -1.39 1.16
2 -31 3 2.63 1.66
3 -32 -3 -0.83 1.46
-3 -32 3 -0.45 1.43
-2 -32 3 0.67 1.21
2 -32 -3 0.54 1.33
-1 -32 3 -0.2 1.19
1 -32 -3 2.63 1.23
0 -32 3 -0.25 1.19
0 -32 3 2.13 1.28
1 -32 3 0.98 1.43
2 -33 -3 -0.3 1.4
-2 -33 3 -1.6 1.29
-1 -33 3 3.66 1.39
1 -33 -3 2.98 1.33
0 -33 3 5.19 1.53
0 -33 3 0.85 1.43
1 -33 3 2.83 1.64
1 -33 3 -1.44 1.63
-2 -34 3 0.82 1.56
2 -34 -3 0.65 1.49
-1 -34 3 -3.17 1.4
1 -34 -3 0.24 1.34
0 -34 3 3.77 1.55
-1 -35 3 -2.18 1.49
1 -35 -3 0.55 1.41
0 -35 3 3.06 1.75
6 0 -4 -0.27 0.86
-6 0 4 -0.35 1.18
5 0 -4 1.07 0.68
-5 0 4 1.69 0.75
-4 0 4 10.73 0.89
-4 0 4 11.77 1.05
4 0 -4 9.59 0.88
-3 0 4 4.31 0.54
-3 0 4 5.16 0.64
3 0 -4 4.68 0.6
2 0 -4 61.64 1.98
2 0 -4 61.91 1.86
-2 0 4 62.02 1.81
1 0 -4 20.58 0.84
-1 0 4 19.35 0.85
0 0 -4 5.31 0.53
0 0 4 5.78 0.59
-1 0 -4 2.59 0.47
1 0 4 1.93 0.46
-2 0 -4 0.64 0.47
2 0 4 0.42 0.52
3 0 4 8.57 1.06
-3 0 -4 5.61 0.84
-4 0 -4 1.25 1
4 0 4 0.37 1.04
5 0 4 1.68 1.64
-5 0 -4 2.01 1.42
-6 -1 4 0.78 1
6 -1 -4 -0.74 0.96
6 1 -4 0.3 0.85
-5 -1 4 6.51 0.9
5 -1 -4 6.12 0.92
5 1 -4 6.06 0.83
-5 1 4 5.49 0.83
4 -1 -4 34.53 1.48
-4 -1 4 33.82 1.42
-4 1 4 33.56 1.4
-4 1 4 35.51 1.36
4 1 -4 33.21 1.43
-3 -1 4 8.13 0.71
3 -1 -4 9.22 0.75
-3 -1 4 7.93 0.75
-3 1 4 8.58 0.68
3 1 -4 9.16 0.76
-3 1 4 8.66 0.66
2 -1 -4 15.44 0.82
2 -1 -4 12.95 0.82
-2 -1 4 14.46 0.74
2 1 -4 13.71 0.79
-2 1 4 14.1 0.67
2 1 -4 12.58 0.73
-1 -1 4 4.28 0.47
1 -1 -4 4.4 0.47
-1 1 4 4.05 0.45
1 1 -4 4.23 0.49
0 -1 4 25.78 1.09
0 -1 -4 26.9 1.02
0 1 4 25.46 1.08
0 1 -4 24.96 1.01
-1 -1 -4 27.05 1.14
1 -1 4 28.33 1.27
-1 1 -4 27.33 1.15
1 1 4 29 1.26
-2 -1 -4 3.91 0.63
2 -1 4 4.69 0.77
2 1 4 4.65 0.72
-2 1 -4 4.97 0.7
3 -1 4 2.69 0.81
-3 -1 -4 1.76 0.73
-3 1 -4 1.03 0.71
3 1 4 1.71 0.73
-4 -1 -4 2.34 0.96
4 -1 4 5.27 1.24
4 1 4 5.12 1.21
-4 1 -4 3.45 0.99
-5 -1 -4 3.17 1.6
5 -1 4 0.82 1.66
5 1 4 -0.74 1.54
-5 1 -4 2.25 1.36
6 -2 -4 0.78 1.16
-6 -2 4 1.82 1.07
6 2 -4 2.02 0.92
-5 -2 4 9.66 1.03
5 -2 -4 8.24 1.01
-5 2 4 8.97 1.01
5 2 -4 7.59 0.86
4 -2 -4 5.19 0.69
-4 -2 4 4.82 0.71
4 2 -4 4.75 0.67
-4 2 4 5.31 0.64
-4 2 4 4.59 0.61
3 -2 -4 16.16 0.93
-3 -2 4 16.96 0.92
-3 -2 4 15.55 0.93
-3 2 4 15.72 0.98
-3 2 4 15.86 0.76
3 2 -4 17.86 0.94
2 -2 -4 0.69 0.32
2 -2 -4 1.13 0.38
-2 -2 4 0.91 0.37
-2 2 4 0.88 0.3
-1 -2 4 26.44 1.05
1 -2 -4 28.44 1.02
-1 2 4 30.03 1.04
1 2 -4 29.3 1.08
0 -2 4 9.34 0.71
0 -2 -4 8.8 0.59
0 2 -4 8.32 0.62
0 2 4 9.39 0.75
0 2 4 9.58 0.7
-1 -2 -4 1.65 0.39
1 -2 4 2.33 0.47
1 2 4 2.12 0.46
-1 2 -4 1.47 0.4
2 -2 4 5.75 0.76
-2 -2 -4 4.74 0.62
2 2 4 5.85 0.71
-2 2 -4 6.63 0.76
3 -2 4 -0.5 0.72
-3 -2 -4 0.24 0.57
3 2 4 0.28 0.7
-3 2 -4 -0.74 0.68
-4 -2 -4 1.14 0.92
4 -2 4 1.51 1.14
-4 2 -4 2.56 1.05
4 2 4 2.92 1.18
5 -2 4 3.48 1.64
-5 -2 -4 1.41 1.32
5 2 4 1.15 1.61
-5 2 -4 2.82 1.56
6 -3 -4 3.03 1.24
-6 -3 4 3.06 1.13
5 -3 -4 10.36 1.21
-5 -3 4 11.29 1.22
-5 3 4 10.2 0.99
5 3 -4 9.77 1.1
4 -3 -4 33.36 1.51
-4 -3 4 31.45 1.44
-4 3 4 34.72 1.26
-4 3 4 32.89 1.26
4 3 -4 32.88 1.4
3 -3 -4 22.11 1.11
-3 -3 4 21.05 1.05
-3 -3 4 21.33 1.06
-3 3 4 22.16 0.85
3 3 -4 22.81 1.04
-3 3 4 22.24 0.91
2 -3 -4 1.32 0.33
-2 -3 4 1.47 0.41
2 -3 -4 1.61 0.41
-2 3 4 2 0.34
-1 -3 4 9.94 0.66
1 -3 -4 10.65 0.58
-1 -3 4 9.55 0.69
-1 3 4 9.76 0.62
1 3 -4 9.8 0.66
0 -3 4 42.18 1.49
0 -3 -4 41.87 1.37
0 3 4 41.25 1.44
0 3 -4 40.97 1.42
0 3 4 39.85 1.46
1 -3 4 59.32 2.03
-1 -3 -4 60.11 1.93
1 3 4 62.65 2
-1 3 -4 57.42 1.93
2 -3 4 7.5 0.94
-2 -3 -4 5.86 0.71
-2 3 -4 6.39 0.8
2 3 4 6.77 0.78
-3 -3 -4 1.37 0.8
3 -3 4 1.84 0.82
3 3 4 2.06 0.76
-3 3 -4 1.14 0.69
4 -3 4 4.26 1.18
-4 -3 -4 6.37 1.22
-4 3 -4 3.14 1.02
4 3 4 2.36 1.22
-5 -3 -4 3.72 1.31
5 -3 4 4.73 1.74
-5 3 -4 2.71 1.4
6 -4 -4 0.19 1.06
-6 -4 4 1.89 1.11
-5 -4 4 17.33 1.38
5 -4 -4 16.13 1.36
-5 4 4 17.84 1.02
5 4 -4 16.16 1.2
4 -4 -4 2.29 0.62
-4 -4 4 3.09 0.67
-4 4 4 2.34 0.5
-4 4 4 3.47 0.52
4 4 -4 3.21 0.57
3 -4 -4 48.68 1.77
-3 -4 4 46 1.68
-3 4 4 48.34 1.4
-3 4 4 49.3 1.46
3 4 -4 44.78 1.61
2 -4 -4 14.69 0.65
-2 -4 4 13.48 0.81
2 -4 -4 14.01 0.86
-2 4 4 14.62 0.63
-1 -4 4 15.25 0.81
-1 -4 4 17.56 0.9
1 -4 -4 14.57 0.83
1 -4 -4 14.86 0.69
-1 4 4 14.56 0.71
1 4 -4 16.13 0.82
0 -4 4 8.59 0.74
0 -4 -4 9.15 0.59
0 4 4 9.9 0.77
0 4 -4 9.87 0.67
1 -4 4 21.41 1.11
-1 -4 -4 21.64 0.99
-1 4 -4 21.14 1.02
1 4 4 20.11 1.06
2 -4 4 11.26 1.07
-2 -4 -4 11.44 0.9
2 4 4 11.36 0.96
-2 4 -4 10.77 0.9
-3 -4 -4 1.96 0.85
3 -4 4 0.85 0.84
-3 4 -4 2.18 1.1
3 4 4 1.26 0.74
-4 -4 -4 1.79 0.92
4 -4 4 -0.11 1.09
-4 4 -4 -0.34 0.84
-5 -4 -4 3.36 1.34
5 -4 4 7.66 1.85
-5 4 -4 4.53 1.73
6 -5 -4 0.59 1.13
-6 -5 4 -0.03 1.35
5 -5 -4 1.46 0.81
-5 -5 4 1.3 0.8
5 5 -4 1.11 0.62
-5 5 4 0.91 0.55
4 -5 -4 2.99 0.7
-4 -5 4 4.62 0.73
-4 5 4 2.57 0.44
-4 5 4 3.66 0.46
4 5 -4 3.77 0.58
3 -5 -4 25.09 1.2
-3 -5 4 24.23 1.17
-3 5 4 24.44 0.88
-3 5 4 22.89 0.8
2 -5 -4 18.09 0.97
2 -5 -4 20.38 0.75
-2 5 4 19.12 0.73
1 -5 -4 9.18 0.68
-1 -5 4 9.4 0.67
-1 5 4 8.83 0.6
1 5 -4 9.72 0.7
0 -5 -4 11.03 0.64
0 -5 4 10.77 0.78
0 5 4 10.83 0.8
0 5 -4 11.04 0.72
-1 -5 -4 4 0.53
1 -5 4 3.5 0.6
-1 5 -4 3.48 0.52
1 5 4 3.78 0.53
-2 -5 -4 10.96 0.9
2 -5 4 12.61 1.1
-2 5 -4 12.13 0.93
2 5 4 10.82 0.96
3 -5 4 4.13 0.98
-3 5 -4 4.67 1.11
3 5 4 3.27 0.83
-4 -5 -4 -0.88 0.83
4 -5 4 0.38 1.16
-4 5 -4 2.32 1.07
4 5 4 -0.23 1.14
-5 -5 -4 -0.19 1.43
5 -5 4 0.17 1.7
-5 5 -4 1.28 1.39
6 -6 -4 4.83 1.26
-6 -6 4 6.39 1.32
-5 -6 4 1.33 0.83
5 -6 -4 3.25 0.89
5 6 -4 1.17 0.66
4 -6 -4 48.49 1.92
-4 -6 4 46.66 1.88
-4 6 4 47.84 1.39
4 6 -4 46.58 1.67
-4 6 4 48.16 1.38
-3 -6 4 11.55 0.92
3 -6 -4 13.28 0.99
-3 6 4 13.72 0.59
2 -6 -4 0.25 0.24
2 -6 -4 -0.24 0.35
-2 -6 4 1.02 0.65
-2 6 4 0.03 0.25
-1 -6 4 1.87 0.41
1 -6 -4 2.22 0.42
1 -6 -4 2.59 0.4
1 6 -4 2.58 0.46
-1 6 4 2.21 0.39
0 -6 4 68.14 2.13
0 -6 -4 65.93 1.95
0 6 -4 64.58 2.06
0 6 4 63.93 2.01
-1 -6 -4 7.3 0.67
1 -6 4 9.02 0.84
1 6 4 8.65 0.74
-1 6 -4 8.34 0.72
2 -6 4 1.38 0.61
-2 -6 -4 1.8 0.58
2 6 4 1.85 0.53
-2 6 -4 1.31 0.54
-3 -6 -4 0.71 1.16
3 -6 4 2.08 0.91
3 6 4 2.09 0.79
4 -6 4 2.39 1.32
-4 -6 -4 4.51 1.09
4 6 4 2.03 1.06
-4 6 -4 2.18 0.99
5 -6 4 7.19 1.83
-5 -6 -4 5.16 2.03
-5 6 -4 8.26 1.84
-6 -7 4 2.34 1.24
6 -7 -4 3.48 1.24
5 -7 -4 1.28 0.82
-5 -7 4 1.29 0.87
4 -7 -4 7.17 0.85
-4 -7 4 9.96 1.04
-3 -7 4 0.93 0.62
3 -7 -4 1.72 0.54
-3 -7 4 1.93 0.55
-2 -7 4 0.47 0.35
2 -7 -4 0.06 0.35
-2 -7 4 -0.17 0.51
-2 7 4 -0.16 0.26
1 -7 -4 -0.15 0.34
1 -7 -4 0.43 0.26
-1 -7 4 -0.01 0.32
-1 7 4 0.27 0.33
1 7 -4 0.14 0.39
0 -7 -4 1.34 0.34
0 -7 4 1.32 0.41
0 7 -4 0.41 0.33
0 7 4 1.07 0.49
-1 -7 -4 0.96 0.39
1 -7 4 0.24 0.44
1 7 4 0.37 0.36
-1 7 -4 0.59 0.39
-2 -7 -4 17.8 1.08
2 -7 4 17.96 1.29
-2 7 -4 18.92 1.13
2 7 4 19.23 1.13
3 -7 4 1.18 1.32
-3 -7 -4 2.4 0.76
3 7 4 1.93 0.71
-3 7 -4 2.51 1.03
-4 -7 -4 9.04 1.36
4 -7 4 6.28 1.46
4 7 4 4.93 1.19
-4 7 -4 3.82 1.08
5 -7 4 3.52 1.82
-5 7 -4 2.05 1.43
-6 -8 4 3.61 1.25
6 -8 -4 3.08 1.31
-5 -8 4 2.85 0.89
5 -8 -4 4.91 1.03
-4 -8 4 9.68 1.3
-4 -8 4 10.88 1.15
4 -8 -4 12.29 1.13
3 -8 -4 8.66 0.87
-3 -8 4 8.2 0.89
-3 -8 4 9.51 0.92
-2 -8 4 1.24 0.37
2 -8 -4 2.12 0.44
-2 -8 4 1.36 0.56
-2 8 4 0.77 0.44
-1 -8 4 4.48 0.52
1 -8 -4 3.96 0.54
1 -8 -4 3.71 0.43
-1 8 4 4.05 0.45
1 8 -4 4.76 0.57
0 -8 4 20.7 1.05
0 -8 -4 20.21 0.87
0 8 4 18.76 1.05
0 8 -4 21.75 1.01
1 -8 4 23.35 1.21
-1 -8 -4 21.82 1.02
-1 8 -4 20.48 1.05
1 8 4 21.03 1.06
-2 -8 -4 3.26 0.65
2 -8 4 1.96 0.67
2 8 4 1.95 0.58
-2 8 -4 1.85 0.58
-3 -8 -4 1.12 0.73
3 -8 4 -0.83 1.02
-3 8 -4 0.51 0.78
3 8 4 1.06 0.73
4 -8 4 2.46 1.32
-4 -8 -4 5.5 1.19
4 8 4 4.66 1.13
-4 8 -4 5.44 1.17
6 -9 -4 5.42 1.39
-6 -9 4 4.34 1.36
-5 -9 4 1.83 0.9
4 -9 -4 21.41 1.36
-4 -9 4 21.57 1.37
3 -9 -4 25.54 1.33
-3 -9 4 26.66 1.08
-3 -9 4 27.09 1.32
-3 -9 4 23.92 1.23
2 -9 -4 7.45 0.75
-2 -9 4 8.49 0.88
-2 -9 4 7.29 0.64
-2 9 4 6.66 0.45
1 -9 -4 7.41 0.72
1 -9 -4 7.92 0.5
-1 -9 4 7.37 0.71
-1 9 4 8.28 0.66
1 9 -4 7.58 0.72
0 -9 -4 10.12 0.62
0 -9 4 10.87 0.81
0 9 -4 9.38 0.76
0 9 4 8.84 0.87
-1 -9 -4 14.51 0.87
1 -9 4 15.33 1.05
1 9 4 14.75 0.9
-1 9 -4 16.62 0.97
-2 -9 -4 2.26 0.56
2 -9 4 2.53 0.79
2 9 4 2.83 0.63
-2 9 -4 3.58 0.63
-3 -9 -4 3.45 0.83
3 -9 4 4.72 1.12
-3 9 -4 3.97 0.92
3 9 4 3.36 0.8
-4 -9 -4 2.02 1.13
4 -9 4 1.24 1.28
-4 9 -4 5 1.28
4 9 4 1.86 1.02
-6 -10 4 1.79 1.33
6 -10 -4 0.78 1.29
-5 -10 4 7.46 1.15
5 -10 -4 7 1.12
4 -10 -4 4.55 0.9
-4 -10 4 4.6 0.86
-4 -10 4 4.63 0.54
-3 -10 4 11.06 0.99
-3 -10 4 8.99 0.7
-3 -10 4 9.2 0.95
3 -10 -4 9.6 0.97
2 -10 -4 23.24 1.19
-2 -10 4 23.31 1.03
-2 -10 4 26.35 1.27
1 -10 -4 24.46 1.16
-1 -10 4 24.18 1.11
1 -10 -4 24.46 0.87
1 10 -4 25.33 1.16
-1 10 4 24.99 0.98
0 -10 -4 27.96 1.04
0 -10 4 27.25 1.25
0 10 -4 26.43 1.2
0 10 4 26.45 1.24
-1 -10 -4 32.95 1.31
1 -10 4 32.34 1.5
-1 10 -4 31.93 1.39
1 10 4 35.82 1.37
-2 -10 -4 2.65 0.6
2 -10 4 2.08 0.75
2 10 4 1.86 0.59
-2 10 -4 1.07 0.53
3 -10 4 0.6 0.99
-3 -10 -4 1.72 0.76
-3 10 -4 1.2 0.81
3 10 4 0.48 0.69
4 -10 4 -1.31 1.28
-4 -10 -4 1.03 1.14
4 10 4 0.49 1.06
-4 10 -4 1.93 1.24
6 -11 -4 1.61 1.33
-6 -11 4 2.58 1.36
-5 -11 4 -0.4 1.41
5 -11 -4 0.9 0.95
-4 -11 4 2.69 0.5
4 -11 -4 2.86 0.78
-4 -11 4 3.67 0.84
3 -11 -4 -0.04 0.54
-3 -11 4 0.72 0.56
-3 -11 4 -0.24 0.37
-3 -11 4 1.1 0.59
-2 -11 4 3.49 0.64
-2 -11 4 4.48 0.54
2 -11 -4 4.81 0.68
1 -11 -4 11.98 0.56
-1 -11 4 10.08 0.8
1 -11 -4 10.24 0.85
1 11 -4 11.68 0.88
-1 11 4 10.63 0.71
0 -11 4 7.94 0.8
0 -11 -4 6.06 0.56
0 11 -4 7.02 0.76
0 11 4 7.13 0.74
1 -11 4 28.62 1.42
-1 -11 -4 26.56 1.17
1 11 4 28.79 1.24
-1 11 -4 26.51 1.28
2 -11 4 2.4 0.79
-2 -11 -4 2.28 0.63
2 11 4 3.98 0.64
-2 11 -4 3.31 0.66
3 -11 4 -0.05 0.93
-3 -11 -4 1.75 0.77
3 11 4 2.62 0.78
-3 11 -4 -0.19 0.83
4 -11 4 -0.15 1.32
-4 -11 -4 0.8 1.08
-4 11 -4 0.35 1.19
6 -12 -4 1.48 1.38
-6 -12 4 -0.19 1.33
-5 -12 4 1.48 0.99
5 -12 -4 2.81 1.01
4 -12 -4 1.37 0.81
-4 -12 4 1.71 0.76
-4 -12 4 1.28 0.45
-3 -12 4 18.05 0.89
-3 -12 4 18.1 1.23
3 -12 -4 16.84 1.2
-3 -12 4 15.26 1.07
-2 -12 4 18.71 0.98
2 -12 -4 20.83 1.15
-2 -12 4 21.56 1.43
1 -12 -4 2.12 0.52
-1 -12 4 3.65 0.58
1 -12 -4 2.3 0.32
1 12 -4 3.32 0.62
-1 12 4 2.87 0.45
0 -12 -4 18.51 0.83
0 -12 4 17.74 1.06
0 12 4 15.04 1.11
0 12 -4 16.27 1.02
-1 -12 -4 0.58 0.4
1 -12 4 0.11 0.52
-1 12 -4 0.81 0.52
1 12 4 0.51 0.43
-2 -12 -4 17.38 1.14
2 -12 4 19.6 1.45
2 12 4 19.16 1.14
-2 12 -4 18.36 1.21
-3 -12 -4 4.64 0.9
3 -12 4 5.21 1.2
-3 12 -4 6.8 1.09
3 12 4 5.89 0.88
4 -12 4 1.51 1.44
-4 -12 -4 2.46 1.14
-4 12 -4 3.2 1.15
6 -13 -4 2.14 1.45
-6 -13 4 3.59 1.45
5 -13 -4 1.87 1.09
-5 -13 4 4.15 1.1
-4 -13 4 1.57 0.78
4 -13 -4 2.21 0.81
-4 -13 4 2.42 0.6
3 -13 -4 7.5 0.95
-3 -13 4 9.79 1.05
-3 -13 4 6.64 0.76
-3 -13 4 8.61 0.73
2 -13 -4 25.15 1.3
-2 -13 4 23.18 1.09
1 -13 -4 10.81 0.57
1 -13 -4 10.78 0.89
-1 -13 4 12.72 0.89
1 13 -4 9.94 0.92
-1 13 4 12.14 0.78
0 -13 -4 16.11 1
0 -13 4 16.09 1.04
0 -13 -4 14.45 0.77
0 13 -4 15.08 1.03
0 13 4 17.03 1.26
1 -13 4 2.32 0.67
-1 -13 -4 1.74 0.49
1 13 4 2.16 0.52
-1 13 -4 3.48 0.69
2 -13 4 3.45 0.87
-2 -13 -4 3.42 0.66
2 13 4 3.69 0.67
-2 13 -4 3.18 0.7
3 -13 4 7.49 1.38
-3 -13 -4 7.04 1.02
-3 13 -4 7.26 1.16
3 13 4 6.16 0.91
4 -13 4 2.17 1.59
-4 -13 -4 3.27 1.1
-4 13 -4 0.46 1.12
6 -14 -4 3.11 1.45
-6 -14 4 0.46 1.41
-5 -14 4 1.33 1.06
5 -14 -4 -0.62 1.09
4 -14 -4 6.57 1.2
-4 -14 4 5.5 0.95
3 -14 -4 3.19 0.73
-3 -14 4 5.04 0.78
-3 -14 4 3.58 0.68
-3 -14 4 4.72 0.55
-2 -14 4 9.88 0.82
2 -14 -4 10.5 0.97
1 -14 -4 4.77 0.47
1 -14 -4 5.3 0.67
-1 -14 4 5.43 0.66
1 14 -4 7.57 0.85
-1 14 4 4.97 0.56
0 -14 -4 9.65 0.67
0 -14 -4 9.23 0.86
0 -14 4 9.41 0.96
0 14 -4 10.09 0.95
1 -14 4 0.33 0.59
-1 -14 -4 -0.11 0.4
-1 14 -4 0.13 0.51
2 -14 4 5.9 1.1
-2 -14 -4 3.9 0.68
-2 14 -4 5.1 0.87
2 14 4 3.86 0.64
-3 -14 -4 4.46 0.97
3 -14 4 5.43 1.29
3 14 4 3.58 0.79
-3 14 -4 3.7 1.02
4 -14 4 1.47 1.58
-4 -14 -4 1.63 1.08
-4 14 -4 3.38 1.26
-6 -15 4 1.46 1.46
6 -15 -4 1.25 1.57
-5 -15 4 2.36 1.09
5 -15 -4 1.51 1.16
4 -15 -4 0.78 0.95
-4 -15 4 2.39 0.86
-3 -15 4 2.83 0.49
-3 -15 4 3.55 0.79
3 -15 -4 4.21 0.82
-2 -15 4 5.93 0.67
2 -15 -4 7.02 0.81
1 -15 -4 4.43 0.46
1 -15 -4 4.47 0.67
-1 -15 4 2.8 0.59
-1 15 4 3.93 0.54
1 15 -4 2.77 0.61
0 -15 4 9.28 0.98
0 -15 -4 11.82 0.73
0 -15 -4 12.28 0.94
0 15 -4 12.19 1.02
-1 -15 -4 9.4 0.83
1 -15 4 13.11 1.18
-1 15 -4 11.96 1.03
-2 -15 -4 0.09 0.57
2 15 4 -0.02 0.51
-2 15 -4 0.75 0.73
-3 -15 -4 15.02 1.39
3 -15 4 13.28 1.62
3 15 4 13.02 1.24
-3 15 -4 13.28 1.44
4 -15 4 -0.2 1.61
-4 -15 -4 -1.78 1.15
-4 15 -4 -0.39 1.33
6 -16 -4 0.82 1.54
-6 -16 4 0.2 1.5
5 -16 -4 0.41 1.21
-5 -16 4 2.36 1.14
4 -16 -4 0.21 0.87
-3 -16 4 9.87 1.18
-3 -16 4 8.76 0.78
3 -16 -4 9.59 1.18
-2 -16 4 1.98 0.5
2 -16 -4 1.49 0.63
1 -16 -4 4.66 0.49
1 -16 -4 5.43 0.76
-1 -16 4 4.51 0.65
1 16 -4 6.27 0.83
-1 16 4 5.84 0.61
0 -16 4 9.06 1.05
0 -16 -4 7.75 0.67
0 -16 -4 9.83 0.93
0 16 -4 8.13 0.96
1 -16 4 0.64 0.74
-1 -16 -4 1.37 0.48
-1 16 -4 1.34 0.65
-2 -16 -4 2.39 0.71
2 -16 4 1.96 1.01
2 16 4 2.05 0.63
-2 16 -4 3.76 1.21
-3 -16 -4 -0.47 0.76
3 -16 4 0.5 1.21
3 16 4 -1.46 0.74
-3 16 -4 0.84 1.53
4 -16 4 2.3 1.7
-4 -16 -4 3.51 1.2
-4 16 -4 4.73 1.45
6 -17 -4 0.72 1.7
-6 -17 4 1.54 1.59
-5 -17 4 4.02 1.25
5 -17 -4 5.08 1.4
4 -17 -4 7.56 1.22
-4 -17 4 8.02 1.25
-3 -17 4 0.22 0.46
-3 -17 4 -0.25 0.68
3 -17 -4 -0.3 0.69
-2 -17 4 13.18 0.95
2 -17 -4 14.29 1.16
1 -17 -4 9.17 0.99
1 -17 -4 9.99 0.6
-1 -17 4 11.06 1
-1 17 4 10.32 0.85
0 -17 -4 1.09 0.56
0 -17 4 1.32 0.69
0 -17 -4 0.37 0.38
0 17 -4 1.24 0.62
-1 -17 -4 0.62 0.48
1 -17 4 1.83 0.81
-1 17 -4 2.19 0.71
-2 -17 -4 4.91 0.79
2 -17 4 2.5 1.05
-2 17 -4 3.28 1.16
2 17 4 2.99 0.64
-3 -17 -4 3.28 0.95
3 -17 4 2.17 1.38
-3 17 -4 3.08 1.11
-4 -17 -4 2.12 1.25
4 -17 4 1.82 1.74
-4 17 -4 2.25 1.39
6 -18 -4 1.64 1.74
-6 -18 4 0.85 1.61
5 -18 -4 3.64 1.45
-5 -18 4 1.97 1.25
4 -18 -4 2.48 1.02
-4 -18 4 3.2 1.06
-3 -18 4 12.34 1.34
-3 -18 4 9.87 0.88
3 -18 -4 11.87 1.41
-2 -18 4 2.9 0.64
2 -18 -4 3.56 0.74
1 -18 -4 3.49 0.66
-1 -18 4 2.31 0.64
1 -18 -4 3.13 0.42
-1 18 4 2.84 0.61
0 -18 4 5.47 0.86
0 -18 -4 2.54 0.5
0 -18 -4 3.76 0.73
0 18 -4 4.66 0.79
1 -18 4 1.72 0.86
-1 -18 -4 2.09 0.54
-1 18 -4 3.86 0.83
-2 -18 -4 0.49 0.61
2 -18 4 1.74 0.99
2 18 4 1.62 0.62
-2 18 -4 0.57 0.87
3 -18 4 3.82 1.4
-3 -18 -4 3.27 0.95
-3 18 -4 3.3 1.13
4 -18 4 2.72 1.93
-4 -18 -4 4.32 1.33
-4 18 -4 4.96 1.5
5 -19 -4 8.06 1.62
-5 -19 4 9.42 1.52
-4 -19 4 9.38 1.29
4 -19 -4 8.92 1.33
-3 -19 4 2.39 0.57
2 -19 -4 4.99 0.89
-2 -19 4 4.02 0.81
-2 -19 4 4.98 0.74
1 -19 -4 5.34 0.82
1 -19 -4 4.47 0.47
-1 -19 4 2.77 0.71
0 -19 -4 -0.11 0.61
0 -19 4 -0.22 0.66
0 -19 -4 -0.07 0.4
0 19 -4 1.52 0.69
-1 -19 -4 2 0.58
1 -19 4 1.82 0.89
-1 19 -4 2.24 0.81
2 -19 4 0.82 1.11
2 19 4 0.26 0.58
-2 19 -4 0.91 0.87
-3 -19 -4 4.27 1.03
3 -19 4 2.82 1.53
-3 19 -4 3.94 1.18
4 -19 4 2.9 2.35
-4 -19 -4 1.8 1.32
-4 19 -4 3.99 1.6
-5 -20 4 11.51 1.58
5 -20 -4 13.76 1.85
4 -20 -4 5.24 1.26
-4 -20 4 4.78 1.24
3 -20 -4 0.2 0.82
-3 -20 4 0.6 0.8
-3 -20 4 1.12 0.57
2 -20 -4 2.8 0.82
-2 -20 4 2.18 0.69
-2 -20 4 1.56 0.76
-1 -20 4 1.39 0.69
1 -20 -4 1.6 0.7
1 -20 -4 2.32 0.53
0 -20 4 18.51 1.41
0 -20 -4 16.34 1.24
0 -20 -4 15.74 0.94
0 20 -4 18.38 1.38
1 -20 4 2.54 1.01
-1 -20 -4 1.09 0.55
-1 20 -4 2.37 1.21
2 -20 4 6.97 1.36
-2 -20 -4 5.35 0.86
-2 20 -4 6.65 1.19
2 20 4 5.39 0.77
-3 -20 -4 4.69 1.04
3 -20 4 5.59 1.72
-3 20 -4 5.27 1.36
5 -21 -4 3.01 1.57
-5 -21 4 2.61 1.36
4 -21 -4 0.8 1.16
-4 -21 4 1.45 1.08
-3 -21 4 5.41 1.06
3 -21 -4 4.99 1.08
-2 -21 4 4.07 0.73
2 -21 -4 3.53 0.91
-2 -21 4 5.33 1.27
1 -21 -4 1 0.64
-1 -21 4 1.46 0.69
0 -21 -4 2.59 0.55
0 -21 -4 2.05 0.75
0 -21 4 3.3 0.89
0 21 -4 6.63 1.04
-1 -21 -4 1.52 0.61
-1 21 -4 0.69 0.88
-2 -21 -4 1.57 0.82
2 -21 4 1.67 1.19
-2 21 -4 0.77 0.96
2 21 4 1.8 0.69
-3 -21 -4 0.54 1.06
3 -21 4 0.16 1.47
-3 21 -4 1.09 1.25
-5 -22 4 1.56 1.43
5 -22 -4 0.39 1.5
-4 -22 4 3.34 1.23
4 -22 -4 3.13 1.26
-3 -22 4 5.03 1.11
3 -22 -4 4.05 1.06
-2 -22 4 3.3 0.76
-2 -22 4 2.92 0.88
2 -22 -4 4.95 1.03
-1 -22 4 13.17 1.27
1 -22 -4 14.58 1.31
0 -22 4 8.62 1.13
0 -22 -4 9.44 0.85
0 -22 -4 12.04 1.21
1 -22 4 2.51 1.13
-1 -22 -4 2.39 0.64
-1 22 -4 4.15 1.05
2 -22 4 3.18 1.42
-2 -22 -4 2.21 0.81
2 22 4 2.66 1.2
-2 22 -4 0.8 1.04
-3 -22 -4 0.88 1
3 -22 4 -0.76 1.56
-3 22 -4 -0.58 1.28
5 -23 -4 4.03 1.64
-5 -23 4 3.21 1.52
4 -23 -4 1.76 1.34
-4 -23 4 2.01 1.23
-3 -23 4 3.38 1.18
3 -23 -4 3.44 1.12
-2 -23 4 1.35 0.74
2 -23 -4 -0.8 1.09
-2 -23 4 3.03 0.95
-1 -23 4 14.93 1.47
1 -23 -4 15 1.36
0 -23 4 11.97 1.43
0 -23 -4 11.02 0.92
0 -23 -4 11.8 1.31
1 -23 4 3.1 1.17
-1 -23 -4 2.88 0.75
-1 23 -4 3.6 1.09
2 -23 4 3.78 1.38
-2 -23 -4 5.11 0.96
-2 23 -4 5.64 1.28
-3 -23 -4 0.44 1.08
3 -23 4 1.63 1.68
-3 23 -4 2.6 1.61
5 -24 -4 1.07 1.74
-5 -24 4 -0.37 1.51
4 -24 -4 7.04 1.57
-4 -24 4 5.8 1.38
3 -24 -4 1.04 1.14
-3 -24 4 1.63 1.02
-2 -24 4 1.4 0.88
-2 -24 4 1.48 0.74
2 -24 -4 2.99 0.96
1 -24 -4 10.16 1.1
-1 -24 4 12.42 1.25
0 -24 4 1.61 0.96
0 -24 -4 2.73 0.88
0 -24 -4 1.21 0.54
1 -24 4 1.03 1.02
-1 -24 -4 0.1 0.66
-1 24 -4 2.91 1.22
2 -24 4 4.65 1.52
-2 -24 -4 3.01 0.94
-2 24 -4 2.58 1.2
3 -24 4 0.07 1.71
-3 -24 -4 1.43 1.14
-3 24 -4 -0.67 1.68
4 -25 -4 -0.49 1.34
-4 -25 4 1.55 1.31
3 -25 -4 2.14 1.18
-3 -25 4 2.01 1.09
-2 -25 4 4.36 1.13
2 -25 -4 3.19 1
-2 -25 4 3.28 0.86
-1 -25 4 3.2 0.89
1 -25 -4 2.15 0.93
0 -25 -4 5.24 0.99
0 -25 -4 5.07 0.7
0 -25 4 4.64 1.08
1 -25 4 -0.1 1.05
-1 -25 -4 1.17 0.74
-1 25 -4 0.74 1.24
2 -25 4 2.72 1.53
-2 -25 -4 1.21 0.97
-2 25 -4 3.34 1.36
3 -25 4 6.59 2.09
-3 -25 -4 4.17 1.26
-3 25 -4 1.62 1.78
4 -26 -4 3.5 1.54
-4 -26 4 2.33 1.39
3 -26 -4 2.71 1.25
-3 -26 4 1.53 1.17
-2 -26 4 3.64 1.21
2 -26 -4 3.03 1.11
1 -26 -4 7.93 1.29
-1 -26 4 10.13 1.24
0 -26 -4 3.34 0.69
0 -26 -4 2.59 0.97
-1 -26 -4 1.6 0.8
1 -26 4 0.85 1.18
-1 26 -4 0.74 1.11
-2 -26 -4 0.21 0.98
2 -26 4 -1.2 1.4
-2 26 -4 -0.01 1.35
-4 -27 4 0.17 1.34
4 -27 -4 0.19 1.55
-3 -27 4 -0.28 1.16
3 -27 -4 -0.28 1.32
2 -27 -4 7.36 1.31
-2 -27 4 6.93 1.32
1 -27 -4 11.24 1.32
-1 -27 4 7.18 1.2
-1 -27 4 10.12 1.29
0 -27 -4 1.3 1.03
0 -27 4 2.34 1.15
1 -27 4 3.62 1.37
2 -27 4 2 1.67
-2 -27 -4 0.22 1.06
-2 27 -4 1.38 1.49
4 -28 -4 2.19 1.71
-4 -28 4 2.98 1.57
-3 -28 4 3.87 1.43
3 -28 -4 2.8 1.38
2 -28 -4 -1.32 1.05
-2 -28 4 1.84 1.15
1 -28 -4 8.16 1.22
-1 -28 4 9.47 1.43
-1 -28 4 9.88 1.29
0 -28 4 1.54 1.14
1 -28 4 1.57 1.4
-1 -28 -4 -0.78 0.87
-2 -28 -4 1.34 1.11
2 -28 4 3.98 1.75
-2 28 -4 -2.55 1.49
3 -29 -4 3.26 1.57
-3 -29 4 2.78 1.41
2 -29 -4 6.48 1.43
-2 -29 4 5.54 1.39
1 -29 -4 3.56 1.19
-1 -29 4 0.9 1.17
-1 -29 4 3.36 1.15
0 -29 -4 1.69 1.15
0 -29 4 0.46 1.17
1 -29 4 3.66 1.63
-2 -29 -4 1.83 1.18
2 -29 4 1.13 1.65
3 -30 -4 1.28 1.48
-3 -30 4 -3.24 1.35
-2 -30 4 5.86 1.39
2 -30 -4 6.54 1.44
1 -30 -4 1.79 1.24
-1 -30 4 2.38 1.35
0 -30 -4 2.09 1.19
0 -30 4 0.8 1.26
1 -30 4 1.98 1.65
3 -31 -4 2.07 1.64
-3 -31 4 0.42 1.65
-2 -31 4 7.29 1.64
2 -31 -4 5.12 1.49
1 -31 -4 -0.11 1.28
-1 -31 4 0.18 1.23
0 -31 -4 1.52 1.53
0 -31 4 1.77 1.49
1 -31 4 1.79 1.57
2 -32 -4 1.6 1.5
-2 -32 4 6.04 1.75
-1 -32 4 0.34 1.48
1 -32 -4 2.58 1.4
0 -32 4 -0.52 1.35
0 -32 4 2.2 1.5
-1 -33 4 0.42 1.5
1 -33 -4 2.97 1.51
6 0 -5 11.7 1.44
5 0 -5 19.53 1.5
-5 0 5 18.78 1.41
-4 0 5 13.96 1.12
4 0 -5 13.63 1.17
-3 0 5 0.56 0.48
3 0 -5 0.26 0.51
-3 0 5 1.51 0.57
2 0 -5 0.09 0.4
-1 0 5 20.53 1.07
1 0 -5 18.86 0.98
0 0 5 34.72 1.48
0 0 -5 34.32 1.36
1 0 5 11.58 1.06
-1 0 -5 11.41 0.93
-2 0 -5 0.16 0.61
2 0 5 1.16 0.72
3 0 5 -0.31 1
-3 0 -5 1.95 0.92
4 0 5 2.61 1.53
-4 0 -5 2.24 1.27
6 -1 -5 5.48 1.29
-5 -1 5 16.68 1.42
5 -1 -5 18.19 1.53
5 1 -5 20.08 1.49
-5 1 5 19.41 1.35
-4 -1 5 1.83 0.68
4 -1 -5 1.05 0.61
-4 1 5 2.21 0.66
4 1 -5 2.02 0.63
-3 -1 5 7.11 0.86
3 -1 -5 8.05 0.87
-3 1 5 7.16 0.81
3 1 -5 7.89 0.82
-3 1 5 7.52 0.82
2 -1 -5 0.14 0.4
2 1 -5 -0.18 0.42
-2 1 5 -0.27 0.47
1 -1 -5 11.81 0.8
-1 -1 5 11.06 0.87
1 1 -5 10.99 0.79
0 -1 -5 54.14 1.82
0 -1 5 54.25 1.97
0 1 -5 53.84 1.85
0 1 5 52.54 1.93
-1 -1 -5 7.22 0.79
1 -1 5 6.73 0.84
1 1 5 8.01 1
-1 1 -5 7.35 0.86
-2 -1 -5 -0.08 0.66
2 -1 5 1.43 0.8
-2 1 -5 -0.39 0.64
2 1 5 -0.32 0.66
3 -1 5 5.25 1.22
-3 -1 -5 3.36 0.93
-3 1 -5 4.61 0.97
3 1 5 5.94 1.22
-4 -1 -5 0.48 1.25
4 -1 5 0.82 1.43
-4 1 -5 1.76 1.19
4 1 5 0.02 1.41
6 -2 -5 11.34 1.42
6 2 -5 10.37 1.43
-5 -2 5 8.73 1.11
5 -2 -5 10.32 1.14
-5 2 5 7.96 0.98
5 2 -5 9.84 1.1
4 -2 -5 7.3 0.93
-4 -2 5 7.91 0.91
-4 2 5 6.63 0.75
4 2 -5 7.34 0.87
-3 -2 5 3.45 0.65
3 -2 -5 4.7 0.77
-3 2 5 4.67 0.59
-3 2 5 5.36 0.61
2 -2 -5 9.41 0.74
-2 2 5 8.9 0.78
2 2 -5 10.04 0.83
1 -2 -5 42.06 1.48
-1 -2 5 41.54 1.6
1 2 -5 43.54 1.56
0 -2 5 9.81 0.92
0 -2 -5 10.7 0.78
0 2 -5 8.87 0.8
0 2 5 8.99 0.86
1 -2 5 9.06 1.03
-1 -2 -5 6.71 0.82
1 2 5 7.28 0.87
-1 2 -5 7.09 0.85
2 -2 5 -0.47 0.72
-2 -2 -5 -0.09 0.57
-2 2 -5 0.17 0.59
2 2 5 0.71 0.71
3 -2 5 2.03 1.1
-3 -2 -5 -0.56 0.85
3 2 5 1.12 1.06
-3 2 -5 0.3 0.83
-4 -2 -5 3.99 1.25
4 -2 5 4.89 1.59
4 2 5 2.13 1.55
-4 2 -5 2.48 1.38
6 -3 -5 4.88 1.29
5 -3 -5 4.04 0.94
-5 -3 5 2.49 0.95
5 3 -5 4.16 0.95
4 -3 -5 6.05 0.88
-4 -3 5 6.29 0.87
-4 3 5 6.23 0.71
4 3 -5 5.51 0.8
-3 -3 5 2.46 0.63
3 -3 -5 3.25 0.66
-3 3 5 2.43 0.51
-3 3 5 2.44 0.52
2 -3 -5 0.02 0.45
2 -3 -5 0.1 0.4
2 3 -5 0.9 0.46
-2 3 5 -0.77 0.43
-1 -3 5 4.05 0.63
1 -3 -5 4.38 0.54
1 3 -5 3.13 0.55
0 -3 -5 34.64 1.34
0 -3 5 33.93 1.51
0 3 5 35.27 1.48
0 3 -5 32.18 1.38
1 -3 5 0.78 0.66
-1 -3 -5 1.75 0.56
1 3 5 1.32 0.64
-1 3 -5 1.54 0.56
2 -3 5 11.55 1.34
-2 -3 -5 9.42 1.05
-2 3 -5 10.48 1.11
2 3 5 11.72 1.18
-3 -3 -5 2.57 1
3 -3 5 2.79 1.17
3 3 5 3.41 1.1
-3 3 -5 4.14 0.92
-4 -3 -5 0.91 1.14
4 -3 5 2.78 1.51
-4 3 -5 1.52 1.13
4 3 5 2.45 1.51
-6 -4 5 0.69 1.79
6 -4 -5 0.94 1.18
-5 -4 5 3.05 0.93
5 -4 -5 0.7 0.93
5 4 -5 2.36 0.81
4 -4 -5 49.07 1.99
-4 -4 5 44.83 1.9
3 -4 -5 2.18 0.63
-3 -4 5 2.67 0.68
-3 4 5 2.46 0.5
-3 4 5 2.89 0.54
2 -4 -5 11.63 0.98
2 -4 -5 13.07 0.79
2 4 -5 14.26 0.95
-2 4 5 12.76 0.83
1 -4 -5 47.08 1.59
-1 -4 5 47.39 1.77
1 4 -5 48.8 1.73
0 -4 -5 33.86 1.35
0 -4 5 35.38 1.56
0 4 5 36.77 1.51
0 4 -5 35.68 1.44
-1 -4 -5 1.24 0.47
1 -4 5 0.96 0.58
1 4 5 0.85 0.61
-1 4 -5 0.56 0.54
2 -4 5 2.15 0.82
-2 -4 -5 1.53 0.65
2 4 5 1.87 0.77
-2 4 -5 1.65 0.92
3 -4 5 5.02 1.28
-3 -4 -5 2.19 0.94
3 4 5 3.6 1.07
-3 4 -5 5.42 1.11
-4 -4 -5 5.67 1.28
4 -4 5 9.33 1.7
4 4 5 8.62 1.67
-4 4 -5 7.36 1.36
6 -5 -5 0.65 1.23
-5 -5 5 3.1 1.01
-4 -5 5 12.64 1.21
4 -5 -5 13.86 1.21
-4 5 5 11.26 0.83
-3 -5 5 1.53 0.62
3 -5 -5 1.85 0.61
-3 5 5 2.63 0.47
-3 5 5 1.15 0.48
2 -5 -5 9.66 0.9
-2 -5 5 9.01 0.84
2 -5 -5 9.38 0.71
2 5 -5 6.79 0.85
-2 5 5 8.7 0.73
-1 -5 5 32.27 1.41
1 -5 -5 34.16 1.24
1 5 -5 31.3 1.38
-1 5 5 33.85 1.52
0 -5 -5 16.44 0.91
0 -5 5 15.32 1.1
0 5 5 17.43 1.07
0 5 -5 15.75 0.99
-1 -5 -5 0.29 0.5
1 -5 5 0.22 0.59
-1 5 -5 0.53 0.51
1 5 5 0.16 0.6
-2 -5 -5 6.41 0.89
2 -5 5 8.06 1.18
2 5 5 6.32 0.94
3 -5 5 1.87 1.22
-3 -5 -5 0.16 0.81
-3 5 -5 1.03 0.86
3 5 5 0.18 0.92
4 -5 5 3.53 1.52
-4 -5 -5 0.1 1.16
-4 5 -5 4.72 1.43
4 5 5 2.21 1.46
6 -6 -5 2.17 1.23
-6 -6 5 3.33 1.35
-5 -6 5 4.2 1.05
5 -6 -5 3.33 1.01
4 -6 -5 25.86 1.52
-4 -6 5 24.23 1.48
-4 6 5 25.46 0.96
-3 -6 5 16.44 1.15
3 -6 -5 16.57 1.16
-3 6 5 15.12 0.8
-3 6 5 16.15 0.78
-2 -6 5 1.31 0.48
2 -6 -5 1.12 0.45
2 -6 -5 1.13 0.49
2 6 -5 0.95 0.51
-2 6 5 0.34 0.45
1 -6 -5 18.05 0.87
-1 -6 5 17.91 1.06
-1 6 5 17.82 1.05
1 6 -5 17.26 1.06
0 -6 -5 5.93 0.64
0 -6 5 5.61 0.73
0 6 -5 5.64 0.74
0 6 5 5.62 0.74
1 -6 5 11.28 1.11
-1 -6 -5 7.99 0.85
1 6 5 8.13 0.96
-1 6 -5 9.94 0.95
-2 -6 -5 1.16 0.75
2 6 5 1.42 0.71
-2 6 -5 0.11 0.96
3 -6 5 -1.08 1.15
-3 -6 -5 0.22 0.83
3 6 5 0.22 0.95
-3 6 -5 -0.45 0.89
4 -6 5 3.84 1.64
-4 -6 -5 2.32 1.25
4 6 5 0.89 1.43
-4 6 -5 1.24 1.21
-6 -7 5 3.25 1.34
6 -7 -5 2.63 1.31
-5 -7 5 2.01 1.02
5 -7 -5 1.79 0.96
-4 -7 5 5.44 0.9
4 -7 -5 4.56 0.87
-3 -7 5 16.89 1.2
3 -7 -5 18.51 1.21
-3 7 5 16.78 0.75
-3 7 5 18.4 0.79
-2 -7 5 9.25 0.85
2 -7 -5 9.26 0.82
2 -7 -5 9.6 0.95
2 7 -5 9.31 0.93
-2 7 5 8.83 0.75
1 -7 -5 5.59 0.6
-1 -7 5 6.71 0.82
-1 7 5 5.09 0.69
1 7 -5 6.59 0.75
0 -7 -5 12.56 0.8
0 -7 5 10.09 0.99
0 7 -5 11.2 0.93
1 -7 5 0.64 0.61
-1 -7 -5 1.99 0.56
-1 7 -5 1.46 0.58
1 7 5 1.04 0.58
2 -7 5 0.04 1.24
-2 -7 -5 0.24 0.59
2 7 5 1.11 0.67
-2 7 -5 1.18 0.73
-3 -7 -5 3.25 0.98
3 -7 5 4.12 1.38
-3 7 -5 3.01 0.97
3 7 5 2.22 1.09
4 -7 5 -2.72 1.54
-4 -7 -5 0.81 1.27
-4 7 -5 2.95 1.37
4 7 5 0.88 1.56
-6 -8 5 1.99 1.36
6 -8 -5 3.17 1.36
-5 -8 5 -1.57 0.93
5 -8 -5 -0.16 0.91
4 -8 -5 4.88 0.93
-4 -8 5 3.56 0.86
-3 -8 5 2.33 0.69
3 -8 -5 2.22 0.67
-3 -8 5 3.13 0.61
2 -8 -5 3.35 0.65
-2 -8 5 3.43 0.64
2 -8 -5 4.12 0.49
-2 8 5 3.35 0.51
-1 -8 5 12.67 0.97
1 -8 -5 12.89 0.75
-1 8 5 12.24 0.97
1 8 -5 12.1 0.99
0 -8 -5 1.81 0.45
0 -8 5 0.14 0.5
0 8 -5 1.76 0.54
-1 -8 -5 4.82 0.68
1 -8 5 6.52 0.86
1 8 5 6.18 0.82
-1 8 -5 8.35 0.93
2 -8 5 1.44 0.9
-2 -8 -5 0.53 0.65
2 8 5 2.45 0.74
-2 8 -5 0.81 0.75
-3 -8 -5 0.26 0.93
3 -8 5 -0.81 1.18
3 8 5 0.32 0.96
-3 8 -5 -0.32 0.85
4 -8 5 1.3 1.75
-4 -8 -5 -1.91 1.19
4 8 5 2.6 1.66
-4 8 -5 0.65 1.28
6 -9 -5 2.75 1.36
-6 -9 5 1.33 1.37
-5 -9 5 1.26 1.1
5 -9 -5 2.25 1.1
-4 -9 5 3.8 0.7
4 -9 -5 3.72 0.95
-4 -9 5 4.91 0.96
-3 -9 5 9.89 0.92
-3 -9 5 9.99 1.09
3 -9 -5 11.39 1.15
-2 -9 5 5.64 0.71
2 -9 -5 5.5 0.56
2 -9 -5 4.46 0.72
-2 9 5 3.88 0.53
1 -9 -5 0.3 0.5
-1 -9 5 0.54 0.48
1 -9 -5 0.61 0.37
-1 9 5 1.31 0.62
1 9 -5 -0.3 0.46
0 -9 -5 12.34 0.82
0 -9 5 14.82 1.12
0 9 -5 13.4 1.03
-1 -9 -5 0.38 0.49
1 -9 5 0.23 0.67
1 9 5 1.42 0.58
-1 9 -5 0.09 0.6
2 -9 5 4.45 1.11
-2 -9 -5 5.33 1.06
2 9 5 4.84 0.84
-2 9 -5 3.26 0.84
3 -9 5 2.66 1.31
-3 -9 -5 2.97 1.01
-3 9 -5 3.4 1.21
3 9 5 2.99 1.12
-4 -9 -5 3.83 1.24
4 -9 5 5.71 1.93
-4 9 -5 2.44 1.28
6 -10 -5 1.46 1.46
-6 -10 5 -1.35 1.32
5 -10 -5 3.64 1.19
-5 -10 5 1.58 1.43
-4 -10 5 1.88 0.63
4 -10 -5 3.65 1.11
-4 -10 5 3.46 0.91
-3 -10 5 3.14 0.59
-3 -10 5 1.88 0.72
3 -10 -5 2.6 0.7
2 -10 -5 12.15 0.65
2 -10 -5 10.22 1.05
-2 -10 5 10.67 0.93
-2 10 5 9.41 0.74
1 -10 -5 1.66 0.58
1 -10 -5 0.08 0.36
-1 -10 5 0.54 0.54
1 10 -5 -0.59 0.52
-1 10 5 0.72 0.63
0 -10 5 8.85 1.01
0 -10 -5 6.56 0.7
0 10 -5 8.9 0.92
-1 -10 -5 4.35 0.68
1 -10 5 4.94 0.98
-1 10 -5 2.83 0.74
1 10 5 4.38 0.76
2 -10 5 2.34 1.07
2 10 5 2.59 0.77
-2 10 -5 1.74 0.75
-3 -10 -5 0.97 0.99
3 -10 5 2.25 1.29
-3 10 -5 2.27 1.07
3 10 5 2.23 1.16
-4 -10 -5 7.14 1.4
4 -10 5 5.45 1.93
-4 10 -5 7.05 1.8
6 -11 -5 2 1.44
-6 -11 5 0.92 1.42
5 -11 -5 2.64 1.13
-5 -11 5 1.05 1.12
4 -11 -5 1.81 0.94
-4 -11 5 0.28 0.85
-4 -11 5 0.86 0.59
-3 -11 5 0.25 0.67
3 -11 -5 2.41 0.73
-3 -11 5 2.45 0.58
2 -11 -5 2.4 0.68
-2 -11 5 3.77 0.66
2 -11 -5 4.24 0.52
-2 11 5 2.52 0.46
1 -11 -5 1.26 0.6
1 -11 -5 0.81 0.38
-1 -11 5 0.53 0.55
1 11 -5 0.72 0.59
-1 11 5 1.61 0.66
0 -11 -5 11.39 0.81
0 -11 5 11.45 1.11
0 11 -5 12.14 1.07
1 -11 5 2.25 0.82
-1 -11 -5 1.2 0.54
1 11 5 2.17 0.65
-1 11 -5 1.46 0.63
-2 -11 -5 0.76 0.92
2 -11 5 -0.35 0.97
2 11 5 0.62 0.67
-2 11 -5 1.05 0.74
-3 -11 -5 5.31 1.14
3 -11 5 2.98 1.37
-3 11 -5 2.43 1.09
3 11 5 4.15 1.56
-4 -11 -5 2.11 1.33
4 -11 5 -2.05 1.8
-4 11 -5 1.39 1.38
-6 -12 5 1.07 1.53
6 -12 -5 1.79 1.54
-5 -12 5 9.78 1.41
5 -12 -5 6.2 1.3
4 -12 -5 12.56 1.45
-4 -12 5 10.32 1.02
-4 -12 5 10.57 1.23
3 -12 -5 3.58 0.83
-3 -12 5 1.04 0.57
-3 -12 5 2.35 0.81
2 -12 -5 1.63 0.66
2 -12 -5 3.07 0.38
-2 -12 5 3.06 0.67
-2 12 5 2.32 0.5
1 -12 -5 9.09 0.98
1 -12 -5 8.66 0.66
-1 -12 5 8.74 1.01
1 12 -5 8.17 1.02
-1 12 5 7.47 0.8
0 -12 -5 2.15 0.51
0 -12 5 1.99 0.67
0 12 -5 2.42 0.69
-1 -12 -5 1.35 0.58
1 -12 5 1.15 0.73
-1 12 -5 2.22 0.72
1 12 5 1.1 0.62
-2 -12 -5 0.84 0.73
2 -12 5 -1.55 1.01
2 12 5 0.99 0.7
-2 12 -5 -0.07 0.83
3 -12 5 12.62 1.83
-3 -12 -5 13.99 1.56
-3 12 -5 14.95 1.69
3 12 5 10.77 1.86
-4 -12 -5 6.3 1.75
4 -12 5 -3.47 1.95
-4 12 -5 4.46 1.49
-6 -13 5 0.34 1.49
6 -13 -5 1.77 1.57
5 -13 -5 0.63 1.13
-5 -13 5 0.7 1.14
4 -13 -5 4.27 1.08
-4 -13 5 2.58 1.04
-4 -13 5 4.42 0.74
3 -13 -5 3.19 0.79
-3 -13 5 1.54 0.72
-3 -13 5 1.9 0.64
2 -13 -5 5.57 0.91
-2 -13 5 5.76 0.8
1 -13 -5 1.7 0.63
-1 -13 5 1.58 0.62
-1 13 5 2.09 0.71
1 13 -5 0.65 0.63
0 -13 5 3.86 0.76
0 -13 -5 3.91 0.58
0 13 -5 6.28 0.93
-1 -13 -5 -0.21 0.52
1 -13 5 1.95 0.84
-1 13 -5 1.39 0.78
1 13 5 0.34 0.57
2 -13 5 4.31 1.2
-2 -13 -5 1.59 0.75
2 13 5 3.42 0.86
-2 13 -5 2.51 0.98
3 -13 5 3.02 1.56
-3 -13 -5 3.82 1.03
-3 13 -5 4.55 1.34
-6 -14 5 0.16 1.57
6 -14 -5 -0.72 1.61
-5 -14 5 4.01 1.33
5 -14 -5 3.02 1.36
-4 -14 5 4.78 0.75
4 -14 -5 4.69 1.1
-4 -14 5 3.44 1.1
3 -14 -5 1.82 0.77
-3 -14 5 0.17 0.76
-3 -14 5 1.43 0.61
-2 -14 5 13.09 1.12
2 -14 -5 12.31 1.2
1 -14 -5 1.6 0.42
1 -14 -5 1.97 0.63
-1 -14 5 2.2 0.71
1 14 -5 3.61 0.77
0 -14 -5 4.94 0.63
0 -14 5 4.57 0.84
0 14 -5 5.38 0.85
-1 -14 -5 2.34 0.61
1 14 5 2.39 0.63
-1 14 -5 2.19 1.17
-2 -14 -5 0.46 0.75
2 -14 5 2.64 1.2
-2 14 -5 3.19 1
2 14 5 2.36 0.76
-3 -14 -5 2.03 1.01
3 -14 5 1.95 1.5
-3 14 -5 2.65 1.27
-6 -15 5 -0.24 2.46
6 -15 -5 -0.76 1.64
5 -15 -5 1.24 1.28
-5 -15 5 5.49 1.36
-4 -15 5 1.6 0.82
-4 -15 5 2.44 1.07
4 -15 -5 0.61 0.98
-3 -15 5 0.29 0.62
-3 -15 5 1.14 0.79
2 -15 -5 1.28 0.67
-2 -15 5 1.93 0.68
1 -15 -5 1.64 0.43
1 -15 -5 1.34 0.66
-1 -15 5 1.79 0.7
1 15 -5 2.15 0.8
0 -15 -5 1.91 0.52
0 -15 5 3.82 0.97
0 15 -5 2.78 0.76
-1 -15 -5 3.23 0.65
1 -15 5 4.8 1.19
-1 15 -5 4.13 0.94
1 15 5 4.99 0.8
2 -15 5 1.78 1.16
-2 -15 -5 2.02 0.81
2 15 5 3.09 0.84
-2 15 -5 0.98 0.95
3 -15 5 9 1.75
-3 -15 -5 10.27 1.41
-3 15 -5 7.36 1.43
-5 -16 5 1.11 1.29
5 -16 -5 0.14 1.35
4 -16 -5 0.94 1.07
-4 -16 5 3.06 1.04
-3 -16 5 0.51 1.28
3 -16 -5 0.98 0.83
-3 -16 5 0.86 0.65
-2 -16 5 3.12 0.74
2 -16 -5 5.67 0.94
1 -16 -5 0.49 0.41
1 -16 -5 -0.64 0.63
-1 -16 5 0.73 0.66
1 16 -5 -0.26 0.64
0 -16 -5 1.51 0.51
0 -16 5 2.43 0.92
0 16 -5 2.26 0.82
1 -16 5 10.06 1.32
-1 -16 -5 9 1
-1 16 -5 10.4 1.19
1 16 5 11.46 1.13
-2 -16 -5 5.4 0.97
2 -16 5 7.25 1.5
-2 16 -5 5.87 1.15
2 16 5 5.09 0.91
3 -16 5 0.3 1.64
-3 -16 -5 3.17 1.07
-3 16 -5 3.05 1.27
-5 -17 5 1.79 1.36
5 -17 -5 1.75 1.44
-4 -17 5 5.14 1.23
4 -17 -5 2.53 1.11
-3 -17 5 0.85 0.68
-3 -17 5 3.02 0.98
3 -17 -5 3.32 0.93
-2 -17 5 0.91 0.66
2 -17 -5 1.07 0.77
1 -17 -5 2.55 0.47
-1 -17 5 2.88 0.83
1 -17 -5 1.69 0.69
1 17 -5 3.88 0.88
0 -17 -5 4.94 0.65
0 -17 5 8.51 1.17
-1 -17 -5 3.22 0.73
1 -17 5 3.5 1.16
-1 17 -5 4.4 0.97
1 17 5 3.68 0.75
2 -17 5 1.99 1.27
-2 -17 -5 0.57 0.83
2 17 5 1.03 0.83
-2 17 -5 1.4 1.01
-3 -17 -5 1.82 1.1
3 -17 5 0.8 1.69
-3 17 -5 2.11 1.43
-5 -18 5 1.09 1.39
5 -18 -5 -0.49 1.39
-4 -18 5 1.85 1.11
4 -18 -5 0.81 1.04
3 -18 -5 10.91 1.31
-3 -18 5 11.89 1.39
-3 -18 5 9.53 0.97
2 -18 -5 3.52 1.31
-2 -18 5 4.36 0.83
1 -18 -5 1.56 0.78
1 -18 -5 1.52 0.46
-1 -18 5 1.6 0.86
0 -18 -5 -0.04 0.53
0 -18 5 2.78 0.94
0 18 -5 0.35 0.77
1 -18 5 5.03 1.18
-1 -18 -5 5.63 0.81
1 18 5 4.14 0.87
-1 18 -5 4.91 1.11
-2 -18 -5 0.99 0.84
2 -18 5 0.73 1.32
2 18 5 -0.4 0.78
-2 18 -5 -0.08 1.13
-3 -18 -5 -1.66 1.04
3 -18 5 -0.28 1.6
-3 18 -5 1.43 1.59
5 -19 -5 -2.44 1.38
-5 -19 5 2.77 1.5
-4 -19 5 1.09 1.1
4 -19 -5 1.34 1.15
3 -19 -5 -0.73 0.98
-3 -19 5 0.19 0.91
-3 -19 5 0.1 0.72
-2 -19 5 1.37 0.81
2 -19 -5 1.15 0.86
1 -19 -5 9.43 1.1
-1 -19 5 7.04 1.05
1 -19 -5 8.47 0.75
0 -19 -5 9.7 0.92
0 -19 5 11 1.32
0 19 -5 11.19 1.32
-1 -19 -5 0.83 0.68
1 -19 5 -1.56 1.01
1 19 5 0.19 0.69
-1 19 -5 -0.59 0.98
2 -19 5 7.65 1.64
-2 -19 -5 9.7 1.2
-2 19 -5 12.28 1.57
2 19 5 7.47 1.05
-3 -19 -5 -0.7 1.14
3 -19 5 1.64 1.84
-3 19 -5 0.68 1.67
5 -20 -5 0.75 1.54
-5 -20 5 3.95 1.59
4 -20 -5 2.71 1.27
-4 -20 5 4.89 1.33
3 -20 -5 3.66 1.15
-3 -20 5 3.5 0.84
-3 -20 5 1.98 1.04
-2 -20 5 3.6 0.96
2 -20 -5 1.81 0.97
-1 -20 5 0.93 0.86
1 -20 -5 0.14 0.8
0 -20 -5 0.56 0.59
0 20 -5 0.99 0.93
-1 -20 -5 2.01 0.76
1 -20 5 1 1.22
-1 20 -5 2.05 1.09
1 20 5 1.42 0.75
-2 -20 -5 2.71 0.99
2 -20 5 -1.76 1.44
2 20 5 0.75 0.92
-2 20 -5 1.73 1.44
3 -20 5 -1.41 1.95
-3 -20 -5 1.56 1.2
-3 20 -5 -2.11 1.37
5 -21 -5 0.85 1.63
-5 -21 5 3.18 1.61
4 -21 -5 8.18 1.5
-3 -21 5 9.4 1.44
3 -21 -5 6.92 1.33
2 -21 -5 -0.97 0.85
-2 -21 5 0.44 0.84
1 -21 -5 2.02 1.25
-1 -21 5 2.32 1.01
0 -21 5 -1.09 1.09
0 -21 -5 0.12 0.59
0 21 -5 0.77 0.98
-1 -21 -5 0.68 0.78
1 -21 5 0.79 1.26
-1 21 -5 0.85 1.08
1 21 5 2.55 0.87
-2 -21 -5 3.22 1.01
2 -21 5 2.28 1.6
-2 21 -5 2.17 1.31
-5 -22 5 2.91 1.69
5 -22 -5 -0.87 1.79
4 -22 -5 2.89 1.36
-4 -22 5 2.47 1.44
3 -22 -5 1.49 1.17
-3 -22 5 3.91 1.26
-2 -22 5 2.3 0.9
2 -22 -5 1.48 0.99
-2 -22 5 2.09 1.09
1 -22 -5 6.88 1.15
-1 -22 5 7.34 1.27
0 -22 5 1.27 1.13
0 -22 -5 1.3 0.64
0 22 -5 1.2 1.01
1 -22 5 2.82 1.44
-1 -22 -5 3.42 1
1 22 5 2.33 1.04
-1 22 -5 1.72 1.11
2 -22 5 -0.55 1.54
-2 -22 -5 1.46 1.01
-2 22 -5 1.42 1.39
4 -23 -5 -0.83 1.32
-4 -23 5 0.54 1.43
3 -23 -5 1.37 1.24
-3 -23 5 1.55 1.18
-2 -23 5 0.1 0.96
-2 -23 5 1.5 1.13
2 -23 -5 0.46 0.97
1 -23 -5 0.63 0.98
-1 -23 5 1.1 1.1
0 -23 -5 0.45 0.69
0 -23 5 1.47 1.17
0 23 -5 0.82 1.04
-1 -23 -5 4.17 1.56
1 -23 5 4.11 1.47
-1 23 -5 4.19 1.4
-2 -23 -5 3.18 1.13
2 -23 5 3.66 1.81
-2 23 -5 2.48 1.46
-4 -24 5 -0.18 1.42
4 -24 -5 2.29 1.4
-3 -24 5 -0.72 1.13
3 -24 -5 1.6 1.31
-2 -24 5 1.22 1.1
2 -24 -5 2.91 1.15
-2 -24 5 1.62 1.02
1 -24 -5 16.77 1.73
-1 -24 5 16.66 1.87
0 -24 5 0.34 1.25
-1 -24 -5 2.35 0.95
1 -24 5 2.31 1.47
-1 24 -5 0.56 1.31
1 24 5 2.83 0.92
-2 -24 -5 -0.17 1.11
2 -24 5 1.32 1.68
-2 24 -5 0.12 1.61
-4 -25 5 0.1 1.48
4 -25 -5 0.58 1.48
-3 -25 5 3.48 1.36
3 -25 -5 1.88 1.36
2 -25 -5 0.4 1.1
-2 -25 5 -0.29 1.08
1 -25 -5 5.88 1.23
0 -25 5 -0.74 1.2
1 -25 5 4.68 1.7
-1 -25 -5 2.85 1
-1 25 -5 2.33 1.43
1 25 5 3.07 1.08
2 -25 5 4.63 2
-2 -25 -5 0.22 1.14
-2 25 -5 2.65 1.84
4 -26 -5 3.45 1.72
-4 -26 5 0.78 1.56
3 -26 -5 -0.49 1.32
-3 -26 5 1.46 1.36
2 -26 -5 4.86 1.32
-2 -26 5 3.61 1.22
-1 -26 5 1.8 1.2
1 -26 -5 3.2 1.23
0 -26 5 -0.73 1.27
1 -26 5 1.7 1.61
-1 26 -5 0.58 1.32
3 -27 -5 4.62 1.49
-3 -27 5 6.37 1.57
2 -27 -5 8.18 1.5
-2 -27 5 4.93 1.29
1 -27 -5 1.3 1.25
-1 -27 5 1.75 1.49
0 -27 5 3.88 1.57
1 -27 5 1.41 1.66
3 -28 -5 -0.14 1.54
-3 -28 5 0.72 1.41
2 -28 -5 7.44 1.51
-2 -28 5 7.15 1.61
1 -28 -5 0.87 1.31
-1 -28 5 0.04 1.38
0 -28 5 3.76 1.62
1 -28 5 4.91 1.89
-3 -29 5 4.46 2.34
3 -29 -5 1.42 1.58
-2 -29 5 4.12 1.67
2 -29 -5 1.24 1.45
-1 -29 5 -0.96 1.25
1 -29 -5 1.48 1.4
0 -29 5 0.04 1.82
-2 -30 5 0.4 1.5
2 -30 -5 3.17 1.57
-1 -30 5 1.71 1.57
1 -30 -5 5.19 1.58
0 -30 5 1.13 1.61
6 0 -6 3.54 2.36
5 0 -6 3.44 1.11
-4 0 6 -0.43 0.78
2 0 -6 -0.72 0.58
1 0 -6 39.14 1.64
0 0 -6 21.23 1.27
0 0 6 21.93 1.44
-1 0 -6 0 1.03
1 0 6 1.46 0.85
2 0 6 1.69 1.12
-2 0 -6 1.24 0.9
-3 0 -6 4.11 1.34
3 0 6 0.91 1.44
6 -1 -6 8.27 1.58
6 1 -6 5.65 1.61
5 -1 -6 8 1.31
5 1 -6 8.92 1.36
-4 -1 6 5.8 0.98
4 -1 -6 5.39 0.97
-4 1 6 5.18 0.91
2 -1 -6 2.86 0.65
2 1 -6 1.83 0.66
1 -1 -6 12.31 1.02
-1 -1 6 11.06 1.11
1 1 -6 11.66 1.05
-1 1 6 12.08 1.11
0 -1 -6 1.35 0.6
0 -1 6 2.3 0.76
0 1 6 2.38 0.77
0 1 -6 3.36 0.7
-1 -1 -6 2.54 0.8
1 -1 6 2.7 0.94
1 1 6 2.94 0.89
-2 -1 -6 0.67 0.83
2 -1 6 1.18 1.15
-2 1 -6 2.38 1.03
2 1 6 0.1 1.03
3 -1 6 5.96 1.66
-3 -1 -6 4.73 1.28
-3 1 -6 3.96 1.22
3 1 6 7.59 1.54
6 -2 -6 6.05 1.61
5 -2 -6 1.77 1.09
-5 -2 6 0.21 1.04
4 -2 -6 2.79 0.93
-4 -2 6 0.59 0.85
-4 2 6 -0.35 0.74
-2 -2 6 14.05 1.21
2 -2 -6 15.75 1.1
2 2 -6 15.62 1.18
-1 -2 6 17.28 1.26
1 -2 -6 20.15 1.17
-1 2 6 17.86 1.24
1 2 -6 19.88 1.21
0 -2 6 12.56 1.23
0 -2 -6 12.54 1.06
0 2 6 15.14 1.27
0 2 -6 14.74 1.15
1 -2 6 0.76 0.87
-1 -2 -6 1.74 0.8
-1 2 -6 1.24 1.23
1 2 6 1.21 0.93
2 -2 6 3.9 1.21
-2 -2 -6 2.06 0.99
2 2 6 2.86 1.12
-2 2 -6 3.58 0.88
-3 -2 -6 0.66 1.1
3 -2 6 1.59 1.5
-3 2 -6 1.02 1.18
3 2 6 1.77 1.37
6 -3 -6 1.43 1.47
-5 -3 6 2.24 1.12
5 -3 -6 5.87 1.21
-4 -3 6 11.87 1.2
4 -3 -6 10.44 1.59
-4 3 6 11.32 1.14
3 -3 -6 2.08 0.81
2 -3 -6 18.11 1.14
-2 -3 6 19.22 1.3
2 3 -6 17.41 1.27
1 -3 -6 8.5 0.92
-1 -3 6 5.59 0.82
-1 3 6 6.86 0.89
1 3 -6 7.38 0.87
0 -3 -6 7.77 0.94
0 -3 6 6.34 0.95
0 3 -6 8.32 0.95
0 3 6 5.49 0.86
1 -3 6 1.82 0.91
-1 -3 -6 0.17 0.67
-1 3 -6 0.01 0.75
1 3 6 2.3 1.05
2 -3 6 5.86 1.34
-2 -3 -6 6.61 1.08
2 3 6 4.13 1.13
-2 3 -6 2.37 0.93
-3 -3 -6 0.94 1.09
3 -3 6 2.46 1.58
-3 3 -6 3.97 1.38
3 3 6 3.52 1.45
6 -4 -6 6.09 1.58
-5 -4 6 2.96 1.16
5 -4 -6 3.65 1.23
4 -4 -6 0.45 1.19
-4 -4 6 0.85 0.87
3 -4 -6 2.47 0.79
-2 -4 6 5.2 0.84
2 -4 -6 4.69 0.71
2 4 -6 6.53 0.9
-1 -4 6 2.28 0.67
1 -4 -6 3.19 0.65
1 4 -6 1.95 0.71
0 -4 -6 5.25 0.75
0 -4 6 6.52 1
0 4 -6 5.52 0.83
0 4 6 5.74 0.95
1 -4 6 5.87 1.16
-1 -4 -6 5.76 0.85
-1 4 -6 4.64 0.87
1 4 6 4.94 1.07
2 -4 6 5.83 1.27
-2 -4 -6 5.18 1
2 4 6 4.54 1.16
-2 4 -6 4.55 1.12
-3 -4 -6 0.79 1.08
3 -4 6 7.58 1.79
-3 4 -6 1.82 1.25
3 4 6 1.37 1.44
6 -5 -6 -0.94 1.48
-5 -5 6 3.35 1.17
5 -5 -6 2.19 1.13
4 -5 -6 3.45 0.98
-4 -5 6 5.09 1.02
3 -5 -6 0.28 0.7
-3 -5 6 -0.36 0.65
2 -5 -6 3.69 0.68
-2 -5 6 3.75 0.79
2 5 -6 4.24 0.82
-1 -5 6 1.62 0.64
1 -5 -6 2.34 0.62
1 5 -6 3.21 0.76
0 -5 6 2.22 0.81
0 -5 -6 1.02 0.61
0 5 6 2.11 0.73
0 5 -6 2.05 0.72
1 -5 6 2.99 0.99
-1 -5 -6 5.64 0.89
-1 5 -6 4.89 0.94
1 5 6 4.95 0.99
2 -5 6 4.1 1.22
-2 -5 -6 1.86 0.87
-2 5 -6 2.31 0.95
2 5 6 3.48 1.13
3 -5 6 9.09 1.82
-3 -5 -6 4.57 1.24
3 5 6 6.76 1.46
-3 5 -6 4.27 1.3
6 -6 -6 -1.52 1.51
5 -6 -6 -0.74 1.09
-5 -6 6 1.71 1.16
-4 -6 6 4.13 1
4 -6 -6 3.36 1
3 -6 -6 10.31 1.24
-3 -6 6 9.45 1.03
-2 -6 6 16.05 1.21
2 -6 -6 15.94 1.04
2 6 -6 14.82 1.24
-1 -6 6 16.59 1.3
1 -6 -6 15.36 1.05
1 6 -6 14.5 1.24
0 -6 6 5.57 0.9
0 -6 -6 6.43 0.78
0 6 6 5.59 0.83
0 6 -6 5.82 0.86
1 -6 6 2.1 1.05
-1 -6 -6 1.35 0.7
1 6 6 1.27 0.9
-1 6 -6 0.31 0.71
2 -6 6 2.86 1.31
-2 -6 -6 3.01 0.9
2 6 6 3.77 1.08
-2 6 -6 2.64 1.04
3 -6 6 1.82 1.62
-3 -6 -6 3.1 1.15
-3 6 -6 2.48 1.36
3 6 6 2.01 1.39
6 -7 -6 1.85 1.59
5 -7 -6 1.09 1.13
-5 -7 6 4.32 1.85
-4 -7 6 6.4 1.09
4 -7 -6 5.71 1.16
-4 -7 6 5.58 1
-3 -7 6 4.58 0.83
3 -7 -6 5.78 1.06
-2 -7 6 3.44 0.76
2 -7 -6 4.02 0.67
2 7 -6 4.25 0.81
-1 -7 6 2.69 0.76
1 -7 -6 2.29 0.62
1 7 -6 1.98 0.74
0 -7 -6 2.15 0.63
0 -7 6 0.48 0.73
0 7 -6 2.55 0.78
0 7 6 1.17 0.66
1 -7 6 1.65 0.91
-1 -7 -6 0.95 0.67
1 7 6 1.48 0.81
-1 7 -6 3.01 0.91
-2 -7 -6 1.17 0.87
2 -7 6 1.31 1.29
-2 7 -6 2.77 1
2 7 6 3.39 1.1
-3 -7 -6 1.72 1.16
3 -7 6 2.94 1.74
3 7 6 0.12 1.35
-3 7 -6 1.75 1.16
6 -8 -6 1.51 1.59
-5 -8 6 0.98 1.01
-5 -8 6 3.44 1.3
5 -8 -6 1.04 1.17
4 -8 -6 1.37 0.99
-4 -8 6 0.87 0.88
-4 -8 6 0.4 0.94
-3 -8 6 11.86 1.2
-3 8 6 12.15 0.96
2 -8 -6 10.26 0.93
-2 -8 6 12.31 1.2
2 8 -6 11.49 1.23
1 -8 -6 9.63 0.93
-1 -8 6 9.22 1.01
1 8 -6 12.23 1.18
0 -8 -6 5.48 0.77
0 -8 6 6.35 1.17
0 8 6 5.75 0.91
0 8 -6 6.42 0.94
1 -8 6 6.01 1.2
-1 -8 -6 2.46 0.74
-1 8 -6 2.63 0.87
1 8 6 1.51 0.79
-2 -8 -6 8.24 1.14
2 -8 6 10.67 1.52
-2 8 -6 8.91 1.33
2 8 6 6.98 1.18
-3 -8 -6 -0.25 1.12
3 -8 6 1.51 1.71
-3 8 -6 -0.42 1.35
3 8 6 0.45 1.41
6 -9 -6 2.51 1.66
-5 -9 6 3.51 1.31
5 -9 -6 2.25 1.27
-4 -9 6 10.63 1.27
4 -9 -6 11.71 1.39
-4 -9 6 11.42 1.36
-3 -9 6 1.13 0.7
3 -9 -6 1.11 0.92
2 -9 -6 32.67 1.79
-2 -9 6 34.44 1.68
2 -9 -6 34.81 1.38
2 9 -6 33.08 1.73
1 -9 -6 9.75 0.92
-1 -9 6 8.19 0.97
1 9 -6 8.6 1.03
0 -9 -6 -0.08 0.57
0 9 6 0.51 0.7
0 9 -6 1.09 0.92
-1 -9 -6 4 0.84
1 -9 6 3.44 1.07
1 9 6 4.73 0.94
-1 9 -6 6.13 1.08
2 -9 6 0.64 1.34
-2 -9 -6 1.82 0.91
2 9 6 1.38 0.99
-2 9 -6 2.1 1.07
3 -9 6 -1.76 1.67
-3 -9 -6 -0.7 1.15
-3 9 -6 2.66 1.23
3 9 6 -1.21 1.34
-6 -10 6 4.49 1.71
6 -10 -6 0.97 1.62
-5 -10 6 1.63 1.29
5 -10 -6 -0.52 1.22
-4 -10 6 3.45 0.87
4 -10 -6 5.35 1.18
-3 -10 6 2.43 0.8
3 -10 -6 3.65 1
2 -10 -6 4.16 0.92
2 -10 -6 4.68 0.65
-2 -10 6 3.49 0.82
-1 -10 6 1.86 0.78
1 -10 -6 1.94 0.61
1 10 -6 1.85 0.78
0 -10 -6 1.28 0.62
0 10 6 1.96 0.81
0 10 -6 -0.2 1.03
-1 -10 -6 0.7 0.79
1 -10 6 1.16 1.11
-1 10 -6 3 0.96
1 10 6 1.62 0.86
2 -10 6 -2.25 1.37
-2 -10 -6 0.95 0.89
2 10 6 0.76 0.98
-2 10 -6 -0.54 1.07
3 -10 6 3.39 1.91
-3 -10 -6 5.48 1.3
-3 10 -6 5.1 1.47
3 10 6 1.55 1.43
5 -11 -6 3.5 1.39
-5 -11 6 3.65 1.4
-4 -11 6 11.48 1.36
-4 -11 6 8.55 1.08
4 -11 -6 10.6 1.33
-3 -11 6 2.93 0.87
3 -11 -6 1.94 1.01
-2 -11 6 4.57 0.86
2 -11 -6 3.37 0.64
1 -11 -6 1.3 0.59
-1 -11 6 1.49 0.84
1 11 -6 1.74 0.87
0 -11 6 0.94 0.84
0 -11 -6 0.76 0.6
0 11 -6 0.49 0.79
0 11 6 0.81 1.06
1 -11 6 1.62 1.14
-1 -11 -6 1.19 1.14
1 11 6 0.11 0.82
-1 11 -6 1.11 0.95
-2 -11 -6 1.12 0.94
2 -11 6 0.69 1.35
2 11 6 0.89 0.95
-2 11 -6 2.49 1.17
-3 -11 -6 3.57 1.37
3 -11 6 3.69 1.88
-3 11 -6 2.18 1.36
3 11 6 2.58 1.41
-5 -12 6 6.45 1.5
5 -12 -6 3.78 1.37
-4 -12 6 1.72 0.83
-4 -12 6 2.06 1.11
4 -12 -6 1.79 1.12
3 -12 -6 3.52 0.99
-3 -12 6 4.29 0.9
2 -12 -6 6.6 1.05
-2 -12 6 6.58 0.95
1 -12 -6 1.54 0.6
-1 -12 6 2.49 0.89
1 12 -6 4.37 1.22
0 -12 -6 7.95 0.86
0 -12 6 7.17 1.08
0 12 6 7.86 1.51
0 12 -6 7.53 1.12
1 -12 6 4.95 1.21
-1 12 -6 3.9 1.03
1 12 6 2.33 0.94
-2 -12 -6 0.92 0.94
2 -12 6 1.38 1.48
-2 12 -6 1.69 1.12
2 12 6 2.84 1.09
-3 -12 -6 3.87 1.41
3 -12 6 2.19 1.82
-3 12 -6 3.27 1.8
3 12 6 -0.2 1.43
5 -13 -6 4.81 1.72
-5 -13 6 7.61 1.59
-4 -13 6 2.92 1.17
-4 -13 6 2.34 0.9
4 -13 -6 2.73 1.15
-3 -13 6 13.66 1.61
3 -13 -6 17.12 1.65
-3 -13 6 15.78 1.45
-2 -13 6 1.81 0.86
2 -13 -6 0.44 0.88
-1 -13 6 -0.51 0.78
1 -13 -6 0.04 0.56
1 13 -6 0.73 1
0 -13 -6 0.47 0.6
0 -13 6 0.94 0.91
0 13 6 -0.31 0.75
0 13 -6 0.72 0.93
1 -13 6 1.76 1.21
-1 -13 -6 -0.32 1.36
-1 13 -6 0.97 0.93
1 13 6 -0.15 0.81
2 -13 6 1.14 1.59
-2 -13 -6 2.09 1.01
2 13 6 1.99 1.01
-2 13 -6 1.24 1.28
-3 -13 -6 1.53 1.35
3 -13 6 2.64 2.97
5 -14 -6 5.25 1.53
-5 -14 6 6.7 1.62
-4 -14 6 1.68 1.17
-4 -14 6 2.4 0.92
4 -14 -6 1.8 1.19
-3 -14 6 1.63 0.87
3 -14 -6 0.9 1
-3 -14 6 2.73 1.1
2 -14 -6 1.56 0.88
-2 -14 6 1.05 0.81
1 -14 -6 2 0.6
-1 -14 6 2.12 0.89
1 14 -6 2.65 0.98
0 -14 -6 2.99 0.69
0 -14 6 3.41 1.12
0 14 -6 3.31 0.98
1 -14 6 -0.09 1.27
-1 -14 -6 1.72 0.94
1 14 6 1.91 0.89
-1 14 -6 2.22 1.08
-2 -14 -6 3.87 1.14
2 -14 6 3.05 1.48
-2 14 -6 4.8 1.29
2 14 6 4.27 1.13
-5 -15 6 0.69 1.47
5 -15 -6 -0.24 1.44
4 -15 -6 5.41 1.32
-4 -15 6 3.58 1.21
-3 -15 6 -0.83 0.89
-3 -15 6 1.14 0.84
3 -15 -6 2.03 1
2 -15 -6 2.47 0.95
-2 -15 6 0.84 0.84
1 -15 -6 -0.5 0.59
-1 -15 6 0.75 0.89
1 15 -6 1.59 0.98
0 -15 6 4.59 1.14
0 -15 -6 1.62 0.66
0 15 -6 0.85 0.95
1 -15 6 -0.13 1.25
-1 -15 -6 1.17 0.85
1 15 6 1.93 0.91
-1 15 -6 0.58 1.01
-2 -15 -6 5.1 1.14
2 -15 6 4.09 1.72
-2 15 -6 5.26 1.46
2 15 6 3.98 1.16
5 -16 -6 2.41 1.52
-5 -16 6 3.75 1.62
-4 -16 6 3.81 1.3
4 -16 -6 4.33 1.33
-3 -16 6 0.52 1
-3 -16 6 1.21 0.9
3 -16 -6 0.62 1.08
-2 -16 6 2.07 0.93
2 -16 -6 1.46 0.95
1 -16 -6 -0.03 0.61
1 16 -6 1.4 0.95
0 -16 6 1.8 1.14
0 -16 -6 2.36 0.71
0 16 -6 3.91 1.06
1 -16 6 1.6 1.41
-1 -16 -6 0.92 0.84
1 16 6 1.98 0.93
-1 16 -6 2.81 1.22
2 -16 6 5.85 1.8
-2 -16 -6 6.84 1.26
2 16 6 8.34 1.36
-2 16 -6 5.19 1.44
-5 -17 6 4.42 1.63
5 -17 -6 3.56 1.64
4 -17 -6 6.85 1.39
-4 -17 6 6.73 1.44
3 -17 -6 1.11 1.12
-3 -17 6 2.66 0.99
-3 -17 6 4.64 1.24
-2 -17 6 -0.96 0.9
2 -17 -6 1.9 1
-1 -17 6 6.19 1.31
1 17 -6 2.98 1.08
0 -17 -6 4.21 0.76
0 -17 6 4.65 1.32
0 17 -6 5.72 1.21
1 -17 6 0.88 1.44
-1 -17 -6 1.2 0.94
-1 17 -6 2.42 1.19
1 17 6 2.04 0.91
-2 -17 -6 0.7 1.08
2 -17 6 0.3 1.64
-2 17 -6 -0.42 1.22
2 17 6 2.23 1.18
5 -18 -6 -0.78 1.61
-5 -18 6 3.17 1.66
4 -18 -6 1.48 1.31
-4 -18 6 3.05 1.4
3 -18 -6 3.62 1.22
-3 -18 6 1.02 0.99
-3 -18 6 3.03 1.22
-2 -18 6 1.38 1.06
2 -18 -6 1.36 1.07
-1 -18 6 4.85 1.14
1 18 -6 3.63 1.21
0 -18 6 1.69 1.25
0 -18 -6 0.42 0.7
0 18 -6 2.17 1.05
1 -18 6 4.05 1.55
-1 -18 -6 3.77 1.01
-1 18 -6 5.26 1.43
1 18 6 4.75 1.11
-2 -18 -6 2.89 1.16
2 -18 6 5.17 1.9
-2 18 -6 5.11 1.58
2 18 6 2.44 1.25
-4 -19 6 -2.55 1.32
4 -19 -6 0.32 1.37
3 -19 -6 1.26 1.27
-3 -19 6 2.6 1.07
-3 -19 6 2.57 1.16
2 -19 -6 3.31 1.23
-2 -19 6 1.43 1.13
-1 -19 6 15.62 1.92
0 -19 6 0.68 1.33
0 -19 -6 1.28 0.76
0 19 -6 -0.61 1.1
-1 -19 -6 4.28 1.04
1 -19 6 2.62 1.6
-1 19 -6 1.59 1.29
1 19 6 2.93 1.04
2 -19 6 3.4 1.91
-2 -19 -6 5.14 1.29
-2 19 -6 3.37 1.6
-4 -20 6 -0.01 1.45
4 -20 -6 -1.81 1.34
-3 -20 6 6.1 1.42
3 -20 -6 5.97 1.39
2 -20 -6 5.36 1.28
-2 -20 6 2.73 1.2
-1 -20 6 1.66 1.24
0 -20 6 -0.02 1.39
0 20 -6 2.1 1.22
-1 -20 -6 15.92 1.58
1 -20 6 14.16 2.15
1 20 6 16.34 1.74
-1 20 -6 11.68 1.68
-2 -20 -6 0.2 1.27
2 -20 6 -0.78 2.22
-2 20 -6 0.47 1.59
-4 -21 6 3.76 1.63
4 -21 -6 4.03 1.51
3 -21 -6 -1.17 1.23
-3 -21 6 2.22 1.39
2 -21 -6 -0.84 1.14
-1 -21 6 -0.06 1.26
0 -21 6 2.35 1.51
0 21 -6 0.52 1.33
-1 -21 -6 2.72 1.04
1 -21 6 -0.9 1.57
-1 21 -6 0.09 1.49
1 21 6 0.83 1.1
4 -22 -6 3.02 1.58
-4 -22 6 1.24 1.59
-3 -22 6 1.76 1.44
3 -22 -6 1.57 1.36
2 -22 -6 3 1.31
-1 -22 6 3.8 1.58
0 -22 6 1.42 1.56
0 22 -6 0.25 1.23
1 -22 6 1.87 1.72
1 22 6 -1 1.09
-1 22 -6 1.57 1.43
4 -23 -6 4.96 1.92
-4 -23 6 4.5 1.64
-3 -23 6 3.53 1.53
3 -23 -6 0.68 1.39
2 -23 -6 5.08 1.46
-2 -23 6 3.97 1.57
-1 -23 6 -0.03 1.68
0 -23 6 3.15 1.62
0 23 -6 1.46 1.35
1 -23 6 0.46 1.87
-1 23 -6 2.91 1.52
1 23 6 5.13 1.31
-3 -24 6 1.18 1.53
3 -24 -6 2.59 1.5
2 -24 -6 -0.9 1.29
-2 -24 6 -0.41 1.34
-1 -24 6 4.33 1.62
0 -24 6 1.36 1.67
1 -24 6 1.41 1.9
-1 24 -6 2.19 2.24
3 -25 -6 7.18 1.67
-3 -25 6 6.34 1.65
2 -25 -6 2.34 1.43
-2 -25 6 1.23 1.46
-1 -25 6 4.87 1.73
0 -25 6 1.02 1.88
3 -26 -6 3.59 1.69
2 -26 -6 -0.72 1.47
-2 -26 6 1.22 1.49
-1 -26 6 1.17 1.75
0 -26 6 -4.15 1.93
2 -27 -6 0.71 1.57
-2 -27 6 0.88 2.29
-1 -27 6 -1.86 1.69
-4 0 7 2.6 1.65
2 0 -7 1.67 0.89
-2 0 7 0.12 0.84
-1 0 7 0.58 0.88
1 0 -7 -0.08 0.8
0 0 7 8.41 1.3
0 0 -7 4.28 1.02
1 0 7 0.83 1.18
-1 0 -7 -1.71 0.95
-2 0 -7 0.99 1.24
2 0 7 0.16 1.53
-4 -1 7 5.05 1.16
2 -1 -7 2.41 0.89
-2 -1 7 3.07 0.98
2 1 -7 2.55 0.91
-2 1 7 4.02 1.05
-1 -1 7 1.25 0.99
1 -1 -7 0.89 0.83
-1 1 7 1.14 0.97
1 1 -7 1.81 0.87
0 -1 7 4.38 1.17
0 -1 -7 3.51 1.03
0 1 -7 2.9 0.99
0 1 7 3.17 1.06
1 -1 7 -0.7 1.19
-1 -1 -7 0.88 1.05
-1 1 -7 1.45 0.98
1 1 7 1.79 1.22
2 -1 7 2.25 1.64
-2 -1 -7 1.64 1.23
-2 1 -7 1.43 1.23
2 1 7 1.18 1.55
-4 -2 7 1.94 1.07
-3 -2 7 1.46 1.03
-2 -2 7 2.62 0.97
2 -2 -7 1.34 0.83
-2 2 7 -0.12 0.83
2 2 -7 3.02 0.96
-1 -2 7 2.49 0.93
1 -2 -7 5.2 0.94
1 2 -7 4.56 1.05
-1 2 7 4.94 1.08
0 -2 7 1.99 1.02
0 -2 -7 3.04 0.94
0 2 7 3.04 1.08
0 2 -7 1.83 0.88
1 -2 7 -0.89 1.25
-1 -2 -7 2.75 1.06
-1 2 -7 0.48 1.01
1 2 7 0.15 1.15
-2 -2 -7 0.76 1.14
2 -2 7 1.58 1.62
2 2 7 0.25 1.45
-2 2 -7 -0.34 1.28
-4 -3 7 1.28 1.11
-3 -3 7 1.75 0.99
2 -3 -7 2.89 0.86
-2 -3 7 2.22 0.99
2 3 -7 2.21 0.95
-1 -3 7 1.09 1.01
1 -3 -7 3.46 0.9
1 3 -7 0.1 0.94
-1 3 7 2.07 0.92
0 -3 -7 1.82 0.89
0 -3 7 0.44 1.08
0 3 -7 1.92 1
0 3 7 -0.57 1.01
1 -3 7 3.75 1.34
-1 -3 -7 0.98 0.97
1 3 7 1.17 1.14
-1 3 -7 1.06 1.06
2 -3 7 3.97 1.72
-2 -3 -7 5.12 1.35
-2 3 -7 4.76 1.43
2 3 7 4.29 1.58
5 -4 -7 -1.35 1.33
-4 -4 7 0.14 1.07
-3 -4 7 5.06 1.13
-2 -4 7 9.36 1.3
2 -4 -7 10.14 1.09
2 4 -7 11.43 1.27
1 -4 -7 10.79 1.31
-1 -4 7 5.72 1.15
-1 4 7 5.84 1.06
0 -4 -7 9.96 1.26
0 -4 7 9.54 1.39
0 4 -7 9.62 1.33
0 4 7 9.17 1.35
1 -4 7 2.87 1.3
-1 -4 -7 3.73 1.06
1 4 7 1.59 1.14
-1 4 -7 3.09 1.2
2 -4 7 3.5 1.76
-2 -4 -7 0.37 1.22
2 4 7 2.26 1.43
-2 4 -7 2.26 1.25
5 -5 -7 4.45 1.53
-4 -5 7 -0.58 1.12
-4 -5 7 0.13 1.13
-3 -5 7 -0.47 0.99
-2 -5 7 1.89 0.93
2 -5 -7 4.61 0.88
2 5 -7 3.7 1.02
-1 -5 7 4.26 1.09
1 -5 -7 3.67 0.92
-1 5 7 3.62 1
1 5 -7 4.46 1.16
0 -5 7 2.33 1.2
0 -5 -7 0.93 1.2
0 5 7 2.87 1.15
0 5 -7 4.49 1.07
-1 -5 -7 0.85 0.93
1 -5 7 1.68 1.36
-1 5 -7 -0.04 1.11
1 5 7 1.71 1.13
-2 -5 -7 2.08 1.27
2 -5 7 -0.14 1.62
2 5 7 0.49 1.42
-2 5 -7 0.39 1.25
5 -6 -7 -1.7 1.36
-5 -6 7 0.54 1.33
4 -6 -7 4.26 1.29
-4 -6 7 6.13 1.27
-3 -6 7 5.27 1.21
2 -6 -7 3.13 0.85
-2 -6 7 0.88 0.93
2 6 -7 3.48 1.04
1 -6 -7 4.62 0.94
-1 -6 7 4.05 1.21
1 6 -7 5.35 1.16
-1 6 7 4.83 1.13
0 -6 7 -0.6 1.07
0 6 -7 0.01 0.97
0 6 7 1.72 1.04
-1 -6 -7 2.73 0.98
1 -6 7 2.53 1.39
1 6 7 1.79 1.13
-1 6 -7 2.84 1.21
-2 -6 -7 2.65 1.3
2 -6 7 6.65 1.79
2 6 7 5.93 1.63
-2 6 -7 3.63 1.39
5 -7 -7 5.7 1.66
-5 -7 7 6.32 1.88
-5 -7 7 6.44 1.59
-4 -7 7 0.47 1.16
4 -7 -7 -0.58 1.15
-4 -7 7 0.68 1.24
-3 -7 7 0.75 0.96
2 -7 -7 3.81 0.86
-2 -7 7 3.3 1.04
-1 -7 7 6.75 1.24
1 -7 -7 7.29 1
-1 7 7 7.11 1.22
1 7 -7 8 1.24
0 -7 7 3.93 1.28
0 7 -7 6.56 1.23
0 7 7 5.79 1.22
-1 -7 -7 6.19 1.16
1 -7 7 9.87 1.67
-1 7 -7 9.07 1.45
1 7 7 8 1.42
-2 -7 -7 -0.81 1.25
2 -7 7 3.29 1.74
2 7 7 1.58 1.43
-2 7 -7 -0.39 1.45
-5 -8 7 2.27 1.52
5 -8 -7 -0.09 1.5
-4 -8 7 3.64 1.2
4 -8 -7 2.5 1.3
-4 -8 7 4.17 1.28
-3 -8 7 0.58 1
-2 -8 7 -0.62 0.92
2 -8 -7 -1.5 0.8
2 8 -7 -0.02 1
1 -8 -7 0.03 0.79
-1 -8 7 -0.72 0.93
1 8 -7 1.8 1.02
-1 8 7 0.96 1.01
0 -8 7 6.5 1.33
0 8 7 6.3 1.27
0 8 -7 4.03 1.23
1 -8 7 2.26 1.53
-1 -8 -7 3.6 1.14
1 8 7 4.43 1.27
-1 8 -7 4.98 1.36
-2 -8 -7 -0.62 1.22
2 -8 7 3.47 1.76
2 8 7 2.09 1.43
-2 8 -7 -0.35 1.35
-5 -9 7 2.43 1.58
5 -9 -7 0.88 1.58
4 -9 -7 0.87 1.29
-4 -9 7 -1.73 1.06
-4 -9 7 0.37 1.25
-3 -9 7 2.57 1.14
-2 -9 7 1.27 0.98
2 9 -7 0.59 1.09
1 -9 -7 2.63 0.85
-1 -9 7 2.07 1.11
-1 9 7 2.29 1.07
1 9 -7 1.25 1.06
0 -9 7 1.42 1.25
0 9 -7 -1.27 0.97
0 9 7 1.32 1.03
1 -9 7 0.38 1.49
-1 -9 -7 1.21 1.07
-1 9 -7 1.98 1.25
1 9 7 1.8 1.21
-2 -9 -7 1.72 1.3
2 -9 7 -0.71 1.85
2 9 7 1.59 1.53
-2 9 -7 1.25 1.42
-5 -10 7 4.27 1.7
5 -10 -7 5.08 1.71
-4 -10 7 2.84 1.19
-4 -10 7 7.17 1.47
4 -10 -7 4.16 1.42
3 -10 -7 8.71 1.44
-3 -10 7 9.74 1.37
-2 -10 7 5.11 1.16
2 10 -7 5.32 1.19
1 -10 -7 3.48 0.85
-1 -10 7 3.79 1.26
1 10 -7 3.42 1.12
0 -10 7 4.01 1.31
0 10 -7 5.5 1.25
0 10 7 7.87 1.29
1 -10 7 1.7 1.47
-1 -10 -7 2.05 1.08
1 10 7 2.46 1.16
-1 10 -7 1.57 1.31
-2 -10 -7 1.11 1.33
2 -10 7 -0.42 1.95
2 10 7 -1.44 1.34
-2 10 -7 1.9 1.73
5 -11 -7 0.22 1.6
-5 -11 7 2.54 1.67
-4 -11 7 1.83 1.36
4 -11 -7 3.98 1.46
-4 -11 7 6.31 1.49
3 -11 -7 3.95 1.26
-3 -11 7 6.22 1.25
-2 -11 7 3.5 1.18
1 -11 -7 3.42 0.87
-1 -11 7 3.81 1.27
1 11 -7 4.97 1.23
0 -11 7 3.9 1.39
0 11 -7 1.73 1.28
0 11 7 2.37 1.04
1 -11 7 0.31 1.63
-1 -11 -7 0.29 1.05
1 11 7 0.89 1.19
-1 11 -7 2.88 1.33
-2 -11 -7 1.52 1.27
2 11 7 5.29 1.66
-5 -12 7 2.91 1.7
5 -12 -7 -0.22 1.62
4 -12 -7 8.45 1.61
-4 -12 7 10.87 1.66
-4 -12 7 12.02 1.52
3 -12 -7 0.06 1.15
-3 -12 7 1.04 1.15
-2 -12 7 2.86 1.16
-1 -12 7 7.29 1.43
1 -12 -7 5.21 0.98
1 12 -7 7.06 1.4
0 -12 7 0.46 1.4
0 12 7 0.6 1.06
0 12 -7 0.57 1.15
1 -12 7 1.09 1.49
-1 -12 -7 0.75 1.07
-1 12 -7 1.12 1.37
1 12 7 1.72 1.24
5 -13 -7 -3.27 1.76
-5 -13 7 1.2 1.72
4 -13 -7 1.83 1.43
-4 -13 7 0.53 1.35
-4 -13 7 2.72 1.32
3 -13 -7 14.82 1.75
-3 -13 7 18.53 1.95
-2 -13 7 3.63 1.28
-1 -13 7 5.4 1.37
1 13 -7 5.55 1.33
0 -13 7 0.46 1.31
0 13 -7 1.77 1.24
0 13 7 3.44 1.19
-1 -13 -7 2.71 1.12
1 -13 7 0.99 1.72
1 13 7 0.41 1.14
-1 13 -7 2.43 1.4
-4 -14 7 0.36 1.39
4 -14 -7 3.53 1.6
-3 -14 7 9.47 1.53
3 -14 -7 12.5 1.67
-2 -14 7 1.52 1.17
-1 -14 7 6.38 1.45
1 14 -7 4.66 1.32
0 -14 7 2.18 1.53
0 14 -7 1.52 1.33
0 14 7 1.87 1.05
1 -14 7 4.07 1.72
-1 -14 -7 2.82 1.22
1 14 7 2.51 1.29
-1 14 -7 2.62 1.38
-4 -15 7 0.64 1.49
4 -15 -7 1.19 1.46
-3 -15 7 1.45 1.2
3 -15 -7 2.89 1.36
-2 -15 7 3.97 1.25
-1 -15 7 2.23 1.37
1 15 -7 1.76 1.32
0 -15 7 7.3 1.73
0 -15 -7 3.74 1.26
0 15 -7 5.1 1.41
0 15 7 6.74 1.33
1 -15 7 3.67 1.85
-1 -15 -7 4.06 1.22
1 15 7 3.46 1.28
-1 15 -7 2.27 1.51
4 -16 -7 4.9 1.67
-4 -16 7 2.08 1.48
3 -16 -7 6.77 1.56
-3 -16 7 3.49 1.44
-3 -16 7 6.95 1.42
-2 -16 7 1.83 1.31
-1 -16 7 1.83 1.49
1 16 -7 3.12 1.33
0 -16 7 -2.17 1.57
0 16 -7 1.4 1.37
0 16 7 3.24 1.15
1 -16 7 4.89 1.91
-1 -16 -7 3.08 1.25
-1 16 -7 4.8 1.54
1 16 7 1.94 1.33
-4 -17 7 14.86 1.99
4 -17 -7 12.34 1.87
3 -17 -7 2.29 1.52
-3 -17 7 1.65 1.49
-3 -17 7 0.74 1.53
-2 -17 7 1.04 1.41
-1 -17 7 6.46 1.68
1 17 -7 4.58 1.51
0 -17 7 -1.86 1.53
0 17 7 0.51 1.18
0 17 -7 0.85 1.44
-1 -17 -7 2.63 1.29
1 -17 7 -0.29 2.02
-1 17 -7 3.23 1.64
1 17 7 -0.37 1.31
4 -18 -7 0.33 1.66
-4 -18 7 3.51 1.62
3 -18 -7 1.88 1.45
-3 -18 7 0.04 1.42
-3 -18 7 -0.01 1.36
-2 -18 7 7.03 1.85
-1 -18 7 1.72 1.58
1 18 -7 0.91 1.39
0 -18 7 -0.68 1.72
0 18 -7 -0.44 1.3
0 18 7 2.94 1.25
3 -19 -7 3.77 1.53
-3 -19 7 1.2 1.51
-2 -19 7 0.99 1.53
-1 -19 7 0.24 1.63
0 -19 7 6.58 2.03
0 19 -7 6.41 1.65
0 19 7 2.86 1.29
3 -20 -7 0.91 1.58
-3 -20 7 0.47 1.58
-2 -20 7 2.7 1.91
-1 -20 7 2.08 1.79
0 -20 7 -1.23 1.82
0 20 -7 1.26 1.63
0 20 7 2.29 1.39
3 -21 -7 2.41 1.67
-3 -21 7 0.26 1.48
-2 -21 7 5.02 1.85
-1 -21 7 -1.54 1.66
0 -21 7 -0.61 1.99
0 21 7 -0.81 1.33
-2 -22 7 4.73 1.96
-1 -22 7 -0.39 1.93
-3 0 8 1.42 1.43
-2 0 8 1.94 1.4
2 0 -8 0.09 1.24
1 0 -8 0.36 1.26
-1 0 8 2.41 1.35
0 0 8 2.51 1.53
0 0 -8 2.83 1.39
-1 0 -8 3.83 1.61
1 0 8 3.45 2.01
-4 -1 8 1.38 1.5
-3 -1 8 4.3 1.5
-3 1 8 -0.45 1.27
2 -1 -8 0.68 1.21
-2 -1 8 0.92 1.25
-2 1 8 3.23 1.42
2 1 -8 -0.09 1.23
-1 -1 8 1.01 1.38
1 -1 -8 1.86 1.3
-1 1 8 4.03 1.36
1 1 -8 1.9 1.3
0 -1 -8 1.97 1.38
0 -1 8 6.09 1.62
0 1 8 3.6 1.55
0 1 -8 7.73 1.52
-1 -1 -8 -0.57 1.45
1 -1 8 -1.44 2.07
1 1 8 1.75 1.93
-1 1 -8 -0.64 1.54
-4 -2 8 -2.34 1.5
-3 -2 8 0.87 1.4
-3 2 8 -0.35 1.41
-2 -2 8 1.83 1.41
-2 2 8 1.97 1.3
2 2 -8 2.44 1.31
-1 -2 8 3.34 1.45
1 -2 -8 0.04 1.25
1 2 -8 0.33 1.31
-1 2 8 1.21 1.38
0 -2 8 -0.86 1.42
0 -2 -8 2.4 1.34
0 2 8 -0.27 1.46
0 2 -8 0.68 1.38
1 -2 8 7.45 2.29
-1 2 -8 4.53 1.64
1 2 8 4.79 1.88
-4 -3 8 1.91 1.51
-3 -3 8 0.16 1.38
-2 -3 8 2.62 1.38
2 -3 -8 3.53 1.41
2 3 -8 2.52 1.35
-2 3 8 0.84 1.27
1 -3 -8 -0.09 1.24
-1 -3 8 0.28 1.31
1 3 -8 1.67 1.36
-1 3 8 0.67 1.4
0 -3 -8 0.82 1.34
0 -3 8 0.86 1.46
0 3 8 0.78 1.47
0 3 -8 0.1 1.35
-1 -3 -8 2.91 1.55
1 3 8 -1.18 1.91
-1 3 -8 0.82 1.54
-4 -4 8 3.08 1.65
-3 -4 8 2.58 1.48
2 -4 -8 1.88 2.11
-2 -4 8 -2.1 1.3
2 4 -8 1.25 1.31
-2 4 8 0.58 1.26
-1 -4 8 2.76 1.56
1 -4 -8 1.83 1.25
1 4 -8 0.2 1.37
-1 4 8 4.24 1.44
0 -4 -8 0.1 1.36
0 -4 8 0.75 1.57
0 4 8 -0.99 1.47
0 4 -8 -2.26 1.32
-4 -5 8 3.85 1.77
-3 -5 8 0.4 1.32
-2 -5 8 2.47 1.34
-2 5 8 3.69 1.39
2 5 -8 2.19 1.41
-1 -5 8 1.97 1.41
1 -5 -8 -0.07 1.16
1 5 -8 1.97 1.37
-1 5 8 -0.83 1.29
0 -5 8 -1.65 1.51
0 -5 -8 -1.83 1.34
0 5 -8 -1.63 1.37
0 5 8 0.58 1.5
-4 -6 8 4.01 1.61
-4 -6 8 1.96 2.2
-3 -6 8 2.6 1.4
-2 -6 8 2.68 1.55
2 6 -8 1.84 1.35
-2 6 8 1.18 1.36
-1 -6 8 4.35 1.66
1 -6 -8 -0.18 1.18
1 6 -8 3.07 1.41
-1 6 8 1.72 1.38
0 -6 -8 -1.98 1.33
0 -6 8 0.93 1.5
0 6 -8 0.04 1.41
0 6 8 0.99 1.51
-4 -7 8 1.55 1.61
-4 -7 8 2.53 1.58
-3 -7 8 3.59 1.61
-2 -7 8 2.55 1.46
-2 7 8 3.21 1.39
2 7 -8 1.34 1.37
-1 -7 8 2.39 1.47
1 -7 -8 2.98 1.29
1 7 -8 4.27 1.45
-1 7 8 4.06 1.52
0 -7 8 2.52 1.68
0 -7 -8 3.57 1.46
0 7 8 1.7 1.5
0 7 -8 2.98 1.49
-4 -8 8 -0.69 1.54
-4 -8 8 0.35 1.61
-3 -8 8 0.97 1.47
-2 -8 8 3.42 1.43
-2 8 8 1.77 1.34
2 8 -8 0.14 1.47
-1 -8 8 4.6 1.76
-1 8 8 4.95 1.56
0 -8 8 1.29 1.7
0 -8 -8 1.11 1.34
0 8 -8 1.55 1.58
0 8 8 0.83 1.4
-4 -9 8 2.09 1.65
-4 -9 8 2.33 1.65
-3 -9 8 9.12 1.82
-2 -9 8 2.12 1.55
-1 -9 8 0.73 1.54
1 9 -8 3.8 1.51
-1 9 8 -0.54 1.28
0 -9 8 -0.77 1.65
0 -9 -8 3.6 1.43
0 9 8 0.1 1.47
0 9 -8 0.48 1.6
-4 -10 8 0.21 1.68
-4 -10 8 1.1 1.69
-3 -10 8 0.79 1.57
-2 -10 8 5.37 1.71
-1 -10 8 1.63 1.61
-1 10 8 1.56 1.38
1 10 -8 -0.25 1.43
0 -10 8 0.49 1.83
0 -10 -8 2.94 1.49
0 10 -8 0.82 1.55
0 10 8 -0.84 1.46
-3 -11 8 11.84 1.98
-2 -11 8 10.74 1.92
-1 -11 8 0.09 1.65
1 11 -8 0.96 1.56
-1 11 8 0.77 1.45
0 -11 8 -0.44 1.77
0 11 -8 -0.42 1.64
0 11 8 1.42 1.56
-3 -12 8 7.35 1.89
-2 -12 8 2.49 1.67
-1 -12 8 4.72 1.74
-1 12 8 3.91 1.52
1 12 -8 6.19 1.74
0 -12 8 3.45 2.17
0 12 8 1.36 1.51
0 12 -8 2.36 1.85
-3 -13 8 -1.77 1.6
-2 -13 8 2.08 1.73
-1 -13 8 4.68 1.84
1 13 -8 1.39 1.64
-1 13 8 2.63 1.46
-3 -14 8 3.18 1.76
-2 -14 8 -2.56 1.82
-1 -14 8 4.84 2.02
-1 14 8 5.6 1.67
1 14 -8 10.04 2
-2 -15 8 -3.97 1.87
-1 -15 8 0.39 2
-1 15 8 1 1.49
1 15 -8 -0.82 1.66
-2 -16 8 4.67 2.66
