#------------------------------------------------------------------------------
#$Date: 2017-03-05 06:37:24 +0200 (Sun, 05 Mar 2017) $
#$Revision: 193707 $
#$URL: file:///home/coder/svn-repositories/cod/cif/7/11/96/7119629.cif $
#------------------------------------------------------------------------------
#
# This file is available in the Crystallography Open Database (COD),
# http://www.crystallography.net/
#
# All data on this site have been placed in the public domain by the
# contributors.
#
data_7119629
loop_
_publ_author_name
'Neudert, Lukas'
'Heinke, Frank'
'Br\"auniger, Thomas'
'Pucher, Florian J.'
'Vaughan, Gavin B.'
'Oeckler, Oliver'
'Schnick, Wolfgang'
_publ_section_title
;
 An unusual nitride network of aluminum-centered octahedra and
 phosphorus-centered tetrahedra and structure determination from
 microcrystalline samples.
;
_journal_issue                   18
_journal_name_full
'Chemical communications (Cambridge, England)'
_journal_page_first              2709
_journal_page_last               2712
_journal_paper_doi               10.1039/c7cc00233e
_journal_volume                  53
_journal_year                    2017
_chemical_formula_moiety         'Al H2 N11 O P6'
_chemical_formula_sum            'Al H2 N11 O P6'
_chemical_formula_weight         384.93
_chemical_name_common            'aluminium oxonitridoimidophosphate'
_space_group_crystal_system      monoclinic
_space_group_IT_number           11
_space_group_name_Hall           '-P 2yb'
_space_group_name_H-M_alt        'P 1 21/m 1'
_symmetry_space_group_name_Hall  '-P 2yb'
_symmetry_space_group_name_H-M   'P 1 21/m 1'
_atom_sites_solution_hydrogens   difmap
_atom_sites_solution_primary     direct
_atom_sites_solution_secondary   difmap
_audit_creation_method           SHELXL-2014/7
_cell_angle_alpha                90
_cell_angle_beta                 101.601(4)
_cell_angle_gamma                90
_cell_formula_units_Z            2
_cell_length_a                   4.7566(2)
_cell_length_b                   8.3266(3)
_cell_length_c                   10.6298(7)
_cell_measurement_reflns_used    2739
_cell_measurement_temperature    295(2)
_cell_measurement_theta_max      18.41
_cell_measurement_theta_min      2.05
_cell_volume                     412.41(4)
_computing_cell_refinement       'CrysAlisPro, Agilent Technologies'
_computing_data_collection       manual
_computing_data_reduction        'CrysAlisPro, Agilent Technologies'
_computing_molecular_graphics    'Diamond 3.1'
_computing_structure_refinement  'SHELXL-2014/7 (Sheldrick, 2014)'
_computing_structure_solution    'SHELXS-2014/7 (Sheldrick, 2014)'
_diffrn_ambient_temperature      295(2)
_diffrn_detector                 CCD
_diffrn_detector_type            FReLoN2k
_diffrn_measured_fraction_theta_full 0.947
_diffrn_measured_fraction_theta_max 0.959
_diffrn_measurement_device_type  'Huber goniometer'
_diffrn_measurement_method       oscillation
_diffrn_radiation_type           synchrotron
_diffrn_radiation_wavelength     0.3351
_diffrn_reflns_av_R_equivalents  0.0287
_diffrn_reflns_av_unetI/netI     0.0556
_diffrn_reflns_Laue_measured_fraction_full 0.947
_diffrn_reflns_Laue_measured_fraction_max 0.959
_diffrn_reflns_limit_h_max       6
_diffrn_reflns_limit_h_min       -6
_diffrn_reflns_limit_k_max       11
_diffrn_reflns_limit_k_min       -11
_diffrn_reflns_limit_l_max       13
_diffrn_reflns_limit_l_min       -15
_diffrn_reflns_number            3577
_diffrn_reflns_point_group_measured_fraction_full 0.947
_diffrn_reflns_point_group_measured_fraction_max 0.959
_diffrn_reflns_theta_full        11.599
_diffrn_reflns_theta_max         13.846
_diffrn_reflns_theta_min         2.061
_diffrn_source                   'ESRF beamline ID11'
_exptl_absorpt_coefficient_mu    0.196
_exptl_absorpt_correction_T_max  1.00
_exptl_absorpt_correction_T_min  0.57
_exptl_absorpt_correction_type   multi-scan
_exptl_absorpt_process_details
;
CrysAlisPro, Agilent Technologies,
Version 1.171.37.35 (release 13-08-2014 CrysAlis171 .NET)
(compiled Aug 13 2014,18:06:01)
Empirical absorption correction using spherical harmonics,
 implemented in SCALE3 ABSPACK scaling algorithm.
;
_exptl_crystal_colour            colorless
_exptl_crystal_density_diffrn    3.100
_exptl_crystal_description       platelet
_exptl_crystal_F_000             380
_exptl_crystal_size_max          0.007
_exptl_crystal_size_mid          0.002
_exptl_crystal_size_min          0.0004
_refine_diff_density_max         0.627
_refine_diff_density_min         -0.514
_refine_diff_density_rms         0.117
_refine_ls_extinction_method     none
_refine_ls_goodness_of_fit_ref   1.046
_refine_ls_hydrogen_treatment    refall
_refine_ls_matrix_type           full
_refine_ls_number_parameters     105
_refine_ls_number_reflns         1285
_refine_ls_number_restraints     0
_refine_ls_restrained_S_all      1.046
_refine_ls_R_factor_all          0.0351
_refine_ls_R_factor_gt           0.0285
_refine_ls_shift/su_max          0.001
_refine_ls_shift/su_mean         0.000
_refine_ls_structure_factor_coef Fsqd
_refine_ls_weighting_details
'w=1/[\s^2^(Fo^2^)+(0.0205P)^2^+0.1217P] where P=(Fo^2^+2Fc^2^)/3'
_refine_ls_weighting_scheme      calc
_refine_ls_wR_factor_gt          0.0702
_refine_ls_wR_factor_ref         0.0735
_reflns_Friedel_coverage         0.000
_reflns_number_gt                1103
_reflns_number_total             1285
_reflns_threshold_expression     'I > 2\s(I)'
_cod_data_source_file            c7cc00233e2.cif
_cod_data_source_block           AlPONH
_cod_depositor_comments          'Adding full bibliography for 7119629.cif.'
_cod_database_code               7119629
_shelx_shelxl_version_number     2014/7
_shelx_space_group_comment
;
The symmetry employed for this shelxl refinement is uniquely defined
by the following loop, which should always be used as a source of
symmetry information in preference to the above space-group names.
They are only intended as comments.
;
_shelx_res_file
;

    cFPLN1_N4_K3_P21_m_crys_O_2H_test.res created by SHELXL-2014/7


TITL FPLN1_N4_K3_P21_m_crys in P2(1)/m
CELL 0.33510   4.7566   8.3266  10.6298  90.000 101.601  90.000
ZERR    2.00   0.0002   0.0003   0.0007   0.000   0.004   0.000
LATT  1

SYMM -X, 0.5+Y, -Z
SFAC N AL P O H
DISP P 0.020 0.020
DISP N  -0.001 0.000614
DISP Al 0.010 0.0107
DISP O 0.000 0.00149
UNIT 22 2 12 2 4
LIST 4

L.S. 20
BOND
FMAP 2
PLAN 20

EADP N1 O1
EXYZ N1 O1

EADP N2 O2
EXYZ N2 O2

EADP H5 H6

ACTA

HTAB

BOND $H

OMIT -2 0 13
OMIT 1 2 9
OMIT 1 3 2
OMIT -2 0 4
OMIT 0 4 8

WGHT    0.020500    0.121700
FVAR       0.63600   0.51725
P1    3    0.165539    0.085512    0.329265    11.00000    0.00643    0.00652 =
         0.01409   -0.00008    0.00287   -0.00016
P2    3    0.334120    0.084856    0.671559    11.00000    0.00664    0.00627 =
         0.01421    0.00001    0.00288   -0.00004
P3    3    0.107743    0.250000    0.084092    10.50000    0.00973    0.01326 =
         0.01319    0.00000    0.00299    0.00000
P4    3    0.534735    0.250000    0.917586    10.50000    0.01021    0.01226 =
         0.01395    0.00000    0.00212    0.00000
AL5   2    0.751020    0.250000    0.500306    10.50000    0.00828    0.00886 =
         0.01284    0.00000    0.00359    0.00000
O1    4    0.427314    0.250000    0.051105    20.50000    0.01179    0.03433 =
         0.01997    0.00000    0.00491    0.00000
N1    1    0.427314    0.250000    0.051105   -20.50000    0.01179    0.03433 =
         0.01997    0.00000    0.00491    0.00000
N2    1    0.881627    0.250000    0.950091    20.50000    0.01254    0.03609 =
         0.01895    0.00000    0.00308    0.00000
O2    4    0.881627    0.250000    0.950091   -20.50000    0.01254    0.03609 =
         0.01895    0.00000    0.00308    0.00000
N3    1    0.017662    0.574338    0.378882    11.00000    0.00713    0.00787 =
         0.01456   -0.00107    0.00234    0.00019
N4    1    0.518596    0.074790    0.378995    11.00000    0.00725    0.00750 =
         0.01516   -0.00097    0.00231    0.00033
N5    1    0.071803    0.093994    0.173099    11.00000    0.01216    0.00977 =
         0.01371   -0.00024    0.00259   -0.00096
H5    5    0.017242    0.029477    0.128578    10.50000    0.10710
N6    1    0.583675    0.593933    0.171457    11.00000    0.01489    0.01025 =
         0.01222   -0.00001    0.00164    0.00195
H6    5    0.595412    0.516718    0.126432    10.50000    0.10710
N7    1    0.051841    0.250000    0.388862    10.50000    0.00778    0.00685 =
         0.01373    0.00000    0.00359    0.00000
N8    1    0.455619    0.250000    0.616258    10.50000    0.00802    0.00710 =
         0.01340    0.00000    0.00326    0.00000
HKLF 4

REM  FPLN1_N4_K3_P21_m_crys in P2(1)/m
REM R1 =  0.0285 for    1103 Fo > 4sig(Fo)  and  0.0351 for all    1285 data
REM    105 parameters refined using      0 restraints

END

WGHT      0.0205      0.1217

REM Instructions for potential hydrogen bonds
EQIV $1 -x+1, -y, -z+1
HTAB N5 N2_$1
EQIV $2 x-1, -y+1/2, z
HTAB N5 N6_$2
HTAB N6 O1
EQIV $3 x+1, -y+1/2, z
HTAB N6 N5_$3

REM Highest difference peak  0.627,  deepest hole -0.514,  1-sigma level  0.117
Q1    1   0.3902  0.2500  0.9229  10.50000  0.05    0.63
Q2    1   0.6197  0.6012  0.2335  11.00000  0.05    0.56
Q3    1  -0.0444  0.2500  0.0765  10.50000  0.05    0.53
Q4    1   0.1156  0.0951  0.2443  11.00000  0.05    0.52
Q5    1   0.6088  0.2500  0.0357  10.50000  0.05    0.46
Q6    1   0.0362  0.2500  0.4264  10.50000  0.05    0.45
Q7    1   0.5840  0.6636  0.1428  11.00000  0.05    0.40
Q8    1   0.4031  0.1775  0.6431  11.00000  0.05    0.38
Q9    1   1.0862  0.2500  0.9682  10.50000  0.05    0.38
Q10   1   0.0965  0.1801  0.1286  11.00000  0.05    0.38
Q11   1  -0.1770  0.2500  0.2401  10.50000  0.05    0.36
Q12   1  -0.0549  0.5803  0.3909  11.00000  0.05    0.36
Q13   1   0.6011  0.2500  0.1077  10.50000  0.05    0.35
Q14   1   0.7043  0.2500  0.8935  10.50000  0.05    0.35
Q15   1   0.4025  0.1385  0.0776  11.00000  0.05    0.35
Q16   1   0.5192  0.2500  0.5519  10.50000  0.05    0.34
Q17   1   0.8746  0.2500  0.7567  10.50000  0.05    0.34
Q18   1   0.2511  0.2500  0.0528  10.50000  0.05    0.33
Q19   1   0.5074  0.5939  0.1829  11.00000  0.05    0.32
Q20   1   0.0908  0.1944  0.3821  11.00000  0.05    0.32
;
_shelx_res_checksum              42084
_shelx_hkl_file
;
   0   1  -2   -0.70    1.10
   0  -2  -1 1346.30  101.20
   0   2   1 1276.00  101.20
   0   2  -2 3676.30  284.20
   0  -2  -2 3850.10  284.30
   0  -2   2 3556.00  284.20
   0   2   2 3799.80  284.30
   0  -2   3  475.50   36.80
   0   2  -3  471.90   36.70
   0  -2  -3  473.30   37.00
   0   2  -5  431.90   33.70
   0   2  -6 1557.50  120.50
   0   2  -7  424.50   33.30
   0   2  -9  451.00   35.50
   0   2 -10  177.60   14.40
   0   2 -12    6.20    2.70
   0   2 -13   14.20    2.70
   0   2 -14  176.10   14.70
   0  -3   0    1.80    1.40
   0   3   0   -0.50    1.30
   0  -3   1    0.40    1.40
   0   3  -1   -0.40    1.40
   0  -3  -1    0.20    1.70
   0   3   1    0.30    1.70
   0   3  -2    0.10    1.40
   0  -3  -2    1.20    2.20
   0   3   2    0.90    2.00
   0  -3   2    1.40    1.40
   0   3  -3    0.90    1.40
   0   3   3   -1.50    2.40
   0  -3  -3   -2.60    2.40
   0  -3  -4   -0.40    2.80
   0  -3   4    0.90    1.80
   0  -3  -5    0.60    2.90
   0   3  -5   -1.20    1.70
   0   3  -6    2.80    1.90
   0  -3  -6    2.20    2.80
   0  -3  -7    0.40    2.90
   0   3  -7    1.20    2.00
   0   3  -9    2.80    2.20
   0   3 -10    1.20    2.00
   0   3 -11   -0.80    2.50
   0   3 -12    4.50    2.60
   0   3 -13   -0.40    2.50
   0   3 -14    2.40    2.40
   0  -4   0   65.30    5.50
   0   4   0   66.70    5.50
   0   4  -1  407.70   31.30
   0  -4   1  392.30   31.30
   0   4   1  402.30   31.40
   0  -4  -1  411.90   31.40
   0  -4  -2 2592.70  201.80
   0   4  -2 2652.50  201.70
   0  -4   2 2585.50  201.70
   0   4   3  230.50   18.40
   0  -4  -3  239.70   18.40
   0  -4   3  232.30   18.10
   0   4  -3  224.80   18.10
   0  -4   4  113.60    9.30
   0  -4  -4  118.60    9.70
   0   4  -5  227.30   18.50
   0  -4   5  235.40   18.50
   0  -4  -5  249.10   18.90
   0   4  -6 1591.30  123.00
   0  -4  -6 1589.10  123.30
   0  -4  -7  377.40   29.90
   0   4  -7  376.30   29.50
   0  -4  -8  274.20   22.30
   0  -4  -9  243.30   28.10
   0   4  -9  433.20   27.90
   0   4 -10  203.80   15.60
   0  -4 -10  172.20   16.00
   0   4 -11   40.20    3.90
   0  -4 -11   25.50    4.80
   0   4 -12    6.40    2.30
   0  -4 -12    2.40    3.40
   0  -4 -13   23.40    4.40
   0  -4 -14  149.90   14.00
   0   4 -14  169.50   13.40
   0  -5   0    1.50    1.70
   0   5   0   -0.30    1.70
   0   5  -1    0.20    1.40
   0  -5  -1    0.60    1.90
   0  -5   1    0.10    1.70
   0  -5   2    0.10    1.60
   0  -5  -2    0.70    2.00
   0   5   2   -0.10    1.90
   0   5  -2   -0.10    1.60
   0   5   3   -0.70    2.50
   0  -5   3   -1.20    1.60
   0  -5  -3    0.80    2.20
   0   5  -4    1.80    1.60
   0   5   4    0.40    2.50
   0  -5   4    0.10    1.60
   0  -5  -4    2.70    2.50
   0   5  -5    0.40    1.60
   0  -5   5    0.00    1.70
   0  -5  -5   -1.30    2.20
   0   5  -6   -0.40    1.70
   0  -5  -6   -0.30    2.70
   0  -5   6    0.80    1.80
   0   5  -7    1.50    1.60
   0  -5  -7    4.70    2.70
   0  -5  -8    0.10    3.10
   0   5  -9    1.10    1.60
   0  -5  -9   -2.20    2.70
   0  -5 -10   -3.50    2.80
   0   5 -11    3.10    2.00
   0  -5 -11   -1.00    3.20
   0   5 -12    0.80    2.10
   0  -5 -12    2.90    2.70
   0   5 -13   -0.10    2.20
   0  -5 -13   -4.90    3.10
   0  -6   0 9759.00  754.60
   0   6   0 9798.10  754.60
   0  -6  -1  212.20   16.80
   0   6   1  220.40   16.80
   0  -6   1  206.40   16.70
   0  -6   2   15.60    2.20
   0  -6  -2   17.20    2.50
   0   6   2   17.10    2.50
   0  -6   3  922.30   73.30
   0   6   3  940.40   73.50
   0   6  -3  951.40   73.30
   0  -6  -3  989.00   73.50
   0  -6  -4  918.80   71.00
   0   6   4  887.00   71.10
   0  -6   4  914.50   70.80
   0   6  -4  926.20   70.80
   0   6  -5  521.40   39.10
   0  -6  -5  473.60   39.50
   0   6   5  526.60   39.40
   0  -6   5  488.60   39.10
   0  -6   6  621.90   47.90
   0  -6  -6  603.10   48.20
   0  -6  -7 1065.40   84.60
   0  -6   7 1116.10   84.30
   0   6  -7 1073.70   84.30
   0  -6  -8  268.10   21.80
   0   6  -8  273.80   21.40
   0  -6  -9    3.70    2.90
   0   6  -9   -2.40    1.70
   0   6 -10   19.30    2.50
   0  -6 -10   15.30    3.20
   0  -6 -11   27.90    4.00
   0   6 -11   27.40    3.20
   0  -6 -12  494.50   44.10
   0   6 -12  596.60   43.70
   0   7   0   -2.50    1.80
   0  -7   0   -0.60    1.80
   0   7   1    0.20    1.70
   0  -7   1    1.40    1.70
   0   7  -1    0.00    1.50
   0  -7  -1    0.10    1.70
   0  -7  -2    3.00    1.90
   0   7   2    2.50    1.90
   0  -7   2    0.00    1.70
   0  -7  -3    1.20    2.00
   0  -7   3   -0.10    1.60
   0   7   3    0.50    2.10
   0   7  -3    0.20    1.60
   0  -7  -4   -0.10    2.20
   0   7  -4    2.10    1.60
   0   7  -5   -1.50    1.50
   0   7   5    0.20    2.40
   0  -7   5    1.60    1.40
   0  -7  -5   -1.10    2.20
   0   7  -6    2.30    1.60
   0  -7   6    1.80    1.40
   0   7  -7   -0.20    1.50
   0  -7  -7    2.20    2.50
   0  -7   7    0.30    1.60
   0  -7  -8    0.30    2.70
   0   7  -8    1.10    1.60
   0  -7   8    3.20    1.80
   0   7  -9    3.00    1.90
   0  -7  -9   -1.50    2.80
   0   7 -10   -1.50    1.60
   0  -7 -10    2.80    2.60
   0   7 -11    0.10    1.70
   0  -7 -11   -1.10    2.20
   0   7 -12    1.20    1.80
   0  -7 -12    1.10    2.50
   0  -8   0   54.60    5.00
   0   8   0   60.00    5.10
   0   8   1  275.20   22.10
   0  -8  -1  282.30   22.10
   0   8  -1  279.60   22.00
   0  -8   1  283.00   22.10
   0   8  -2  506.00   39.90
   0  -8  -2  515.20   40.00
   0   8   2  511.60   40.00
   0  -8   2  515.70   39.90
   0  -8  -3  372.00   29.30
   0   8  -3  378.20   29.20
   0  -8   3  369.30   29.10
   0  -8   4   57.60    5.00
   0  -8  -4   55.80    5.40
   0   8  -4   62.40    5.10
   0   8   4   49.50    5.50
   0  -8  -5  112.00    9.50
   0   8   5  121.00    9.70
   0  -8   5  114.40    9.20
   0   8  -5  107.70    9.20
   0   8  -6  352.30   27.40
   0  -8   6  348.80   27.30
   0  -8  -6  346.40   27.70
   0  -8  -7   94.40    9.20
   0  -8   7  108.50    8.50
   0   8  -8    2.30    1.60
   0  -8  -8    1.50    2.80
   0  -8   8    5.00    1.80
   0  -8  -9  148.50   13.30
   0   8  -9  164.20   12.80
   0  -8 -10   68.90    6.50
   0   8 -10   65.60    5.80
   0  -8 -11   26.10    3.90
   0  -9   0    1.10    1.70
   0   9   0   -0.70    1.60
   0   9  -1   -0.30    1.60
   0  -9   1    0.50    1.50
   0   9   1    0.60    2.00
   0  -9  -1    1.30    1.80
   0  -9   2    0.30    1.50
   0  -9  -2   -1.70    1.90
   0   9  -2    1.10    1.60
   0  -9  -3   -0.30    2.00
   0  -9   3   -0.50    1.40
   0   9   3   -0.80    2.00
   0   9  -3    0.90    1.40
   0   9   4    0.00    2.40
   0   9  -4    1.00    1.60
   0  -9   4    0.50    1.50
   0  -9  -4   -0.80    2.20
   0  -9   5    1.20    1.40
   0  -9  -5   -1.40    2.30
   0   9  -5    2.00    1.60
   0   9   5   -1.70    2.60
   0  -9  -6   -0.80    2.30
   0  -9   6    1.20    1.40
   0   9  -6    0.50    1.50
   0   9  -7    2.10    1.60
   0  -9  -7    3.40    2.40
   0  -9   7   -1.00    1.50
   0   9  -8    2.10    1.80
   0  -9   8   -1.60    1.70
   0  -9  -8    1.40    2.30
   0  -9  -9    6.10    2.90
   0   9  -9    0.80    1.80
   0  -9   9    1.50    1.90
   0 -10   0   -0.20    1.90
   0  10  -1   57.20    5.00
   0  10   1   53.30    5.20
   0 -10  -1   58.00    5.20
   0 -10   1   59.20    5.10
   0 -10  -2  529.60   42.80
   0  10   2  551.20   42.80
   0 -10   2  556.40   42.70
   0  10  -2  552.80   42.70
   0 -10   3   96.20    8.00
   0  10   3   94.40    8.20
   0 -10  -3   98.70    8.20
   0  10  -3   97.70    8.00
   0  10  -4   15.60    2.10
   0 -10  -4   19.50    2.70
   0  10   4   11.00    2.70
   0 -10   4   18.20    2.20
   0  10  -5   19.20    2.30
   0 -10   5   22.30    2.30
   0  10   5   18.00    3.20
   0 -10  -5   16.70    2.90
   0 -10  -6  547.10   46.70
   0 -10   6  626.20   46.50
   0 -10   7  102.20    8.40
   0 -10  -7   97.00    8.90
   0  10  -7  109.20    8.50
   0  10  -8  128.20    9.70
   0 -10   8  109.90    9.60
   0 -10  -8  117.10   10.10
   0 -11   0    1.40    1.70
   0  11   0   -0.30    1.70
   0 -11  -1    3.40    1.90
   0  11  -1   -0.50    1.70
   0  11   1    0.90    2.00
   0 -11  -2   -0.70    2.00
   0 -11   2    1.90    1.70
   0  11   2    2.80    1.80
   0 -11  -3   -0.50    2.00
   0  11   3    0.80    2.00
   0 -11   3    0.00    1.60
   0 -11   4    3.40    1.60
   0 -11  -4    0.40    1.90
   0  11   4   -0.70    2.20
   0 -11   5   -0.10    1.50
   0 -11  -5    2.90    2.10
   0  11  -5    0.60    1.60
   0  11   5    4.00    2.50
   1   0  -8   16.20    3.40
   1   0  -7    0.40    2.60
   1   0  -6   51.80    5.30
   1   0  -5  185.10   15.00
  -1   0   4  292.50   22.30
   1   0  -4  274.20   22.20
  -1   0   3  256.50   20.30
   1   0  -3  263.60   20.40
   1   0  -2  139.00   11.10
  -1   0   2  141.00   11.10
   1   0  -1   16.90    1.90
  -1   0   1   16.70    1.90
  -1   0   0   13.50    1.80
   1   0   0   13.20    1.80
  -1   0  -1  146.50   11.30
   1   0   1  138.30   11.30
  -1   0  -2  245.70   19.60
   1   0   2  256.10   19.60
   1   0   3  337.80   26.90
  -1   0  -3  351.20   26.90
  -1   0  -4  161.20   13.00
  -1   0  -5   55.40    5.30
  -1   0  -6    3.00    2.40
  -1   0  -7   14.50    3.10
  -1   0  -8   37.40    4.00
  -1   0  -9   29.70    4.10
  -1   0 -11    0.80    2.90
  -1   0 -12   -0.10    2.50
  -1   0 -14    4.30    2.80
   1  -1 -15   19.30    4.20
   1  -1 -14  240.90   19.80
   1  -1 -13   80.30    7.60
   1  -1 -12   75.00    7.30
   1  -1 -11  124.60   11.00
   1  -1 -10    4.30    3.00
   1  -1  -9 1286.10  100.00
   1  -1  -8   15.60    3.20
   1  -1  -7    1.00    2.50
   1  -1  -6  213.00   17.20
   1  -1  -5  158.10   12.80
  -1   1   5  156.90   12.90
   1   1  -5  156.20   12.70
   1   1  -4 1398.70  106.40
   1  -1  -4 1373.50  106.50
  -1   1   4 1346.30  106.50
   1  -1  -3  231.70   19.90
   1   1  -3  262.00   19.70
  -1   1   3  225.30   19.90
  -1  -1   3  276.30   19.80
   1  -1  -2 1824.40  142.30
  -1   1   2 1858.00  142.30
  -1   1   1 1040.90   79.30
   1  -1  -1 1008.70   79.30
   1  -1   0  871.60   67.30
  -1   1   0  868.70   67.30
   1  -1   1 1703.90  131.40
   1   1   1 1703.00  131.30
  -1   1  -1 1678.30  131.40
  -1  -1  -1 1710.20  131.30
  -1  -1  -2  240.80   18.10
  -1   1  -2  225.40   18.10
   1  -1   2  224.40   18.10
  -1  -1  -3 1628.90  125.90
  -1   1  -3 1632.20  125.80
   1  -1   3 1620.30  125.80
   1  -1   4  268.60   20.80
  -1   1  -4  258.00   20.70
  -1   1  -5  155.20   12.00
   1  -1   5  141.40   12.10
  -1   1  -6    1.70    2.20
  -1   1  -7    4.20    2.40
  -1   1  -8 1201.60   93.30
  -1   1  -9    1.80    2.60
  -1   1 -11   73.00    6.80
  -1   1 -12   41.00    4.60
  -1   1 -14    6.40    2.60
   1  -2 -14    6.60    2.90
   1  -2 -13    3.60    3.10
   1  -2 -12    4.60    3.50
   1  -2 -11   11.50    3.30
   1  -2 -10   14.50    3.70
   1  -2  -9   24.10    4.00
   1  -2  -8    8.20    3.70
   1  -2  -7    5.20    2.80
  -1   2   6   29.50    4.00
   1  -2  -6   24.80    3.50
   1  -2  -5  114.00    9.90
  -1   2   5  119.00    9.90
   1  -2  -4  202.10   16.80
  -1   2   4  217.90   16.80
  -1   2   3  223.10   17.70
   1   2  -3  229.10   17.40
   1  -2  -3  207.10   17.60
   1  -2  -2  136.40   11.10
  -1   2   2  138.40   11.00
   1  -2  -1   28.60    3.10
  -1   2   1   24.40    2.90
   1  -2   0   15.40    2.50
  -1   2   0   17.20    2.50
  -1   2  -1  143.60   12.00
   1  -2   1  142.60   12.00
  -1  -2  -1  158.00   11.80
   1  -2   2  206.80   16.40
   1  -2   3  256.20   20.50
  -1   2  -3  265.90   20.50
  -1   2  -4  131.40   10.10
   1  -2   4  114.70   10.00
   1  -2   5   41.10    4.20
  -1   2  -5   46.20    4.10
   1  -2   6   -0.90    2.40
  -1   2  -6    2.80    1.90
  -1   2  -7   17.40    2.80
  -1   2  -8   25.20    3.20
  -1   2  -9  123.80   10.50
  -1   2 -11    0.20    2.40
  -1   2 -12    0.30    2.40
  -1   2 -14    3.10    2.60
   1  -3 -14   34.50    4.50
   1  -3 -13  349.90   28.20
   1  -3 -12  449.00   35.70
   1  -3 -11   23.50    4.30
   1  -3 -10  959.20   74.90
   1  -3  -9  169.20   14.10
   1  -3  -8  396.70   31.40
   1  -3  -7 4217.80  330.50
  -1   3   7 4339.60  330.60
  -1   3   6 4426.50  346.30
   1  -3  -6 4534.40  346.30
  -1   3   5   94.80    8.10
   1  -3  -5   89.80    8.20
   1  -3  -4    0.10    2.20
  -1   3   4   -0.90    2.70
  -1   3   3 3899.00  292.00
   1  -3  -3 3670.40  292.00
   1  -3  -2 1264.70   97.00
  -1   3   2 1241.00   97.00
   1  -3  -1 1152.80   89.30
   1  -3   0 3146.80  243.00
   1  -3   1  266.40   20.90
   1  -3   2   37.10    4.00
  -1   3  -2   44.40    4.00
  -1   3  -3  428.20   32.90
   1  -3   3  416.40   32.90
  -1   3  -4    3.20    2.20
   1  -3   4    4.00    1.90
  -1   3  -5 1691.30  130.40
   1  -3   5 1678.70  130.40
   1  -3   6 1225.30   96.70
  -1   3  -6 1267.70   96.70
  -1   3  -7 1171.60   88.90
   1  -3   7 1115.50   89.00
  -1   3  -8  124.50   10.40
  -1   3  -9  328.40   26.10
  -1   3 -11 1127.80   87.60
  -1   3 -12  509.90   40.00
  -1   3 -13    1.30    2.20
   1   4 -14    2.00    2.20
   1  -4 -14    4.20    3.10
   1  -4 -13    1.10    2.90
   1   4 -13   -2.20    2.40
   1  -4 -12   -3.20    3.00
   1   4 -12    4.00    2.40
   1  -4 -11   17.60    3.40
   1   4 -11   10.30    2.40
   1  -4 -10   12.00    2.80
   1  -4  -9   31.80    4.20
   1   4  -8    6.00    1.90
   1  -4  -8    4.60    2.80
   1  -4  -7    0.70    3.10
   1   4  -7    2.00    1.60
  -1   4   7    0.80    3.10
   1   4  -6   13.60    2.10
   1  -4  -6   15.40    3.50
  -1   4   6   19.70    3.10
   1   4  -5   79.10    6.50
  -1   4   5   86.60    7.10
   1  -4  -5   73.30    7.10
   1   4  -4  114.20    9.10
   1  -4  -4  105.60    9.70
  -1   4   4  125.40    9.70
   1  -4  -3  121.10   10.10
  -1   4   3  121.30   10.10
  -1   4   2   89.80    7.50
   1  -4  -2   88.10    7.50
  -1   4   1   11.70    2.20
   1  -4  -1    9.80    2.30
  -1   4   0   10.50    2.20
   1  -4   0   12.20    2.50
  -1  -4   0   10.10    1.60
   1  -4   1   74.60    6.70
  -1  -4  -1   78.30    6.50
  -1   4  -1   81.30    6.70
  -1   4  -2  121.00   10.00
   1  -4   2  121.10    9.90
  -1   4  -3  149.00   12.10
   1  -4   3  151.30   12.10
   1  -4   4   79.00    6.40
  -1   4  -4   68.10    6.30
  -1   4  -5   33.30    3.50
   1  -4   5   31.80    3.50
   1  -4   6    0.30    2.10
  -1   4  -7   14.00    2.40
   1  -4   7   12.30    2.50
   1  -4   8   20.50    3.10
  -1   4  -8   19.90    2.90
  -1   4  -9   29.80    3.40
  -1   4 -11    0.20    1.90
  -1   4 -12   -2.10    2.10
  -1   4 -13   -0.10    2.10
   1   5 -13   47.60    4.70
   1  -5 -13   50.90    5.60
   1  -5 -12   45.00    4.50
   1   5 -12   29.00    3.70
   1  -5 -11   94.90    8.80
   1   5 -11   97.90    8.20
   1  -5 -10    3.40    3.00
   1   5 -10    4.30    1.90
   1  -5  -9  959.00   76.00
   1   5  -9  980.20   75.50
   1   5  -8    1.00    1.40
  -1   5   8    0.40    3.20
   1  -5  -8   -1.60    3.00
   1  -5  -7   -1.00    3.00
  -1   5   7    4.80    2.80
   1   5  -7   -0.50    1.40
   1  -5  -6   96.90    8.50
  -1   5   6   93.90    8.50
   1   5  -5    2.00    1.20
  -1   5   5    0.70    2.70
   1  -5  -4 1052.10   80.90
  -1   5   4 1119.80   81.00
   1   5  -4 1021.00   80.50
   1  -5  -3  199.40   13.90
  -1   5   3  168.90   13.80
   1   5  -3  166.00   13.30
  -1   5   2  682.80   52.00
   1  -5  -2  654.50   52.00
  -1  -5   1   96.30    8.00
   1   5  -1  106.00    8.00
  -1   5   1  104.70    8.60
   1  -5  -1  104.00    8.60
  -1  -5   0  142.30   11.30
  -1   5   0  148.00   11.70
   1  -5   0  143.80   11.70
   1  -5   1  324.20   26.70
  -1   5  -1  341.30   26.70
  -1  -5  -1  348.30   26.50
  -1   5  -2   52.20    4.80
   1  -5   2   48.80    4.70
  -1  -5  -2   53.30    4.70
  -1   5  -3  982.20   76.20
   1  -5   3  966.80   76.20
  -1  -5  -3 1002.80   76.30
  -1   5  -4    5.70    2.10
   1  -5   4    6.40    2.10
  -1  -5  -5    8.50    2.40
  -1   5  -5    8.10    2.00
   1  -5   5   10.00    2.10
   1  -5   6   15.20    2.50
   1  -5   7    1.50    2.10
  -1   5  -7    1.40    1.90
  -1   5  -8  776.20   61.10
   1  -5   8  793.40   61.10
  -1   5  -9    0.90    2.00
   1  -5   9    4.00    2.20
  -1   5 -11   56.90    5.30
  -1   5 -12   20.80    3.00
   1  -6 -13   -0.80    3.00
   1   6 -13   -2.00    1.90
   1   6 -12    1.10    1.60
   1  -6 -12   -1.00    3.10
   1   6 -11    6.90    1.90
   1  -6 -11    9.60    3.40
   1   6 -10   14.10    2.10
   1  -6 -10    6.30    3.10
   1  -6  -9   12.20    3.30
   1   6  -9   11.50    1.80
   1   6  -8   11.10    1.80
   1  -6  -8    8.30    3.30
  -1   6   7   -3.70    3.10
   1  -6  -7    1.90    2.80
   1   6  -7    1.40    1.30
   1   6  -6   13.20    1.70
   1  -6  -6   11.00    3.10
  -1   6   6   12.10    2.90
   1   6  -5   50.30    4.30
  -1   6   5   52.90    5.10
   1  -6  -5   51.60    5.10
   1  -6  -4   68.70    6.30
   1   6  -4   68.10    5.50
  -1  -6   4   73.20    5.60
  -1   6   4   59.90    6.40
   1   6  -3   62.80    5.30
  -1  -6   3   69.10    5.30
   1  -6  -3   63.10    6.00
  -1   6   3   68.90    6.00
  -1   6   2   34.10    3.60
   1  -6  -2   32.50    3.70
  -1  -6   2   34.90    2.90
  -1  -6   1    3.30    1.20
  -1   6   1    4.00    2.00
   1  -6  -1    2.90    2.30
   1   6  -1    5.00    0.80
  -1  -6   0    3.60    1.40
   1   6   0    1.40    1.20
  -1   6   0    5.40    2.00
   1  -6   0    5.10    2.20
   1  -6   1   36.50    3.80
  -1  -6  -1   36.40    3.50
  -1   6  -1   34.60    3.70
  -1  -6  -2   72.20    6.10
  -1   6  -2   65.70    6.10
   1  -6   2   69.30    6.10
   1  -6   3   95.60    7.80
  -1  -6  -3   85.10    7.80
  -1   6  -3   97.40    7.80
  -1   6  -4   50.20    4.80
  -1  -6  -4   50.80    5.00
   1  -6   4   52.70    4.80
   1  -6   5   15.90    2.50
  -1  -6  -5   16.40    3.70
  -1  -6  -6    2.20    2.70
  -1   6  -6    1.20    1.80
   1  -6   6   -1.00    1.80
  -1  -6  -7    6.80    3.20
   1  -6   7    9.50    2.10
  -1   6  -7   15.80    2.30
   1  -6   8   23.10    3.00
  -1  -6  -8   19.20    3.90
  -1   6  -8   24.40    3.00
  -1  -6  -9   14.90    3.10
   1  -6   9   20.80    2.80
  -1  -6 -10   16.40    3.80
  -1   6 -10   16.30    2.60
  -1  -6 -11    2.30    3.00
  -1   6 -11   -0.50    2.10
  -1  -6 -12   -0.70    3.00
  -1   6 -12    0.50    2.00
   1   7 -12   76.80    6.50
   1  -7 -12   73.00    7.50
   1  -7 -11   54.10    6.30
   1   7 -11   65.00    5.50
   1  -7 -10    9.90    3.50
   1   7 -10    7.80    1.70
   1  -7  -9  639.80   50.20
   1   7  -9  637.30   49.60
  -1   7   8   31.90    4.40
   1  -7  -8   33.90    4.30
   1   7  -8   34.00    3.20
   1  -7  -7    4.00    2.90
  -1   7   7    5.80    2.90
   1   7  -7    7.50    1.50
   1  -7  -6   57.40    5.90
   1   7  -6   60.70    5.00
  -1   7   6   57.70    5.70
  -1  -7   5   39.10    3.20
  -1   7   5   27.30    3.80
   1   7  -5   35.60    3.10
   1  -7  -5   28.90    3.90
  -1   7   4  608.40   52.30
   1   7  -4  658.60   51.80
  -1  -7   4  683.00   51.80
   1  -7  -4  711.50   52.30
   1  -7  -3   59.70    5.50
  -1  -7   3   60.80    4.90
   1   7  -3   59.70    4.80
  -1   7   3   63.00    5.60
   1   7  -2  444.40   35.00
  -1  -7   2  450.40   35.00
   1  -7  -2  480.30   35.40
  -1  -7   1  394.10   32.10
  -1   7   1  430.10   32.40
   1  -7  -1  380.50   32.40
   1   7  -1  440.30   32.10
  -1  -7   0  298.20   22.90
   1  -7   0  285.30   23.20
  -1   7   0  293.00   23.20
  -1   7  -1  597.30   47.20
  -1  -7  -1  619.40   47.00
   1  -7   1  595.50   47.20
  -1   7  -2  141.10   11.90
  -1  -7  -2  149.60   11.80
   1  -7   2  150.40   12.00
  -1  -7  -3  895.10   72.50
  -1   7  -3  931.40   72.50
   1  -7   3  970.30   72.40
  -1  -7  -4   51.20    4.70
   1  -7   4   47.60    4.50
   1  -7   5  103.90    8.50
  -1   7  -5  101.10    8.60
  -1  -7  -5  103.50    8.70
  -1  -7  -6   54.30    5.40
   1  -7   6   60.50    5.20
  -1   7  -6   54.90    5.30
  -1   7  -7    5.20    2.10
   1  -7   7    8.00    2.10
  -1  -7  -7    7.20    2.80
   1  -7   8  538.10   40.60
  -1  -7  -8  470.40   40.80
  -1   7  -8  535.70   40.60
   1  -7   9    2.80    2.10
  -1   7  -9    1.90    2.10
  -1  -7  -9    5.50    3.00
  -1  -7 -10  100.50   10.10
  -1   7 -10  131.40    9.90
   1  -7  10  117.40    9.90
  -1   7 -11   43.80    4.10
  -1  -7 -11   28.80    4.90
   1   8 -11    5.80    1.70
   1  -8 -11    8.60    2.90
   1   8 -10    4.40    1.70
   1  -8 -10    8.50    2.50
  -1   8   9   13.30    3.20
   1   8  -9   11.20    1.80
   1  -8  -9    9.90    3.30
   1  -8  -8    9.20    2.60
  -1   8   8    7.80    3.10
   1   8  -8    5.90    1.50
   1   8  -7   -0.90    1.30
  -1   8   7    4.60    2.80
   1  -8  -7   -0.10    2.30
   1   8  -6    7.50    1.30
  -1   8   6    9.10    2.60
  -1  -8   6    4.50    1.50
   1  -8  -6    5.50    2.30
   1  -8  -5   24.70    3.50
  -1   8   5   23.50    3.20
  -1  -8   5   23.60    2.30
  -1   8   4   57.00    5.00
  -1  -8   4   46.10    3.90
   1  -8  -4   48.90    4.70
   1   8  -4   44.40    3.80
   1   8  -3   40.60    3.50
   1  -8  -3   34.90    4.20
  -1  -8   3   42.20    3.50
  -1   8   3   42.20    4.30
   1  -8  -2   17.10    2.80
   1   8  -2   15.60    1.70
  -1   8   2   19.00    2.70
  -1  -8   2   20.00    1.90
  -1   8   1    3.00    2.10
  -1  -8   1    4.10    1.50
   1  -8  -1    4.80    2.00
  -1  -8   0    3.30    1.50
   1  -8   0    2.70    2.10
   1   8   0    1.10    1.40
   1  -8   1   23.30    3.20
   1   8   1   28.70    3.10
  -1  -8  -1   29.00    2.90
  -1  -8  -2   39.20    3.80
   1  -8   2   41.10    4.00
   1  -8   3   43.50    4.40
  -1  -8  -3   49.40    4.40
  -1   8  -4   31.20    3.40
  -1  -8  -4   30.40    3.60
   1  -8   4   30.10    3.30
   1  -8   5    4.10    1.90
  -1   8  -5    8.40    2.10
  -1  -8  -5    7.60    2.50
  -1   8  -6   -1.40    1.90
   1  -8   6   -1.00    1.70
  -1  -8  -6    3.70    2.20
  -1   8  -7    9.10    2.10
   1  -8   7    5.70    1.90
  -1  -8  -7    4.70    2.50
  -1  -8  -8   10.40    2.80
  -1   8  -8   13.10    2.30
   1  -8   8    9.30    2.20
   1  -8   9   17.20    2.60
  -1  -8  -9   17.70    3.40
  -1   8 -10    5.40    2.00
   1  -8  10    9.90    2.20
   1  -9  -9   98.60    9.00
   1   9  -9  104.70    8.30
  -1   9   9   96.20    9.00
  -1   9   8  122.80   10.20
   1  -9  -8  107.30    9.90
   1   9  -8  113.30    9.20
   1  -9  -7 1178.10   93.80
   1   9  -7 1209.70   93.40
  -1   9   7 1228.70   94.00
   1   9  -6 1398.20  107.80
  -1   9   6 1451.80  108.20
   1  -9  -6 1358.90  108.10
  -1  -9   6 1380.10  107.70
  -1   9   5   15.40    2.80
  -1  -9   5   17.40    1.90
   1   9  -5   18.50    1.80
   1  -9  -5   14.10    2.90
   1  -9  -4   10.80    2.50
  -1  -9   4   13.00    1.50
  -1   9   3 1030.40   82.90
   1  -9  -3 1073.30   82.90
  -1  -9   3 1077.60   82.50
  -1   9   2   32.60    3.70
  -1  -9   2   35.10    3.10
   1  -9  -2   30.10    3.70
  -1  -9   1  446.80   34.90
  -1   9   1  451.80   35.20
   1   9  -1  457.80   34.80
   1  -9  -1  425.80   35.10
  -1   9   0  851.90   62.10
   1   9   0  811.30   61.90
   1  -9   0  775.20   62.10
  -1  -9   0  771.20   61.80
   1   9   1  118.60    9.30
   1  -9   1  107.60    9.40
  -1   9  -1  112.60    9.40
  -1  -9  -1  115.10    9.20
  -1   9  -2  213.40   17.20
   1  -9   2  210.10   17.20
  -1  -9  -2  222.90   17.10
  -1  -9  -3   15.40    2.50
  -1   9  -3   16.50    2.50
   1  -9   3   15.90    2.40
   1  -9   4   -0.40    1.80
  -1   9  -4    2.30    1.90
  -1  -9  -4    3.30    2.10
  -1   9  -5  662.90   51.60
  -1  -9  -5  662.10   51.70
   1  -9   5  663.60   51.60
   1  -9   6  396.50   29.20
  -1   9  -6  363.80   29.20
  -1  -9  -6  347.10   29.40
   1  -9   7  346.60   26.70
  -1   9  -7  348.90   26.80
  -1  -9  -7  318.40   27.00
  -1   9  -8   81.40    6.90
   1  -9   8   74.70    6.70
  -1  -9  -8   78.40    7.00
  -1  -9  -9  146.10   11.00
   1  -9   9  127.00   10.60
  -1   9  -9  119.50   10.60
   1  10  -8   -0.80    1.30
   1 -10  -8    5.50    2.60
  -1  10   8    4.60    3.10
   1 -10  -7   -2.00    2.30
  -1  10   7    0.00    2.60
   1  10  -7    0.60    1.10
  -1 -10   7    1.30    1.20
   1  10  -6    0.10    0.90
  -1  10   6   -1.80    2.20
  -1 -10   6    1.80    1.10
  -1 -10   5   13.70    1.70
  -1  10   5   16.50    2.70
   1 -10  -5   13.70    2.60
   1  10  -5   12.60    1.50
   1 -10  -4   18.90    3.00
  -1 -10   4   20.50    2.10
   1  10  -4   20.30    2.00
   1  10  -3   22.60    2.20
  -1 -10   3   22.40    2.30
  -1  10   3   20.30    3.00
   1 -10  -3   21.70    3.10
  -1  10   2   12.70    2.60
  -1 -10   2   17.20    2.10
   1 -10  -2   20.00    2.80
   1  10  -2   18.30    2.00
  -1  10   1    2.60    2.00
   1  10  -1    0.20    1.00
   1 -10  -1    2.00    2.10
  -1 -10   1    1.30    1.40
   1  10   0    6.60    1.80
  -1 -10   0    3.60    1.60
  -1  10   0    4.50    2.10
   1 -10   0    5.60    2.20
   1  10   1   15.90    2.40
   1 -10   1   12.80    2.40
  -1  10  -1   13.00    2.40
  -1 -10  -1   10.70    2.00
  -1 -10  -2   26.50    3.00
   1 -10   2   28.80    3.20
  -1  10  -2   26.00    3.10
   1 -10   3   24.40    3.00
  -1 -10  -3   29.40    3.00
  -1  10  -3   23.40    2.90
  -1 -10  -4    9.40    2.30
  -1  10  -4   13.40    2.10
   1 -10   4    8.10    2.20
  -1 -10  -5    1.50    2.10
   1 -10   5    7.30    2.00
  -1  10  -5    4.50    2.00
  -1 -10  -6   -2.80    2.20
  -1  10  -6    1.90    1.90
   1 -10   6    0.70    1.70
  -1  10  -7    8.00    2.00
  -1 -10  -7    2.40    2.50
   1 -10   7    6.80    1.80
   1 -11  -5   17.80    2.90
  -1  11   5   12.50    2.80
  -1 -11   5   19.80    1.80
   1  11  -5   16.00    1.80
   1  11  -4  315.00   23.20
  -1 -11   4  295.40   23.20
   1 -11  -4  275.40   23.50
  -1  11   4  275.50   23.50
  -1 -11   3   42.80    3.70
   1  11  -3   43.90    3.70
   1 -11  -3   41.40    4.40
   1  11  -2  126.20    9.50
  -1 -11   2  118.70    9.50
  -1  11   2  102.60    9.80
   1 -11  -2  116.20    9.90
   1 -11  -1   12.10    2.40
   1  11  -1   10.40    1.60
  -1  11   1   11.40    2.30
  -1 -11   1    9.50    1.80
  -1 -11   0   20.30    2.70
   1  11   0   22.40    2.70
  -1  11   0   26.70    3.10
   1  11   1   38.60    3.70
  -1 -11  -1   34.00    3.40
  -1  11  -1   37.40    3.70
   1 -11   1   31.90    3.70
  -1  11  -2    5.70    1.90
  -1 -11  -2    5.80    1.90
   1 -11   2    6.60    2.10
  -1  11  -3  263.00   19.60
   1 -11   3  241.80   19.60
  -1 -11  -3  237.00   19.60
   1 -11   4    3.70    1.80
  -1 -11  -4    1.60    1.90
   2   0 -15  196.00   16.40
   2   0 -14    8.40    3.00
   2   0 -13  654.50   51.50
   2   0 -12  358.60   28.60
   2   0 -11   85.10    7.70
   2   0 -10  187.20   15.30
   2   0  -9 1271.50   98.70
   2   0  -8   97.70    8.50
   2   0  -7  803.30   63.70
  -2   0   7  832.30   63.70
  -2   0   6 1108.30   85.80
   2   0  -6 1102.40   85.80
  -2   0   5   12.70    2.70
   2   0  -5   11.40    2.60
   2   0  -4  138.50   10.80
  -2   0   4  126.20   10.80
  -2   0   3   54.30    4.90
   2   0  -3   53.40    4.90
  -2   0   2  333.80   26.10
   2   0  -2  333.70   26.10
   2   0  -1 7794.30  598.50
  -2   0   1 7714.70  598.50
   2   0   0  806.20   63.00
  -2   0   0  821.60   63.10
   2   0   1 1976.30  153.40
  -2   0  -1 1994.40  153.40
   2   0   2  939.60   72.90
  -2   0  -2  940.70   72.90
   2   0   3  171.40   14.20
  -2   0  -3  185.90   14.30
   2   0   4 2908.30  223.70
  -2   0  -4 2880.40  223.70
   2   0   5 3890.90  310.30
  -2   0  -5 4130.60  310.20
   2   0   6 1162.10   90.60
  -2   0  -6 1171.50   90.60
  -2   0  -7  763.30   59.50
  -2   0  -8  468.30   36.80
  -2   0  -9  143.60   12.00
  -2   0 -10   51.10    5.20
  -2   0 -11 1270.30   98.80
  -2   0 -13   15.90    3.10
   2   1 -15    4.10    2.90
   2  -1 -15    9.60    3.00
   2   1 -14   34.50    4.70
   2  -1 -14   39.40    4.60
   2   1 -13   36.00    4.80
   2  -1 -13   53.20    5.20
   2  -1 -12   97.60    9.10
   2   1 -12  107.90    9.20
   2  -1 -11   63.20    6.00
   2   1 -11   63.50    6.30
   2  -1 -10   21.60    3.50
   2   1 -10   24.50    3.40
   2   1  -9   -1.70    2.50
   2  -1  -9    0.70    2.30
   2  -1  -8   62.50    5.80
  -2   1   8   60.30    6.10
   2   1  -8   58.30    5.70
   2  -1  -7  146.10   12.20
   2   1  -7  147.90   12.10
  -2   1   7  152.70   12.40
   2  -1  -6  179.20   14.30
   2   1  -6  169.30   14.20
  -2   1   6  173.90   14.20
  -2  -1   6  180.80   14.20
  -2  -1   5  121.40    9.40
   2  -1  -5  110.40    9.50
   2   1  -5  107.60    9.30
  -2   1   5  115.20    9.60
  -2   1   4   29.70    3.30
   2   1  -4   27.10    3.10
  -2  -1   4   26.90    3.10
   2  -1  -4   26.70    3.40
   2   1  -3    0.30    1.80
   2  -1  -3    0.80    2.10
  -2  -1   3    1.30    1.70
  -2   1   3    1.60    2.00
  -2   1   2   18.10    3.00
  -2  -1   2   24.60    2.50
   2  -1  -2   23.90    3.20
   2   1  -2   21.60    2.60
   2   1  -1   45.80    4.20
   2  -1  -1   41.60    4.60
  -2  -1   1   46.70    4.20
  -2   1   1   49.20    4.50
   2  -1   0   44.50    4.40
  -2   1   0   48.30    4.40
  -2  -1   0   40.10    4.00
   2   1   0   43.00    4.00
   2   1   1    5.10    2.00
   2  -1   1    3.40    2.30
  -2   1  -1    6.00    2.50
  -2  -1  -1    2.50    2.00
   2   1   2   10.90    2.30
  -2  -1  -2    9.90    2.20
  -2   1  -2   10.30    2.60
   2  -1   2   11.70    2.70
   2   1   3   88.70    7.40
  -2   1  -3   93.60    7.60
  -2  -1  -3   88.30    7.40
   2  -1   3   80.90    7.50
   2  -1   4  202.90   15.90
  -2  -1  -4  192.10   15.80
   2   1   4  192.50   15.80
  -2   1  -4  207.00   15.90
  -2  -1  -5  147.10   11.70
   2  -1   5  138.30   11.80
   2  -1   6  110.20    9.20
  -2  -1  -6  109.50    9.20
  -2   1  -6  101.60    9.10
  -2   1  -7    7.50    2.50
   2  -1   7    7.60    2.70
  -2  -1  -7   11.50    2.70
  -2  -1  -8   13.10    3.00
  -2   1  -8    7.00    2.90
  -2  -1  -9   53.50    5.70
  -2   1  -9   61.00    5.60
  -2   1 -10  124.80   10.50
  -2  -1 -10  121.50   10.50
  -2   1 -11  109.10    9.10
  -2  -1 -11  100.90    9.20
  -2  -1 -12   33.50    4.30
  -2  -1 -13   12.00    3.00
  -2   1 -13    7.90    2.40
   2  -2 -14    7.30    3.30
   2   2 -14   -1.90    3.00
   2  -2 -13    2.70    3.10
   2   2 -13    0.40    2.70
   2   2 -12   51.80    5.30
   2  -2 -12   54.30    5.80
   2  -2 -11  110.40    9.70
   2   2 -11  114.10    9.60
   2   2 -10  259.80   21.20
   2  -2 -10  273.60   21.50
   2  -2  -9  204.30   16.90
   2   2  -9  202.70   16.70
  -2   2   9  218.00   17.10
  -2   2   8  197.20   15.60
   2   2  -8  186.10   15.20
   2  -2  -8  186.30   15.60
   2   2  -7  565.20   45.10
   2  -2  -7  570.30   45.30
  -2   2   7  608.30   45.40
  -2   2   6  112.40   10.20
   2  -2  -6  132.10   10.30
   2   2  -6  122.10    9.90
   2  -2  -5  107.70    8.90
   2   2  -5  101.20    8.50
  -2  -2   5  101.40    8.60
  -2   2   5  108.60    9.00
  -2  -2   4  465.00   35.40
   2   2  -4  453.60   35.40
  -2   2   4  457.60   35.70
   2  -2  -4  443.50   35.70
  -2  -2   3 1319.00   99.40
   2   2  -3 1279.30   99.40
  -2   2   3 1226.60   99.70
   2  -2  -3 1298.50   99.70
   2  -2  -2   84.80    7.70
   2   2  -2   89.00    7.20
  -2  -2   2   89.50    7.20
  -2   2   2   97.50    7.70
  -2  -2   1    5.30    1.50
   2  -2  -1    7.90    2.60
   2   2  -1    7.50    1.60
  -2   2   1    4.40    2.40
   2  -2   0   72.20    6.70
  -2   2   0   77.40    6.50
   2   2   0   76.30    6.10
  -2  -2   0   75.00    6.20
   2  -2   1 1338.50  101.50
  -2   2  -1 1310.40  101.50
   2   2   1 1268.90  101.30
  -2  -2  -1 1341.10  101.40
  -2   2  -2  363.70   27.30
  -2  -2  -2  334.50   27.00
   2   2   2  338.40   27.10
   2  -2   2  357.00   27.20
   2  -2   3  131.70   10.70
   2   2   3  131.70   10.60
  -2  -2  -3  132.10   10.50
  -2   2  -3  122.30   10.70
  -2   2  -4   39.50    3.90
   2  -2   4   41.30    4.20
  -2  -2  -4   35.30    3.80
  -2  -2  -5  684.50   50.20
  -2   2  -5  623.10   50.10
   2  -2   5  624.10   50.20
  -2  -2  -6  234.80   18.90
  -2   2  -6  240.50   18.80
   2  -2   6  231.30   18.80
  -2  -2  -7  279.10   21.40
   2  -2   7  273.00   21.40
  -2   2  -7  251.90   21.30
  -2  -2  -8  499.00   35.10
  -2   2  -8  437.90   34.90
   2  -2   8  406.00   34.90
  -2  -2  -9  128.10   11.50
  -2   2  -9  148.20   11.60
  -2   2 -10   52.20    5.00
  -2  -2 -10   55.30    5.60
  -2  -2 -11   14.90    3.70
  -2   2 -11   28.00    3.30
  -2  -2 -12   12.20    3.10
  -2  -2 -13  102.70    9.80
  -2   2 -13  125.60   10.00
   2  -3 -14   33.30    3.90
   2   3 -14   26.90    3.90
   2   3 -13   70.70    7.30
   2  -3 -13   90.60    7.50
   2   3 -12   69.50    7.20
   2  -3 -12   92.30    7.60
   2  -3 -11   53.20    5.30
   2   3 -11   36.30    4.50
   2   3 -10   13.20    2.90
   2  -3 -10   15.00    3.80
  -2   3  10   16.40    3.30
   2  -3  -9    6.50    2.90
   2   3  -9    8.10    2.50
   2  -3  -8   54.00    5.30
   2   3  -8   47.80    4.90
  -2   3   8   52.80    5.60
   2  -3  -7   73.20    6.70
   2   3  -7   72.80    6.30
  -2   3   7   76.80    6.90
  -2   3   6  122.20   11.10
   2   3  -6  137.80   10.60
   2  -3  -6  128.70   11.10
   2  -3  -5  107.60    9.10
  -2   3   5  113.00    9.00
   2   3  -5  101.40    8.40
   2   3  -4   26.20    2.50
  -2   3   4   26.50    3.60
  -2  -3   4   28.80    2.70
   2  -3  -4   31.70    3.70
  -2  -3   3   -0.10    1.10
   2  -3  -3    3.00    2.40
  -2   3   3    1.50    2.70
   2   3  -3    0.20    0.70
   2   3  -2   42.00    3.60
  -2  -3   2   42.00    3.70
  -2   3   2   46.70    4.50
  -2   3   1  110.40   11.30
   2  -3  -1  112.90   11.30
  -2  -3   1  116.00   10.80
   2  -3   0   67.40    5.80
   2   3   0   60.30    5.10
  -2  -3   0   64.70    5.20
  -2   3   0   62.90    5.70
  -2   3  -1    3.60    2.50
   2  -3   1    3.90    2.20
   2   3   1    5.90    1.70
  -2  -3  -1    4.30    1.50
   2  -3   2   14.70    2.60
  -2   3  -2   13.10    3.00
  -2  -3  -2   15.40    2.10
  -2   3  -3   77.80    6.50
  -2  -3  -3   74.30    6.30
   2  -3   3   67.00    6.50
  -2  -3  -4  152.70   11.90
   2  -3   4  139.10   11.90
  -2  -3  -5  139.00   10.20
   2  -3   5  114.80   10.10
  -2   3  -5  115.10   10.10
  -2   3  -6   83.10    7.50
  -2  -3  -6   84.90    7.50
   2  -3   6   89.50    7.60
  -2   3  -7    9.90    2.60
  -2  -3  -7   10.60    2.70
   2  -3   7    7.90    2.50
  -2   3  -8    1.30    2.40
   2  -3   8    2.10    2.60
  -2  -3  -8   -0.10    2.80
   2  -3   9   47.70    4.80
  -2  -3  -9   33.10    4.70
  -2   3  -9   41.70    4.40
  -2  -3 -10   60.60    7.80
  -2   3 -10  113.40    7.90
  -2   3 -11   87.30    7.00
  -2  -3 -11   65.00    7.30
  -2  -3 -12   49.50    5.40
  -2   3 -12   54.20    5.00
   2   4 -14    0.40    2.30
   2  -4 -14   -1.80    3.20
   2   4 -13    4.00    2.20
   2  -4 -13    4.50    3.40
   2  -4 -12   19.90    5.20
   2   4 -12   76.60    5.20
   2  -4 -11  129.60   10.90
   2   4 -11  114.60   10.00
  -2   4  10  203.70   11.20
   2  -4 -10  211.40   11.30
   2  -4  -9  217.30   17.00
   2   4  -9  201.60   16.60
   2   4  -8   81.00    7.20
   2  -4  -8   92.60    7.90
  -2   4   8   89.10    7.80
  -2   4   7  833.60   61.70
   2  -4  -7  814.70   61.70
   2   4  -7  759.20   61.40
   2  -4  -6  107.20    9.40
   2   4  -6  106.10    8.70
  -2   4   6  113.90    9.50
   2  -4  -5  155.70   12.30
   2   4  -5  146.50   11.80
  -2   4   5  157.50   12.40
   2   4  -4  468.70   36.70
   2  -4  -4  501.10   37.20
   2  -4  -3 1390.30  113.20
  -2   4   3 1534.90  113.20
   2  -4  -2   55.90    5.20
  -2   4   2   49.40    5.00
   2  -4  -1   65.20    5.80
  -2  -4   1   60.50    4.90
  -2   4   1   59.70    5.60
   2  -4   0  135.60   11.50
  -2  -4   0  139.80   11.00
  -2   4   0  144.60   11.50
  -2   4  -1  957.20   71.90
  -2  -4  -1  911.20   71.60
   2  -4   1  926.40   71.90
   2  -4   2  229.10   18.40
  -2  -4  -2  228.30   18.10
  -2   4  -2  234.50   18.40
  -2  -4  -3  213.70   16.60
   2  -4   3  203.90   16.70
  -2   4  -4   96.20    8.40
  -2  -4  -4   99.60    8.30
   2  -4   4   98.40    8.40
   2  -4   5  588.60   46.60
  -2   4  -5  605.40   46.60
   2  -4   6  204.40   17.10
  -2   4  -6  222.10   17.20
   2  -4   7  272.10   21.80
  -2   4  -7  275.60   21.80
   2  -4   8  223.70   18.00
   2  -4   9  104.70    9.00
  -2   4  -9  103.10    8.80
   2  -4  10   60.70    5.30
  -2   4 -10   43.70    4.80
  -2   4 -11   59.00    5.80
  -2   4 -12    7.30    2.20
   2  -5 -13   35.40    4.80
   2  -5 -12   72.70    7.40
   2  -5 -11   44.50    5.30
  -2   5  11   47.50    5.10
  -2   5  10    9.90    3.50
   2  -5 -10    4.80    3.20
   2  -5  -9   -2.40    2.50
   2   5  -9    2.00    1.60
   2  -5  -8   36.20    4.20
   2   5  -8   40.40    3.80
   2  -5  -7   92.10    8.00
   2   5  -7   86.20    7.20
  -2   5   7   91.40    8.00
   2   5  -6  101.30    8.00
   2  -5  -6   99.50    8.70
  -2   5   6   97.00    8.80
   2  -5  -5   48.80    5.40
   2   5  -5   50.00    4.10
   2   5  -5   51.30    4.10
  -2   5   5   49.50    5.20
  -2   5   4    6.90    2.40
   2  -5  -4   14.70    3.00
   2  -5  -3    3.90    2.60
  -2   5   3    2.10    2.60
   2  -5  -2   42.70    4.60
   2  -5  -1   76.00    6.80
   2  -5   0   51.00    5.20
  -2   5   0   64.60    5.40
  -2  -5   0   55.10    4.60
   2  -5   1    8.00    2.50
  -2  -5  -1   12.30    1.80
   2  -5   2    2.30    2.40
   2  -5   3   44.90    4.60
  -2   5  -3   48.50    4.80
   2  -5   4  110.20    9.60
  -2   5  -4  117.50    9.60
   2  -5   5   85.00    7.90
  -2   5  -5   98.60    8.00
   2  -5   6   73.40    6.50
  -2   5  -6   72.40    6.40
  -2   5  -7    6.80    2.10
   2  -5   7    6.60    2.20
   2  -5   8    9.90    2.40
  -2   5  -9   31.00    3.40
   2  -5   9   24.20    3.70
   2  -5  10   91.50    8.00
  -2   5 -10   85.30    7.80
  -2   5 -11   72.60    6.60
   2   6 -12  157.70   14.00
   2  -6 -12  229.50   15.00
  -2   6  11   56.70    5.70
   2  -6 -11   41.90    5.20
   2   6 -11   51.50    4.50
  -2   6  10  118.80   12.80
   2  -6 -10  144.40   13.00
  -2   6   9  765.20   65.10
   2   6  -9  845.80   64.60
   2  -6  -9  864.50   65.10
   2   6  -8   84.80    6.80
   2  -6  -8   82.40    7.60
  -2   6   8   77.80    7.60
   2  -6  -7  475.40   39.20
   2   6  -7  503.00   38.60
   2  -6  -6  702.70   54.40
  -2   6   6  719.50   54.50
   2   6  -6  679.70   53.80
   2   6  -6  710.30   53.90
   2  -6  -5   14.30    3.00
  -2   6   5   11.80    2.70
   2  -6  -4   18.60    3.20
  -2   6   4   13.80    3.10
   2  -6  -3   -2.70    2.20
  -2   6   3   -0.40    2.40
  -2   6   2  188.60   14.90
   2  -6  -2  178.00   14.90
   2  -6  -1 3124.30  243.20
  -2   6   1 3165.60  243.10
  -2   6   0   24.70    3.20
  -2  -6   0   27.90    2.60
   2  -6   0   22.40    3.40
   2  -6   1  455.40   36.80
  -2  -6  -1  470.80   36.50
  -2   6  -1  480.80   36.80
   2  -6   2  613.40   47.60
  -2   6  -2  606.20   47.60
   2  -6   3   88.50    7.60
  -2   6  -3   85.60    7.50
  -2   6  -4 1386.60  106.80
   2  -6   4 1365.80  106.70
   2  -6   5 1873.40  147.90
  -2   6  -5 1950.40  147.90
   2  -6   6  649.70   49.70
  -2   6  -6  623.40   49.80
   2  -6   7  454.40   35.70
  -2   6  -8  279.40   23.00
   2  -6   8  298.90   23.00
  -2   6  -9   87.60    7.50
   2  -6   9   82.10    7.40
  -2   6 -10   17.90    3.10
   2  -6  10   23.30    3.30
  -2   6 -11  741.10   56.90
   2  -6  11  713.70   56.90
   2  -7 -12   41.50    5.20
   2   7 -12   56.30    4.60
  -2   7  11   20.70    4.80
   2  -7 -11   30.20    4.50
   2   7 -10    5.90    1.50
   2  -7 -10    3.40    2.20
  -2   7  10    8.90    3.30
   2  -7  -9   -1.70    3.00
   2   7  -9   -0.40    1.10
  -2   7   9    0.00    3.20
   2   7  -8   37.20    3.20
   2  -7  -8   41.10    4.60
  -2   7   8   34.40    4.50
  -2   7   7   80.80    6.80
   2  -7  -7   73.20    6.80
   2   7  -7   68.20    5.60
   2  -7  -6   73.90    6.40
   2   7  -6   61.10    5.20
   2   7  -6   70.30    5.30
  -2   7   5   32.30    4.20
   2  -7  -5   38.60    4.10
   2  -7  -4    0.30    2.50
  -2   7   4    2.50    2.50
  -2   7   3   11.60    2.70
   2  -7  -3   10.60    2.70
  -2   7   2   38.10    4.20
   2  -7  -2   32.90    4.20
  -2  -7   1   44.10    3.70
   2  -7  -1   47.70    4.70
  -2   7   1   50.60    4.60
   2  -7   0   55.20    5.30
  -2  -7   0   55.70    4.70
  -2   7   0   59.50    5.40
  -2  -7  -1   11.50    1.90
  -2   7  -1   11.50    2.80
   2  -7   1   13.90    2.60
   2  -7   2    2.10    2.30
  -2   7  -2    4.30    2.40
  -2  -7  -2    2.10    1.90
  -2   7  -3   26.40    3.30
  -2  -7  -3   25.20    3.10
   2  -7   3   23.30    3.20
  -2   7  -4   73.10    7.30
  -2  -7  -4   92.40    7.30
   2  -7   4   83.80    7.30
  -2   7  -5   71.90    6.70
   2  -7   5   77.20    6.70
   2  -7   6   49.10    5.00
  -2   7  -6   55.60    5.00
  -2   7  -7    6.80    2.50
   2  -7   7    8.40    2.30
  -2   7  -8    0.00    2.00
   2  -7   8    0.80    2.20
   2  -7   9   18.40    2.80
   2  -7  10   39.90    4.40
  -2   7 -10   46.50    4.50
   2  -8 -10  116.70   11.10
   2   8 -10  132.80   10.30
  -2   8  10  130.40   11.40
  -2   8   9   58.70    6.00
   2  -8  -9   57.00    6.10
   2   8  -9   59.80    4.90
   2  -8  -8   94.80    7.90
  -2   8   8   80.80    7.50
   2   8  -8   81.90    6.70
   2   8  -7  122.60    9.50
  -2   8   7  120.90   10.50
   2  -8  -7  116.70   10.40
   2  -8  -6   17.40    2.90
   2   8  -6   18.10    1.50
  -2   8   6   20.30    3.20
   2  -8  -5   15.30    3.10
   2  -8  -4  216.70   17.60
  -2   8   4  216.00   17.60
  -2   8   3  233.20   18.70
   2  -8  -3  233.50   18.80
   2  -8  -2   46.80    4.80
  -2   8   2   46.00    4.60
  -2  -8   1   27.40    2.40
   2  -8  -1   27.10    3.60
  -2   8   1   31.50    3.50
   2  -8   0   27.00    3.60
  -2  -8   0   30.80    2.90
  -2   8   0   31.60    3.40
   2  -8   1  357.40   28.30
  -2   8  -1  376.00   28.30
  -2  -8  -1  350.00   28.00
  -2  -8  -2  207.20   16.20
   2  -8   2  201.10   16.50
  -2   8  -2  203.00   16.40
   2  -8   3   18.70    2.80
  -2  -8  -3   16.40    2.50
  -2   8  -3   19.90    2.90
  -2   8  -4    3.50    2.20
  -2  -8  -4   -0.90    2.20
   2  -8   4    1.20    2.20
   2  -8   5  199.60   14.90
  -2  -8  -5  168.20   14.80
   2  -8   6   62.80    5.70
  -2  -8  -6   61.00    5.90
  -2   8  -7   67.60    6.30
  -2  -8  -7   76.80    6.60
   2  -8   7   66.20    6.30
  -2   8  -8  249.30   18.60
  -2  -8  -8  202.00   18.70
   2  -8   8  237.10   18.50
  -2   8  -9   64.00    5.80
   2  -8   9   71.90    5.80
  -2   9   9    1.40    2.50
   2   9  -9    4.70    0.90
   2  -9  -8   22.10    3.30
  -2   9   8   15.50    3.10
   2  -9  -7   27.80    3.80
  -2   9   7   28.40    3.50
   2   9  -7   26.90    2.20
   2  -9  -6   39.60    4.10
   2   9  -6   31.50    2.60
  -2   9   6   38.30    4.40
  -2   9   5   23.10    3.30
   2  -9  -5   23.80    3.20
  -2   9   4   11.00    2.70
   2  -9  -4   21.70    2.90
   2  -9  -3   -0.10    2.60
  -2  -9   2   22.80    2.00
   2  -9  -2   27.00    3.20
  -2   9   2   26.40    3.20
  -2   9   1   48.50    4.90
  -2  -9   1   49.90    4.10
   2  -9  -1   51.40    5.00
   2  -9   0   39.20    4.00
  -2   9   0   31.10    3.80
  -2  -9   0   36.20    3.20
  -2  -9  -1    5.80    1.70
   2  -9   1    5.60    2.40
   2  -9   2   -1.60    2.30
  -2  -9  -2    1.30    1.60
  -2   9  -2    0.40    2.20
   2  -9   3   15.50    2.50
  -2   9  -3   13.10    2.60
  -2  -9  -3   16.50    2.50
   2  -9   4   43.30    4.40
  -2  -9  -4   42.50    4.10
  -2  -9  -5   39.10    4.20
   2  -9   5   41.50    4.10
  -2   9  -6   24.80    3.40
  -2  -9  -6   28.80    3.60
   2  -9   6   33.70    3.50
  -2   9  -7    4.40    2.10
  -2  -9  -7    3.20    2.30
   2  -9   7    1.60    1.90
  -2  10   7  389.80   29.40
   2 -10  -7  371.00   29.40
   2  10  -7  366.20   28.60
  -2  10   6   15.60    3.30
   2 -10  -6   15.70    2.90
   2 -10  -5   74.50    6.90
   2 -10  -4  242.20   19.50
  -2  10   3  413.30   34.10
   2 -10  -3  452.50   34.20
  -2 -10   2   14.80    1.40
  -2  10   2   21.60    2.80
   2 -10  -2   15.60    2.90
  -2  10   1   86.70    7.70
   2 -10  -1   94.50    7.90
  -2 -10   1   87.80    7.10
   2 -10   0   67.50    6.30
  -2 -10   0   70.30    5.70
  -2 -10  -1  211.30   16.70
   2 -10   1  211.70   17.00
   2 -10   2   73.50    6.20
  -2 -10  -2   63.50    5.70
   2 -10   3   84.30    7.30
  -2 -10  -3   80.50    7.10
  -2  10  -3   86.70    7.40
  -2  10  -4   33.60    3.50
  -2 -10  -4   26.00    3.30
   2 -10   4   27.60    3.30
  -2 -10  -5  202.60   17.20
  -2  10  -5  213.40   17.20
   2 -10   5  225.50   17.20
  -2  11   4    5.30    2.30
   2 -11  -4   -1.70    2.60
  -2  11   3    1.60    2.30
  -2 -11   3    1.80    0.50
   2 -11  -3    2.60    2.10
  -2 -11   2   20.20    1.90
  -2  11   2   24.60    3.10
   2 -11  -2   22.70    3.30
  -2  11   1   31.30    3.50
   2 -11  -1   31.30    3.60
  -2 -11   1   27.20    2.60
  -2 -11   0   19.10    2.10
   2 -11   0   22.30    3.00
  -2  11   0   19.20    3.00
   2 -11   1    7.90    2.30
  -2  11  -1    2.70    2.10
  -2 -11  -1    5.50    1.50
  -2  11  -2   -3.20    2.10
   2 -11   2    3.00    2.00
  -2 -11  -2   -0.60    1.60
   3   0 -13    4.00    2.50
   3   0 -12   43.50    5.00
   3   0 -11   97.40    8.60
  -3   0  10   97.30    8.80
   3   0 -10  101.30    8.70
   3   0  -9   81.70    7.50
  -3   0   9   89.70    7.70
  -3   0   8   10.20    2.80
   3   0  -8   13.40    2.90
  -3   0   7   70.70    6.10
   3   0  -7   62.00    6.00
   3   0  -6  270.80   22.60
  -3   0   6  300.70   22.60
  -3   0   5  473.00   37.10
   3   0  -5  475.20   37.00
  -3   0   4  475.50   37.50
   3   0  -4  485.00   37.50
   3   0  -3  265.40   20.90
  -3   0   3  264.90   20.90
   3   0  -2   43.90    4.40
  -3   0   2   49.60    4.50
  -3   0   1   10.80    2.40
   3   0  -1    3.10    2.50
   3   0   0  193.80   15.50
  -3   0   0  195.80   15.60
  -3   0  -1  447.10   34.20
   3   0   1  425.90   34.10
   3   0   2  559.10   43.20
  -3   0  -2  548.60   43.20
   3   0   3  378.50   30.30
  -3   0  -3  395.00   30.40
  -3   0  -4   99.30    8.60
   3   0   4  101.50    8.60
  -3   0  -5    0.90    2.30
   3   0   5    1.80    2.50
   3   0   6   39.40    4.50
  -3   0  -6   45.60    4.60
   3   0   7  134.50   10.90
  -3   0  -7  124.20   10.80
  -3   0  -8   96.40    8.50
   3   0   8   97.40    8.50
  -3   0  -9   76.90    6.90
  -3   0 -10   24.60    3.50
  -3   0 -11   -1.30    2.40
   3   1 -14   24.70    3.30
   3  -1 -14   15.40    3.90
   3   1 -13   54.50    5.10
   3  -1 -13   39.50    5.00
   3  -1 -12   40.70    4.80
   3   1 -12   40.00    4.40
  -3   1  11   63.20    6.00
   3  -1 -11   56.30    5.60
   3   1 -11   54.40    5.60
  -3   1  10  469.00   36.80
   3  -1 -10  475.40   36.80
   3   1 -10  454.20   36.60
  -3  -1   9  154.80   13.00
   3  -1  -9  166.00   13.00
   3   1  -9  151.10   12.90
  -3   1   9  156.00   13.00
   3  -1  -8   60.40    7.00
   3   1  -8   65.30    7.00
   3  -1  -7   29.20    4.20
  -3  -1   7   44.00    4.00
   3   1  -7   38.90    4.00
  -3   1   7   41.80    4.40
   3  -1  -6   49.30    4.80
   3   1  -6   43.10    4.40
  -3  -1   6   40.90    4.60
  -3   1   6   51.70    4.90
  -3   1   5  554.80   43.30
  -3  -1   5  570.40   43.20
   3   1  -5  546.30   43.20
   3  -1  -5  545.00   43.30
  -3   1   4  289.40   21.80
  -3  -1   4  276.50   21.60
   3   1  -4  270.40   21.60
   3  -1  -4  261.40   21.70
  -3  -1   3  388.40   29.80
   3   1  -3  369.40   29.80
   3  -1  -3  369.00   29.90
  -3   1   3  396.40   29.90
  -3   1   2  288.60   22.30
   3   1  -2  280.30   22.20
   3  -1  -2  284.70   22.30
  -3  -1   2  277.00   22.10
   3  -1  -1  136.90   11.40
  -3  -1   1  135.10   11.20
  -3   1   1  147.60   11.40
   3   1  -1  135.40   11.20
  -3  -1   0  597.30   46.30
   3  -1   0  596.80   46.40
  -3   1   0  603.50   46.40
   3   1   0  583.40   46.30
  -3  -1  -1  478.60   36.80
  -3   1  -1  492.50   36.90
   3   1   1  456.30   36.70
   3  -1   1  461.40   36.90
  -3   1  -2  802.30   63.10
   3  -1   2  843.10   63.10
   3   1   2  791.00   63.00
  -3  -1  -2  811.60   63.00
   3   1   3   53.60    5.10
   3  -1   3   53.70    5.20
  -3  -1  -3   56.30    5.00
  -3   1  -3   52.60    5.20
   3   1   4  126.00   11.20
   3  -1   4  136.40   11.30
  -3  -1  -4  137.10   11.20
  -3   1  -4  152.10   11.50
   3  -1   5  162.20   13.30
  -3  -1  -5  156.00   13.20
  -3   1  -5  157.30   13.30
   3   1   5  169.80   13.20
   3   1   6  103.20    8.70
  -3   1  -6  104.00    8.80
  -3  -1  -6  102.70    8.60
   3  -1   6   92.30    8.70
  -3  -1  -7  338.70   26.90
  -3   1  -7  333.90   27.00
   3  -1   7  349.80   27.00
   3  -1   8  120.90   10.90
  -3   1  -8  133.10   11.00
  -3  -1  -8  131.30   10.80
   3  -1   9   89.70    7.80
  -3  -1  -9   79.30    7.60
  -3   1  -9   84.30    7.60
  -3  -1 -10   27.40    3.80
  -3   1 -10   30.10    3.80
  -3   1 -11   16.40    2.80
  -3  -1 -11   23.00    3.50
   3  -2 -14   -0.20    3.10
   3   2 -14    5.50    2.50
   3  -2 -13   14.40    2.90
   3   2 -13    5.70    2.70
   3   2 -12   48.50    4.90
   3  -2 -12   49.60    5.30
  -3   2  12   47.70    5.10
  -3   2  11  109.90    9.00
   3  -2 -11   92.50    8.80
   3   2 -11  100.10    8.60
   3  -2 -10  103.50    9.30
  -3   2  10  106.20    9.50
   3   2 -10  104.20    8.90
   3   2  -9   48.90    4.80
   3  -2  -9   47.90    5.30
  -3   2   9   55.40    5.40
  -3   2   8    0.00    2.70
   3  -2  -8    3.60    2.90
   3   2  -8   -1.60    2.00
  -3  -2   8   -1.10    2.40
  -3   2   7   44.30    4.60
   3  -2  -7   40.00    4.70
   3   2  -7   38.70    4.10
  -3  -2   7   41.70    4.10
  -3  -2   6  223.90   16.20
   3  -2  -6  191.10   16.40
   3   2  -6  190.30   16.10
  -3   2   6  202.50   16.40
  -3   2   5  442.40   32.70
  -3  -2   5  423.00   32.50
   3   2  -5  421.10   32.50
   3  -2  -5  374.00   32.60
  -3   2   4  471.10   34.30
  -3  -2   4  426.90   33.90
   3   2  -4  427.10   34.00
   3  -2  -4  434.70   34.30
   3   2  -3  297.30   23.20
   3  -2  -3  310.80   23.50
  -3  -2   3  289.60   23.10
  -3   2   3  286.50   23.40
   3   2  -2   65.40    5.40
   3  -2  -2   57.50    5.80
  -3  -2   2   61.70    5.40
  -3   2   2   62.10    5.90
   3  -2  -1   13.10    2.60
  -3  -2   1   12.40    2.20
  -3   2   1    7.10    2.90
   3   2  -1   10.90    2.10
  -3  -2   0  231.50   18.60
   3  -2   0  247.30   18.80
  -3   2   0  227.20   18.70
   3   2   0  235.90   18.60
   3  -2   1  441.10   32.90
   3   2   1  398.80   32.60
  -3   2  -1  416.00   32.90
  -3  -2  -1  430.00   32.70
  -3   2  -2  475.40   35.20
   3   2   2  432.10   34.90
  -3  -2  -2  435.70   34.90
   3  -2   2  461.40   35.10
  -3   2  -3  331.60   25.50
   3   2   3  307.90   25.20
  -3  -2  -3  317.20   25.30
   3  -2   3  332.70   25.50
   3   2   4   79.10    7.50
  -3  -2  -4   88.00    7.50
   3  -2   4   90.70    7.70
  -3   2  -4   90.50    7.80
  -3   2  -5    0.60    2.20
   3   2   5    8.00    2.70
   3  -2   5    3.30    2.50
  -3  -2  -5   -1.00    2.10
  -3  -2  -6   26.70    3.10
  -3   2  -6   31.50    3.60
   3  -2   7  108.80    9.70
  -3  -2  -7  115.90    9.50
  -3   2  -7  112.60    9.70
  -3  -2  -8  104.60    9.20
   3  -2   8  101.80    9.30
  -3   2  -8  111.80    9.30
  -3  -2  -9   79.10    7.90
   3  -2   9  102.60    8.30
  -3   2  -9   91.10    8.10
   3  -2  10   20.10    3.20
  -3  -2 -10   11.10    3.10
  -3   2 -10   15.40    2.90
  -3  -2 -11    4.50    2.40
  -3   2 -11    2.00    2.90
   3   3 -14   99.40    8.30
   3  -3 -14   91.20    8.90
   3   3 -13  214.30   17.40
   3  -3 -13  219.70   17.80
   3   3 -12   52.70    5.00
  -3   3  12   54.10    5.60
   3  -3 -12   44.00    5.50
   3  -3 -11    7.40    2.60
   3   3 -11    8.60    2.40
  -3   3  11    6.20    2.60
   3   3 -10   32.10    3.50
   3  -3 -10   21.40    4.00
  -3   3  10   29.00    4.30
  -3   3   9   -3.20    2.60
   3  -3  -9   -0.30    2.90
   3   3  -9   -1.30    1.90
  -3   3   8 1424.30  109.20
   3  -3  -8 1432.20  109.20
   3   3  -8 1381.10  108.80
  -3  -3   7 1070.70   83.20
   3  -3  -7 1139.20   83.40
   3   3  -7 1057.20   83.10
  -3   3   7 1043.10   83.40
   3  -3  -6  197.70   15.70
   3   3  -6  183.00   15.40
  -3  -3   6  199.70   15.40
  -3   3   6  204.60   15.80
   3  -3  -5  488.50   38.00
  -3   3   5  489.70   38.10
   3   3  -5  478.00   37.60
  -3  -3   5  487.60   37.70
   3  -3  -4 1184.30   86.80
  -3   3   4 1077.70   86.80
  -3  -3   4 1113.70   86.40
   3   3  -4 1110.20   86.40
   3   3  -3   26.90    2.50
   3  -3  -3   27.10    3.40
  -3   3   3   23.30    3.20
  -3  -3   3   25.50    2.60
   3  -3  -2 4113.10  314.80
  -3  -3   2 4012.00  314.40
  -3   3   2 4100.70  314.80
   3   3  -2 4099.10  314.40
  -3  -3   1 3939.50  306.70
   3  -3  -1 3871.60  307.00
  -3   3   1 4128.70  307.00
   3   3  -1 3978.30  306.70
  -3  -3   0   60.10    5.70
   3  -3   0   69.20    6.30
  -3   3   0   69.20    6.30
   3   3   0   71.60    5.70
   3   3   1  718.40   55.40
  -3   3  -1  715.80   55.70
   3  -3   1  708.50   55.70
  -3  -3  -1  710.50   55.40
  -3   3  -2  625.00   46.80
   3   3   2  578.10   46.50
  -3  -3  -2  604.90   46.50
   3  -3   2  593.20   46.70
  -3   3  -3  262.50   21.70
   3   3   3  267.50   21.50
  -3  -3  -3  267.30   21.40
   3  -3   3  292.90   21.70
  -3   3  -4 1216.20   91.90
  -3  -3  -4 1144.30   91.70
   3  -3   4 1205.40   91.90
  -3  -3  -5 1129.50   89.60
   3  -3   5 1176.20   89.80
  -3   3  -5 1164.70   89.80
  -3  -3  -6   -1.60    2.10
   3  -3   6   -0.50    2.30
   3  -3   7   23.90    3.20
  -3  -3  -7   24.20    3.20
  -3   3  -7   23.60    3.50
  -3   3  -8   15.60    3.00
  -3  -3  -8   11.20    2.60
   3  -3   8   15.70    3.00
  -3  -3  -9   32.80    4.30
   3  -3   9   48.50    4.80
  -3   3  -9   40.80    4.60
   3  -3  10  328.20   27.40
  -3  -3 -10  359.60   27.40
  -3   3 -11  118.40   10.40
  -3  -3 -11  124.20   10.40
   3   4 -13    7.00    2.20
  -3   4  13   11.10    3.20
   3  -4 -13    8.70    2.90
   3   4 -12   51.10    4.60
  -3   4  12   38.20    5.60
   3  -4 -12   49.50    5.20
   3   4 -11   91.70    8.00
   3  -4 -11  100.70    8.50
  -3   4  11   91.30    8.90
   3  -4 -10   86.80    7.90
  -3   4  10   81.50    7.80
   3   4 -10   85.10    7.20
  -3   4   9   42.70    4.70
   3  -4  -9   35.90    4.50
   3   4  -9   34.50    3.60
   3   4  -8   -2.30    1.60
  -3   4   8    2.60    3.20
   3  -4  -8   -0.50    3.00
   3  -4  -7   25.40    4.00
   3   4  -7   27.10    2.80
  -3   4   7   28.30    3.80
  -3  -4   6  148.90   11.50
  -3   4   6  147.70   12.00
   3   4  -6  133.90   11.40
   3  -4  -6  164.00   12.20
  -3  -4   5  318.60   24.10
  -3   4   5  333.30   24.70
   3   4  -5  298.60   24.10
   3  -4  -5  293.30   24.60
  -3   4   4  333.00   26.20
   3   4  -4  325.20   25.70
  -3  -4   4  332.90   25.70
   3  -4  -4  337.90   26.20
   3   4  -3  245.60   19.00
   3  -4  -3  226.40   19.60
  -3  -4   3  244.80   19.10
  -3   4   3  257.10   19.70
  -3  -4   2   52.60    4.30
   3  -4  -2   46.00    5.00
  -3   4   2   48.40    5.00
  -3   4   1    6.00    2.90
  -3  -4   1   10.00    1.70
   3   4  -1    8.40    1.30
   3  -4  -1   11.60    3.00
   3  -4   0  172.30   14.20
   3   4   0  171.20   13.70
  -3   4   0  193.40   14.40
  -3  -4   0  172.10   13.70
   3  -4   1  335.90   26.90
  -3   4  -1  367.40   27.00
   3   4   1  336.30   26.50
  -3  -4  -1  331.20   26.50
  -3   4  -2  347.80   26.00
  -3  -4  -2  319.50   25.60
   3  -4   2  320.90   25.90
  -3   4  -3  230.50   18.20
  -3  -4  -3  219.60   17.80
   3  -4   3  231.90   18.20
  -3   4  -4   73.50    6.80
   3  -4   4   68.90    6.60
  -3  -4  -4   74.30    6.40
   3  -4   5    1.20    2.40
  -3   4  -5    4.10    2.30
  -3  -4  -5    0.50    2.00
   3  -4   6   18.90    3.20
  -3  -4  -6   22.90    3.00
  -3   4  -6   21.60    3.30
  -3  -4  -7   95.60    8.20
   3  -4   7   95.70    8.30
  -3   4  -7   91.60    8.30
  -3  -4  -8  102.70    7.90
   3  -4   8   83.00    8.10
  -3   4  -8   84.70    7.90
   3  -4   9   78.40    7.30
  -3  -4  -9   81.70    7.20
  -3   4  -9   78.10    7.30
  -3  -4 -10   10.80    2.60
  -3   4 -10   11.20    3.30
  -3   4 -11   -1.70    2.30
   3  -4  11    0.70    2.40
  -3  -4 -11    3.60    2.80
   3   5 -13   19.00    2.80
  -3   5  13   16.40    4.00
   3  -5 -13   25.90    3.90
  -3   5  12   17.20    3.30
   3   5 -12   13.20    2.40
   3  -5 -12   12.00    2.80
   3   5 -11   36.60    3.60
   3  -5 -11   34.10    4.60
  -3   5  11   32.20    4.80
   3  -5 -10  246.60   19.20
   3   5 -10  231.20   18.60
  -3   5  10  226.40   19.10
  -3   5   9   41.90    4.70
   3  -5  -9   37.70    4.80
   3   5  -9   38.10    3.70
   3  -5  -8   16.80    3.20
   3   5  -8   12.70    1.80
  -3   5   8    9.40    3.10
   3   5  -7    6.60    1.20
   3  -5  -7    3.60    2.90
  -3   5   6   16.70    3.10
   3   5  -6   17.10    1.60
   3  -5  -6   17.40    3.20
  -3   5   5  477.70   35.40
   3   5  -5  438.50   34.80
   3  -5  -5  474.30   35.40
   3   5  -4  189.70   15.50
  -3   5   4  220.50   16.30
  -3  -5   4  206.70   15.60
   3  -5  -4  217.90   16.40
  -3  -5   3  104.80    8.10
   3  -5  -3   94.00    8.80
   3   5  -3  102.70    8.10
  -3   5   3  118.90    9.00
  -3   5   2  134.90   10.90
  -3  -5   2  123.70   10.10
   3  -5  -2  139.00   11.00
   3   5  -2  130.40   10.10
  -3  -5   1   74.40    6.10
   3  -5  -1   75.50    7.00
  -3   5   1   79.20    7.10
   3  -5   0  177.00   14.10
  -3   5   0  170.00   14.00
  -3  -5   0  168.50   13.40
   3  -5   1  383.70   29.60
  -3   5  -1  384.00   29.60
  -3  -5  -1  366.10   29.20
   3  -5   2  640.30   50.30
  -3   5  -2  676.60   50.30
  -3  -5  -2  627.70   49.90
  -3   5  -3   31.60    3.90
  -3  -5  -3   26.70    2.90
   3  -5   3   25.60    3.70
  -3   5  -4   30.70    4.00
  -3  -5  -4   34.30    3.50
   3  -5   4   35.70    4.00
   3  -5   5   66.50    6.80
  -3  -5  -5   81.20    6.50
  -3   5  -6   16.20    3.10
  -3  -5  -6   14.30    2.60
   3  -5   6   10.90    2.90
   3  -5   7  176.60   14.40
  -3  -5  -7  170.80   14.20
  -3   5  -7  175.80   14.30
   3  -5   8   78.70    7.30
  -3  -5  -8   90.00    7.30
  -3   5  -8   76.60    7.30
  -3  -5  -9   47.10    4.40
   3  -5   9   31.90    4.40
  -3   5  -9   42.00    4.60
  -3   5 -10    3.90    2.60
   3  -5  10    1.00    2.20
  -3  -5 -10    1.30    2.60
   3   6 -12   26.80    3.00
   3  -6 -12   22.70    4.00
  -3   6  12   21.70    3.60
   3   6 -11   68.90    5.60
  -3   6  11   56.20    6.60
   3  -6 -11   59.30    6.50
   3   6 -10   54.70    5.00
   3  -6 -10   60.60    5.90
  -3   6  10   57.00    6.10
   3  -6  -9   55.40    5.50
  -3   6   9   52.50    5.50
   3   6  -9   49.20    4.50
   3   6  -8    7.40    1.10
  -3   6   8    5.00    3.30
   3  -6  -8    7.00    3.00
   3   6  -7   28.20    2.50
  -3   6   7   34.40    4.30
   3  -6  -7   31.00    3.80
   3   6  -6  107.80    8.50
  -3   6   6  124.40    9.70
   3  -6  -6  109.20    9.60
   3  -6  -5  224.20   18.10
  -3   6   4  227.80   18.50
   3  -6  -4  230.80   18.70
  -3   6   3  113.60   10.00
   3  -6  -3  124.50   10.20
  -3  -6   2   17.10    1.60
   3  -6  -2   22.70    3.40
  -3   6   2   19.00    3.20
   3  -6  -1    0.20    2.60
  -3   6   1    0.60    2.60
  -3  -6   1    1.20    1.00
   3  -6   0   84.30    8.10
  -3   6   0   89.70    8.00
  -3  -6   0   94.50    7.40
   3  -6   1  197.10   16.30
  -3   6  -1  212.90   16.30
  -3  -6  -1  194.30   15.60
   3  -6   2  250.50   20.60
  -3   6  -2  246.60   20.60
  -3  -6  -2  263.00   20.10
  -3   6  -3  187.70   14.50
  -3  -6  -3  162.00   13.90
   3  -6   3  192.90   14.50
  -3  -6  -4   56.70    4.80
   3  -6   4   45.20    5.20
   3  -6   5    2.50    2.00
  -3   6  -5    2.70    2.30
  -3  -6  -5   -1.80    1.70
  -3   6  -6   25.90    3.40
  -3  -6  -6   22.60    3.20
   3  -6   6   24.20    3.50
  -3   6  -7   76.70    7.20
  -3  -6  -7   81.10    7.00
   3  -6   7   77.80    7.10
  -3   6  -8   55.50    5.50
  -3  -6  -8   58.00    5.20
   3  -6   8   50.40    5.20
  -3  -6  -9   20.70    3.80
   3  -6   9   49.50    4.10
   3   7 -11   36.40    3.00
   3  -7 -11   42.80    4.50
  -3   7  11   38.80    4.50
   3   7 -10  347.50   28.00
  -3   7  10  342.00   28.70
   3   7 -10  388.20   28.00
   3  -7 -10  326.20   28.70
   3  -7  -9  130.60   11.60
  -3   7   9  130.50   11.60
   3   7  -9  130.80   10.80
   3   7  -9  144.50   10.80
  -3   7   8   72.00    6.80
   3  -7  -8   58.60    6.50
   3   7  -8   63.60    5.40
   3   7  -8   68.60    5.30
   3   7  -7   65.60    5.30
  -3   7   7   75.80    6.40
   3   7  -7   68.10    5.30
   3  -7  -7   74.20    6.40
  -3   7   6   10.70    2.60
   3  -7  -6   12.40    2.80
  -3   7   5  199.80   16.20
   3  -7  -5  197.10   16.30
  -3   7   4  182.80   15.10
   3  -7  -4  183.30   15.10
   3  -7  -3  246.00   19.80
   3  -7  -2  132.40   11.10
  -3  -7   1   68.20    5.40
   3  -7  -1   68.40    6.20
  -3   7   1   61.30    6.00
  -3  -7   1   64.30    5.30
   3  -7   0  273.50   22.70
  -3   7   0  283.70   22.70
  -3  -7   0  285.70   22.10
   3  -7   1  191.50   16.80
  -3  -7  -1  211.30   16.20
   3  -7   2  300.60   23.20
  -3  -7  -2  285.70   22.70
  -3   7  -3   15.30    3.00
  -3  -7  -3   16.40    2.30
   3  -7   3   19.30    2.80
  -3   7  -4  137.10   11.60
   3  -7   4  138.80   11.60
  -3  -7  -4  137.00   11.20
  -3   7  -5  116.30   10.20
  -3  -7  -5  123.40    9.80
   3  -7   5  113.00   10.10
  -3   7  -6  103.80    8.80
  -3  -7  -6  106.00    8.40
   3  -7   6   89.10    8.60
  -3   7  -7  229.00   19.40
  -3  -7  -7  257.70   19.30
   3  -7   7  233.20   19.40
  -3   7  -8   87.10    5.90
   3  -7   8   73.10    5.60
   3  -8 -10   51.30    5.10
  -3   8  10   45.20    5.00
   3   8 -10   44.00    3.60
   3   8 -10   40.00    3.70
   3  -8  -9   24.50    3.80
  -3   8   9   27.30    3.80
   3   8  -9   30.60    2.50
   3   8  -8    1.70    0.50
   3  -8  -8    2.80    2.90
   3   8  -8    1.70    0.40
  -3   8   7   13.40    3.40
   3  -8  -7   13.80    2.90
  -3   8   6   61.70    6.00
   3  -8  -6   59.10    5.90
  -3   8   5  123.70   11.40
   3  -8  -5  151.60   11.60
  -3   8   4  144.00   12.20
   3  -8  -4  147.40   12.20
  -3   8   3   79.00    7.30
   3  -8  -3   78.50    7.20
   3  -8  -2   14.80    2.90
  -3   8   2   13.90    2.80
  -3  -8   1    1.70    0.70
  -3  -8   1    1.80    0.90
   3  -8  -1    2.40    2.70
  -3   8   1    0.30    2.50
   3  -8   0   73.90    6.40
  -3  -8   0   66.50    5.70
  -3  -8   0   68.00    5.50
  -3   8   0   70.00    6.40
  -3  -8  -1  120.60    9.60
   3  -8   1  130.20   10.00
  -3   8  -1  112.30    9.90
  -3  -8  -1  112.30    9.30
  -3  -8  -2  132.90   11.00
   3  -8   2  151.30   11.60
  -3   8  -2  135.50   11.50
  -3   8  -3  121.70    9.80
  -3  -8  -3  112.40    9.20
   3  -8   3  108.10    9.60
  -3   8  -4   31.70    3.50
  -3  -8  -4   26.90    3.00
   3  -8   4   24.70    3.70
  -3   8  -5    2.10    2.40
   3  -8   5   -0.60    2.10
  -3  -8  -5    3.20    1.90
  -3   8  -6   17.80    3.20
  -3  -8  -6   13.40    2.60
   3  -8   6   15.50    2.80
  -3   8  -7   50.90    4.90
  -3  -8  -7   42.90    4.50
   3  -8   7   46.90    4.60
  -3   9   8  519.00   39.30
   3  -9  -8  473.90   39.20
   3  -9  -7  376.90   30.00
  -3   9   6   51.40    5.40
   3  -9  -6   49.80    5.30
  -3   9   5  235.10   19.00
   3  -9  -5  231.70   18.90
  -3   9   4  444.30   34.60
   3  -9  -4  430.40   34.70
  -3   9   3   13.10    3.00
   3  -9  -3   13.00    3.10
  -3   9   2 1177.20   91.40
   3  -9  -2 1173.20   91.50
  -3  -9   1 1108.60   87.10
   3  -9  -1 1194.00   87.70
  -3  -9   1 1107.50   87.00
  -3   9   1 1321.30   87.70
   3  -9   0   20.80    3.80
  -3  -9   0   27.40    2.40
  -3  -9   0   28.30    2.50
  -3   9   0   31.20    3.70
   3  -9   1  275.30   23.50
  -3  -9  -1  294.20   23.10
  -3  -9  -1  295.80   23.00
  -3   9  -1  308.40   23.50
   3  -9   2  274.40   22.10
  -3  -9  -2  284.30   21.60
  -3   9  -2  257.20   22.00
  -3  -9  -2  275.30   21.60
   3  -9   3   79.10    6.80
  -3   9  -3   73.40    6.90
  -3  -9  -3   76.60    6.20
  -3  -9  -3   67.40    6.40
  -3  -9  -4  423.90   32.10
  -3  -9  -4  383.20   31.90
   3  -9   4  428.50   32.20
  -3  -9  -5  391.00   32.60
  -3   9  -5  394.70   32.70
  -3  -9  -5  455.30   32.50
   3  -9   5  402.50   32.70
  -3  10   6   29.90    4.10
   3 -10  -6   33.30    4.20
   3 -10  -5   73.40    7.00
  -3  10   4   64.20    6.30
   3 -10  -4   72.10    6.30
  -3  10   3   61.70    6.30
   3 -10  -3   69.80    6.40
  -3  10   2    7.70    2.60
   3 -10  -2    8.10    2.90
  -3 -10   1    2.30    0.70
  -3  10   1    4.00    2.10
   3 -10  -1    4.70    2.50
  -3 -10   1    2.60    0.60
   3 -10   0   40.00    4.30
  -3 -10   0   39.30    3.30
  -3 -10   0   37.10    3.20
   3 -10   1   85.70    7.30
  -3 -10  -1   82.20    6.60
  -3 -10  -1   78.50    6.50
  -3  10  -1   70.80    7.20
   3 -10   2   74.70    7.10
  -3 -10  -2   82.20    6.60
  -3  10  -2   81.70    7.20
  -3 -10  -2   77.40    6.70
   3 -10   3   41.60    4.60
  -3 -10  -3   47.50    4.30
  -3  10  -3   45.30    4.80
  -3 -10  -3   48.30    4.20
   4   0 -13   64.80    6.20
  -4   0  12   49.10    5.30
   4   0 -12   47.00    5.00
   4   0 -11  485.80   38.00
  -4   0  11  479.20   38.10
   4   0 -10  313.90   23.80
  -4   0  10  283.70   23.70
   4   0  -9  206.90   15.90
  -4   0   9  185.10   15.90
  -4   0   8 2728.70  214.10
   4   0  -8 2804.30  214.10
  -4   0   7  783.60   60.80
   4   0  -7  777.00   60.80
  -4   0   6    2.00    2.00
   4   0  -6    1.40    2.30
  -4   0   5  354.30   28.50
   4   0  -5  367.90   28.50
   4   0  -4 1180.80   87.60
  -4   0   4 1082.70   87.60
   4   0  -3  142.90   11.70
  -4   0   3  142.60   11.70
   4   0  -2 1334.70  106.20
  -4   0   2 1405.60  106.20
   4   0  -1  695.70   53.60
  -4   0   1  679.40   53.70
  -4   0   0   75.80    6.80
   4   0   0   74.80    6.70
   4   0   1    0.30    2.30
  -4   0  -1    1.90    2.50
   4   0   2    7.00    2.40
  -4   0  -2   -0.50    2.60
  -4   0  -3  392.60   29.80
   4   0   3  363.10   29.80
   4   0   4 1434.20  115.50
  -4   0  -4 1559.40  115.70
   4   0   5    9.10    2.70
  -4   0  -5   14.90    2.50
   4   0   6  315.50   26.30
  -4   0  -6  351.10   26.40
   4   0   7  249.50   20.30
  -4   0  -7  255.50   20.30
  -4   0  -8   -1.70    2.20
   4   0   8    4.30    2.80
   4   0   9  405.80   32.70
  -4   0  -9  419.00   32.70
  -4   0 -10  793.30   62.10
  -4   1  13   76.90    7.10
   4  -1 -13   68.40    6.80
   4   1 -13   74.80    6.70
   4  -1 -12   57.40    5.60
   4   1 -12   46.90    5.20
  -4  -1  12   58.60    5.40
  -4   1  12   51.60    5.60
   4  -1 -11    6.60    2.60
   4   1 -11   10.90    2.50
  -4  -1  11   10.80    2.70
  -4   1  10    4.60    2.70
  -4  -1  10    2.20    2.40
   4  -1 -10    0.50    2.70
   4   1 -10    4.40    2.20
  -4   1   9   56.80    6.30
   4  -1  -9   72.00    6.40
   4   1  -9   70.50    6.10
  -4  -1   9   66.10    6.00
  -4   1   8  177.00   13.90
  -4  -1   8  177.90   13.70
   4  -1  -8  165.20   13.80
   4   1  -8  155.00   13.60
  -4   1   7  157.10   13.00
  -4  -1   7  149.30   12.90
   4   1  -7  167.30   12.90
   4  -1  -7  161.70   13.10
  -4   1   6   89.00    7.50
  -4  -1   6   77.20    7.20
   4   1  -6   92.20    7.40
   4  -1  -6   85.50    7.50
  -4  -1   5   11.00    2.30
  -4   1   5    8.80    2.60
   4  -1  -5   10.30    2.50
   4   1  -5    7.80    2.30
   4   1  -4   18.40    2.70
   4  -1  -4   13.80    2.80
  -4  -1   4   18.50    2.60
  -4   1   4   18.70    2.70
   4   1  -3   82.30    7.10
   4  -1  -3   77.20    7.30
  -4  -1   3   89.30    7.10
  -4   1   3   79.40    7.20
   4   1  -2  130.10   10.20
   4  -1  -2  128.50   10.40
  -4  -1   2  116.00   10.20
  -4   1   2  117.60   10.20
   4   1  -1  120.50   10.00
   4  -1  -1  119.70   10.20
  -4  -1   1  118.70   10.10
  -4   1   1  125.60   10.20
   4  -1   0   54.00    5.30
  -4  -1   0   57.70    5.20
  -4   1   0   52.60    5.30
   4   1   0   53.30    5.10
   4   1   1    1.60    2.20
   4  -1   1   -1.20    2.30
  -4  -1  -1   -1.90    2.10
  -4   1  -1   -1.60    2.30
  -4  -1  -2   28.20    3.70
  -4   1  -2   38.20    3.90
   4   1   2   31.40    3.70
   4  -1   2   35.30    4.10
  -4   1  -3  140.90   12.00
   4   1   3  144.80   11.90
   4  -1   3  139.90   12.00
  -4  -1  -3  151.70   12.00
  -4   1  -4  154.60   12.90
   4   1   4  158.50   12.80
   4  -1   4  153.70   12.80
  -4  -1  -4  154.80   12.80
   4   1   5   91.30    8.20
   4  -1   5   94.30    8.30
  -4  -1  -5   99.50    8.30
  -4   1  -5   95.90    8.40
   4   1   6   28.90    3.70
   4  -1   6   33.40    4.00
  -4  -1  -6   28.10    3.70
  -4   1  -6   27.40    3.80
  -4  -1  -7   -0.80    2.20
  -4   1  -7   -2.10    2.70
   4   1   7    5.00    2.20
   4  -1   7    0.80    2.70
   4   1   8   32.30    4.30
   4  -1   8   33.70    4.20
  -4  -1  -8   34.00    4.00
  -4   1  -8   38.90    4.20
   4  -1   9   55.10    6.00
  -4  -1  -9   67.50    5.90
  -4   1  -9   58.90    6.00
   4  -1  10   87.20    7.80
  -4  -1 -10   91.70    7.90
  -4   1 -10   83.00    7.90
   4  -2 -13   -1.90    3.00
   4   2 -13    3.00    2.10
  -4   2  13   -2.10    3.20
   4  -2 -12   52.90    5.40
   4   2 -12   46.30    4.90
  -4   2  12   56.30    5.70
   4  -2 -11  115.30    9.50
   4   2 -11  105.00    9.00
  -4   2  11   92.90    9.30
  -4  -2  11  111.60    9.10
   4  -2 -10  276.80   22.20
  -4   2  10  273.20   22.10
   4   2 -10  271.60   21.90
  -4  -2  10  279.80   22.00
  -4  -2   9    8.90    2.30
  -4   2   9    7.80    3.20
   4  -2  -9   10.30    2.80
   4   2  -9    4.40    2.20
  -4  -2   8   61.90    5.50
  -4   2   8   60.50    5.60
   4  -2  -8   58.40    5.70
   4   2  -8   57.30    5.40
  -4  -2   7    9.00    2.20
   4  -2  -7    9.80    2.50
  -4   2   7   10.50    2.40
   4   2  -7   10.90    2.20
  -4   2   6  225.20   19.10
  -4  -2   6  251.50   18.80
   4   2  -6  226.20   18.80
   4  -2  -6  245.60   19.20
  -4   2   5  506.50   41.90
  -4  -2   5  543.50   41.70
   4   2  -5  550.80   41.70
   4  -2  -5  524.90   42.00
   4   2  -4  286.90   23.10
   4  -2  -4  298.40   23.40
  -4  -2   4  295.00   23.10
  -4   2   4  297.30   23.30
   4   2  -3   50.60    4.70
   4  -2  -3   51.30    5.20
  -4  -2   3   51.00    4.80
  -4   2   3   52.60    5.20
   4   2  -2  425.00   34.30
   4  -2  -2  432.00   34.50
  -4  -2   2  459.40   34.30
  -4   2   2  440.70   34.50
   4  -2  -1   20.50    3.40
  -4  -2   1   21.50    2.80
  -4   2   1   21.70    3.30
   4   2  -1   19.60    2.60
   4  -2   0   73.80    6.60
  -4  -2   0   73.90    6.40
  -4   2   0   77.80    6.90
   4   2   0   67.00    6.30
  -4  -2  -1  414.90   33.00
  -4   2  -1  424.00   33.30
   4   2   1  412.00   33.00
   4  -2   1  439.70   33.30
  -4   2  -2  276.00   21.10
   4   2   2  252.00   20.80
   4  -2   2  265.70   20.90
  -4  -2  -2  262.40   20.80
   4  -2   3    0.20    2.40
  -4  -2  -3    0.40    1.90
  -4   2  -3    1.40    2.80
   4   2   3    0.10    1.90
   4  -2   4    8.30    2.70
  -4  -2  -4    8.00    2.40
  -4   2  -4    8.00    2.40
   4   2   4    4.00    2.10
  -4  -2  -5   -0.40    1.90
  -4   2  -5   -1.60    2.40
   4   2   5   -0.80    2.00
   4  -2   5    0.80    2.50
   4   2   6  277.40   21.90
   4  -2   6  267.50   21.90
  -4  -2  -6  275.80   21.80
  -4   2  -6  272.10   22.00
   4  -2   7   46.20    5.00
  -4  -2  -7   54.60    5.00
  -4   2  -7   44.10    4.90
   4  -2   8   23.40    3.50
  -4  -2  -8   23.10    3.30
  -4   2  -9   12.70    3.20
   4  -2   9   12.60    3.10
  -4  -2  -9   13.90    2.80
   4  -3 -13   68.30    7.40
   4   3 -13   81.80    6.90
  -4   3  13   83.70    7.50
  -4   3  12   54.00    5.30
   4  -3 -12   50.20    5.10
   4   3 -12   43.60    4.70
  -4   3  11    4.50    2.80
   4   3 -11    4.10    2.10
   4  -3 -11    1.50    2.90
  -4  -3  10   18.50    2.50
   4  -3 -10   13.90    3.30
  -4   3  10   12.00    3.20
   4   3 -10    8.30    2.30
   4  -3  -9   50.90    5.40
   4   3  -9   49.00    4.80
  -4   3   9   58.50    5.80
  -4  -3   9   54.20    5.00
  -4  -3   8   92.80    7.50
  -4   3   8   83.20    7.80
   4   3  -8   88.00    7.40
   4  -3  -8   87.40    7.90
  -4   3   7  102.80   10.40
   4   3  -7  120.40   10.00
   4  -3  -7  129.30   10.50
  -4  -3   7  133.30   10.10
  -4   3   6   83.10    7.80
  -4  -3   6   89.50    7.20
   4   3  -6   78.30    7.10
   4  -3  -6   98.50    7.90
  -4   3   5   17.40    3.10
  -4  -3   5   19.80    2.30
   4   3  -5   15.70    2.30
   4  -3  -5   13.40    2.70
  -4  -3   4    5.80    1.50
  -4   3   4    5.10    2.60
   4   3  -4    5.60    1.70
   4  -3  -4    5.60    2.50
   4   3  -3   92.30    7.30
   4  -3  -3   81.20    7.80
  -4  -3   3   88.70    7.30
  -4   3   3   83.80    7.60
   4  -3  -2  208.40   15.50
  -4  -3   2  198.10   15.00
  -4   3   2  173.80   15.40
   4   3  -2  177.30   15.00
   4  -3  -1  119.30   10.60
  -4  -3   1  122.70   10.10
  -4   3   1  129.10   10.50
   4   3  -1  124.30   10.10
   4  -3   0   32.40    4.40
  -4  -3   0   41.10    3.90
  -4   3   0   36.60    4.50
   4   3   0   37.50    3.70
  -4  -3  -1    2.40    1.80
   4  -3   1    2.60    2.10
  -4   3  -1    4.00    2.90
   4   3   1   -0.30    1.70
  -4   3  -2   39.60    4.10
   4   3   2   36.10    3.70
  -4  -3  -2   33.20    3.70
   4  -3   2   34.00    4.00
  -4   3  -3  110.80    9.50
   4   3   3  105.40    9.10
   4  -3   3  111.70    9.50
  -4  -3  -3  111.30    9.20
  -4   3  -4  110.80    9.80
   4   3   4  116.80    9.60
   4  -3   4  105.60    9.70
  -4  -3  -4  117.40    9.50
  -4   3  -5   74.30    7.10
   4   3   5   73.80    6.90
   4  -3   5   76.50    7.10
  -4  -3  -5   82.10    6.80
  -4   3  -6   29.80    3.90
   4  -3   6   22.70    3.20
  -4  -3  -6   29.10    3.30
  -4   3  -7   -2.40    2.70
   4  -3   7   -2.20    2.60
  -4  -3  -7    0.80    2.30
   4  -3   8   20.40    3.50
  -4  -3  -8   19.20    2.70
  -4  -3  -9   64.70    6.30
   4  -3   9   71.30    6.50
  -4   3  -9   66.40    6.50
   4  -4 -12   31.50    4.40
   4   4 -12   30.80    3.20
  -4   4  12   23.10    4.10
   4  -4 -11   69.50    6.30
  -4   4  11   57.40    6.30
   4   4 -11   60.60    5.60
  -4   4  10  290.50   22.60
   4  -4 -10  258.20   22.50
   4   4 -10  285.40   22.10
  -4   4   9    5.00    3.30
   4  -4  -9    3.40    3.00
   4   4  -9    2.50    1.80
  -4  -4   9    5.00    1.80
  -4   4   8   64.90    6.70
  -4  -4   8   75.60    6.10
   4   4  -8   67.60    5.90
   4  -4  -8   66.50    6.50
  -4  -4   7    0.50    1.50
   4   4  -7    0.50    1.40
   4  -4  -7    0.60    2.70
  -4   4   7    0.40    2.80
  -4  -4   6  239.70   17.80
   4  -4  -6  211.70   18.20
  -4   4   6  225.00   18.30
   4   4  -6  218.00   17.70
  -4   4   5  366.00   30.20
   4   4  -5  391.10   29.80
  -4  -4   5  379.80   29.80
   4  -4  -5  378.80   30.20
   4   4  -4  277.60   21.60
   4  -4  -4  282.00   22.20
  -4   4   4  267.30   22.10
  -4  -4   4  276.00   21.60
  -4   4   3   13.10    3.20
  -4  -4   3   12.60    1.90
   4  -4  -3   12.10    3.20
   4   4  -3   12.80    1.70
   4  -4  -2  597.30   46.60
  -4  -4   2  611.10   46.20
  -4   4   2  634.10   46.60
   4   4  -2  563.80   46.20
   4  -4  -1   25.00    3.80
  -4  -4   1   23.30    2.60
  -4   4   1   22.20    3.50
   4   4  -1   21.30    2.50
  -4  -4   0  150.50   12.10
   4  -4   0  166.80   12.80
  -4   4   0  167.70   12.80
   4   4   0  140.30   12.00
   4  -4   1  394.50   32.20
   4   4   1  409.70   31.80
  -4  -4  -1  410.40   31.80
  -4   4  -2  330.70   27.20
   4   4   2  359.30   26.90
  -4  -4  -2  335.50   26.80
   4  -4   2  335.00   27.20
  -4  -4  -3    1.10    1.70
   4  -4   3   -1.10    2.70
  -4   4  -3    1.00    2.90
   4   4   3   -0.10    1.80
  -4   4  -4   64.80    6.60
  -4  -4  -4   68.00    5.90
   4  -4   4   65.90    6.50
   4  -4   5    6.00    2.80
  -4   4  -5    3.00    2.90
  -4  -4  -5    4.30    2.10
  -4   4  -6  229.90   19.20
  -4  -4  -6  234.00   18.90
   4  -4   6  250.10   19.30
   4  -4   7   34.40    4.20
  -4  -4  -7   39.90    3.90
   4  -4   8   45.30    4.60
  -4  -4  -8   43.30    4.50
  -4   4  -8   37.00    4.80
  -4   4  -9    4.30    2.30
   4  -4   9    2.60    2.50
  -4  -4  -9   -0.20    2.00
   4  -5 -12   37.90    4.70
   4   5 -12   43.30    4.00
  -4   5  12   38.60    4.90
  -4   5  11    2.10    2.80
   4   5 -11    3.00    1.70
   4  -5 -11    5.10    3.20
   4  -5 -10    3.20    3.20
  -4   5  10    3.60    3.10
   4   5 -10    3.80    1.70
   4   5  -9   42.40    3.80
  -4   5   9   38.20    5.10
   4  -5  -9   41.00    4.90
  -4   5   8  102.90    9.60
   4   5  -8  108.80    8.70
   4  -5  -8  106.90    9.40
  -4   5   7   92.90    9.10
   4   5  -7  102.90    8.30
   4  -5  -7   98.00    9.00
  -4  -5   7  106.40    8.40
  -4  -5   6   54.90    4.30
  -4   5   6   44.10    5.10
   4   5  -6   48.10    4.20
   4  -5  -6   45.90    5.30
   4  -5  -5    7.50    3.20
   4   5  -5    7.70    1.10
  -4  -5   5   11.20    1.50
  -4   5   5   12.20    3.00
  -4   5   4   13.70    2.60
  -4  -5   4    8.30    1.40
   4  -5  -4   14.30    3.30
   4   5  -4    7.30    1.10
   4  -5  -3   67.60    6.60
  -4  -5   3   73.10    5.90
   4   5  -3   72.10    5.80
  -4   5   3   69.60    6.70
   4  -5  -2  106.00    9.30
  -4  -5   2   99.20    8.50
   4   5  -2  108.70    8.40
  -4   5   2  120.70    9.40
  -4  -5   1   94.60    7.60
   4  -5  -1   83.90    8.30
  -4   5   1   85.10    8.20
   4   5  -1   94.50    7.50
  -4  -5   0   39.20    3.70
   4  -5   0   41.80    4.80
  -4   5   0   41.50    4.70
   4   5   0   40.70    3.70
  -4  -5  -1    0.50    1.40
   4  -5   1   -2.70    2.50
   4   5   1    1.80    1.70
  -4   5  -1    0.90    2.40
  -4   5  -2   28.80    3.50
  -4  -5  -2   20.30    2.70
   4  -5   2   23.50    3.40
  -4   5  -3   82.10    7.90
  -4  -5  -3   88.00    7.40
   4  -5   3   91.40    8.00
  -4   5  -4   98.70    8.60
  -4  -5  -4   99.00    8.20
   4  -5   4   94.70    8.70
  -4   5  -5   63.50    6.30
  -4  -5  -5   67.20    5.80
   4  -5   5   64.50    6.40
  -4   5  -6   29.30    3.70
  -4  -5  -6   24.60    3.10
   4  -5   6   23.90    3.60
  -4   5  -7   -1.70    2.70
  -4  -5  -7   -0.30    2.10
   4  -5   7    0.30    2.50
  -4   5  -8   14.10    2.80
  -4  -5  -8   20.90    2.70
   4  -5   8   16.10    3.10
   4  -6 -11  271.70   24.00
  -4   6  11  280.20   23.90
   4   6 -11  314.80   23.30
   4  -6 -10  184.10   16.20
  -4   6  10  186.00   16.30
   4   6 -10  203.70   15.50
   4   6  -9  123.30    9.70
   4  -6  -9  114.40   10.40
  -4   6   8 1612.70  133.40
   4   6  -8 1733.60  132.80
   4  -6  -8 1778.10  133.50
   4   6  -7  531.80   40.40
  -4   6   7  484.20   41.00
   4  -6  -7  509.50   41.00
  -4   6   6   -0.70    2.50
   4  -6  -6   -0.70    3.00
   4   6  -6    0.10    0.50
  -4  -6   6    0.50    1.10
  -4  -6   5  287.00   22.70
  -4   6   5  318.00   23.50
   4  -6  -5  293.40   23.40
   4   6  -5  291.40   22.70
  -4   6   4  716.10   54.60
  -4  -6   4  697.90   53.90
   4  -6  -4  713.00   54.70
   4   6  -4  689.70   53.90
   4  -6  -3   92.10    8.00
   4   6  -3   92.50    7.00
  -4  -6   3   85.60    7.10
  -4   6   3   86.90    7.90
   4  -6  -2  785.60   63.00
  -4  -6   2  800.90   62.30
   4   6  -2  804.90   62.30
  -4   6   2  839.40   63.00
  -4  -6   1  440.70   34.90
   4  -6  -1  482.00   35.40
  -4   6   1  434.80   35.40
   4  -6   0   45.00    4.90
  -4   6   0   37.20    4.50
  -4  -6   0   44.40    3.80
   4  -6   1   14.70    2.80
  -4   6  -1   15.60    2.80
  -4  -6  -1   12.20    1.90
  -4  -6  -2    6.10    1.70
   4  -6   2    4.30    2.90
  -4   6  -2    4.00    2.70
  -4   6  -3  206.20   16.60
  -4  -6  -3  206.10   16.10
   4  -6   3  192.40   16.50
  -4   6  -4  827.60   66.00
  -4  -6  -4  833.60   65.60
   4  -6   4  881.80   66.00
   4  -6   5    5.60    2.60
  -4   6  -5    7.20    2.80
  -4  -6  -5    4.10    1.80
  -4  -6  -6  207.90   17.30
   4  -6   6  231.70   17.70
  -4   6  -7  153.90   12.90
  -4  -6  -7  156.00   12.50
   4  -6   7  146.30   12.70
   4   7 -10    2.10    0.90
  -4   7  10    0.00    0.90
   4   7  -9   36.70    3.10
  -4   7   9   33.70    4.60
   4  -7  -9   38.30    4.70
  -4   7   8   73.20    7.50
   4   7  -8   82.50    6.40
   4  -7  -8   79.50    7.50
   4   7  -7   65.20    5.20
   4  -7  -7   71.80    6.60
  -4   7   6   37.20    4.40
   4  -7  -6   31.30    4.60
   4  -7  -5    7.40    2.80
  -4   7   5   -0.80    2.40
  -4   7   4   19.10    3.00
   4  -7  -4   12.20    3.50
   4  -7  -3   46.00    4.70
  -4  -7   3   36.70    3.10
  -4   7   3   41.40    4.30
   4  -7  -2   57.00    5.90
  -4  -7   2   56.90    4.70
  -4   7   2   65.50    5.90
  -4  -7   1   57.40    4.90
   4  -7  -1   60.20    6.00
  -4   7   1   66.30    6.00
   4  -7   0   29.00    3.90
  -4   7   0   30.30    3.70
  -4  -7   0   26.20    2.60
  -4  -7  -1    0.70    1.30
   4  -7   1    1.50    2.50
  -4   7  -1    0.20    2.30
  -4  -7  -2    9.60    1.70
   4  -7   2    6.70    2.80
  -4   7  -2    8.10    3.00
  -4   7  -3   73.40    6.70
  -4  -7  -3   70.10    6.00
   4  -7   3   66.70    6.70
  -4   7  -4   83.10    7.50
  -4  -7  -4   79.50    6.80
   4  -7   4   83.80    7.50
  -4  -7  -5   42.60    4.10
   4  -7   5   40.40    4.60
  -4   7  -6   17.10    2.80
   4  -7   6   14.10    2.90
  -4  -7  -6    7.70    2.20
  -4   8   8   21.00    3.80
   4  -8  -8   22.50    3.80
   4  -8  -7   16.00    3.20
  -4   8   7   24.50    3.40
  -4   8   6   71.20    6.90
   4  -8  -6   72.50    7.10
   4  -8  -5  257.20   20.80
  -4   8   4  119.90   10.20
   4  -8  -4  112.00   10.00
   4  -8  -3   22.90    3.60
  -4   8   3   18.70    3.30
   4  -8  -2   90.00    7.80
  -4  -8   2   83.40    6.70
  -4   8   2   81.80    7.50
  -4   8   1   -2.80    2.70
  -4  -8   1    0.70    0.90
   4  -8  -1   -3.60    3.00
  -4   8   0    8.30    3.00
   4  -8   0    5.10    3.00
  -4  -8   0    7.00    1.40
   4  -8   1  145.60   12.10
  -4   8  -1  136.00   12.00
  -4  -8  -1  144.80   11.40
   4  -8   2   78.50    7.10
  -4   8  -2   78.40    7.10
  -4  -8  -2   72.30    6.20
   4  -8   3   -0.70    2.70
  -4  -8  -3   -1.80    1.30
   4  -8   4    3.20    2.70
  -4   8  -4    3.90    2.80
  -4  -8  -4    0.70    1.60
  -4   9   6   22.30    3.50
   4  -9  -6   30.20    3.90
  -4   9   5    3.60    3.00
   4  -9  -5    3.00    2.70
   4  -9  -4   10.80    2.60
  -4   9   4    5.20    2.80
  -4   9   3   25.20    3.80
   4  -9  -3   30.90    4.10
   4  -9  -2   51.40    5.20
  -4  -9   1   38.50    3.60
   4  -9  -1   47.70    4.80
  -4  -9   1   51.10    3.70
  -4  -9   0   11.80    1.90
   4  -9   0   15.70    3.20
  -4  -9   0   13.80    1.60
  -4  -9  -1    1.40    1.20
   4  -9   1    1.80    2.70
   4  -9   2    8.20    2.90
  -4  -9  -2   11.70    1.70
  -4   9  -2   11.90    2.70
   5   0 -12   33.80    4.00
  -5   0  12   30.90    4.00
  -5   0  11   48.10    4.80
   5   0 -11   43.80    4.60
  -5   0  10   61.50    5.70
   5   0 -10   53.00    5.30
  -5   0   9   18.60    3.10
   5   0  -9   22.70    3.10
   5   0  -8    6.90    2.40
  -5   0   8    8.50    2.50
  -5   0   7   52.20    4.90
   5   0  -7   48.70    4.90
  -5   0   6  105.20    9.20
   5   0  -6  111.90    9.20
   5   0  -5  107.50    9.40
  -5   0   5  112.30    9.40
   5   0  -4   53.10    5.30
  -5   0   4   57.60    5.40
   5   0  -3    9.40    2.70
  -5   0   3   12.20    2.80
   5   0  -2    0.60    2.30
  -5   0   2   -0.60    2.30
   5   0  -1   22.50    3.20
  -5   0   1   25.90    3.30
  -5   0   0   88.10    7.60
   5   0   0   86.90    7.60
  -5   0  -1  117.10    9.90
   5   0   1  113.70    9.80
  -5   0  -2   84.70    7.40
   5   0   2   77.50    7.10
  -5   0  -3   27.40    3.30
   5   0   3   23.60    3.20
  -5   0  -4    3.30    2.20
   5   0   4    0.40    2.40
   5   0   5   14.90    2.70
  -5   0  -5   17.40    3.10
   5   0   6   50.40    5.10
  -5   0  -6   51.50    5.30
   5   0   7   30.20    3.90
  -5   0  -7   28.10    3.60
   5  -1 -12  164.80   12.80
   5   1 -12  150.40   12.50
  -5   1  12  156.20   12.80
  -5  -1  12  138.30   12.60
  -5   1  11   63.40    6.10
  -5  -1  11   72.00    6.20
   5  -1 -11   62.80    6.20
   5   1 -11   60.70    5.90
  -5  -1  10  251.90   19.40
   5   1 -10  229.90   19.20
   5  -1 -10  238.30   19.40
  -5   1  10  244.40   19.50
  -5   1   9  144.20   12.40
   5   1  -9  165.80   12.30
   5  -1  -9  147.40   12.40
  -5  -1   9  137.60   12.30
  -5   1   8   43.40    4.20
  -5  -1   8   38.60    4.00
   5   1  -8   34.00    4.00
   5  -1  -8   33.60    4.30
  -5   1   7   21.00    3.10
  -5  -1   7   23.40    3.00
   5   1  -7   25.50    3.00
   5  -1  -7   22.00    3.10
  -5   1   6   74.80    6.80
  -5  -1   6   76.40    6.60
   5   1  -6   82.20    6.80
   5  -1  -6   68.20    6.90
   5   1  -5  497.80   41.10
   5  -1  -5  513.20   41.20
  -5  -1   5  537.00   41.00
  -5   1   5  554.80   41.20
   5   1  -4   61.70    5.60
   5  -1  -4   63.70    5.80
  -5  -1   4   58.80    5.50
  -5   1   4   60.90    5.70
  -5   1   3   14.60    2.90
   5   1  -3   11.70    2.60
   5  -1  -3   14.40    3.00
  -5  -1   3   13.00    2.60
   5   1  -2   27.90    3.40
   5  -1  -2   27.50    3.70
  -5  -1   2   30.60    3.40
  -5   1   2   28.90    3.70
   5  -1  -1   46.20    4.80
  -5  -1   1   45.00    4.60
  -5   1   1   47.20    4.80
   5   1  -1   42.50    4.40
  -5  -1   0  345.60   28.20
  -5   1   0  370.10   28.40
   5   1   0  341.80   28.10
   5  -1   0  374.20   28.30
  -5  -1  -1   59.90    5.60
  -5   1  -1   62.40    5.70
   5   1   1   55.50    5.50
   5  -1   1   60.10    5.60
  -5  -1  -2   49.20    5.00
  -5   1  -2   52.20    5.20
   5   1   2   52.40    4.80
   5  -1   2   47.20    5.20
  -5  -1  -3   86.80    7.80
  -5   1  -3   85.00    8.00
   5   1   3   86.60    7.70
   5  -1   3   95.30    8.00
  -5   1  -4   76.50    7.00
   5   1   4   69.70    6.90
   5  -1   4   81.00    7.00
  -5  -1  -4   79.40    7.00
  -5   1  -5  300.90   25.30
   5   1   5  324.10   25.20
   5  -1   5  320.40   25.30
  -5  -1  -5  319.70   25.20
   5   1   6   68.80    6.00
   5  -1   6   53.20    6.00
  -5  -1  -6   64.40    5.90
  -5   1  -6   59.30    6.20
   5   1   7  285.10   22.00
   5  -1   7  278.40   22.00
  -5  -1  -7  260.20   21.90
  -5   1  -7  271.80   22.00
  -5  -2  12   38.30    4.30
   5  -2 -12   31.90    4.30
   5   2 -12   35.30    4.00
  -5   2  12   45.50    4.70
  -5   2  11   56.80    5.60
  -5  -2  11   49.60    5.10
   5  -2 -11   55.10    5.30
   5   2 -11   49.30    5.00
  -5  -2  10   31.20    3.60
   5   2 -10   36.00    3.50
   5  -2 -10   31.10    3.80
   5  -2  -9    4.80    2.40
  -5  -2   9    8.90    2.40
   5   2  -9   11.00    2.30
  -5   2   9    5.80    2.80
   5   2  -8    0.80    2.10
   5  -2  -8    0.80    2.20
  -5   2   8   -0.80    2.60
  -5  -2   8    1.00    2.00
  -5   2   7   24.70    3.60
  -5  -2   7   26.40    3.10
   5   2  -7   30.40    3.30
   5  -2  -7   28.30    3.90
  -5   2   6   81.50    7.40
  -5  -2   6   86.20    7.20
   5   2  -6   87.70    7.20
   5  -2  -6   75.00    7.50
   5   2  -5   95.70    8.30
   5  -2  -5  108.60    8.80
  -5   2   5   98.90    8.50
  -5  -2   5   95.60    8.30
   5   2  -4   78.70    7.10
   5  -2  -4   78.40    7.40
  -5  -2   4   89.60    7.20
  -5   2   4   82.80    7.30
   5   2  -3   20.90    2.80
   5  -2  -3   18.20    3.20
  -5  -2   3   18.80    2.70
  -5   2   3   20.80    3.20
  -5   2   2   -2.70    2.20
   5   2  -2    0.60    1.90
   5  -2  -2    2.50    2.80
  -5  -2   2    4.00    2.00
   5  -2  -1   37.90    4.50
  -5  -2   1   40.70    4.20
  -5   2   1   43.00    4.70
   5   2  -1   42.80    4.10
   5  -2   0   91.60    8.30
  -5  -2   0   93.10    8.00
  -5   2   0   96.00    8.40
   5   2   0   93.30    7.90
  -5  -2  -1   85.50    7.80
  -5   2  -1   90.50    8.10
   5   2   1   94.10    7.70
   5  -2   1   85.70    7.90
  -5  -2  -2   53.30    5.10
  -5   2  -2   47.20    5.30
   5   2   2   54.20    5.00
   5  -2   2   59.70    5.60
  -5  -2  -3   18.00    3.00
  -5   2  -3   24.40    3.70
   5   2   3   21.90    2.90
   5  -2   3   15.50    3.40
   5  -2   4    2.10    2.20
  -5  -2  -4    4.90    2.50
  -5   2  -4    2.30    2.50
   5   2   4    1.80    2.10
  -5  -2  -5    7.30    2.30
  -5   2  -5   12.10    3.10
   5   2   5    6.60    2.20
   5  -2   5   10.70    2.90
  -5   2  -6   42.20    4.80
   5   2   6   32.30    4.50
   5  -2   6   49.20    4.80
  -5  -2  -6   42.80    4.50
   5   2   7   49.10    4.90
   5  -2   7   45.50    5.10
  -5  -2  -7   46.60    4.70
  -5   2  -7   43.70    5.10
  -5   3  11  482.60   41.30
  -5  -3  11  574.00   41.20
   5   3 -11  520.40   41.00
   5  -3 -11  508.50   41.30
  -5  -3  10   48.10    4.40
   5   3 -10   41.00    4.20
  -5   3  10   33.80    4.90
   5  -3 -10   44.60    4.90
  -5  -3   9  116.50    9.50
  -5   3   9  105.90    9.90
   5   3  -9  119.30    9.50
   5  -3  -9  110.20    9.90
  -5   3   8  511.90   43.00
   5   3  -8  568.50   42.70
   5  -3  -8  535.70   43.00
  -5  -3   8  553.80   42.70
  -5   3   7   38.60    5.60
   5   3  -7   39.70    5.10
   5  -3  -7   47.00    5.90
  -5   3   6   31.90    3.90
  -5  -3   6   31.00    3.00
   5   3  -6   26.10    3.10
  -5  -3   5    9.80    2.00
   5   3  -5    9.40    2.10
  -5   3   5    7.50    2.90
   5  -3  -5    7.10    2.70
  -5  -3   4   -0.70    1.70
  -5   3   4   -0.40    2.00
   5   3  -4    0.80    1.70
   5  -3  -4    1.70    2.20
   5   3  -3 1269.60   98.20
   5  -3  -3 1240.60   98.60
  -5  -3   3 1298.70   98.20
  -5   3   3 1241.40   98.50
   5  -3  -2  609.20   46.60
  -5  -3   2  603.00   46.20
  -5   3   2  590.70   46.60
   5   3  -2  573.80   46.10
   5  -3  -1  209.30   17.00
  -5  -3   1  205.50   16.70
  -5   3   1  235.30   17.20
   5   3  -1  198.00   16.70
   5  -3   0  291.60   24.60
  -5  -3   0  305.70   24.30
  -5   3   0  306.60   24.60
   5   3   0  317.90   24.20
  -5  -3  -1  419.50   31.60
  -5   3  -1  406.90   31.90
   5   3   1  388.10   31.50
   5  -3   1  392.30   31.80
  -5  -3  -2   89.90    7.50
  -5   3  -2   80.00    7.80
   5   3   2   82.30    7.30
   5  -3   2   89.40    7.80
  -5   3  -3 1477.90  110.50
   5   3   3 1414.10  110.20
   5  -3   3 1427.50  110.40
  -5  -3  -3 1388.60  110.20
  -5   3  -4  727.40   56.90
   5   3   4  671.90   56.60
   5  -3   4  795.90   56.90
  -5  -3  -4  735.60   56.70
  -5  -3  -5    8.70    2.40
  -5   3  -5    4.70    3.00
   5   3   5    5.70    2.40
   5  -3   5    7.20    2.50
  -5   3  -6  500.30   37.00
   5   3   6  450.70   36.70
   5  -3   6  468.90   36.80
  -5  -3  -6  456.10   36.70
   5  -3   7   56.70    4.30
  -5  -3  -7   53.40    4.30
   5   4 -10   20.20    2.70
  -5   4  10   20.40    3.30
   5  -4 -10   28.90    3.90
  -5  -4  10   19.20    2.90
   5   4  -9    5.70    1.90
  -5  -4   9    4.60    1.90
   5  -4  -9    6.20    2.90
  -5   4   9   -0.20    2.90
   5  -4  -8   -2.10    2.80
  -5   4   8   -2.40    2.80
  -5  -4   8    0.70    1.70
   5   4  -8    2.60    1.70
   5  -4  -7   16.20    3.80
  -5   4   7   21.10    3.40
   5   4  -7   19.70    2.40
  -5  -4   7   18.70    2.40
  -5   4   6   64.90    6.10
   5   4  -6   60.30    5.40
  -5  -4   6   60.00    5.30
   5  -4  -6   61.90    6.00
  -5   4   5   86.50    7.70
  -5  -4   5   85.90    6.90
   5   4  -5   75.50    6.90
   5  -4  -5   87.40    7.80
   5   4  -4   87.10    7.20
   5  -4  -4   82.80    7.90
  -5  -4   4   87.70    7.20
  -5   4   4   82.30    7.80
   5  -4  -3   19.30    3.40
  -5  -4   3   18.60    2.40
  -5   4   3   15.70    3.20
   5   4  -3   19.40    2.40
   5   4  -2    3.00    1.60
  -5   4   2    2.90    3.00
   5  -4  -2    7.40    3.10
  -5  -4   2    4.60    1.90
   5  -4  -1   35.10    4.60
  -5  -4   1   40.10    3.90
  -5   4   1   36.60    4.60
   5   4  -1   41.30    3.80
   5  -4   0   84.10    7.60
  -5  -4   0   82.00    7.00
  -5   4   0   86.20    7.90
   5   4   0   79.30    6.90
   5  -4   1   73.40    6.80
  -5  -4  -1   73.70    6.30
  -5   4  -1   70.00    6.90
   5   4   1   72.20    6.20
  -5   4  -2   38.30    4.80
   5   4   2   31.40    3.90
   5  -4   2   27.30    4.30
  -5   4  -3   10.60    3.40
   5   4   3   14.50    2.40
   5  -4   3   16.10    3.20
  -5  -4  -3   11.50    2.30
   5  -4   4   -0.70    2.40
  -5  -4  -4   -1.70    2.10
   5   4   4    0.30    1.90
   5  -4   5    6.10    2.90
  -5  -4  -5    5.40    2.00
  -5   4  -5    9.90    3.30
   5   4   5    5.50    2.50
  -5   4  -6   31.00    4.30
   5  -4   6   26.10    3.70
  -5  -4  -6   32.70    3.60
  -5  -5  10  187.70   14.20
   5   5 -10  177.10   14.10
  -5   5  10  170.50   14.80
   5  -5 -10  162.20   14.70
   5   5  -9   53.90    4.70
  -5   5   9   57.60    5.80
   5  -5  -9   49.20    5.70
  -5  -5   9   54.50    4.90
   5  -5  -8    9.50    2.60
  -5  -5   8   15.10    2.00
   5   5  -8   10.70    1.90
  -5   5   8   14.00    2.90
   5  -5  -7    2.20    2.80
  -5  -5   7    1.20    1.70
   5   5  -7    2.70    1.20
   5   5  -6   35.20    3.20
  -5   5   6   35.90    4.30
  -5  -5   6   34.80    3.30
   5  -5  -6   29.50    4.00
   5   5  -5  298.40   24.10
  -5   5   5  278.20   24.60
  -5  -5   5  323.80   24.10
   5  -5  -5  324.20   24.80
   5  -5  -4   18.20    3.30
  -5   5   4   15.00    3.40
  -5  -5   4   14.10    2.00
   5   5  -4   15.80    1.90
  -5  -5   3    1.50    1.50
   5   5  -3    0.70    1.30
  -5   5   3   -1.60    2.90
   5  -5  -3   -2.90    3.00
  -5   5   2   -3.00    3.20
   5  -5  -2    4.10    3.10
  -5  -5   2    2.30    1.50
  -5  -5   1   24.40    2.80
  -5   5   1   22.20    3.80
   5   5  -1   24.40    2.70
   5  -5   0  275.40   22.20
  -5  -5   0  273.10   21.70
  -5   5   0  272.70   22.10
   5   5   0  274.20   21.60
   5  -5   1   24.80    4.00
  -5  -5  -1   31.50    3.10
  -5   5  -1   31.00    4.20
   5   5   1   26.10    3.00
   5  -5   2    8.00    2.70
  -5  -5  -2    6.70    2.10
   5   5   2   10.70    2.10
   5   5   3   62.40    5.60
   5  -5   3   64.10    6.20
  -5  -5  -3   62.20    5.60
  -5   5  -4   39.30    4.70
   5  -5   4   36.60    4.60
  -5  -5  -4   41.90    4.00
  -5   5  -5  177.20   15.10
   5  -5   5  173.10   14.90
  -5  -5  -5  185.00   14.50
  -5  -6   8    5.40    1.60
   5  -6  -8    0.80    3.10
  -5   6   8    2.70    3.00
   5   6  -8    1.80    0.80
   5   6  -7   29.50    2.60
  -5  -6   7   28.30    2.90
  -5   6   7   25.50    3.90
   5  -6  -7   34.20    4.40
   5   6  -6   60.00    4.80
  -5   6   6   53.00    6.00
   5  -6  -6   60.40    6.10
  -5  -6   6   58.90    5.00
  -5  -6   5   60.60    5.30
   5  -6  -5   59.40    6.40
   5   6  -5   67.70    5.20
   5  -6  -4   29.40    4.40
   5   6  -4   35.40    3.00
  -5  -6   4   34.90    3.20
  -5  -6   3    5.50    1.50
  -5   6   3    5.90    2.70
   5  -6  -3    2.00    2.80
   5   6  -3    5.20    0.90
   5  -6  -2   -0.90    2.20
  -5  -6   2    0.80    1.40
   5   6  -2    1.00    1.10
  -5  -6   1   13.50    2.00
   5  -6  -1   12.50    3.30
   5   6  -1   12.50    1.80
   5  -6   0   56.40    5.70
  -5  -6   0   54.20    4.80
   5   6   0   51.90    4.70
  -5  -6  -1   61.40    5.50
   5  -6   1   64.10    6.30
   5   6   1   63.80    5.50
  -5   6  -2   46.70    4.90
  -5  -6  -2   43.70    4.20
   5  -6   2   46.30    4.90
   5  -6   3   10.10    3.20
  -5   6  -3   17.60    3.20
  -5  -6  -3    8.90    2.10
  -5  -6  -4    1.90    1.80
   5  -6   4    2.30    2.30
  -5   6  -4   -0.20    2.80
  -5  -7   7   29.30    2.60
  -5   7   7   17.40    3.40
   5  -7  -7   18.10    3.40
   5   7  -7   28.40    2.30
  -5   7   6   47.80    5.90
  -5  -7   6   63.80    4.90
   5  -7  -6   57.20    6.10
   5   7  -6   58.50    4.80
  -5   7   5  367.30   31.20
   5  -7  -5  385.80   31.30
  -5  -7   5  404.00   30.50
   5   7  -5  388.90   30.40
  -5  -7   4   62.10    5.50
   5  -7  -4   59.50    6.50
   5   7  -4   73.50    5.40
  -5   7   4   60.40    6.60
   5  -7  -3   30.00    4.30
   5   7  -3   37.20    3.10
  -5  -7   3   36.40    3.30
  -5   7   3   33.90    4.10
   5  -7  -2   54.20    6.10
  -5  -7   2   62.20    5.10
   5   7  -2   63.20    5.00
  -5   7   2   53.60    6.10
  -5   7   1   13.80    3.10
   5  -7  -1   17.70    3.50
  -5  -7   1   14.30    2.00
  -5  -7   0  150.10   12.40
   5  -7   0  170.40   13.30
  -5   7   0  157.90   13.10
   5  -7   1   31.70    4.20
  -5   7  -1   34.10    4.10
  -5  -7  -1   31.50    3.10
  -5   7  -2   60.90    6.10
  -5  -7  -2   60.50    5.40
   5  -7   2   63.70    6.00
  -5   8   3    9.50    2.90
   5  -8  -3    7.40    3.10
  -5  -8   3    6.00    1.00
  -5   8   2    2.60    2.90
   5  -8  -2    3.40    3.00
  -5  -8   2    0.60    1.10
  -6   0   9 1147.70   86.10
   6   0  -9 1068.30   86.10
  -6   0   8   -0.70    2.10
   6   0  -8   -0.10    2.10
  -6   0   7   47.00    4.90
   6   0  -7   53.30    5.00
  -6   0   6  422.60   32.90
   6   0  -6  410.10   32.90
   6   0  -5  347.20   26.20
  -6   0   5  314.60   26.20
   6   0  -4  872.80   66.60
  -6   0   4  836.00   66.60
   6   0  -3  826.00   69.10
  -6   0   3  956.00   69.20
   6   0  -2 1056.50   81.20
  -6   0   2 1028.10   81.10
  -6   0   1  254.70   20.20
   6   0  -1  245.00   20.10
  -6   0   0  179.90   15.30
   6   0   0  192.50   15.30
  -6   0  -1  210.20   17.00
   6   0   1  206.00   16.90
   6   0   2   -0.80    2.10
  -6   0  -2    1.30    2.70
  -6   0  -3 1105.20   85.20
   6   0   3 1082.20   85.10
  -6   0  -4    2.50    2.70
   6   0   4    6.70    2.50
  -6   1   9   27.60    3.60
   6   1  -9   24.20    3.10
  -6  -1   9   26.00    3.30
   6  -1  -9   31.40    3.70
  -6   1   8   19.10    3.00
  -6  -1   8   15.80    2.80
   6   1  -8   18.80    3.00
   6  -1  -8   21.80    3.20
   6   1  -7    5.70    2.40
   6  -1  -7    1.50    2.60
  -6   1   7    6.10    2.40
  -6  -1   7    5.10    2.20
  -6   1   6    2.40    2.40
   6   1  -6    0.50    2.10
  -6  -1   6   -1.90    2.10
   6  -1  -6    0.20    2.20
   6   1  -5   13.70    2.50
  -6  -1   5    8.50    2.40
   6  -1  -5    6.30    2.60
  -6   1   5   15.90    2.80
   6   1  -4   21.50    3.00
   6  -1  -4   19.20    3.30
  -6  -1   4   19.90    2.90
  -6   1   4   19.70    3.20
   6   1  -3   32.10    3.60
   6  -1  -3   29.20    3.80
  -6  -1   3   26.20    3.40
  -6   1   3   31.70    3.90
   6  -1  -2   21.00    3.40
  -6  -1   2   21.60    3.10
  -6   1   2   30.40    3.70
   6   1  -2   21.80    3.00
   6  -1  -1   21.40    3.30
  -6  -1   1   25.50    3.20
  -6   1   1   21.00    3.40
   6   1  -1   23.30    3.10
   6   1   0    4.90    2.10
   6  -1   0    7.30    2.70
  -6  -1   0    2.90    2.10
  -6   1   0    5.30    2.80
   6   1   1    4.50    2.10
   6  -1   1    0.90    2.40
  -6  -1  -1    1.90    2.10
  -6   1  -1   -0.40    2.10
   6   1   2    8.60    2.60
  -6  -1  -2   11.90    2.90
  -6   1  -2   11.30    2.70
   6  -1   2    9.30    2.70
  -6  -1  -3   21.30    3.30
  -6   1  -3   22.90    3.30
   6   1   3   25.40    3.10
   6  -1   3   19.00    3.10
  -6  -1  -4   16.40    2.90
  -6   1  -4   14.00    3.10
   6  -1   4   14.70    2.90
   6   1   4   10.40    2.70
   6  -2  -9   11.20    2.90
  -6   2   9   18.20    3.20
   6   2  -9   13.40    2.60
  -6  -2   9   16.20    2.60
  -6   2   8   34.20    4.40
  -6  -2   8   34.30    4.00
   6   2  -8   44.50    4.20
   6  -2  -8   45.80    4.50
  -6   2   7  186.30   15.20
  -6  -2   7  177.20   15.00
   6   2  -7  185.20   15.10
   6  -2  -7  198.70   15.40
  -6   2   6  116.60   10.10
  -6  -2   6  122.50    9.80
   6   2  -6  115.60    9.80
   6  -2  -6  112.00   10.10
   6   2  -5   13.70    2.60
   6  -2  -5   21.60    3.20
  -6   2   5   14.80    2.90
  -6  -2   5   15.20    2.40
   6   2  -4   35.10    3.80
   6  -2  -4   38.20    4.20
  -6  -2   4   37.10    3.90
  -6   2   4   37.30    4.10
   6   2  -3  462.30   37.50
   6  -2  -3  460.90   37.80
  -6  -2   3  488.10   37.50
  -6   2   3  507.80   37.80
   6  -2  -2  136.20   12.40
  -6  -2   2  156.70   12.20
  -6   2   2  133.30   12.30
   6   2  -2  155.60   12.10
   6  -2  -1   30.60    3.60
  -6  -2   1   20.40    3.00
  -6   2   1   20.90    3.20
   6   2  -1   21.70    2.90
  -6  -2   0  386.40   31.00
  -6   2   0  405.70   31.30
   6   2   0  396.50   31.00
   6  -2   0  384.10   31.20
  -6  -2  -1  184.20   15.40
  -6   2  -1  194.40   15.60
   6   2   1  189.50   15.30
   6  -2   1  187.80   15.60
  -6  -2  -2   56.00    5.30
  -6   2  -2   50.60    5.40
   6   2   2   48.80    5.10
   6  -2   2   59.90    5.50
   6  -2   3    5.00    2.80
  -6  -2  -3    4.30    2.40
  -6   2  -3    1.40    3.00
   6   2   3    8.60    2.40
  -6   3   8    5.30    3.00
   6   3  -8   10.60    2.20
  -6  -3   8   10.10    2.20
  -6  -3   7    8.40    2.10
   6   3  -7    5.90    2.00
  -6   3   7    4.70    2.70
   6  -3  -7   10.60    3.20
   6   3  -6    0.30    1.90
  -6   3   6   -0.70    2.50
  -6  -3   6    2.90    2.00
   6  -3  -6    2.60    2.60
   6   3  -5   -1.50    2.00
  -6  -3   5    1.10    1.70
  -6   3   5    3.80    2.10
   6  -3  -5    2.30    2.60
   6   3  -4   25.70    3.10
   6  -3  -4   21.90    3.60
  -6  -3   4   26.00    3.10
  -6   3   4   26.00    3.40
   6  -3  -3   50.00    5.50
  -6  -3   3   54.20    4.90
  -6   3   3   55.90    5.50
   6   3  -3   51.70    4.90
   6  -3  -2   24.80    4.00
  -6  -3   2   33.70    3.50
  -6   3   2   31.60    4.20
   6   3  -2   31.40    3.40
   6  -3  -1   10.30    3.20
  -6   3   1   16.70    3.10
  -6  -3   1    9.00    2.40
   6   3  -1   15.80    2.30
   6   3   0    0.40    1.80
   6  -3   0    0.70    2.20
  -6  -3   0   -0.50    1.90
  -6   3   0    3.80    2.90
   6  -3   1    4.60    2.80
  -6  -3  -1    3.80    2.20
  -6   3  -1    3.10    2.80
   6   3   1    3.10    2.00
   6  -3   2    3.40    2.20
  -6  -3  -2    2.40    2.10
  -6   3  -2    4.90    3.10
   6   3   2   -1.40    1.90
   6  -3   3   11.30    2.90
  -6  -3  -3    9.40    2.40
  -6   3  -3   10.80    2.90
   6   3   3    7.10    2.10
  -6   4   7  120.30   11.10
   6   4  -7  126.70   10.60
  -6  -4   7  140.40   10.60
   6  -4  -7  127.30   11.30
  -6   4   6   83.40    7.90
   6   4  -6   87.60    7.30
  -6  -4   6   88.30    7.20
   6  -4  -6   75.90    7.80
   6   4  -5   45.20    4.20
   6  -4  -5   45.30    5.20
  -6  -4   5   42.60    4.20
  -6   4   5   47.00    4.90
   6  -4  -4   41.40    4.90
  -6  -4   4   42.50    4.20
  -6   4   4   41.30    4.80
   6   4  -4   45.80    4.10
   6  -4  -3  426.90   34.90
  -6  -4   3  439.30   34.50
  -6   4   3  442.90   34.90
   6   4  -3  444.90   34.40
   6  -4  -2  141.80   13.80
  -6  -4   2  173.10   13.50
  -6   4   2  159.80   13.80
   6   4  -2  174.20   13.40
   6  -4  -1   25.20    3.50
  -6  -4   1   24.90    3.20
  -6   4   1   29.30    4.00
   6   4  -1   33.80    3.20
   6  -4   0  252.90   21.30
  -6  -4   0  265.60   20.90
  -6   4   0  279.00   21.60
   6   4   0  260.80   20.90
  -6  -4  -1  152.00   12.10
  -6   4  -1  144.30   12.70
   6   4   1  143.40   12.00
   6  -4   1  151.10   12.50
  -6  -4  -2   62.50    5.80
  -6   4  -2   68.40    6.50
   6   4   2   65.90    5.70
   6  -4   2   61.40    6.30
   6   5  -5    4.50    1.60
  -6   5   5    7.10    2.60
  -6  -5   5    1.40    1.60
   6  -5  -5    3.00    2.30
   6  -5  -4   14.60    3.00
  -6   5   4   17.30    3.50
  -6  -5   4   17.60    2.30
   6   5  -4   16.70    2.20
   6  -5  -3   25.80    4.10
  -6  -5   3   28.70    3.00
  -6   5   3   18.20    3.50
   6   5  -3   31.00    3.00
   6  -5  -2   15.00    3.50
  -6  -5   2   13.10    2.20
  -6   5   2   18.50    3.30
   6   5  -2   14.10    2.10
  -6   5   1   11.90    3.30
  -6  -5   1   13.90    2.30
   6  -5  -1   12.90    3.00
   6   5  -1   17.10    2.10
   6  -5   0    3.10    2.60
  -6  -5   0   -0.20    1.80
   6   5   0    0.40    1.80
  -6   5   0    1.00    2.80
   0   0   0    0.00    0.00
;
_shelx_hkl_checksum              6662
loop_
_space_group_symop_operation_xyz
'x, y, z'
'-x, y+1/2, -z'
'-x, -y, -z'
'x, -y-1/2, z'
loop_
_atom_site_label
_atom_site_type_symbol
_atom_site_fract_x
_atom_site_fract_y
_atom_site_fract_z
_atom_site_U_iso_or_equiv
_atom_site_adp_type
_atom_site_occupancy
_atom_site_site_symmetry_order
_atom_site_calc_flag
_atom_site_refinement_flags_posn
_atom_site_refinement_flags_adp
_atom_site_refinement_flags_occupancy
P1 P 0.16554(8) 0.08551(4) 0.32927(5) 0.00890(12) Uani 1 1 d . . .
P2 P 0.33412(8) 0.08486(4) 0.67156(5) 0.00893(12) Uani 1 1 d . . .
P3 P 0.10774(12) 0.2500 0.08409(7) 0.01196(14) Uani 1 2 d S T P
P4 P 0.53473(12) 0.2500 0.91759(7) 0.01218(15) Uani 1 2 d S T P
Al5 Al 0.75102(12) 0.2500 0.50031(7) 0.00978(16) Uani 1 2 d S T P
O1 O 0.4273(4) 0.2500 0.0511(2) 0.0218(5) Uani 0.52(3) 2 d S T P
N1 N 0.4273(4) 0.2500 0.0511(2) 0.0218(5) Uani 0.48(3) 2 d S T P
N2 N 0.8816(4) 0.2500 0.9501(2) 0.0225(5) Uani 0.52(3) 2 d S T P
O2 O 0.8816(4) 0.2500 0.9501(2) 0.0225(5) Uani 0.48(3) 2 d S T P
N3 N 0.0177(3) 0.57434(15) 0.37888(16) 0.0098(3) Uani 1 1 d . . .
N4 N 0.5186(3) 0.07479(15) 0.37899(16) 0.0100(3) Uani 1 1 d . . .
N5 N 0.0718(3) 0.09399(16) 0.17310(17) 0.0119(3) Uani 1 1 d . . .
H5 H 0.02(2) 0.029(15) 0.129(15) 0.11(3) Uiso 0.5 1 d . . P
N6 N 0.5837(3) 0.59393(16) 0.17146(17) 0.0126(3) Uani 1 1 d . . .
H6 H 0.60(2) 0.517(17) 0.126(14) 0.11(3) Uiso 0.5 1 d . . P
N7 N 0.0518(4) 0.2500 0.3889(2) 0.0093(3) Uani 1 2 d S T P
N8 N 0.4556(4) 0.2500 0.6163(2) 0.0094(4) Uani 1 2 d S T P
loop_
_atom_site_aniso_label
_atom_site_aniso_U_11
_atom_site_aniso_U_22
_atom_site_aniso_U_33
_atom_site_aniso_U_23
_atom_site_aniso_U_13
_atom_site_aniso_U_12
P1 0.00643(18) 0.00652(19) 0.0141(3) -0.00008(13) 0.00287(14) -0.00016(11)
P2 0.00664(19) 0.00627(19) 0.0142(3) 0.00001(13) 0.00288(14) -0.00004(11)
P3 0.0097(2) 0.0133(3) 0.0132(3) 0.000 0.00299(19) 0.000
P4 0.0102(2) 0.0123(3) 0.0139(3) 0.000 0.0021(2) 0.000
Al5 0.0083(3) 0.0089(3) 0.0128(4) 0.000 0.0036(3) 0.000
O1 0.0118(8) 0.0343(12) 0.0200(13) 0.000 0.0049(7) 0.000
N1 0.0118(8) 0.0343(12) 0.0200(13) 0.000 0.0049(7) 0.000
N2 0.0125(8) 0.0361(12) 0.0189(13) 0.000 0.0031(7) 0.000
O2 0.0125(8) 0.0361(12) 0.0189(13) 0.000 0.0031(7) 0.000
N3 0.0071(5) 0.0079(5) 0.0146(8) -0.0011(5) 0.0023(5) 0.0002(4)
N4 0.0072(5) 0.0075(5) 0.0152(8) -0.0010(5) 0.0023(5) 0.0003(4)
N5 0.0122(6) 0.0098(6) 0.0137(8) -0.0002(5) 0.0026(5) -0.0010(4)
N6 0.0149(6) 0.0103(6) 0.0122(8) 0.0000(5) 0.0016(5) 0.0020(5)
N7 0.0078(7) 0.0069(7) 0.0137(11) 0.000 0.0036(6) 0.000
N8 0.0080(7) 0.0071(7) 0.0134(11) 0.000 0.0033(6) 0.000
loop_
_atom_type_symbol
_atom_type_description
_atom_type_scat_dispersion_real
_atom_type_scat_dispersion_imag
_atom_type_scat_source
N N -0.0010 0.0006
'International Tables Vol C Tables 4.2.6.8 and 6.1.1.4 and NIST'
Al Al 0.0100 0.0107
'International Tables Vol C Tables 4.2.6.8 and 6.1.1.4 and NIST'
P P 0.0200 0.0200
'International Tables Vol C Tables 4.2.6.8 and 6.1.1.4 and NIST'
O O 0.0000 0.0015
'International Tables Vol C Tables 4.2.6.8 and 6.1.1.4 and NIST'
H H 0.0000 0.0000
'International Tables Vol C Tables 4.2.6.8 and 6.1.1.4 and NIST'
loop_
_geom_angle_atom_site_label_1
_geom_angle_atom_site_label_2
_geom_angle_atom_site_label_3
_geom_angle
_geom_angle_site_symmetry_1
_geom_angle_site_symmetry_3
N5 P1 N3 108.36(8) . 4_565
N5 P1 N7 108.18(9) . .
N3 P1 N7 110.86(8) 4_565 .
N5 P1 N4 112.25(7) . .
N3 P1 N4 109.02(7) 4_565 .
N7 P1 N4 108.19(8) . .
N6 P2 N4 109.92(8) 2_646 3_656
N6 P2 N8 107.25(9) 2_646 .
N4 P2 N8 110.85(8) 3_656 .
N6 P2 N3 110.59(8) 2_646 2_546
N4 P2 N3 108.75(7) 3_656 2_546
N8 P2 N3 109.49(8) . 2_546
O2 P3 N2 0.0 1_454 1_454
O2 P3 O1 107.30(12) 1_454 .
N2 P3 O1 107.30(12) 1_454 .
O2 P3 N5 112.61(7) 1_454 .
N2 P3 N5 112.61(7) 1_454 .
O1 P3 N5 109.60(7) . .
O2 P3 N5 112.61(7) 1_454 4_565
N2 P3 N5 112.61(7) 1_454 4_565
O1 P3 N5 109.59(7) . 4_565
N5 P3 N5 105.12(12) . 4_565
N1 P4 O1 0.0 1_556 1_556
N1 P4 N2 107.72(12) 1_556 .
O1 P4 N2 107.72(12) 1_556 .
N1 P4 N6 112.19(7) 1_556 2_646
O1 P4 N6 112.19(7) 1_556 2_646
N2 P4 N6 109.93(7) . 2_646
N1 P4 N6 112.19(7) 1_556 3_666
O1 P4 N6 112.19(7) 1_556 3_666
N2 P4 N6 109.93(8) . 3_666
N6 P4 N6 104.88(12) 2_646 3_666
N7 Al5 N8 178.66(9) 1_655 .
N7 Al5 N3 90.73(6) 1_655 3_666
N8 Al5 N3 88.31(6) . 3_666
N7 Al5 N3 90.73(6) 1_655 2_646
N8 Al5 N3 88.31(6) . 2_646
N3 Al5 N3 88.03(8) 3_666 2_646
N7 Al5 N4 89.29(6) 1_655 4_565
N8 Al5 N4 91.68(6) . 4_565
N3 Al5 N4 92.17(6) 3_666 4_565
N3 Al5 N4 179.80(6) 2_646 4_565
N7 Al5 N4 89.29(6) 1_655 .
N8 Al5 N4 91.68(6) . .
N3 Al5 N4 179.80(6) 3_666 .
N3 Al5 N4 92.17(6) 2_646 .
N4 Al5 N4 87.63(8) 4_565 .
P4 O1 P3 131.99(16) 1_554 .
P3 N2 P4 131.58(15) 1_656 .
P1 N3 P2 114.20(8) 4_565 2_556
P1 N3 Al5 123.67(8) 4_565 3_666
P2 N3 Al5 122.12(7) 2_556 3_666
P2 N4 P1 114.23(8) 3_656 .
P2 N4 Al5 123.69(8) 3_656 .
P1 N4 Al5 122.06(7) . .
P1 N5 P3 125.72(10) . .
P1 N5 H5 128(10) . .
P3 N5 H5 106(10) . .
P2 N6 P4 127.51(10) 2_656 3_666
P2 N6 H6 122(10) 2_656 .
P4 N6 H6 110(10) 3_666 .
P1 N7 P1 112.69(12) . 4_565
P1 N7 Al5 123.28(5) . 1_455
P1 N7 Al5 123.28(5) 4_565 1_455
P2 N8 P2 113.39(11) . 4_565
P2 N8 Al5 123.24(6) . .
P2 N8 Al5 123.24(6) 4_565 .
loop_
_geom_bond_atom_site_label_1
_geom_bond_atom_site_label_2
_geom_bond_distance
_geom_bond_site_symmetry_2
P1 N5 1.6315(18) .
P1 N3 1.6413(14) 4_565
P1 N7 1.6454(11) .
P1 N4 1.6585(15) .
P2 N6 1.6373(18) 2_646
P2 N4 1.6426(14) 3_656
P2 N8 1.6453(11) .
P2 N3 1.6535(15) 2_546
P3 O2 1.603(3) 1_454
P3 N2 1.603(3) 1_454
P3 O1 1.6273(19) .
P3 N5 1.6361(15) .
P3 N5 1.6361(16) 4_565
P4 N1 1.602(2) 1_556
P4 O1 1.602(2) 1_556
P4 N2 1.616(2) .
P4 N6 1.6394(16) 2_646
P4 N6 1.6394(16) 3_666
Al5 N7 2.033(2) 1_655
Al5 N8 2.047(2) .
Al5 N3 2.1050(15) 3_666
Al5 N3 2.1050(15) 2_646
Al5 N4 2.1071(15) 4_565
Al5 N4 2.1072(15) .
O1 P4 1.602(2) 1_554
N2 P3 1.603(3) 1_656
N3 P1 1.6413(14) 4_565
N3 P2 1.6536(15) 2_556
N3 Al5 2.1050(15) 3_666
N4 P2 1.6426(14) 3_656
N5 H5 0.73(14) .
N6 P2 1.6373(18) 2_656
N6 P4 1.6393(16) 3_666
N6 H6 0.81(15) .
N7 P1 1.6455(11) 4_565
N7 Al5 2.033(2) 1_455
N8 P2 1.6453(11) 4_565
