#------------------------------------------------------------------------------
#$Date: 2017-06-08 04:10:12 +0300 (Thu, 08 Jun 2017) $
#$Revision: 197633 $
#$URL: file:///home/coder/svn-repositories/cod/cif/7/12/02/7120238.cif $
#------------------------------------------------------------------------------
#
# This file is available in the Crystallography Open Database (COD),
# http://www.crystallography.net/
#
# All data on this site have been placed in the public domain by the
# contributors.
#
data_7120238
loop_
_publ_author_name
'Wang, Yunchen'
'Takki, Sofia'
'Cheung, Ocean'
'Xu, Hong-Yi'
'Wan, Wei'
'\"Ohrstr\"om, Lars R.'
'Inge, Andrew Ken'
_publ_section_title
;
 Elucidation of the Elusive Structure and Formula of the Active
 Pharmaceutical Ingredient Bismuth Subgallate by Continuous Rotation
 Electron Diffraction
;
_journal_name_full               'Chem. Commun.'
_journal_paper_doi               10.1039/C7CC03180G
_journal_year                    2017
_chemical_formula_sum            'C7 Bi O8'
_chemical_formula_weight         423.07
_chemical_name_common            'bismuth gallate'
_chemical_name_mineral           'bismuth subgallate'
_chemical_name_systematic        'bismuth subgallate'
_space_group_crystal_system      orthorhombic
_space_group_IT_number           53
_space_group_name_Hall           '-P 2ac 2'
_space_group_name_H-M_alt        'P m n a'
_symmetry_space_group_name_Hall  '-P 2ac 2'
_symmetry_space_group_name_H-M   'P m n a'
_audit_update_record
;
2017-03-17 deposited with the CCDC.
2017-06-07 downloaded from the CCDC.
;
_cell_angle_alpha                90
_cell_angle_beta                 90
_cell_angle_gamma                90
_cell_formula_units_Z            4
_cell_length_a                   8.54221(16)
_cell_length_b                   4.66794(9)
_cell_length_c                   23.7131(4)
_cell_measurement_reflns_used    648
_cell_measurement_temperature    293
_cell_measurement_theta_max      109.98356514
_cell_measurement_theta_min      3.00656514
_cell_volume                     945.55(3)
_computing_publication_material  'PLATON (Spek, 2003)'
_diffrn_ambient_temperature      293
_diffrn_measured_fraction_theta_full 1.000
_diffrn_measurement_device_type  'PANalytical X'Per PRO MPD'
_diffrn_radiation_type           'Cu K\a1'
_diffrn_radiation_wavelength     1.5406
_diffrn_reflns_number            648
_exptl_crystal_colour            colorless
_exptl_crystal_description       plate
_pd_meas_2theta_range_inc        0.013
_pd_meas_2theta_range_max        109.98356514
_pd_meas_2theta_range_min        3.00656514
_pd_meas_number_of_points        8234
_pd_proc_ls_background_function  'square polynomial for each range'
_pd_proc_ls_prof_R_factor        0.117953908
_pd_proc_ls_prof_wR_expected     0.09405
_pd_proc_ls_prof_wR_factor       0.16436
_refine_ls_goodness_of_fit_all   1.748
_refine_ls_R_I_factor            0.06256
_cod_data_source_file            c7cc03180g2.cif
_cod_data_source_block           bsg
_cod_original_sg_symbol_H-M      Pmna
_cod_database_code               7120238
loop_
_space_group_symop_id
_space_group_symop_operation_xyz
1 x,y,z
2 -x,y,z
3 1/2-x,-y,1/2+z
4 1/2+x,-y,1/2+z
5 -x,-y,-z
6 x,-y,-z
7 1/2+x,y,1/2-z
8 1/2-x,y,1/2-z
loop_
_atom_site_label
_atom_site_type_symbol
_atom_site_symmetry_multiplicity
_atom_site_fract_x
_atom_site_fract_y
_atom_site_fract_z
_atom_site_occupancy
_atom_site_B_iso_or_equiv
Bi1 Bi 4 0.25 1.2635(8) 0.25 1 2.00(5)
C1 C 4 0.5 0.521(4) 0.1094(6) 1 3.0(3)
C2 C 8 0.3563(13) 0.631(3) 0.1298(5) 1 3.0(3)
C3 C 8 0.3563(13) 0.853(3) 0.1707(5) 1 3.0(3)
C4 C 4 0.5 0.963(4) 0.1912(6) 1 3.0(3)
C5 C 4 0.5 0.278(4) 0.0647(7) 1 3.0(3)
O1 O 8 0.3770(18) 0.184(4) 0.0472(8) 1 3.0(3)
O2 O 8 0.219(3) 0.958(4) 0.1902(7) 1 3.0(3)
O3 O 4 0.5 1.174(6) 0.2301(11) 1 3.0(3)
O4 O 4 0.5 1.479(7) 0.3155(11) 1 3.0(3)
O5 O 4 0.5 1.003(7) 0.3866(10) 1 5.0(9)
O6 O 8 0.399(4) 0.674(11) 0.4811(12) 0.5 5.0(9)
loop_
_geom_angle_atom_site_label_1
_geom_angle_atom_site_label_2
_geom_angle_atom_site_label_3
_geom_angle
_geom_angle_site_symmetry_1
_geom_angle_site_symmetry_3
_geom_angle_publ_flag
O2 Bi1 O3 81.1(10) . . yes
O2 Bi1 O3 83.7(10) . 7_455 yes
O2 Bi1 O2 90.7(7) . 8_555 yes
O3 Bi1 O3 158.4(10) . 7_455 yes
O2 Bi1 O3 83.7(10) 8_555 . yes
O2 Bi1 O3 81.1(10) 8_555 7_455 yes
Bi1 O2 C3 112.4(15) . . yes
Bi1 O3 C4 106.4(7) . . yes
Bi1 O3 Bi1 147.1(13) . 2_655 yes
Bi1 O3 C4 106.4(7) 2_655 . yes
C2 C1 C5 119.9(8) . . no
C2 C1 C2 120.2(14) . 2_655 no
C2 C1 C5 119.9(8) 2_655 . no
C1 C2 C3 119.9(11) . . no
O2 C3 C2 119.9(13) . . yes
O2 C3 C4 120.2(14) . . yes
C2 C3 C4 119.9(11) . . no
O3 C4 C3 119.9(8) . . yes
O3 C4 C3 119.9(8) . 2_655 yes
C3 C4 C3 120.1(14) . 2_655 no
O1 C5 C1 119.9(11) . . yes
O1 C5 O1 120.2(19) . 2_655 yes
O1 C5 C1 119.9(11) 2_655 . yes
loop_
_geom_bond_atom_site_label_1
_geom_bond_atom_site_label_2
_geom_bond_distance
_geom_bond_site_symmetry_2
_geom_bond_publ_flag
Bi1 O2 2.029(18) . yes
Bi1 O3 2.227(7) . yes
Bi1 O3 2.227(8) 7_455 yes
Bi1 O2 2.029(18) 8_555 yes
O1 C5 1.212(19) . yes
O2 C3 1.35(3) . yes
O3 C4 1.35(3) . yes
C1 C2 1.416(14) . no
C1 C5 1.55(2) . no
C1 C2 1.416(14) 2_655 no
C2 C3 1.419(18) . no
C3 C4 1.417(14) . no
loop_
_pd_proc_point_id
_pd_proc_2theta_corrected
_pd_proc_intensity_net
_pd_calc_intensity_net
1 3.00657 344.99879 260.72469
2 3.01957 303.41328 260.29471
3 3.03257 309.86328 259.86544
4 3.04557 310.97248 259.43688
5 3.05857 327.32182 259.00902
6 3.07157 313.7465 258.58187
7 3.08457 294.18741 258.15543
8 3.09757 299.51592 257.72969
9 3.11057 279.74835 257.30465
10 3.12357 341.74562 256.88032
11 3.13657 292.15416 256.45668
12 3.14957 261.94402 256.03375
13 3.16257 281.9061 255.61151
14 3.17557 280.64698 255.18997
15 3.18857 281.71911 254.76913
16 3.20157 295.62073 254.34899
17 3.21457 271.91846 253.92953
18 3.22757 282.79701 253.51078
19 3.24057 285.18066 253.09271
20 3.25357 287.4313 252.67534
21 3.26657 248.72582 252.25866
22 3.27957 273.82881 251.84266
23 3.29257 275.18497 251.42736
24 3.30557 296.15576 251.01274
25 3.31857 259.57069 250.59881
26 3.33157 270.81595 250.18557
27 3.34457 273.80287 249.77301
28 3.35757 289.57228 249.36113
29 3.37057 275.05889 248.94994
30 3.38357 284.80328 248.53943
31 3.39657 256.18314 248.1296
32 3.40957 261.07695 247.72045
33 3.42257 249.52742 247.31197
34 3.43557 240.00174 246.90418
35 3.44857 237.34683 246.49706
36 3.46157 266.02687 246.09062
37 3.47457 261.43225 245.68485
38 3.48757 232.27683 245.27976
39 3.50057 258.7561 244.87534
40 3.51357 273.64064 244.47159
41 3.52657 262.36774 244.06851
42 3.53957 244.9516 243.6661
43 3.55257 251.74547 243.26436
44 3.56557 271.02874 242.86329
45 3.57857 270.23602 242.46288
46 3.59157 255.03896 242.06315
47 3.60457 252.43761 241.66407
48 3.61757 250.5934 241.26566
49 3.63057 243.43057 240.86791
50 3.64357 262.54939 240.47083
51 3.65657 256.80776 240.07441
52 3.66957 247.31477 239.67864
53 3.68257 262.02905 239.28354
54 3.69557 258.63128 238.88909
55 3.70857 267.60193 238.4953
56 3.72157 277.82212 238.10217
57 3.73457 279.77865 237.70969
58 3.74757 286.56244 237.31787
59 3.76057 285.15305 236.9267
60 3.77357 288.97182 236.53618
61 3.78657 291.1462 236.14631
62 3.79957 276.50186 235.7571
63 3.81257 249.60456 235.36853
64 3.82557 232.4996 234.98061
65 3.83857 240.25277 234.59334
66 3.85157 241.58804 234.20672
67 3.86457 253.13458 233.82074
68 3.87757 238.64534 233.43541
69 3.89057 236.23041 233.05072
70 3.90357 239.32096 232.66667
71 3.91657 227.30708 232.28327
72 3.92957 221.20461 231.90051
73 3.94257 215.5646 231.51838
74 3.95557 232.6288 231.1369
75 3.96857 206.66902 230.75605
76 3.98157 207.86218 230.37584
77 3.99457 223.23116 229.99627
78 4.00757 223.2257 229.61733
79 4.02057 213.48036 229.23903
80 4.03357 223.94678 228.86136
81 4.04657 229.76438 228.48432
82 4.05957 217.93483 228.10792
83 4.07257 195.71122 227.73214
84 4.08557 224.11129 227.357
85 4.09857 217.3373 226.98248
86 4.11157 204.00148 226.60859
87 4.12457 203.85479 226.23533
88 4.13757 207.24143 225.86269
89 4.15057 230.18855 225.49068
90 4.16357 205.17054 225.1193
91 4.17657 213.3596 224.74853
92 4.18957 209.16642 224.37839
93 4.20257 217.99688 224.00887
94 4.21557 195.75891 223.63998
95 4.22857 183.08744 223.2717
96 4.24157 211.94415 222.90404
97 4.25457 210.9066 222.53699
98 4.26757 208.47582 222.17057
99 4.28057 195.49109 221.80476
100 4.29357 212.61252 221.43956
101 4.30657 191.08683 221.07498
102 4.31957 201.97768 220.71101
103 4.33257 215.83249 220.34765
104 4.34557 218.93561 219.98491
105 4.35857 190.91978 219.62278
106 4.37157 203.41546 219.26125
107 4.38457 238.13789 218.90033
108 4.39757 204.34563 218.54003
109 4.41057 191.78902 218.18032
110 4.42357 200.17897 217.82123
111 4.43657 206.45268 217.46274
112 4.44957 210.59599 217.10485
113 4.46257 195.89351 216.74757
114 4.47557 209.81965 216.39089
115 4.48857 204.17427 216.03481
116 4.50157 207.29609 215.67933
117 4.51457 203.75645 215.32445
118 4.52757 219.78337 214.97017
119 4.54057 213.05145 214.61648
120 4.55357 191.33238 214.2634
121 4.56657 179.71753 213.91091
122 4.57957 199.58504 213.55901
123 4.59257 208.9489 213.20771
124 4.60557 203.76497 212.857
125 4.61857 201.99413 212.50689
126 4.63157 208.07907 212.15737
127 4.64457 187.50792 211.80843
128 4.65757 177.78169 211.46009
129 4.67057 184.30084 211.11234
130 4.68357 184.11454 210.76517
131 4.69657 211.40492 210.41859
132 4.70957 204.79707 210.0726
133 4.72257 197.00143 209.72719
134 4.73557 194.28005 209.38289
135 4.74857 179.58652 209.04297
136 4.76157 179.60603 208.70843
137 4.77457 181.04964 208.37998
138 4.78757 196.0175 208.05846
139 4.80057 191.12536 207.74496
140 4.81357 200.38422 207.44092
141 4.82657 193.27874 207.14822
142 4.83957 183.20322 206.86956
143 4.85257 184.00133 206.60892
144 4.86557 204.34057 206.37269
145 4.87857 206.43505 206.17254
146 4.89157 207.65811 206.03487
147 4.90457 207.73147 206.06617
148 4.91757 194.50436 206.20393
149 4.93057 204.41513 205.88412
150 4.94357 200.78897 205.56513
151 4.95657 201.36719 205.24697
152 4.96957 196.93247 204.92964
153 4.98257 176.01766 204.61315
154 4.99557 184.63921 204.2975
155 5.00857 194.05745 203.9827
156 5.02157 200.38688 203.66876
157 5.03457 194.98592 203.35567
158 5.04757 186.8453 203.04345
159 5.06057 183.73601 202.73209
160 5.07357 178.09468 202.42161
161 5.08657 179.08512 202.11201
162 5.09957 169.89377 201.8033
163 5.11257 186.11255 201.49549
164 5.12557 183.88941 201.18857
165 5.13857 193.13762 200.88257
166 5.15157 189.63167 200.57747
167 5.16457 187.94269 200.2733
168 5.17757 191.83196 199.97006
169 5.19057 199.67085 199.66775
170 5.20357 194.61713 199.36639
171 5.21657 188.59837 199.06599
172 5.22957 175.88651 198.76654
173 5.24257 197.52179 198.46807
174 5.25557 200.33248 198.17057
175 5.26857 188.7367 197.87406
176 5.28157 190.72262 197.57856
177 5.29457 181.32832 197.28406
178 5.30757 194.80764 196.99058
179 5.32057 185.89681 196.69813
180 5.33357 183.92761 196.40672
181 5.34657 194.14705 196.11636
182 5.35957 168.79717 195.82707
183 5.37257 177.32002 195.53885
184 5.38557 212.1328 195.25172
185 5.39857 196.57022 194.96569
186 5.41157 197.09094 194.68078
187 5.42457 169.26009 194.397
188 5.43757 204.81014 194.11436
189 5.45057 179.59746 193.83288
190 5.46357 176.75188 193.55257
191 5.47657 173.96217 193.27345
192 5.48957 166.6302 192.99553
193 5.50257 173.61485 192.71884
194 5.51557 186.70628 192.44339
195 5.52857 164.10364 192.1692
196 5.54157 190.05961 191.89629
197 5.55457 190.00739 191.62467
198 5.56757 172.77472 191.35437
199 5.58057 167.6473 191.08541
200 5.59357 158.5871 190.81781
201 5.60657 181.27418 190.55159
202 5.61957 198.91729 190.28678
203 5.63257 184.06613 190.0234
204 5.64557 179.07247 189.76147
205 5.65857 202.42187 189.50103
206 5.67157 188.51234 189.24209
207 5.68457 188.95052 188.98469
208 5.69757 199.4082 188.72886
209 5.71057 182.2144 188.47463
210 5.72357 192.11626 188.22202
211 5.73657 185.67075 187.97107
212 5.74957 207.65409 187.72182
213 5.76257 195.6581 187.4743
214 5.77557 186.02246 187.22854
215 5.78857 183.24807 186.98459
216 5.80157 164.80023 186.74249
217 5.81457 166.27912 186.50227
218 5.82757 180.55084 186.26397
219 5.84057 171.28421 186.02766
220 5.85357 172.30931 185.79336
221 5.86657 164.83018 185.56113
222 5.87957 173.48828 185.33102
223 5.89257 178.39299 185.10308
224 5.90557 195.53512 184.87737
225 5.91857 190.67253 184.65394
226 5.93157 162.67402 184.43286
227 5.94457 176.96426 184.21419
228 5.95757 178.76793 183.99798
229 5.97057 191.75555 183.78432
230 5.98357 183.17326 183.57327
231 5.99657 177.2834 183.3649
232 6.00957 169.2076 183.15929
233 6.02257 173.67938 182.95653
234 6.03557 170.80837 182.7567
235 6.04857 179.53039 182.55989
236 6.06157 174.309 182.36619
237 6.07457 171.62837 182.17569
238 6.08757 182.72733 181.98851
239 6.10057 185.4474 181.80475
240 6.11357 185.25848 181.62452
241 6.12657 175.48413 181.44794
242 6.13957 177.517 181.27513
243 6.15257 172.22305 181.10623
244 6.16557 173.24549 180.94136
245 6.17857 180.15922 180.78068
246 6.19157 178.15607 180.62433
247 6.20457 164.25386 180.47248
248 6.21757 164.3372 180.32529
249 6.23057 168.22638 180.18294
250 6.24357 180.88173 180.04562
251 6.25657 199.67634 179.91351
252 6.26957 185.65262 179.78683
253 6.28257 170.49906 179.6658
254 6.29557 164.67713 179.55065
255 6.30857 170.87305 179.44161
256 6.32157 183.71258 179.33896
257 6.33457 178.61515 179.24296
258 6.34757 184.20061 179.1539
259 6.36057 193.0014 179.0721
260 6.37357 193.43152 178.99786
261 6.38657 188.53864 178.93154
262 6.39957 186.32813 178.87351
263 6.41257 191.19898 178.82416
264 6.42557 180.75446 178.78389
265 6.43857 184.31929 178.75316
266 6.45157 200.81308 178.73242
267 6.46457 191.27312 178.72218
268 6.47757 190.35211 178.72298
269 6.49057 186.57073 178.73537
270 6.50357 181.64123 178.75999
271 6.51657 192.85323 178.79746
272 6.52957 190.41888 178.8485
273 6.54257 172.42141 178.91385
274 6.55557 179.4684 178.99431
275 6.56857 164.03216 179.09075
276 6.58157 154.93049 179.20409
277 6.59457 160.46563 179.33532
278 6.60757 198.70165 179.48552
279 6.62057 169.41094 179.65584
280 6.63357 157.78129 179.84755
281 6.64657 173.87594 180.06198
282 6.65957 195.67108 180.3006
283 6.67257 186.79266 180.565
284 6.68557 187.92118 180.85689
285 6.69857 199.82486 181.17815
286 6.71157 208.91035 181.53081
287 6.72457 172.27257 181.91708
288 6.73757 186.58353 182.33939
289 6.75057 199.43536 182.80038
290 6.76357 188.54435 183.30296
291 6.77657 182.06484 183.85029
292 6.78957 204.1141 184.44588
293 6.80257 203.65926 185.09357
294 6.81557 191.90863 185.7976
295 6.82857 189.84155 186.56266
296 6.84157 176.63663 187.39396
297 6.85457 174.45883 188.29725
298 6.86757 210.46323 189.27896
299 6.88057 200.95831 190.34624
300 6.89357 200.43348 191.5071
301 6.90657 212.6984 192.77051
302 6.91957 199.97464 194.14656
303 6.93257 198.02186 195.64664
304 6.94557 205.94248 197.2836
305 6.95857 189.28005 199.07206
306 6.97157 197.76466 201.02864
307 6.98457 215.34955 203.17234
308 6.99757 197.87805 205.52498
309 7.01057 234.75098 208.11166
310 7.02357 226.72769 210.96147
311 7.03657 229.69798 214.1082
312 7.04957 240.97173 217.59135
313 7.06257 232.05492 221.45733
314 7.07557 239.93634 225.76099
315 7.08857 243.65492 230.56757
316 7.10157 245.75072 235.95525
317 7.11457 234.76249 242.01837
318 7.12757 260.35034 248.87178
319 7.14057 282.73087 256.6566
320 7.15357 296.01942 265.54803
321 7.16657 329.34698 275.76619
322 7.17957 341.70707 287.5913
323 7.19257 371.17866 301.38566
324 7.20557 381.96442 317.62701
325 7.21857 414.40946 336.96627
326 7.23157 484.24797 360.36297
327 7.24457 575.47598 389.50301
328 7.25757 681.10073 428.08067
329 7.27057 768.36252 484.91469
330 7.28357 936.11679 579.09653
331 7.29657 1133.40957 744.19056
332 7.30957 1320.41776 1025.02492
333 7.32257 1686.38962 1462.44863
334 7.33557 2140.52145 2075.275
335 7.34857 2660.65738 2862.58083
336 7.36157 3460.69893 3823.74403
337 7.37457 4527.05764 4975.96659
338 7.38757 5751.62558 6365.84253
339 7.40057 7615.50188 8085.08401
340 7.41357 10113.79298 10304.37579
341 7.42657 13456.41849 13316.75588
342 7.43957 18059.43549 17489.42846
343 7.45257 24186.49156 22900.52512
344 7.46557 30539.52459 28611.18567
345 7.47857 34498.01322 32216.40039
346 7.49157 32732.67789 30796.18665
347 7.50457 25320.51423 23930.1013
348 7.51757 15925.52607 15216.46356
349 7.53057 8507.2141 8242.63161
350 7.54357 4478.13708 4102.16287
351 7.55657 2578.949 2148.13393
352 7.56957 1596.43776 1342.06544
353 7.58257 1135.51385 995.18059
354 7.59557 883.0895 809.20094
355 7.60857 704.99344 685.91197
356 7.62157 601.9775 595.27844
357 7.63457 508.30206 525.76636
358 7.64757 438.8975 471.16228
359 7.66057 398.59777 427.46883
360 7.67357 358.30403 391.95
361 7.68657 337.29481 362.67594
362 7.69957 319.71492 338.25403
363 7.71257 298.69639 317.65919
364 7.72557 273.47127 300.12348
365 7.73857 239.23633 285.06247
366 7.75157 237.97402 272.02502
367 7.76457 253.05431 260.65842
368 7.77757 239.0386 250.68369
369 7.79057 223.34209 241.87781
370 7.80357 218.24438 234.06078
371 7.81657 209.96021 227.08603
372 7.82957 217.27689 220.8332
373 7.84257 207.95387 215.20273
374 7.85557 184.28334 210.1117
375 7.86857 192.00139 205.49056
376 7.88157 190.04745 201.28066
377 7.89457 189.84728 197.43223
378 7.90757 198.5933 193.90284
379 7.92057 179.76078 190.65611
380 7.93357 167.46598 187.66071
381 7.94657 186.62423 184.88956
382 7.95957 180.24446 182.31914
383 7.97257 172.53341 179.92893
384 7.98557 165.7967 177.70099
385 7.99857 158.72326 175.61956
386 8.01157 153.31893 173.67075
387 8.02457 174.8712 171.84229
388 8.03757 179.67916 170.1233
389 8.05057 154.89882 168.50411
390 8.06357 142.29978 166.9761
391 8.07657 138.26167 165.53156
392 8.08957 142.87918 164.16359
393 8.10257 164.22205 162.86597
394 8.11557 165.69965 161.63314
395 8.12857 161.82335 160.46006
396 8.14157 151.93758 159.34217
397 8.15457 172.09042 158.27534
398 8.16757 147.24449 157.25585
399 8.18057 151.35769 156.28027
400 8.19357 157.79601 155.34552
401 8.20657 152.4411 154.44875
402 8.21957 134.80106 153.5874
403 8.23257 126.20267 152.75908
404 8.24557 144.00751 151.96163
405 8.25857 148.9579 151.19306
406 8.27157 155.87127 150.45153
407 8.28457 142.39955 149.73543
408 8.29757 150.65566 149.04328
409 8.31057 155.75965 148.37367
410 8.32357 155.05933 147.72532
411 8.33657 143.81855 147.09707
412 8.34957 151.29873 146.48789
413 8.36257 140.13435 145.89695
414 8.37557 157.04226 145.32378
415 8.38857 142.94249 144.7703
416 8.40157 149.82335 144.23013
417 8.41457 147.51182 143.69872
418 8.42757 157.34989 143.18063
419 8.44057 142.80389 142.6752
420 8.45357 148.42674 142.18177
421 8.46657 130.84997 141.69973
422 8.47957 150.86044 141.22854
423 8.49257 151.11327 140.76765
424 8.50557 145.98689 140.31658
425 8.51857 140.2435 139.87485
426 8.53157 127.25587 139.44204
427 8.54457 136.3704 139.01773
428 8.55757 135.42194 138.60153
429 8.57057 129.48139 138.19308
430 8.58357 151.78809 137.79204
431 8.59657 137.99815 137.39808
432 8.60957 119.87168 137.01091
433 8.62257 123.12772 136.63023
434 8.63557 135.14792 136.25577
435 8.64857 138.3073 135.88727
436 8.66157 131.84693 135.5245
437 8.67457 133.04416 135.16722
438 8.68757 129.02538 134.81521
439 8.70057 124.03879 134.46827
440 8.71357 126.86564 134.12621
441 8.72657 144.22198 133.78883
442 8.73957 134.89655 133.45596
443 8.75257 114.77728 133.12743
444 8.76557 126.52816 132.80309
445 8.77857 143.94577 132.48278
446 8.79157 135.72527 132.16635
447 8.80457 127.00092 131.85368
448 8.81757 123.61253 131.54464
449 8.83057 140.97428 131.23909
450 8.84357 135.74997 130.93692
451 8.85657 127.09562 130.63801
452 8.86957 130.80041 130.34226
453 8.88257 134.71795 130.04958
454 8.89557 138.46485 129.75984
455 8.90857 132.02946 129.47298
456 8.92157 133.36898 129.18888
457 8.93457 136.09931 128.90748
458 8.94757 127.94936 128.62869
459 8.96057 123.27884 128.35242
460 8.97357 129.56634 128.07861
461 8.98657 122.67113 127.80718
462 8.99957 119.49867 127.53806
463 9.01257 120.43607 127.27119
464 9.02557 109.7434 127.00651
465 9.03857 133.50562 126.74395
466 9.05157 140.66489 126.48346
467 9.06457 131.25813 126.22497
468 9.07757 129.14042 125.96845
469 9.09057 115.79353 125.71383
470 9.10357 114.15825 125.46106
471 9.11657 124.6932 125.2101
472 9.12957 123.79508 124.96091
473 9.14257 123.02493 124.71344
474 9.15557 143.78681 124.46764
475 9.16857 131.70415 124.22348
476 9.18157 129.2796 123.98092
477 9.19457 118.0765 123.73992
478 9.20757 109.34786 123.50045
479 9.22057 129.34376 123.26246
480 9.23357 125.36236 123.02593
481 9.24657 156.11902 122.79082
482 9.25957 131.72696 122.55711
483 9.27257 124.2093 122.32476
484 9.28557 128.11337 122.09374
485 9.29857 140.00101 121.86403
486 9.31157 136.05999 121.6356
487 9.32457 119.35637 121.40842
488 9.33757 120.6652 121.18248
489 9.35057 117.57956 120.95773
490 9.36357 112.96094 120.73417
491 9.37657 128.06765 120.51177
492 9.38957 115.74448 120.2905
493 9.40257 116.11995 120.07035
494 9.41557 129.40237 119.85129
495 9.42857 108.6893 119.63332
496 9.44157 115.35461 119.4164
497 9.45457 118.13704 119.20052
498 9.46757 107.72633 118.98566
499 9.48057 105.23343 118.77181
500 9.49357 124.31793 118.55894
501 9.50657 111.38949 118.34705
502 9.51957 120.71134 118.13612
503 9.53257 110.96273 117.92613
504 9.54557 108.93857 117.71707
505 9.55857 102.9981 117.50893
506 9.57157 106.9576 117.30169
507 9.58457 128.54534 117.09534
508 9.59757 106.70512 116.88987
509 9.61057 112.71704 116.68526
510 9.62357 112.05126 116.4815
511 9.63657 95.08733 116.27859
512 9.64957 107.0168 116.07652
513 9.66257 104.32155 115.87526
514 9.67557 123.1085 115.67482
515 9.68857 122.29211 115.47518
516 9.70157 114.88096 115.27634
517 9.71457 101.67978 115.07828
518 9.72757 106.962 114.88101
519 9.74057 120.90445 114.6845
520 9.75357 121.30023 114.48875
521 9.76657 125.20295 114.29377
522 9.77957 121.01792 114.09953
523 9.79257 103.58919 113.90603
524 9.80557 97.56872 113.71327
525 9.81857 124.21682 113.52124
526 9.83157 104.90566 113.32994
527 9.84457 108.15177 113.13936
528 9.85757 110.22987 112.9495
529 9.87057 104.67365 112.76035
530 9.88357 91.73416 112.57191
531 9.89657 117.64827 112.38417
532 9.90957 108.25648 112.19594
533 9.92257 94.50849 112.0042
534 9.93557 107.65247 111.80834
535 9.94857 120.30566 111.60774
536 9.96157 108.47849 111.40161
537 9.97457 118.3598 111.18893
538 9.98757 110.55153 110.96833
539 10.00057 106.30973 110.73794
540 10.01357 111.26019 110.49505
541 10.02657 109.14901 110.23554
542 10.03957 122.17002 109.95247
543 10.05257 133.4895 109.63246
544 10.06557 125.20543 109.24198
545 10.07857 102.7319 108.58177
546 10.09157 97.33154 108.15871
547 10.10457 107.98958 107.99688
548 10.11757 120.44317 107.83556
549 10.13057 114.74944 107.67477
550 10.14357 105.44811 107.51451
551 10.15657 108.79996 107.3548
552 10.16957 106.67253 107.19566
553 10.18257 113.50483 107.0371
554 10.19557 123.4879 106.87913
555 10.20857 121.48292 106.72178
556 10.22157 123.45254 106.56507
557 10.23457 123.61866 106.40901
558 10.24757 117.16128 106.25364
559 10.26057 109.83067 106.09897
560 10.27357 109.53511 105.94504
561 10.28657 111.45267 105.79188
562 10.29957 108.73519 105.63952
563 10.31257 115.66139 105.48799
564 10.32557 113.72539 105.33734
565 10.33857 104.81984 105.18762
566 10.35157 105.84981 105.03886
567 10.36457 105.22426 104.89113
568 10.37757 107.13827 104.74448
569 10.39057 102.64198 104.59898
570 10.40357 108.29237 104.45469
571 10.41657 107.68937 104.31171
572 10.42957 104.98821 104.17012
573 10.44257 96.0273 104.03001
574 10.45557 96.51709 103.8915
575 10.46857 102.90702 103.75472
576 10.48157 110.89373 103.61979
577 10.49457 117.31311 103.48689
578 10.50757 104.59634 103.35618
579 10.52057 113.52398 103.22786
580 10.53357 91.0206 103.10217
581 10.54657 99.63736 102.97936
582 10.55957 114.88443 102.85973
583 10.57257 106.19884 102.74361
584 10.58557 96.34015 102.63141
585 10.59857 88.33341 102.52357
586 10.61157 107.63282 102.42062
587 10.62457 97.73402 102.32317
588 10.63757 81.63449 102.23196
589 10.65057 96.98291 102.14783
590 10.66357 111.06622 102.0718
591 10.67657 107.16756 102.00507
592 10.68957 112.50555 101.94911
593 10.70257 103.00075 101.90567
594 10.71557 101.14308 101.87692
595 10.72857 89.32887 101.86551
596 10.74157 109.00079 101.87474
597 10.75457 107.96536 101.90878
598 10.76757 98.60449 101.97292
599 10.78057 116.60528 102.07396
600 10.79357 97.0007 102.22085
601 10.80657 97.23383 102.42546
602 10.81957 102.221 102.70398
603 10.83257 107.8936 103.07934
604 10.84557 104.18644 103.58693
605 10.85857 114.88909 104.29113
606 10.87157 100.03792 105.32977
607 10.88457 106.91011 107.00861
608 10.89757 115.79504 109.93666
609 10.91057 132.44367 115.11733
610 10.92357 135.87289 123.85136
611 10.93657 132.2114 137.40287
612 10.94957 141.37575 156.85661
613 10.96257 151.27667 183.73556
614 10.97557 200.63653 220.93968
615 10.98857 262.18876 272.58378
616 11.00157 344.29095 340.30464
617 11.01457 431.13175 415.05686
618 11.02757 532.30652 470.15704
619 11.04057 560.62797 467.9006
620 11.05357 426.56833 395.09493
621 11.06657 243.69853 292.55918
622 11.07957 154.6471 206.74993
623 11.09257 128.09089 153.40595
624 11.10557 99.6297 126.62102
625 11.11857 105.31983 114.65954
626 11.13157 111.98555 109.07598
627 11.14457 101.9603 105.91998
628 11.15757 112.2385 103.77611
629 11.17057 115.23206 102.17223
630 11.18357 111.20652 100.91688
631 11.19657 115.24343 99.90603
632 11.20957 108.87149 99.07314
633 11.22257 102.35518 98.37295
634 11.23557 94.52791 97.77371
635 11.24857 103.34926 97.25259
636 11.26157 100.99994 96.79291
637 11.27457 90.41748 96.38218
638 11.28757 95.83373 96.01097
639 11.30057 94.64429 95.672
640 11.31357 89.36211 95.35962
641 11.32657 97.7465 95.06936
642 11.33957 103.64055 94.79766
643 11.35257 99.59149 94.54167
644 11.36557 93.28083 94.29906
645 11.37857 92.83085 94.06793
646 11.39157 84.99845 93.84671
647 11.40457 99.06031 93.63408
648 11.41757 103.13664 93.42897
649 11.43057 85.73474 93.23045
650 11.44357 85.28597 93.03774
651 11.45657 94.30366 92.85018
652 11.46957 105.10949 92.66721
653 11.48257 100.85673 92.48833
654 11.49557 93.60444 92.31313
655 11.50857 100.08742 92.14124
656 11.52157 98.49058 91.97234
657 11.53457 97.90329 91.80617
658 11.54757 98.67154 91.64246
659 11.56057 98.24065 91.48102
660 11.57357 100.69478 91.32164
661 11.58657 98.00071 91.16417
662 11.59957 97.55935 91.00846
663 11.61257 91.39189 90.85436
664 11.62557 89.05899 90.70177
665 11.63857 96.82393 90.55058
666 11.65157 97.59901 90.40069
667 11.66457 87.20081 90.25202
668 11.67757 80.0183 90.10449
669 11.69057 93.74444 89.95803
670 11.70357 88.84722 89.81258
671 11.71657 85.39369 89.66807
672 11.72957 99.00072 89.52447
673 11.74257 97.00738 89.38172
674 11.75557 91.71144 89.23978
675 11.76857 89.31304 89.0986
676 11.78157 89.69817 88.95816
677 11.79457 92.50406 88.81842
678 11.80757 98.17498 88.67934
679 11.82057 93.4546 88.54091
680 11.83357 94.22033 88.40309
681 11.84657 80.0232 88.26586
682 11.85957 85.27188 88.12921
683 11.87257 84.3986 87.9931
684 11.88557 89.44681 87.85752
685 11.89857 90.57432 87.72245
686 11.91157 88.18763 87.58788
687 11.92457 84.41464 87.45379
688 11.93757 80.71713 87.32016
689 11.95057 76.2146 87.18699
690 11.96357 82.00059 87.05426
691 11.97657 83.69026 86.92197
692 11.98957 93.14436 86.79009
693 12.00257 93.3318 86.65862
694 12.01557 88.38134 86.52755
695 12.02857 85.14007 86.39687
696 12.04157 92.85634 86.26657
697 12.05457 84.31118 86.13665
698 12.06757 95.73878 86.0071
699 12.08057 82.14902 85.87795
700 12.09357 83.74342 85.75157
701 12.10657 80.27249 85.62999
702 12.11957 85.44529 85.51481
703 12.13257 94.75882 85.40879
704 12.14557 87.87745 85.31779
705 12.15857 82.88282 85.26034
706 12.17157 75.07265 85.29516
707 12.18457 89.92382 85.17158
708 12.19757 89.00922 85.04835
709 12.21057 80.2258 84.92547
710 12.22357 85.79098 84.80294
711 12.23657 95.55214 84.68076
712 12.24957 72.36977 84.55892
713 12.26257 106.54274 84.43742
714 12.27557 94.19428 84.31626
715 12.28857 85.67674 84.19543
716 12.30157 81.37831 84.07495
717 12.31457 80.10492 83.95479
718 12.32757 89.73718 83.83496
719 12.34057 84.87035 83.71547
720 12.35357 84.00061 83.5963
721 12.36657 78.86504 83.47746
722 12.37957 78.00056 83.35894
723 12.39257 81.34496 83.24075
724 12.40557 84.47914 83.12289
725 12.41857 89.08196 83.00539
726 12.43157 95.64512 82.88825
727 12.44457 80.27551 82.7715
728 12.45757 95.65628 82.65516
729 12.47057 81.58735 82.53932
730 12.48357 77.53379 82.42447
731 12.49657 86.32432 82.30951
732 12.50957 77.05201 82.19424
733 12.52257 81.10615 82.07928
734 12.53557 74.55013 81.96465
735 12.54857 96.81412 81.85034
736 12.56157 93.56532 81.73635
737 12.57457 69.87307 81.62268
738 12.58757 75.74048 81.50934
739 12.60057 78.61404 81.39631
740 12.61357 83.00712 81.28361
741 12.62657 82.05573 81.17122
742 12.63957 91.65677 81.05917
743 12.65257 75.04527 80.94743
744 12.66557 74.55517 80.83603
745 12.67857 91.88573 80.72495
746 12.69157 90.09793 80.61419
747 12.70457 92.1765 80.50377
748 12.71757 89.93762 80.39367
749 12.73057 92.51576 80.2839
750 12.74357 93.45533 80.17447
751 12.75657 91.11717 80.06537
752 12.76957 91.45232 79.95661
753 12.78257 75.92469 79.84818
754 12.79557 79.38434 79.74009
755 12.80857 87.25891 79.63234
756 12.82157 84.56136 79.52493
757 12.83457 86.50434 79.41787
758 12.84757 86.94956 79.31116
759 12.86057 84.212 79.20479
760 12.87357 78.53162 79.09877
761 12.88657 78.4596 78.99311
762 12.89957 80.79705 78.8878
763 12.91257 83.0006 78.78286
764 12.92557 82.14202 78.67827
765 12.93857 79.32309 78.57405
766 12.95157 82.32352 78.47019
767 12.96457 84.0075 78.36671
768 12.97757 76.55332 78.2636
769 12.99057 80.13949 78.16087
770 13.00357 83.84922 78.05852
771 13.01657 81.96328 77.95655
772 13.02957 73.35042 77.85497
773 13.04257 71.62067 77.75379
774 13.05557 74.59199 77.653
775 13.06857 85.51855 77.55261
776 13.08157 71.65726 77.45263
777 13.09457 67.70653 77.35306
778 13.10757 81.57537 77.25391
779 13.12057 81.59851 77.15518
780 13.13357 78.27107 77.05687
781 13.14657 79.00057 76.959
782 13.15957 75.74184 76.86157
783 13.17257 69.13032 76.76458
784 13.18557 76.46131 76.66804
785 13.19857 70.87254 76.57195
786 13.21157 80.15654 76.47633
787 13.22457 78.40823 76.38119
788 13.23757 84.57415 76.28652
789 13.25057 84.63879 76.19234
790 13.26357 75.02821 76.09865
791 13.27657 76.28922 76.00546
792 13.28957 59.42359 75.91279
793 13.30257 73.99126 75.82064
794 13.31557 79.60572 75.72901
795 13.32857 76.14864 75.63793
796 13.34157 70.33587 75.5474
797 13.35457 72.89866 75.45743
798 13.36757 74.39142 75.36804
799 13.38057 95.86237 75.27923
800 13.39357 71.78436 75.19101
801 13.40657 69.37334 75.10341
802 13.41957 76.04504 75.01642
803 13.43257 93.98526 74.93008
804 13.44557 71.13009 74.84439
805 13.45857 75.00054 74.75936
806 13.47157 75.08849 74.67502
807 13.48457 81.9741 74.59137
808 13.49757 72.07332 74.50845
809 13.51057 70.0349 74.42625
810 13.52357 76.80519 74.34482
811 13.53657 71.2231 74.26415
812 13.54957 63.37656 74.18429
813 13.56257 63.94353 74.10524
814 13.57557 79.86425 74.02703
815 13.58857 78.23084 73.94963
816 13.60157 70.6939 73.87299
817 13.61457 65.48341 73.79711
818 13.62757 74.82901 73.72196
819 13.64057 83.06926 73.64753
820 13.65357 76.1321 73.57374
821 13.66657 71.5458 73.50046
822 13.67957 67.58543 73.42735
823 13.69257 75.43904 73.35298
824 13.70557 85.33996 73.27668
825 13.71857 65.57598 73.2098
826 13.73157 78.91086 73.14414
827 13.74457 78.17543 73.07974
828 13.75757 69.05776 73.01666
829 13.77057 70.92231 72.95494
830 13.78357 78.19031 72.89463
831 13.79657 87.6452 72.83579
832 13.80957 76.41881 72.77848
833 13.82257 67.53273 72.72275
834 13.83557 88.04198 72.66868
835 13.84857 81.50466 72.61633
836 13.86157 73.141 72.56577
837 13.87457 68.47566 72.51708
838 13.88757 67.69554 72.47034
839 13.90057 73.48162 72.42564
840 13.91357 73.96957 72.38307
841 13.92657 67.01338 72.34273
842 13.93957 70.5537 72.30473
843 13.95257 78.51839 72.26916
844 13.96557 72.73918 72.23617
845 13.97857 70.5028 72.20586
846 13.99157 65.22823 72.17837
847 14.00457 76.74988 72.15386
848 14.01757 73.89231 72.13246
849 14.03057 69.68781 72.11435
850 14.04357 69.53965 72.09971
851 14.05657 70.39657 72.08872
852 14.06957 75.22493 72.08159
853 14.08257 72.0849 72.07854
854 14.09557 64.78287 72.07979
855 14.10857 67.79035 72.08561
856 14.12157 77.64848 72.09627
857 14.13457 76.93535 72.11206
858 14.14757 64.55138 72.13331
859 14.16057 66.73429 72.16035
860 14.17357 75.56485 72.19355
861 14.18657 79.60203 72.23333
862 14.19957 85.08687 72.28013
863 14.21257 80.87188 72.33441
864 14.22557 77.87465 72.39671
865 14.23857 76.01066 72.46758
866 14.25157 70.33166 72.54766
867 14.26457 73.2954 72.63761
868 14.27757 81.39797 72.73819
869 14.29057 78.12589 72.85021
870 14.30357 79.16746 72.97456
871 14.31657 84.38444 73.11224
872 14.32957 72.64288 73.26434
873 14.34257 77.56432 73.43207
874 14.35557 86.64935 73.61677
875 14.36857 79.73781 73.81992
876 14.38157 69.09256 74.04317
877 14.39457 65.61662 74.28839
878 14.40757 66.70232 74.55763
879 14.42057 64.84749 74.85322
880 14.43357 66.72635 75.17776
881 14.44657 80.87898 75.53418
882 14.45957 87.5512 75.92583
883 14.47257 89.51553 76.35648
884 14.48557 82.00059 76.83041
885 14.49857 81.77191 77.35254
886 14.51157 80.34428 77.92851
887 14.52457 77.16515 78.56478
888 14.53757 75.98992 79.26885
889 14.55057 82.86647 80.0494
890 14.56357 81.93368 80.91657
891 14.57657 97.46392 81.88224
892 14.58957 85.95585 82.96041
893 14.60257 90.55279 84.16763
894 14.61557 88.83689 85.52366
895 14.62857 93.22392 87.05219
896 14.64157 87.88109 88.78183
897 14.65457 87.9873 90.74738
898 14.66757 95.20298 92.99155
899 14.68057 88.00064 95.56718
900 14.69357 88.95199 98.5403
901 14.70657 100.76959 101.99429
902 14.71957 111.12077 106.03567
903 14.73257 112.65035 110.80228
904 14.74557 107.16516 116.47507
905 14.75857 134.54743 123.29543
906 14.77157 120.44794 131.59156
907 14.78457 142.17794 141.82117
908 14.79757 159.00999 154.65229
909 14.81057 176.83139 171.15304
910 14.82357 218.18874 193.29465
911 14.83657 279.16698 225.18914
912 14.84957 352.09761 275.54693
913 14.86257 482.41458 361.29842
914 14.87557 649.901 511.23046
915 14.88857 933.72046 767.52874
916 14.90157 1402.57805 1182.91433
917 14.91457 2044.20865 1813.05955
918 14.92757 2797.88703 2691.13392
919 14.94057 3661.9701 3754.89513
920 14.95357 4266.61246 4748.49845
921 14.96657 4452.68591 5200.4526
922 14.97957 4006.2059 4689.03676
923 14.99257 3157.0612 3450.77792
924 15.00557 2091.10468 2176.5615
925 15.01857 1272.21446 1255.85643
926 15.03157 741.75899 723.60685
927 15.04457 493.42629 458.59761
928 15.05757 359.75887 331.94238
929 15.07057 239.36357 265.17803
930 15.08357 226.51686 223.63518
931 15.09657 168.99063 194.42402
932 15.10957 145.654 172.59769
933 15.12257 131.96282 155.7832
934 15.13557 128.00093 142.57056
935 15.14857 125.07069 132.0353
936 15.16157 114.60653 123.55754
937 15.17457 116.70263 116.73961
938 15.18757 107.05303 111.37357
939 15.20057 91.60726 107.43359
940 15.21357 89.73256 105.06813
941 15.22657 86.28918 104.56648
942 15.23957 83.33143 106.29252
943 15.25257 81.69427 110.51404
944 15.26557 88.07634 116.87523
945 15.27857 90.10066 123.56055
946 15.29157 98.97536 126.86852
947 15.30457 101.31973 122.68978
948 15.31757 87.53251 111.47391
949 15.33057 82.37528 98.85441
950 15.34357 82.24933 88.934
951 15.35657 82.14827 82.539
952 15.36957 70.02587 78.79993
953 15.38257 67.75562 76.5523
954 15.39557 76.17664 75.01131
955 15.40857 84.94401 73.80239
956 15.42157 79.99253 72.7778
957 15.43457 72.05763 71.87854
958 15.44757 74.5049 71.07514
959 15.46057 68.07823 70.34904
960 15.47357 60.03137 69.687
961 15.48657 60.42429 69.07911
962 15.49957 70.35934 68.51766
963 15.51257 75.90812 67.99654
964 15.52557 69.6661 67.5108
965 15.53857 63.21673 67.05633
966 15.55157 62.52506 66.62973
967 15.56457 69.58545 66.22809
968 15.57757 66.97479 65.84894
969 15.59057 64.79092 65.49011
970 15.60357 68.31235 65.14975
971 15.61657 70.49893 64.82623
972 15.62957 66.89932 64.51809
973 15.64257 65.35596 64.22406
974 15.65557 70.83859 63.943
975 15.66857 69.25932 63.67388
976 15.68157 52.56084 63.41581
977 15.69457 60.73711 63.16795
978 15.70757 58.00042 62.92955
979 15.72057 60.96046 62.69995
980 15.73357 69.43094 62.47854
981 15.74657 70.51496 62.26475
982 15.75957 63.72963 62.05809
983 15.77257 62.48791 61.85807
984 15.78557 60.26137 61.66429
985 15.79857 58.4733 61.47634
986 15.81157 60.68001 61.29387
987 15.82457 63.21707 61.11655
988 15.83757 63.79377 60.94407
989 15.85057 61.62299 60.77615
990 15.86357 55.62667 60.61253
991 15.87657 54.70819 60.45297
992 15.88957 59.66583 60.29725
993 15.90257 69.09982 60.14514
994 15.91557 73.97062 59.99648
995 15.92857 67.86327 59.8511
996 15.94157 66.23667 59.70888
997 15.95457 62.64386 59.56969
998 15.96757 72.8511 59.43351
999 15.98057 53.92727 59.30095
1000 15.99357 46.01608 59.1695
1001 16.00657 66.53413 59.04045
1002 16.01957 60.93263 58.91367
1003 16.03257 59.82674 58.78908
1004 16.04557 57.8161 58.66656
1005 16.05857 73.42954 58.54603
1006 16.07157 59.11303 58.4274
1007 16.08457 62.93703 58.31058
1008 16.09757 59.95956 58.1955
1009 16.11057 55.00917 58.08208
1010 16.12357 55.98874 57.97026
1011 16.13657 49.15144 57.85996
1012 16.14957 60.62245 57.75114
1013 16.16257 54.29029 57.64372
1014 16.17557 67.28188 57.53766
1015 16.18857 67.06173 57.4329
1016 16.20157 56.78316 57.32939
1017 16.21457 59.67614 57.22708
1018 16.22757 69.99963 57.12594
1019 16.24057 53.01847 57.02592
1020 16.25357 48.33281 56.92697
1021 16.26657 74.37851 56.82958
1022 16.27957 65.82956 56.73603
1023 16.29257 66.57879 56.64781
1024 16.30557 60.20427 56.56776
1025 16.31857 58.16081 56.50475
1026 16.33157 53.85194 56.4933
1027 16.34457 53.82017 56.40213
1028 16.35757 53.18283 56.31178
1029 16.37057 63.39786 56.22225
1030 16.38357 61.26113 56.1335
1031 16.39657 57.66051 56.04552
1032 16.40957 57.00041 55.95827
1033 16.42257 65.36202 55.87174
1034 16.43557 66.50003 55.78592
1035 16.44857 52.6748 55.70077
1036 16.46157 48.73075 55.61628
1037 16.47457 67.01249 55.53244
1038 16.48757 56.94685 55.44922
1039 16.50057 43.69446 55.36661
1040 16.51357 57.57806 55.2846
1041 16.52657 56.83057 55.20316
1042 16.53957 56.35493 55.1223
1043 16.55257 52.71246 55.04198
1044 16.56557 55.209 54.9622
1045 16.57857 58.00042 54.88295
1046 16.59157 61.78792 54.80422
1047 16.60457 61.51512 54.72598
1048 16.61757 63.65936 54.64824
1049 16.63057 53.37194 54.57098
1050 16.64357 49.14043 54.49419
1051 16.65657 61.88637 54.41787
1052 16.66957 70.71534 54.34199
1053 16.68257 60.76655 54.26656
1054 16.69557 58.62178 54.19156
1055 16.70857 69.41915 54.11699
1056 16.72157 66.55319 54.04284
1057 16.73457 57.91228 53.96909
1058 16.74757 56.51253 53.89575
1059 16.76057 59.00924 53.82281
1060 16.77357 61.98503 53.75025
1061 16.78657 54.31765 53.67808
1062 16.79957 53.03219 53.60629
1063 16.81257 58.30007 53.53487
1064 16.82557 54.00039 53.46381
1065 16.83857 51.7868 53.39311
1066 16.85157 52.46277 53.32276
1067 16.86457 55.30886 53.25276
1068 16.87757 55.06524 53.18311
1069 16.89057 55.17161 53.1138
1070 16.90357 56.50232 53.04482
1071 16.91657 61.16965 52.97617
1072 16.92957 57.2394 52.90785
1073 16.94257 58.82093 52.83985
1074 16.95557 59.59377 52.77217
1075 16.96857 67.65707 52.70481
1076 16.98157 67.00048 52.63775
1077 16.99457 62.7938 52.57101
1078 17.00757 54.94142 52.50457
1079 17.02057 53.65904 52.43843
1080 17.03357 48.3511 52.37259
1081 17.04657 51.44501 52.30705
1082 17.05957 46.64442 52.2418
1083 17.07257 52.05677 52.17684
1084 17.08557 56.01714 52.11217
1085 17.09857 59.00043 52.04779
1086 17.11157 57.12558 51.98369
1087 17.12457 48.98041 51.91987
1088 17.13757 46.50533 51.85634
1089 17.15057 60.33326 51.79308
1090 17.16357 49.02761 51.73011
1091 17.17657 45.73886 51.6674
1092 17.18957 50.74755 51.60498
1093 17.20257 57.35238 51.54282
1094 17.21557 50.39436 51.48094
1095 17.22857 55.53586 51.41933
1096 17.24157 44.10666 51.35799
1097 17.25457 61.74787 51.29693
1098 17.26757 48.88106 51.23617
1099 17.28057 70.26332 51.17572
1100 17.29357 64.47746 51.11565
1101 17.30657 68.65856 51.05614
1102 17.31957 63.7158 50.99641
1103 17.33257 47.73773 50.93695
1104 17.34557 45.2823 50.87775
1105 17.35857 66.58807 50.81882
1106 17.37157 57.74906 50.76016
1107 17.38457 50.81842 50.70176
1108 17.39757 44.19325 50.64364
1109 17.41057 55.99227 50.58577
1110 17.42357 55.99227 50.52818
1111 17.43657 52.05568 50.47086
1112 17.44957 61.76303 50.4138
1113 17.46257 51.3706 50.35702
1114 17.47557 45.26176 50.3005
1115 17.48857 63.93072 50.24426
1116 17.50157 55.63442 50.1883
1117 17.51457 45.7335 50.13261
1118 17.52757 46.83387 50.07719
1119 17.54057 48.81406 50.02206
1120 17.55357 57.07285 49.9672
1121 17.56657 51.79121 49.91263
1122 17.57957 59.77151 49.85877
1123 17.59257 43.65646 49.80631
1124 17.60557 47.00128 49.75591
1125 17.61857 52.23719 49.70936
1126 17.63157 49.65057 49.68005
1127 17.64457 40.72497 49.62907
1128 17.65757 47.99414 49.57686
1129 17.67057 41.11557 49.52495
1130 17.68357 57.34053 49.47336
1131 17.69657 62.78818 49.42209
1132 17.70957 56.00009 49.36964
1133 17.72257 52.46458 49.31342
1134 17.73557 52.00038 49.25211
1135 17.74857 51.2523 49.18347
1136 17.76157 56.16747 49.10294
1137 17.77457 47.80502 48.99796
1138 17.78757 50.46527 48.84066
1139 17.80057 49.45832 48.72235
1140 17.81357 56.38231 48.67687
1141 17.82657 51.73745 48.63171
1142 17.83957 52.07235 48.5869
1143 17.85257 42.63161 48.54242
1144 17.86557 50.17701 48.4983
1145 17.87857 55.70257 48.45454
1146 17.89157 55.0004 48.41115
1147 17.90457 58.14586 48.36814
1148 17.91757 54.42785 48.32552
1149 17.93057 55.87446 48.2833
1150 17.94357 66.18227 48.24148
1151 17.95657 63.92908 48.20009
1152 17.96957 63.05602 48.15913
1153 17.98257 56.31973 48.11861
1154 17.99557 54.03622 48.07855
1155 18.00857 51.40491 48.03895
1156 18.02157 52.47686 47.99984
1157 18.03457 53.76206 47.96123
1158 18.04757 52.59976 47.92312
1159 18.06057 47.86088 47.8855
1160 18.07357 58.50205 47.84838
1161 18.08657 60.31623 47.81176
1162 18.09957 48.3223 47.77561
1163 18.11257 48.29734 47.73985
1164 18.12557 45.76265 47.70369
1165 18.13857 49.45083 47.66971
1166 18.15157 52.64372 47.63641
1167 18.16457 55.13912 47.60383
1168 18.17757 48.95164 47.57201
1169 18.19057 45.28682 47.54106
1170 18.20357 50.79461 47.51121
1171 18.21657 50.82786 47.48164
1172 18.22957 51.2859 47.4529
1173 18.24257 49.43527 47.42504
1174 18.25557 42.88904 47.39808
1175 18.26857 47.64917 47.37207
1176 18.28157 49.04792 47.34704
1177 18.29457 51.34364 47.32304
1178 18.30757 46.71461 47.30011
1179 18.32057 44.00032 47.27831
1180 18.33357 45.20673 47.25768
1181 18.34657 47.12528 47.23828
1182 18.35957 46.12742 47.22018
1183 18.37257 49.27221 47.20343
1184 18.38557 51.83396 47.18809
1185 18.39857 50.95175 47.17426
1186 18.41157 37.84249 47.16199
1187 18.42457 51.1428 47.15137
1188 18.43757 45.44489 47.1425
1189 18.45057 46.36324 47.13546
1190 18.46357 45.61238 47.13037
1191 18.47657 52.00038 47.12733
1192 18.48957 50.54056 47.12647
1193 18.50257 45.55337 47.12791
1194 18.51557 53.32568 47.13179
1195 18.52857 53.47308 47.13827
1196 18.54157 44.85751 47.14752
1197 18.55457 44.93063 47.15971
1198 18.56757 50.38544 47.17504
1199 18.58057 45.43498 47.19373
1200 18.59357 42.34132 47.21602
1201 18.60657 54.37335 47.24217
1202 18.61957 57.00051 47.27246
1203 18.63257 47.54195 47.30721
1204 18.64557 66.49252 47.34679
1205 18.65857 58.67894 47.39157
1206 18.67157 53.26238 47.442
1207 18.68457 58.15667 47.49858
1208 18.69757 34.07175 47.56186
1209 18.71057 37.27867 47.63248
1210 18.72357 56.98439 47.71116
1211 18.73657 53.02408 47.79874
1212 18.74957 51.02464 47.89617
1213 18.76257 53.92269 48.00473
1214 18.77557 52.07201 48.12986
1215 18.78857 52.95465 48.27912
1216 18.80157 59.61092 48.46301
1217 18.81457 51.59041 48.73043
1218 18.82757 47.30224 49.01423
1219 18.84057 51.57342 49.23081
1220 18.85357 42.95336 49.47716
1221 18.86657 46.47424 49.75983
1222 18.87957 65.58264 50.08814
1223 18.89257 49.62641 50.47666
1224 18.90557 40.94505 50.95152
1225 18.91857 55.39256 51.56506
1226 18.93157 64.76211 52.42452
1227 18.94457 50.12986 53.73751
1228 18.95757 42.04806 55.86151
1229 18.97057 52.41682 59.30315
1230 18.98357 59.02815 64.55089
1231 18.99657 54.43099 71.66716
1232 19.00957 61.63401 79.7648
1233 19.02257 70.20574 86.61542
1234 19.03557 68.93754 88.93752
1235 19.04857 64.97717 84.94397
1236 19.06157 58.77906 77.38169
1237 19.07457 59.94441 70.3184
1238 19.08757 51.56134 65.61138
1239 19.10057 48.71652 63.33008
1240 19.11357 54.65039 62.81848
1241 19.12657 59.08943 63.39496
1242 19.13957 59.31401 64.63746
1243 19.15257 68.47155 66.37215
1244 19.16557 76.3335 68.58045
1245 19.17857 75.37385 71.30896
1246 19.19157 69.47319 74.59173
1247 19.20457 70.82158 78.61263
1248 19.21757 78.016 83.57139
1249 19.23057 85.93673 89.75343
1250 19.24357 84.14382 97.58229
1251 19.25657 100.7078 107.74077
1252 19.26957 121.61693 121.47389
1253 19.28257 179.52729 141.30968
1254 19.29557 263.3854 172.54006
1255 19.30857 338.69109 225.70329
1256 19.32157 448.74308 319.65442
1257 19.33457 639.86609 482.87141
1258 19.34757 942.1207 746.92307
1259 19.36057 1295.69314 1125.7974
1260 19.37357 1635.64942 1585.14695
1261 19.38657 1852.79803 2014.60292
1262 19.39957 1803.00254 2225.40906
1263 19.41257 1583.23355 2052.68035
1264 19.42557 1366.31749 1579.28666
1265 19.43857 1123.99784 1063.21954
1266 19.45157 814.51079 663.08614
1267 19.46457 549.70829 409.02848
1268 19.47757 372.73143 268.36931
1269 19.49057 243.00488 195.2672
1270 19.50357 179.10708 155.80275
1271 19.51657 145.44395 131.81988
1272 19.52957 116.82045 115.37377
1273 19.54257 94.53161 103.20856
1274 19.55557 69.41046 93.84453
1275 19.56857 54.79506 86.46365
1276 19.58157 59.3965 80.54214
1277 19.59457 64.37419 75.72016
1278 19.60757 68.67131 71.74193
1279 19.62057 60.65716 68.42154
1280 19.63357 47.16585 65.62137
1281 19.64657 55.29427 63.23784
1282 19.65957 59.81563 61.19185
1283 19.67257 54.23729 59.42217
1284 19.68557 58.92164 57.88082
1285 19.69857 55.22105 56.52979
1286 19.71157 52.50064 55.33867
1287 19.72457 49.56064 54.28289
1288 19.73757 46.38056 53.34242
1289 19.75057 53.42174 52.50083
1290 19.76357 60.9494 51.74453
1291 19.77657 57.20071 51.06219
1292 19.78957 57.23106 50.44432
1293 19.80257 56.70517 49.88293
1294 19.81557 66.10364 49.37124
1295 19.82857 52.16086 48.90346
1296 19.84157 50.59121 48.47467
1297 19.85457 37.84422 48.08061
1298 19.86757 43.2618 47.71762
1299 19.88057 46.57109 47.38252
1300 19.89357 56.89129 47.07255
1301 19.90657 47.69735 46.7853
1302 19.91957 46.1844 46.51868
1303 19.93257 57.59458 46.27085
1304 19.94557 52.57287 46.04017
1305 19.95857 47.36836 45.82522
1306 19.97157 53.10323 45.62474
1307 19.98457 54.37779 45.43761
1308 19.99757 40.28462 45.26287
1309 20.01057 48.80526 45.09966
1310 20.02357 40.14143 44.9472
1311 20.03657 51.97083 44.80484
1312 20.04957 36.12958 44.672
1313 20.06257 54.65045 44.54816
1314 20.07557 50.14065 44.4329
1315 20.08857 54.81053 44.32583
1316 20.10157 56.90464 44.22666
1317 20.11457 63.59584 44.13513
1318 20.12757 55.60986 44.05105
1319 20.14057 45.77666 43.9743
1320 20.15357 51.38754 43.90479
1321 20.16657 51.09783 43.84254
1322 20.17957 45.6446 43.7876
1323 20.19257 48.53118 43.74011
1324 20.20557 46.38196 43.70031
1325 20.21857 51.17763 43.66854
1326 20.23157 57.11818 43.64526
1327 20.24457 50.41294 43.63111
1328 20.25757 57.33173 43.62693
1329 20.27057 45.00564 43.63386
1330 20.28357 50.94669 43.6534
1331 20.29657 42.55628 43.68762
1332 20.30957 44.76115 43.73945
1333 20.32257 39.72631 43.81332
1334 20.33557 54.24382 43.91684
1335 20.34857 49.83738 44.06468
1336 20.36157 52.27604 44.28705
1337 20.37457 52.51288 44.64474
1338 20.38757 45.3958 45.24869
1339 20.40057 52.41136 46.26981
1340 20.41357 52.43035 47.90246
1341 20.42657 65.78639 50.23823
1342 20.43957 73.38888 53.07502
1343 20.45257 76.7376 55.762
1344 20.46557 78.67492 57.20381
1345 20.47857 69.69847 56.45703
1346 20.49157 66.96403 53.98641
1347 20.50457 62.84365 51.25671
1348 20.51757 49.21069 49.19448
1349 20.53057 38.00211 48.00732
1350 20.54357 39.91914 47.54272
1351 20.55657 58.12394 47.56
1352 20.56957 54.3148 47.87596
1353 20.58257 50.26636 48.39756
1354 20.59557 49.39211 49.09795
1355 20.60857 42.04435 49.98787
1356 20.62157 41.77641 51.10094
1357 20.63457 52.17996 52.49099
1358 20.64757 54.18188 54.23744
1359 20.66057 49.47488 56.45924
1360 20.67357 47.45366 59.34801
1361 20.68657 51.05682 63.25057
1362 20.69957 55.50467 68.86599
1363 20.71257 56.94367 77.65647
1364 20.72557 71.37393 92.54583
1365 20.73857 98.51429 118.76655
1366 20.75157 140.90917 164.12199
1367 20.76457 215.38632 236.94944
1368 20.77757 320.7874 340.10247
1369 20.79057 498.14288 462.57171
1370 20.80357 749.94082 573.16149
1371 20.81657 912.85992 622.17431
1372 20.82957 784.51202 571.48938
1373 20.84257 453.47032 447.39828
1374 20.85557 234.83202 314.26168
1375 20.86857 115.36613 210.28162
1376 20.88157 67.29724 142.92563
1377 20.89457 55.63132 104.57315
1378 20.90757 60.90293 84.07715
1379 20.92057 44.63547 72.82837
1380 20.93357 47.68323 65.98177
1381 20.94657 46.07873 61.30795
1382 20.95957 42.51388 57.86169
1383 20.97257 39.8624 55.21267
1384 20.98557 41.44539 53.1272
1385 20.99857 43.21079 51.45782
1386 21.01157 50.45462 50.10288
1387 21.02457 48.97287 48.99018
1388 21.03757 55.62246 48.0673
1389 21.05057 48.68399 47.29541
1390 21.06357 52.7441 46.64524
1391 21.07657 56.71187 46.09446
1392 21.08957 47.80221 45.62579
1393 21.10257 49.07077 45.22574
1394 21.11557 55.67591 44.88367
1395 21.12857 46.68278 44.59112
1396 21.14157 54.20875 44.34131
1397 21.15457 50.00036 44.12883
1398 21.16757 50.00036 43.94931
1399 21.18057 49.87178 43.79926
1400 21.19357 49.71237 43.67591
1401 21.20657 54.78289 43.57711
1402 21.21957 51.41895 43.50128
1403 21.23257 37.44489 43.44732
1404 21.24557 42.7904 43.41468
1405 21.25857 50.96396 43.40333
1406 21.27157 37.71042 43.41391
1407 21.28457 48.55698 43.44789
1408 21.29757 40.47248 43.508
1409 21.31057 51.61773 43.59929
1410 21.32357 39.56633 43.73163
1411 21.33657 67.83723 43.92577
1412 21.34957 51.0059 44.2253
1413 21.36257 49.02084 44.71541
1414 21.37557 42.14139 45.5412
1415 21.38857 53.6317 46.90046
1416 21.40157 44.40163 48.96525
1417 21.41457 44.95028 51.70894
1418 21.42757 35.59987 54.71154
1419 21.44057 44.30156 57.06016
1420 21.45357 64.32485 57.56379
1421 21.46657 48.70477 55.80265
1422 21.47957 43.3988 52.90449
1423 21.49257 42.10984 50.21797
1424 21.50557 45.52252 48.32704
1425 21.51857 52.96545 47.25252
1426 21.53157 47.11459 46.77939
1427 21.54457 48.55276 46.66938
1428 21.55757 57.4093 46.7568
1429 21.57057 52.35259 46.95428
1430 21.58357 47.71611 47.22365
1431 21.59657 45.37804 47.54994
1432 21.60957 53.01267 47.9276
1433 21.62257 51.0438 48.35514
1434 21.63557 40.62351 48.83311
1435 21.64857 57.27835 49.36352
1436 21.66157 53.86331 49.94959
1437 21.67457 51.00037 50.59565
1438 21.68757 46.55078 51.3071
1439 21.70057 45.73201 52.09054
1440 21.71357 56.10509 52.95379
1441 21.72657 55.72931 53.90609
1442 21.73957 49.78876 54.95836
1443 21.75257 48.69237 56.12352
1444 21.76557 44.90771 57.41682
1445 21.77857 52.41101 58.85638
1446 21.79157 53.68902 60.46376
1447 21.80457 53.3051 62.26484
1448 21.81757 55.28529 64.2908
1449 21.83057 50.30761 66.57946
1450 21.84357 55.71699 69.17708
1451 21.85657 61.00044 72.14068
1452 21.86957 54.97257 75.54114
1453 21.88257 57.52196 79.46749
1454 21.89557 64.91523 84.0327
1455 21.90857 62.40758 89.38186
1456 21.92157 66.31919 95.70378
1457 21.93457 75.31892 103.24783
1458 21.94757 76.37111 112.34896
1459 21.96057 79.26643 123.46624
1460 21.97357 87.71049 137.24764
1461 21.98657 115.61735 154.65692
1462 21.99957 125.41372 177.26776
1463 22.01257 143.10895 207.99194
1464 22.02557 195.28234 252.77584
1465 22.03857 251.63753 323.96401
1466 22.05157 365.99799 445.48691
1467 22.06457 560.76564 657.75473
1468 22.07757 875.81721 1014.43007
1469 22.09057 1428.32451 1560.67722
1470 22.10357 2215.70742 2285.79144
1471 22.11657 3194.4422 3069.97453
1472 22.12957 4101.61034 3659.5223
1473 22.14257 4237.91517 3738.80495
1474 22.15557 3470.4545 3214.90935
1475 22.16857 2336.88934 2385.87786
1476 22.18157 1341.46299 1602.04451
1477 22.19457 759.92495 1020.35323
1478 22.20757 462.95701 650.6743
1479 22.22057 306.50173 439.23877
1480 22.23357 205.96098 323.44847
1481 22.24657 156.31609 257.78923
1482 22.25957 149.37504 216.94403
1483 22.27257 127.86915 189.04403
1484 22.28557 108.30358 168.87047
1485 22.29857 87.85479 153.9774
1486 22.31157 94.01995 143.04703
1487 22.32457 84.53341 135.29531
1488 22.33757 89.98286 130.26064
1489 22.35057 92.5294 127.72549
1490 22.36357 93.25789 127.70597
1491 22.37657 104.88528 130.5244
1492 22.38957 123.53051 137.05215
1493 22.40257 146.09645 149.30763
1494 22.41557 172.58309 171.65318
1495 22.42857 216.72997 212.62943
1496 22.44157 323.90522 286.61193
1497 22.45457 421.17935 412.7854
1498 22.46757 569.37781 607.28249
1499 22.48057 754.77492 866.42613
1500 22.49357 891.25837 1147.85037
1501 22.50657 974.83261 1361.78807
1502 22.51957 1004.7234 1393.58654
1503 22.53257 875.72496 1205.30303
1504 22.54557 776.16424 904.45181
1505 22.55857 627.86302 618.93821
1506 22.57157 462.57345 405.88231
1507 22.58457 353.18642 269.46773
1508 22.59757 253.89285 190.69903
1509 22.61057 188.69553 147.00312
1510 22.62357 128.20993 121.76952
1511 22.63657 100.08753 105.67113
1512 22.64957 104.83695 94.29946
1513 22.66257 83.05524 85.6992
1514 22.67557 76.08734 78.93958
1515 22.68857 55.46899 73.50116
1516 22.70157 60.80707 69.05051
1517 22.71457 65.78017 65.35865
1518 22.72757 49.88783 62.25256
1519 22.74057 47.12458 59.61034
1520 22.75357 47.92831 57.3416
1521 22.76657 54.42675 55.37612
1522 22.77957 43.19455 53.65966
1523 22.79257 52.77903 52.14977
1524 22.80557 49.55883 50.81285
1525 22.81857 31.43241 49.62207
1526 22.83157 47.23833 48.55574
1527 22.84457 52.57606 47.5963
1528 22.85757 50.45443 46.72947
1529 22.87057 45.80668 45.9438
1530 22.88357 49.97326 45.23059
1531 22.89657 46.90584 44.58412
1532 22.90957 58.9442 44.00216
1533 22.92257 57.20599 43.48578
1534 22.93557 52.84376 43.03732
1535 22.94857 67.5853 42.6548
1536 22.96157 70.46186 42.32412
1537 22.97457 76.0645 42.01338
1538 22.98757 67.50958 41.67485
1539 23.00057 61.78214 41.27556
1540 23.01357 58.81186 40.84028
1541 23.02657 58.00042 40.44229
1542 23.03957 46.64529 40.13587
1543 23.05257 47.59855 39.78066
1544 23.06557 44.48144 39.46895
1545 23.07857 48.7998 39.19031
1546 23.09157 49.32024 38.9354
1547 23.10457 58.56226 38.69804
1548 23.11757 53.59719 38.47463
1549 23.13057 37.11542 38.26315
1550 23.14357 32.89135 38.06228
1551 23.15657 37.10254 37.87106
1552 23.16957 42.053 37.68869
1553 23.18257 40.99717 37.51451
1554 23.19557 43.13528 37.3479
1555 23.20857 40.19234 37.18834
1556 23.22157 37.14203 37.03535
1557 23.23457 39.1164 36.8885
1558 23.24757 36.69484 36.7474
1559 23.26057 38.86919 36.61168
1560 23.27357 34.50306 36.48103
1561 23.28657 32.21183 36.35514
1562 23.29957 35.46652 36.23374
1563 23.31257 37.50958 36.11657
1564 23.32557 44.93164 36.0034
1565 23.33857 49.00035 35.89401
1566 23.35157 46.64242 35.7882
1567 23.36457 47.23203 35.68579
1568 23.37757 46.03104 35.58659
1569 23.39057 34.25634 35.49045
1570 23.40357 35.63874 35.39721
1571 23.41657 45.7343 35.30673
1572 23.42957 43.17612 35.21889
1573 23.44257 42.40249 35.13356
1574 23.45557 43.78485 35.05062
1575 23.46857 40.02975 34.96996
1576 23.48157 34.97973 34.89149
1577 23.49457 39.99448 34.81511
1578 23.50757 42.11506 34.74072
1579 23.52057 40.51959 34.66825
1580 23.53357 33.32653 34.59762
1581 23.54657 36.1277 34.52874
1582 23.55957 34.25622 34.46156
1583 23.57257 42.24551 34.396
1584 23.58557 31.92992 34.332
1585 23.59857 40.41556 34.2695
1586 23.61157 43.45404 34.20842
1587 23.62457 43.84288 34.14869
1588 23.63757 45.96063 34.09023
1589 23.65057 38.70404 34.0329
1590 23.66357 42.59944 33.97692
1591 23.67657 37.10601 33.92238
1592 23.68957 35.28215 33.86902
1593 23.70257 41.8339 33.81679
1594 23.71557 47.06216 33.76565
1595 23.72857 40.10371 33.71558
1596 23.74157 44.13038 33.66655
1597 23.75457 39.83055 33.61852
1598 23.76757 40.69444 33.57146
1599 23.78057 48.70347 33.52535
1600 23.79357 40.86611 33.48017
1601 23.80657 41.11871 33.43588
1602 23.81957 46.37021 33.39247
1603 23.83257 27.35789 33.34991
1604 23.84557 39.09481 33.30819
1605 23.85857 40.33872 33.26728
1606 23.87157 42.58114 33.22718
1607 23.88457 25.51841 33.18785
1608 23.89757 33.21969 33.14929
1609 23.91057 36.64068 33.11149
1610 23.92357 29.28047 33.07442
1611 23.93657 37.30168 33.03809
1612 23.94957 48.7419 33.00247
1613 23.96257 31.97908 32.96746
1614 23.97557 28.01877 32.93234
1615 23.98857 32.92745 32.89657
1616 24.00157 28.12256 32.85915
1617 24.01457 45.38137 32.81618
1618 24.02757 46.94921 32.76664
1619 24.04057 35.6526 32.73618
1620 24.05357 36.87171 32.70641
1621 24.06657 51.8133 32.67735
1622 24.07957 34.68239 32.64901
1623 24.09257 40.24811 32.62141
1624 24.10557 40.10423 32.59459
1625 24.11857 47.08952 32.56861
1626 24.13157 31.3518 32.54353
1627 24.14457 46.32669 32.51948
1628 24.15757 41.29267 32.4967
1629 24.17057 34.07483 32.47565
1630 24.18357 38.85629 32.45728
1631 24.19657 35.86697 32.4434
1632 24.20957 41.53424 32.43702
1633 24.22257 38.96614 32.44218
1634 24.23557 51.54789 32.46254
1635 24.24857 54.21339 32.49822
1636 24.26157 61.77127 32.54176
1637 24.27457 70.90502 32.57549
1638 24.28757 68.45698 32.57478
1639 24.30057 68.48515 32.52617
1640 24.31357 61.62767 32.44651
1641 24.32657 50.27202 32.36441
1642 24.33957 45.56544 32.29618
1643 24.35257 35.0948 32.24582
1644 24.36557 46.34791 32.21114
1645 24.37857 42.68478 32.18839
1646 24.39157 38.00027 32.17511
1647 24.40457 38.66815 32.17193
1648 24.41757 37.0264 32.17881
1649 24.43057 36.00026 32.20221
1650 24.44357 37.27652 32.24642
1651 24.45657 43.65422 32.31071
1652 24.46957 39.58072 32.38398
1653 24.48257 42.90928 32.44177
1654 24.49557 45.60646 32.45154
1655 24.50857 51.65155 32.39797
1656 24.52157 51.214 32.30558
1657 24.53457 41.88181 32.2115
1658 24.54757 39.67671 32.13596
1659 24.56057 38.79934 32.08337
1660 24.57357 44.54396 32.05053
1661 24.58657 42.00872 32.03471
1662 24.59957 37.11428 32.03517
1663 24.61257 35.41848 32.08065
1664 24.62557 36.49115 32.07803
1665 24.63857 40.04326 32.07646
1666 24.65157 42.31438 32.07667
1667 24.66457 47.9392 32.07852
1668 24.67757 47.1623 32.08188
1669 24.69057 40.05473 32.0867
1670 24.70357 34.43993 32.09294
1671 24.71657 35.43002 32.10049
1672 24.72957 37.67968 32.10969
1673 24.74257 36.31084 32.1207
1674 24.75557 31.00022 32.13332
1675 24.76857 28.65957 32.14762
1676 24.78157 29.18231 32.16416
1677 24.79457 39.70305 32.18376
1678 24.80757 44.55888 32.20975
1679 24.82057 37.44026 32.23665
1680 24.83357 30.70215 32.26043
1681 24.84657 39.94876 32.28637
1682 24.85957 47.192 32.31458
1683 24.87257 37.62155 32.34517
1684 24.88557 33.58718 32.37828
1685 24.89857 26.81641 32.41403
1686 24.91157 40.1576 32.45259
1687 24.92457 36.64536 32.49412
1688 24.93757 36.13305 32.5388
1689 24.95057 42.99111 32.58682
1690 24.96357 37.24151 32.63838
1691 24.97657 40.3135 32.69373
1692 24.98957 44.01502 32.7531
1693 25.00257 30.63469 32.81677
1694 25.01557 32.59708 32.88504
1695 25.02857 31.95853 32.95822
1696 25.04157 38.18122 33.03668
1697 25.05457 46.79753 33.1208
1698 25.06757 41.16221 33.21102
1699 25.08057 40.93121 33.30779
1700 25.09357 35.00025 33.41164
1701 25.10657 34.7362 33.52315
1702 25.11957 33.61079 33.64295
1703 25.13257 38.67345 33.77175
1704 25.14557 43.38663 33.91032
1705 25.15857 37.63081 34.05955
1706 25.17157 34.82475 34.22041
1707 25.18457 42.98482 34.39399
1708 25.19757 30.62642 34.58153
1709 25.21057 40.42193 34.78441
1710 25.22357 47.3157 35.0042
1711 25.23657 32.00023 35.24266
1712 25.24957 32.20687 35.50182
1713 25.26257 40.8568 35.78398
1714 25.27557 30.0409 36.09177
1715 25.28857 42.91191 36.42821
1716 25.30157 48.90007 36.7968
1717 25.31457 44.13347 37.20159
1718 25.32757 54.5984 37.64728
1719 25.34057 45.46493 38.13939
1720 25.35357 42.16333 38.68438
1721 25.36657 44.80102 39.28991
1722 25.37957 47.7713 39.96509
1723 25.39257 41.60416 40.72078
1724 25.40557 38.28882 41.57006
1725 25.41857 43.36374 42.52854
1726 25.43157 40.46433 43.61118
1727 25.44457 33.00764 44.83605
1728 25.45757 45.82689 46.2237
1729 25.47057 51.41735 47.78036
1730 25.48357 57.91073 49.58989
1731 25.49657 49.8218 51.82711
1732 25.50957 41.4043 54.46953
1733 25.52257 40.00029 57.6205
1734 25.53557 49.65639 61.41712
1735 25.54857 51.20562 66.0477
1736 25.56157 63.55789 71.78344
1737 25.57457 64.67569 79.0418
1738 25.58757 73.94566 88.54245
1739 25.60057 85.30666 101.66679
1740 25.61357 117.78944 121.1965
1741 25.62657 126.53068 152.5449
1742 25.63957 181.11683 205.1838
1743 25.65257 284.26031 293.07111
1744 25.66557 441.85442 431.88382
1745 25.67857 596.23681 630.7885
1746 25.69157 849.41155 878.59697
1747 25.70457 1139.58942 1129.28386
1748 25.71757 1278.2778 1298.22856
1749 25.73057 1302.32102 1295.54852
1750 25.74357 1104.07571 1113.8477
1751 25.75657 810.57486 849.03156
1752 25.76957 565.39405 597.58681
1753 25.78257 384.65283 403.35811
1754 25.79557 257.31723 272.10691
1755 25.80857 153.1776 191.46204
1756 25.82157 104.96403 144.36475
1757 25.83457 100.57721 116.63416
1758 25.84757 84.00369 99.21627
1759 25.86057 60.42411 87.26565
1760 25.87357 49.80645 78.41996
1761 25.88657 55.51383 71.59202
1762 25.89957 58.83987 66.19528
1763 25.91257 54.44986 61.83981
1764 25.92557 45.90333 58.28014
1765 25.93857 42.4794 55.34078
1766 25.95157 44.05193 52.89248
1767 25.96457 44.86342 50.83923
1768 25.97757 42.86036 49.1092
1769 25.99057 42.03119 47.6547
1770 26.00357 46.65802 46.41144
1771 26.01657 45.00033 45.34352
1772 26.02957 42.86227 44.43178
1773 26.04257 38.3295 43.65407
1774 26.05557 35.59248 42.9926
1775 26.06857 37.78532 42.43305
1776 26.08157 48.59547 41.96389
1777 26.09457 48.79346 41.57584
1778 26.10757 36.04956 41.26154
1779 26.12057 42.64211 41.01519
1780 26.13357 43.74176 40.83239
1781 26.14657 43.94944 40.70997
1782 26.15957 38.32859 40.6459
1783 26.17257 41.86588 40.63922
1784 26.18557 47.07489 40.69011
1785 26.19857 43.80605 40.79988
1786 26.21157 37.82509 40.97112
1787 26.22457 29.72148 41.20791
1788 26.23757 37.06495 41.51615
1789 26.25057 56.15242 41.90396
1790 26.26357 50.2413 42.38242
1791 26.27657 54.60962 42.96661
1792 26.28957 46.54201 43.6773
1793 26.30257 46.31582 44.54466
1794 26.31557 51.00037 45.61856
1795 26.32857 51.19979 46.98451
1796 26.34157 50.29484 48.82244
1797 26.35457 44.43702 51.3369
1798 26.36757 52.01841 55.14687
1799 26.38057 57.16017 61.20739
1800 26.39357 59.49885 70.8702
1801 26.40657 69.80779 85.57517
1802 26.41957 82.29927 106.05819
1803 26.43257 93.27976 131.03472
1804 26.44557 109.56064 155.87047
1805 26.45857 105.7004 172.35443
1806 26.47157 102.73012 172.33415
1807 26.48457 98.39487 155.95952
1808 26.49757 79.71907 132.47053
1809 26.51057 75.94009 110.6277
1810 26.52357 74.8489 94.39969
1811 26.53657 70.90345 84.37412
1812 26.54957 45.52252 79.51681
1813 26.56257 61.93804 78.36082
1814 26.57557 59.09841 79.70801
1815 26.58857 68.00244 82.77754
1816 26.60157 69.98259 87.28995
1817 26.61457 68.03824 93.2403
1818 26.62757 71.88537 100.82062
1819 26.64057 66.2327 110.39543
1820 26.65357 90.73659 122.54964
1821 26.66657 93.88361 138.25213
1822 26.67957 118.20378 159.26257
1823 26.69257 140.27384 189.03256
1824 26.70557 180.28753 234.40491
1825 26.71857 219.1664 308.10631
1826 26.73157 307.71817 430.98097
1827 26.74457 457.33273 631.20436
1828 26.75757 771.58537 936.50228
1829 26.77057 1249.45792 1356.35814
1830 26.78357 2088.44943 1855.43204
1831 26.79657 3097.88099 2328.3608
1832 26.80957 3920.3434 2602.19188
1833 26.82257 3729.84671 2524.84673
1834 26.83557 2882.52856 2127.74206
1835 26.84857 1805.80507 1605.96859
1836 26.86157 976.29288 1125.72911
1837 26.87457 577.50362 757.36206
1838 26.88757 344.08491 507.25872
1839 26.90057 228.63357 351.62321
1840 26.91357 180.14265 259.12317
1841 26.92657 150.93951 203.699
1842 26.93957 120.5252 168.44045
1843 26.95257 104.04724 144.07472
1844 26.96557 98.86132 125.99571
1845 26.97857 81.1234 111.94211
1846 26.99157 68.45409 100.70957
1847 27.00457 62.58352 91.56904
1848 27.01757 50.8983 84.02972
1849 27.03057 54.62662 77.74015
1850 27.04357 54.42491 72.44038
1851 27.05657 54.5753 67.93432
1852 27.06957 48.39462 64.07182
1853 27.08257 47.74372 60.73643
1854 27.09557 44.47449 57.83674
1855 27.10857 44.02065 55.30062
1856 27.12157 48.37695 53.07064
1857 27.13457 45.91068 51.10318
1858 27.14757 36.10841 49.34999
1859 27.16057 34.38668 47.78527
1860 27.17357 47.53567 46.38301
1861 27.18657 45.10881 45.12153
1862 27.19957 45.61638 43.98266
1863 27.21257 44.03291 42.95107
1864 27.22557 38.60308 42.01377
1865 27.23857 43.00985 41.15969
1866 27.25157 39.54659 40.37933
1867 27.26457 36.45508 39.66455
1868 27.27757 39.42536 39.00832
1869 27.29057 36.81427 38.40458
1870 27.30357 35.18662 37.84834
1871 27.31657 36.32858 37.3342
1872 27.32957 37.78929 36.8582
1873 27.34257 42.72396 36.41696
1874 27.35557 40.58476 36.00732
1875 27.36857 38.78342 35.62647
1876 27.38157 35.41744 35.27193
1877 27.39457 32.61445 34.94148
1878 27.40757 34.63138 34.63317
1879 27.42057 40.8301 34.34523
1880 27.43357 46.8487 34.07609
1881 27.44657 49.92358 33.82434
1882 27.45957 42.969 33.58871
1883 27.47257 39.93568 33.36807
1884 27.48557 43.4704 33.16139
1885 27.49857 37.38762 32.96774
1886 27.51157 37.18591 32.78629
1887 27.52457 38.56781 32.6163
1888 27.53757 35.27683 32.45708
1889 27.55057 37.33359 32.30801
1890 27.56357 42.28405 32.16856
1891 27.57657 45.50666 32.03821
1892 27.58957 41.63111 31.91653
1893 27.60257 34.22725 31.80311
1894 27.61557 35.00025 31.69758
1895 27.62857 36.03613 31.59964
1896 27.64157 38.4222 31.50899
1897 27.65457 32.74961 31.42538
1898 27.66757 35.82283 31.3486
1899 27.68057 35.33528 31.27846
1900 27.69357 37.94587 31.2148
1901 27.70657 41.96651 31.15748
1902 27.71957 35.71978 31.10641
1903 27.73257 36.42674 31.06156
1904 27.74557 50.88008 31.02297
1905 27.75857 34.89237 30.9906
1906 27.77157 33.31449 30.96399
1907 27.78457 27.52849 30.94349
1908 27.79757 32.76584 30.92917
1909 27.81057 29.932 30.9211
1910 27.82357 29.69986 30.9194
1911 27.83657 40.37124 30.92422
1912 27.84957 28.88511 30.93574
1913 27.86257 50.6291 30.95415
1914 27.87557 38.09349 30.97973
1915 27.88857 42.95667 31.01275
1916 27.90157 38.00628 31.05357
1917 27.91457 33.05582 31.10258
1918 27.92757 30.06331 31.16022
1919 27.94057 35.81458 31.22701
1920 27.95357 30.24538 31.30353
1921 27.96657 24.30483 31.39046
1922 27.97957 37.1506 31.48856
1923 27.99257 43.57668 31.59871
1924 28.00557 27.4458 31.7219
1925 28.01857 35.09444 31.85927
1926 28.03157 34.20124 32.01214
1927 28.04457 38.44822 32.18203
1928 28.05757 39.87996 32.37071
1929 28.07057 35.65146 32.58025
1930 28.08357 46.1783 32.81304
1931 28.09657 43.75067 33.07194
1932 28.10957 37.96019 33.36035
1933 28.12257 40.32069 33.68235
1934 28.13557 45.92143 34.04289
1935 28.14857 43.75924 34.44814
1936 28.16157 38.19815 34.90862
1937 28.17457 44.90471 35.43998
1938 28.18757 43.09769 36.07335
1939 28.20057 48.93583 36.76199
1940 28.21357 39.58988 37.57414
1941 28.22657 36.75104 38.56157
1942 28.23957 42.18635 39.81861
1943 28.25257 46.92413 41.51261
1944 28.26557 43.66801 43.91484
1945 28.27857 34.89052 47.40359
1946 28.29157 44.61937 52.39564
1947 28.30457 45.16233 59.16602
1948 28.31757 51.85634 67.54841
1949 28.33057 56.67172 76.57745
1950 28.34357 62.95304 84.30271
1951 28.35657 70.56089 88.30242
1952 28.36957 71.07581 87.41833
1953 28.38257 74.42211 83.27243
1954 28.39557 85.08321 78.78881
1955 28.40857 86.32969 76.00515
1956 28.42157 85.20443 75.81839
1957 28.43457 106.12853 78.51808
1958 28.44757 127.56794 84.29423
1959 28.46057 149.02164 93.7486
1960 28.47357 171.1217 108.5326
1961 28.48657 198.88542 132.1609
1962 28.49957 252.42865 170.86006
1963 28.51257 309.02986 233.86052
1964 28.52557 363.86843 331.99332
1965 28.53857 446.28103 473.49438
1966 28.55157 543.75211 656.58815
1967 28.56457 630.91305 859.76128
1968 28.57757 692.28187 1034.07167
1969 28.59057 748.52473 1110.89173
1970 28.60357 736.54353 1046.63644
1971 28.61657 620.92179 873.07741
1972 28.62957 536.4946 665.60056
1973 28.64257 461.98602 479.40394
1974 28.65557 373.07101 336.7196
1975 28.66857 314.03845 238.99392
1976 28.68157 246.05637 177.75868
1977 28.69457 209.1951 142.07625
1978 28.70757 186.01413 122.99471
1979 28.72057 172.39549 115.18598
1980 28.73357 156.08889 116.65554
1981 28.74657 155.6794 127.53357
1982 28.75957 184.22475 148.47313
1983 28.77257 208.35728 178.76709
1984 28.78557 247.11234 214.26537
1985 28.79857 291.59783 245.73023
1986 28.81157 305.69804 259.90613
1987 28.82457 298.23437 247.40182
1988 28.83757 260.3923 212.89762
1989 28.85057 192.00589 170.67781
1990 28.86357 147.06587 131.99801
1991 28.87657 115.07176 101.67271
1992 28.88957 83.79852 80.25986
1993 28.90257 72.30529 66.20473
1994 28.91557 58.3495 57.30873
1995 28.92857 62.57059 51.6284
1996 28.94157 57.92517 47.7991
1997 28.95457 48.92688 45.02364
1998 28.96757 56.00037 42.87867
1999 28.98057 36.27879 41.14626
2000 28.99357 46.17355 39.70874
2001 29.00657 41.06765 38.49533
2002 29.01957 37.31001 37.45848
2003 29.03257 43.37298 36.56384
2004 29.04557 32.86989 35.78552
2005 29.05857 33.61915 35.10355
2006 29.07157 46.21178 34.50231
2007 29.08457 47.3297 33.96938
2008 29.09757 40.05549 33.49479
2009 29.11057 29.92424 33.07047
2010 29.12357 29.33052 32.68982
2011 29.13657 33.88795 32.34739
2012 29.14957 31.90777 32.03866
2013 29.16257 29.85495 31.75987
2014 29.17557 26.2378 31.50786
2015 29.18857 35.14863 31.28004
2016 29.20157 43.90176 31.07422
2017 29.21457 29.05059 30.88868
2018 29.22757 29.00021 30.72219
2019 29.24057 36.81476 30.5741
2020 29.25357 35.06646 30.4444
2021 29.26657 41.69917 30.33367
2022 29.27957 30.63543 30.24273
2023 29.29257 38.43464 30.17181
2024 29.30557 34.36407 30.11935
2025 29.31857 33.07812 30.08055
2026 29.33157 40.25838 30.04656
2027 29.34457 38.30824 30.00713
2028 29.35757 40.66259 29.95871
2029 29.37057 23.44985 29.90697
2030 29.38357 33.14665 29.86081
2031 29.39657 34.14256 29.81838
2032 29.40957 31.45692 29.77858
2033 29.42257 37.70312 29.8108
2034 29.43557 30.72082 29.87007
2035 29.44857 31.4543 29.95886
2036 29.46157 32.80835 30.08375
2037 29.47457 33.00024 30.25939
2038 29.48757 36.94167 30.5261
2039 29.50057 26.32471 30.84159
2040 29.51357 25.30553 31.3068
2041 29.52657 37.3783 32.02914
2042 29.53957 36.50854 33.18251
2043 29.55257 37.21639 35.00697
2044 29.56557 41.64425 37.76356
2045 29.57857 45.86901 41.62323
2046 29.59157 51.25326 46.4853
2047 29.60457 60.68834 51.7465
2048 29.61757 60.55551 56.12886
2049 29.63057 67.8284 57.93008
2050 29.64357 61.96312 56.18589
2051 29.65657 61.61513 51.78824
2052 29.66957 49.71521 46.5916
2053 29.68257 45.19738 41.93011
2054 29.69557 41.33484 38.34866
2055 29.70857 40.47861 35.89624
2056 29.72157 38.34229 34.37597
2057 29.73457 28.80321 33.51702
2058 29.74757 34.02744 33.07976
2059 29.76057 41.58022 32.8967
2060 29.77357 34.59019 32.8688
2061 29.78657 32.92087 32.94435
2062 29.79957 39.30133 33.09861
2063 29.81257 38.75872 33.32059
2064 29.82557 35.46991 33.60629
2065 29.83857 35.00025 33.95563
2066 29.85157 42.14039 34.37135
2067 29.86457 38.49074 34.85865
2068 29.87757 31.434 35.42523
2069 29.89057 38.84528 36.08157
2070 29.90357 43.47102 36.84144
2071 29.91657 44.46112 37.72271
2072 29.92957 46.35297 38.74844
2073 29.94257 46.23648 39.94849
2074 29.95557 48.31084 41.36195
2075 29.96857 48.94674 43.04083
2076 29.98157 46.93497 45.05646
2077 29.99457 49.18471 47.5124
2078 30.00757 49.04536 50.57256
2079 30.02057 60.76339 54.52343
2080 30.03357 63.85826 59.90069
2081 30.04657 76.04165 67.71116
2082 30.05957 91.64893 79.73946
2083 30.07257 100.57152 98.81651
2084 30.08557 137.58734 128.7621
2085 30.09857 183.37291 173.61618
2086 30.11157 206.275 235.87642
2087 30.12457 220.71968 313.70101
2088 30.13757 246.57206 397.33027
2089 30.15057 290.33378 466.37148
2090 30.16357 281.2743 493.95986
2091 30.17657 279.37854 465.2679
2092 30.18957 264.68134 394.4128
2093 30.20257 234.27103 310.31117
2094 30.21557 200.02334 233.96318
2095 30.22857 165.64408 174.26267
2096 30.24157 122.38374 132.31746
2097 30.25457 107.37791 105.25307
2098 30.26757 100.80779 88.89274
2099 30.28057 96.1571 79.42739
2100 30.29357 79.17369 74.12479
2101 30.30657 79.67418 71.33335
2102 30.31957 79.68669 70.17973
2103 30.33257 86.13326 70.25363
2104 30.34557 73.40449 71.395
2105 30.35857 99.90057 73.58467
2106 30.37157 89.41394 76.90513
2107 30.38457 127.00425 81.54909
2108 30.39757 151.87732 87.88055
2109 30.41057 142.59196 96.58607
2110 30.42357 164.87318 108.98561
2111 30.43657 229.51632 127.57015
2112 30.44957 285.10514 156.73064
2113 30.46257 360.04363 203.37505
2114 30.47557 429.07731 276.75382
2115 30.48857 519.78564 386.59991
2116 30.50157 674.05375 538.94053
2117 30.51457 815.44718 729.48998
2118 30.52757 914.45494 935.18472
2119 30.54057 1191.6723 1107.25832
2120 30.55357 1139.47836 1180.55053
2121 30.56657 1131.25502 1116.49019
2122 30.57957 959.13877 945.57979
2123 30.59257 780.92218 737.45797
2124 30.60557 673.76559 545.14762
2125 30.61857 527.31702 392.39129
2126 30.63157 430.89295 283.29852
2127 30.64457 379.49636 211.60316
2128 30.65757 254.15149 167.38843
2129 30.67057 234.69006 141.27935
2130 30.68357 191.98422 126.43593
2131 30.69657 187.73224 118.83751
2132 30.70957 184.57922 116.79712
2133 30.72257 180.61886 120.49054
2134 30.73557 179.1656 131.77231
2135 30.74857 186.43339 154.10384
2136 30.76157 213.29344 192.13767
2137 30.77457 276.22463 250.44956
2138 30.78757 337.7647 331.13735
2139 30.80057 390.8812 430.27431
2140 30.81357 496.70091 533.48655
2141 30.82657 560.7861 613.1301
2142 30.83957 543.26159 635.94202
2143 30.85257 492.94813 588.23024
2144 30.86557 469.42828 491.99814
2145 30.87857 388.97978 382.87797
2146 30.89157 276.86279 285.07899
2147 30.90457 196.61995 208.42192
2148 30.91757 142.16392 153.7433
2149 30.93057 109.14329 117.36625
2150 30.94357 85.43164 94.13857
2151 30.95657 79.33457 79.36524
2152 30.96957 74.74388 69.63209
2153 30.98257 51.29103 62.81545
2154 30.99557 52.74542 57.72255
2155 31.00857 56.23639 53.72651
2156 31.02157 49.06098 50.48837
2157 31.03457 40.53273 47.81105
2158 31.04757 36.40267 45.56759
2159 31.06057 36.58794 43.66901
2160 31.07357 35.26697 42.04966
2161 31.08657 34.00025 40.66027
2162 31.09957 35.67405 39.4617
2163 31.11257 37.54829 38.42399
2164 31.12557 34.23354 37.52375
2165 31.13857 27.30289 36.74261
2166 31.15157 28.14638 36.0662
2167 31.16457 36.56952 35.48339
2168 31.17757 41.9969 34.98577
2169 31.19057 36.16292 34.5673
2170 31.20357 29.95715 34.22414
2171 31.21657 33.343 33.95455
2172 31.22957 33.70706 33.75898
2173 31.24257 26.06425 33.6403
2174 31.25557 24.38824 33.60422
2175 31.26857 28.71353 33.66016
2176 31.28157 28.67611 33.82282
2177 31.29457 32.63648 34.11521
2178 31.30757 31.80706 34.57595
2179 31.32057 32.8387 35.2744
2180 31.33357 36.68984 36.34038
2181 31.34657 25.41438 38.01398
2182 31.35957 27.11146 40.71125
2183 31.37257 40.44729 45.07807
2184 31.38557 44.32101 51.9727
2185 31.39857 47.61672 62.30199
2186 31.41157 65.9556 76.65925
2187 31.42457 89.01525 94.75747
2188 31.43757 99.20012 114.68057
2189 31.45057 109.82906 132.18735
2190 31.46357 129.00093 141.1973
2191 31.47657 130.89169 137.30374
2192 31.48957 128.4554 122.19638
2193 31.50257 100.49356 102.14948
2194 31.51557 74.5108 82.69058
2195 31.52857 56.76576 66.63378
2196 31.54157 61.3693 54.77706
2197 31.55457 44.15786 46.80441
2198 31.56757 40.59889 41.92793
2199 31.58057 40.52658 39.32254
2200 31.59357 45.37249 38.34611
2201 31.60657 41.07749 38.56212
2202 31.61957 54.87311 39.63476
2203 31.63257 49.90711 41.17169
2204 31.64557 58.67189 42.58436
2205 31.65857 78.50596 43.10968
2206 31.67157 62.24321 42.20133
2207 31.68457 62.43994 40.03603
2208 31.69757 49.38466 37.33476
2209 31.71057 43.54287 34.73901
2210 31.72357 38.34768 32.57446
2211 31.73657 30.92856 30.92917
2212 31.74957 29.87673 29.75771
2213 31.76257 28.98498 28.95554
2214 31.77557 46.16204 28.41031
2215 31.78857 26.9362 28.03019
2216 31.80157 25.11061 27.75272
2217 31.81457 30.01239 27.54013
2218 31.82757 30.98219 27.37141
2219 31.84057 23.06156 27.23754
2220 31.85357 33.80676 27.14187
2221 31.86657 30.11024 27.06047
2222 31.87957 21.33693 26.98878
2223 31.89257 19.09481 26.93344
2224 31.90557 27.48495 26.89303
2225 31.91857 34.5301 26.86656
2226 31.93157 34.07733 26.85343
2227 31.94457 23.04411 26.85335
2228 31.95757 30.12803 26.86637
2229 31.97057 29.20965 26.89284
2230 31.98357 28.11709 26.93352
2231 31.99657 25.38058 26.98965
2232 32.00957 31.90651 27.06324
2233 32.02257 27.87998 27.15762
2234 32.03557 26.15673 27.27868
2235 32.04857 23.49955 27.43717
2236 32.06157 28.76558 27.65246
2237 32.07457 25.11792 27.95736
2238 32.08757 31.23438 28.40174
2239 32.10057 43.32075 29.05074
2240 32.11357 42.86445 29.97261
2241 32.12657 35.80786 31.21248
2242 32.13957 24.06643 32.75223
2243 32.15257 33.06775 34.45675
2244 32.16557 47.42061 36.01928
2245 32.17857 45.12521 36.98411
2246 32.19157 49.52063 36.99107
2247 32.20457 37.70909 36.12136
2248 32.21757 52.43507 34.83774
2249 32.23057 52.66363 33.5772
2250 32.24357 44.20662 32.57841
2251 32.25657 35.92617 31.92175
2252 32.26957 36.32518 31.59584
2253 32.28257 32.75968 31.54571
2254 32.29557 31.29053 31.70683
2255 32.30857 32.00023 32.02551
2256 32.32157 33.87622 32.46673
2257 32.33457 36.23108 33.01356
2258 32.34757 33.36728 33.66328
2259 32.36057 29.80063 34.41963
2260 32.37357 33.09785 35.29379
2261 32.38657 35.4248 36.30218
2262 32.39957 36.6969 37.46648
2263 32.41257 35.22211 38.81451
2264 32.42557 28.08878 40.38168
2265 32.43857 29.894 42.21326
2266 32.45157 42.36267 44.36753
2267 32.46457 50.0323 46.92071
2268 32.47757 46.95191 49.97511
2269 32.49057 42.50417 53.67472
2270 32.50357 47.83503 58.2376
2271 32.51657 53.52408 64.02482
2272 32.52957 48.33642 71.67919
2273 32.54257 47.56513 82.37323
2274 32.55557 61.48515 98.17705
2275 32.56857 75.93038 122.46985
2276 32.58157 93.80267 160.13341
2277 32.59457 130.17458 217.17912
2278 32.60757 191.99506 299.28269
2279 32.62057 300.96245 409.05437
2280 32.63357 453.25742 542.29342
2281 32.64657 644.01397 683.03414
2282 32.65957 843.52186 799.58758
2283 32.67257 933.64943 850.56941
2284 32.68557 880.89442 811.40949
2285 32.69857 699.30555 699.53469
2286 32.71157 486.84882 557.86335
2287 32.72457 333.36352 421.60995
2288 32.73757 189.84237 308.44613
2289 32.75057 123.85279 223.30375
2290 32.76357 97.21132 163.90309
2291 32.77657 72.1665 124.65889
2292 32.78957 64.10242 99.42521
2293 32.80257 45.41855 83.0901
2294 32.81557 38.99333 72.09079
2295 32.82857 42.477 64.23856
2296 32.84157 43.08658 58.31012
2297 32.85457 40.65585 53.63869
2298 32.86757 40.91427 49.84748
2299 32.88057 33.18905 46.71298
2300 32.89357 33.24631 44.08783
2301 32.90657 30.71449 41.86719
2302 32.91957 33.15698 39.97278
2303 32.93257 29.47642 38.34452
2304 32.94557 31.55376 36.93552
2305 32.95857 29.27803 35.70872
2306 32.97157 31.3872 34.63455
2307 32.98457 33.28578 33.68918
2308 32.99757 28.10937 32.85327
2309 33.01057 29.09946 32.11095
2310 33.02357 29.37489 31.44918
2311 33.03657 23.159 30.8571
2312 33.04957 24.79167 30.32564
2313 33.06257 22.05975 29.84721
2314 33.07557 22.95049 29.41537
2315 33.08857 22.47724 29.02466
2316 33.10157 33.52277 28.67043
2317 33.11457 18.21933 28.34869
2318 33.12757 29.00021 28.05603
2319 33.14057 28.99982 27.78949
2320 33.15357 25.03951 27.54652
2321 33.16657 25.98044 27.32491
2322 33.17957 25.02984 27.12273
2323 33.19257 27.88147 26.93831
2324 33.20557 25.14866 26.77021
2325 33.21857 30.64377 26.61718
2326 33.23157 32.86159 26.47812
2327 33.24457 29.31716 26.35211
2328 33.25757 23.53509 26.23861
2329 33.27057 22.09923 26.13822
2330 33.28357 27.3463 26.05211
2331 33.29657 22.71355 25.97204
2332 33.30957 22.00016 25.90286
2333 33.32257 22.00016 25.84508
2334 33.33557 27.10834 25.8
2335 33.34857 23.79296 25.77013
2336 33.36157 23.8317 25.75948
2337 33.37457 27.28664 25.7736
2338 33.38757 32.87042 25.81836
2339 33.40057 19.56807 25.89814
2340 33.41357 24.71071 26.01272
2341 33.42657 19.95735 26.15318
2342 33.43957 29.57641 26.29697
2343 33.45257 32.2384 26.40453
2344 33.46557 24.48102 26.43685
2345 33.47857 26.4522 26.38558
2346 33.49157 30.19648 26.28278
2347 33.50457 32.44458 26.17199
2348 33.51757 30.15119 26.08271
2349 33.53057 29.70256 26.02823
2350 33.54357 27.92292 26.01142
2351 33.55657 37.92045 26.0291
2352 33.56957 31.5661 26.07584
2353 33.58257 24.67482 26.14623
2354 33.59557 32.48619 26.23618
2355 33.60857 32.50028 26.34319
2356 33.62157 28.73434 26.46615
2357 33.63457 28.0002 26.60496
2358 33.64757 27.38709 26.76019
2359 33.66057 22.17463 26.93556
2360 33.67357 23.74638 27.14391
2361 33.68657 25.83347 27.37697
2362 33.69957 25.00018 27.61075
2363 33.71257 27.25432 27.86881
2364 33.72557 31.76831 28.15359
2365 33.73857 28.5632 28.46788
2366 33.75157 26.66912 28.81437
2367 33.76457 29.52408 29.19937
2368 33.77757 31.5421 29.62615
2369 33.79057 28.46384 30.10014
2370 33.80357 21.52953 30.62771
2371 33.81657 26.74756 31.21641
2372 33.82957 34.52595 31.87516
2373 33.84257 32.60709 32.61467
2374 33.85557 33.72704 33.45018
2375 33.86857 34.33295 34.40723
2376 33.88157 34.47733 35.48948
2377 33.89457 38.15084 36.71013
2378 33.90757 35.75584 38.11
2379 33.92057 38.85897 39.72483
2380 33.93357 51.53003 41.60072
2381 33.94657 58.44391 43.79581
2382 33.95957 51.12726 46.37514
2383 33.97257 45.18997 49.44263
2384 33.98557 55.39085 53.13679
2385 33.99857 71.14183 57.66721
2386 34.01157 81.68215 63.37862
2387 34.02457 96.43381 70.87496
2388 34.03757 124.51575 81.23301
2389 34.05057 135.97564 96.31104
2390 34.06357 140.39291 119.08441
2391 34.07657 198.99813 153.815
2392 34.08957 249.64233 205.74419
2393 34.10257 334.81032 279.99799
2394 34.11557 403.70526 379.5651
2395 34.12857 491.7485 502.37334
2396 34.14157 605.36003 637.42424
2397 34.15457 689.48729 760.70843
2398 34.16757 762.57309 836.30393
2399 34.18057 756.26058 833.21878
2400 34.19357 710.11855 751.8998
2401 34.20657 575.86547 625.00306
2402 34.21957 470.87763 489.41202
2403 34.23257 381.0044 368.29564
2404 34.24557 317.05383 271.44722
2405 34.25857 235.83572 200.17728
2406 34.27157 193.29358 151.15776
2407 34.28457 149.60431 119.19813
2408 34.29757 138.3621 99.14349
2409 34.31057 122.89356 86.84608
2410 34.32357 94.47259 79.34619
2411 34.33657 71.26247 74.5867
2412 34.34957 73.69092 70.99864
2413 34.36257 68.98816 67.38428
2414 34.37557 54.02163 63.03117
2415 34.38857 38.71517 58.04677
2416 34.40157 52.84941 52.99998
2417 34.41457 48.49943 48.38379
2418 34.42757 31.17937 44.43981
2419 34.44057 40.92031 41.21783
2420 34.45357 31.01953 38.65562
2421 34.46657 32.97655 36.63711
2422 34.47957 42.77021 35.03431
2423 34.49257 32.35186 33.73472
2424 34.50557 29.12585 32.65284
2425 34.51857 20.46631 31.72957
2426 34.53157 34.07458 30.92613
2427 34.54457 27.57321 30.21727
2428 34.55757 21.4894 29.58592
2429 34.57057 29.17711 29.02001
2430 34.58357 33.59476 28.50967
2431 34.59657 22.44688 28.04765
2432 34.60957 21.87896 27.62779
2433 34.62257 22.86905 27.24493
2434 34.63557 23.85914 26.89472
2435 34.64857 33.33983 26.57345
2436 34.66157 35.00025 26.27793
2437 34.67457 24.22027 26.00544
2438 34.68757 24.4581 25.7537
2439 34.70057 20.14378 25.52067
2440 34.71357 24.59653 25.30415
2441 34.72657 25.21062 25.10296
2442 34.73957 26.55949 24.91641
2443 34.75257 22.38176 24.7401
2444 34.76557 21.75998 24.56868
2445 34.77857 21.25025 24.38836
2446 34.79157 17.30018 24.20778
2447 34.80457 18.19035 24.07362
2448 34.81757 27.6421 23.94759
2449 34.83057 26.73873 23.82907
2450 34.84357 31.30318 23.71751
2451 34.85657 27.78648 23.61238
2452 34.86957 27.72219 23.51323
2453 34.88257 24.30609 23.41966
2454 34.89557 20.01814 23.33127
2455 34.90857 21.60317 23.24774
2456 34.92157 20.4368 23.16875
2457 34.93457 28.46405 23.09402
2458 34.94757 30.27417 23.02329
2459 34.96057 20.05593 22.95633
2460 34.97357 22.2143 22.89293
2461 34.98657 23.45259 22.8329
2462 34.99957 25.06148 22.77605
2463 35.01257 23.43103 22.72223
2464 35.02557 27.29615 22.6713
2465 35.03857 25.28181 22.62313
2466 35.05157 21.16574 22.57758
2467 35.06457 20.87422 22.53456
2468 35.07757 25.25899 22.49389
2469 35.09057 26.90698 22.45359
2470 35.10357 23.00017 22.41045
2471 35.11657 22.50834 22.34922
2472 35.12957 19.59061 22.31786
2473 35.14257 22.19208 22.2886
2474 35.15557 23.3794 22.26143
2475 35.16857 17.0958 22.23641
2476 35.18157 19.09587 22.21328
2477 35.19457 23.4325 22.19216
2478 35.20757 24.00017 22.17305
2479 35.22057 20.28763 22.15597
2480 35.23357 16.61047 22.14094
2481 35.24657 23.31956 22.128
2482 35.25957 26.93814 22.1172
2483 35.27257 21.62731 22.1086
2484 35.28557 20.27429 22.10229
2485 35.29857 16.88205 22.09838
2486 35.31157 18.83279 22.09698
2487 35.32457 30.00022 22.09825
2488 35.33757 27.73733 22.10237
2489 35.35057 22.68681 22.10956
2490 35.36357 22.60704 22.1201
2491 35.37657 19.89084 22.13428
2492 35.38957 12.26894 22.15251
2493 35.40257 17.72644 22.17525
2494 35.41557 18.5828 22.20306
2495 35.42857 23.76176 22.23666
2496 35.44157 28.19572 22.2769
2497 35.45457 32.19185 22.32491
2498 35.46757 23.89664 22.38214
2499 35.48057 26.35759 22.4506
2500 35.49357 24.81733 22.5333
2501 35.50657 26.63959 22.63505
2502 35.51957 20.44678 22.76398
2503 35.53257 19.04041 22.93388
2504 35.54557 23.17849 23.16731
2505 35.55857 18.69129 23.49848
2506 35.57157 17.00012 23.97388
2507 35.58457 17.80767 24.6479
2508 35.59757 22.87549 25.57097
2509 35.61057 21.31159 26.76978
2510 35.62357 16.31466 28.2197
2511 35.63657 19.94945 29.80873
2512 35.64957 28.57513 31.29848
2513 35.66257 24.30058 32.33245
2514 35.67557 27.28315 32.59255
2515 35.68857 17.66338 32.05859
2516 35.70157 28.41058 31.04566
2517 35.71457 16.35453 29.94962
2518 35.72757 26.00019 29.05535
2519 35.74057 26.03141 28.53031
2520 35.75357 27.97742 28.48227
2521 35.76657 24.01711 29.01824
2522 35.77957 27.94361 30.29507
2523 35.79257 21.1686 32.55377
2524 35.80557 32.59249 36.11921
2525 35.81857 45.42971 41.3452
2526 35.83157 39.37695 48.50942
2527 35.84457 50.23568 57.61554
2528 35.85757 74.15956 68.14202
2529 35.87057 94.3296 78.80912
2530 35.88357 115.94452 87.33556
2531 35.89657 100.0684 90.96182
2532 35.90957 88.24693 88.15392
2533 35.92257 94.89176 80.02624
2534 35.93557 74.32876 69.36277
2535 35.94857 63.28785 58.63693
2536 35.96157 42.51837 49.26581
2537 35.97457 33.97749 41.80355
2538 35.98757 36.30911 36.27152
2539 36.00057 28.00995 32.3939
2540 36.01357 28.42235 29.78184
2541 36.02657 33.78504 28.0533
2542 36.03957 33.42514 26.90123
2543 36.05257 34.55552 26.11152
2544 36.06557 26.54829 25.54775
2545 36.07857 18.69753 25.1265
2546 36.09157 21.48576 24.80397
2547 36.10457 26.68862 24.55383
2548 36.11757 28.0002 24.36014
2549 36.13057 31.5895 24.21262
2550 36.14357 30.16846 24.1042
2551 36.15657 28.30218 24.02993
2552 36.16957 25.24774 23.98634
2553 36.18257 19.25277 23.97115
2554 36.19557 19.67326 23.98305
2555 36.20857 24.95037 24.02164
2556 36.22157 25.05483 24.08739
2557 36.23457 22.08456 24.1817
2558 36.24757 22.88603 24.307
2559 36.26057 23.38146 24.46705
2560 36.27357 23.00017 24.6675
2561 36.28657 28.98896 24.91698
2562 36.29957 28.87749 25.22945
2563 36.31257 24.26304 25.62858
2564 36.32557 25.2767 26.15546
2565 36.33857 24.2041 26.88034
2566 36.35157 26.39459 27.91727
2567 36.36457 28.38205 29.43657
2568 36.37757 25.41177 31.66535
2569 36.39057 32.83267 34.86351
2570 36.40357 41.50994 39.26515
2571 36.41657 48.49677 44.98399
2572 36.42957 49.12264 51.88472
2573 36.44257 60.75654 59.41406
2574 36.45557 76.7107 66.41321
2575 36.46857 87.26263 71.13373
2576 36.48157 90.04602 71.92389
2577 36.49457 73.44077 68.50756
2578 36.50757 67.97602 62.26566
2579 36.52057 57.47799 55.08508
2580 36.53357 58.10531 48.33513
2581 36.54657 55.98892 42.70953
2582 36.55957 40.0937 38.42987
2583 36.57257 31.71576 35.43359
2584 36.58557 32.80911 33.51063
2585 36.59857 41.0003 32.40615
2586 36.61157 41.35101 31.88874
2587 36.62457 41.31871 31.7831
2588 36.63757 37.35324 31.97535
2589 36.65057 33.2841 32.40243
2590 36.66357 35.06711 33.03777
2591 36.67657 35.40933 33.88071
2592 36.68957 39.25297 34.94985
2593 36.70257 37.2507 36.28146
2594 36.71557 41.91475 37.93243
2595 36.72857 41.09209 39.98875
2596 36.74157 45.74254 42.58306
2597 36.75457 42.24195 45.92842
2598 36.76757 44.15896 50.37797
2599 36.78057 50.44031 56.51644
2600 36.79357 67.05263 65.27427
2601 36.80657 100.43444 78.02585
2602 36.81957 120.33913 96.60574
2603 36.83257 155.01587 123.16191
2604 36.84557 202.36919 159.74667
2605 36.85857 258.46278 207.54976
2606 36.87157 282.30973 265.78392
2607 36.88457 377.84751 330.25428
2608 36.89757 410.71516 391.7361
2609 36.91057 433.77651 435.66947
2610 36.92357 425.90507 447.07138
2611 36.93657 426.21609 421.00625
2612 36.94957 365.2372 367.33232
2613 36.96257 340.78119 302.34046
2614 36.97557 258.07834 238.93674
2615 36.98857 220.30669 184.16203
2616 37.00157 206.06039 140.63987
2617 37.01457 134.52731 108.24754
2618 37.02757 101.33217 85.34671
2619 37.04057 82.11816 69.71336
2620 37.05357 86.59269 59.19095
2621 37.06657 57.03356 52.04859
2622 37.07957 65.94426 47.02429
2623 37.09257 46.32357 43.33909
2624 37.10557 31.39138 40.51969
2625 37.11857 40.64038 38.29123
2626 37.13157 42.896 36.49166
2627 37.14457 27.898 35.01723
2628 37.15757 35.40601 33.78827
2629 37.17057 34.15213 32.73125
2630 37.18357 38.57099 31.78176
2631 37.19657 25.43677 30.94001
2632 37.20957 33.83768 30.15226
2633 37.22257 27.04062 29.42259
2634 37.23557 34.74508 28.76275
2635 37.24857 34.27111 28.17916
2636 37.26157 18.61639 27.67143
2637 37.27457 26.13704 27.23522
2638 37.28757 19.65192 26.8623
2639 37.30057 20.47487 26.54352
2640 37.31357 29.96513 26.27167
2641 37.32657 33.6104 26.03978
2642 37.33957 19.68722 25.84224
2643 37.35257 30.13467 25.67479
2644 37.36557 23.14551 25.53429
2645 37.37857 28.4198 25.41844
2646 37.39157 32.51124 25.32551
2647 37.40457 35.98261 25.25419
2648 37.41757 32.5862 25.20336
2649 37.43057 30.27446 25.17202
2650 37.44357 31.43191 25.15917
2651 37.45657 27.76464 25.16389
2652 37.46957 28.78426 25.18579
2653 37.48257 23.8253 25.22539
2654 37.49557 20.32396 25.28395
2655 37.50857 31.99304 25.36303
2656 37.52157 29.46763 25.46421
2657 37.53457 26.93951 25.58918
2658 37.54757 31.18284 25.73982
2659 37.56057 26.73412 25.9184
2660 37.57357 27.93374 26.128
2661 37.58657 28.5731 26.37604
2662 37.59957 25.2096 26.67272
2663 37.61257 21.65237 26.99903
2664 37.62557 26.34754 27.37735
2665 37.63857 25.32901 27.81841
2666 37.65157 27.12012 28.33667
2667 37.66457 30.35923 28.95246
2668 37.67757 33.29689 29.69229
2669 37.69057 35.94593 30.58878
2670 37.70357 30.34496 31.67857
2671 37.71657 30.56625 32.99833
2672 37.72957 32.51313 34.57932
2673 37.74257 30.48773 36.44146
2674 37.75557 32.9106 38.58813
2675 37.76857 32.66186 41.0096
2676 37.78157 37.32445 43.72332
2677 37.79457 44.65678 46.88731
2678 37.80757 51.759 50.94972
2679 37.82057 67.28065 56.72093
2680 37.83357 77.59967 65.3535
2681 37.84657 97.06266 78.29141
2682 37.85957 119.98358 97.14528
2683 37.87257 131.04958 123.40136
2684 37.88557 153.76031 157.93332
2685 37.89857 178.00129 200.33157
2686 37.91157 197.72504 248.02452
2687 37.92457 232.30429 295.1864
2688 37.93757 233.03437 332.15604
2689 37.95057 224.17585 347.76109
2690 37.96357 205.33736 335.99441
2691 37.97657 207.71296 301.209
2692 37.98957 180.99252 254.48715
2693 38.00257 182.79562 206.17389
2694 38.01557 156.59517 162.64327
2695 38.02857 116.34395 126.78378
2696 38.04157 91.66007 99.19129
2697 38.05457 71.9878 79.0963
2698 38.06757 88.20802 65.06315
2699 38.08057 70.70335 55.49168
2700 38.09357 60.14303 48.99102
2701 38.10657 48.32126 44.49294
2702 38.11957 41.60036 41.26681
2703 38.13257 40.76052 38.853
2704 38.14557 41.65847 36.9765
2705 38.15857 30.83 35.47574
2706 38.17157 31.75173 34.25388
2707 38.18457 39.19902 33.24967
2708 38.19757 28.43945 32.42171
2709 38.21057 25.13046 31.74092
2710 38.22357 25.87983 31.18378
2711 38.23657 26.32553 30.73361
2712 38.24957 36.29655 30.37783
2713 38.26257 30.36268 30.10673
2714 38.27557 34.16165 29.91323
2715 38.28857 36.84968 29.79253
2716 38.30157 46.47859 29.74187
2717 38.31457 23.35685 29.76044
2718 38.32757 30.0823 29.84943
2719 38.34057 32.12473 30.01221
2720 38.35357 36.04268 30.25473
2721 38.36657 37.9551 30.5866
2722 38.37957 34.00439 31.02284
2723 38.39257 36.97462 31.58769
2724 38.40557 34.05564 32.32155
2725 38.41857 32.05699 33.29308
2726 38.43157 42.57906 34.61767
2727 38.44457 40.14492 36.48147
2728 38.45757 44.7097 39.16628
2729 38.47057 52.45606 43.058
2730 38.48357 64.98706 48.6266
2731 38.49657 87.89176 56.35544
2732 38.50957 86.39177 66.61266
2733 38.52257 106.52367 79.46913
2734 38.53557 130.17818 94.4629
2735 38.54857 123.40372 110.29254
2736 38.56157 128.03881 124.50948
2737 38.57457 133.26416 133.69406
2738 38.58757 115.46089 134.90992
2739 38.60057 112.83363 127.82104
2740 38.61357 119.58402 115.1374
2741 38.62657 99.05026 100.46667
2742 38.63957 102.83446 86.55509
2743 38.65257 82.79241 74.95165
2744 38.66557 97.36481 66.31694
2745 38.67857 104.5474 60.77274
2746 38.69157 105.00076 58.08628
2747 38.70457 84.63373 57.8278
2748 38.71757 83.94688 59.45448
2749 38.73057 92.60099 62.32136
2750 38.74357 92.10685 65.63617
2751 38.75657 97.42256 68.45985
2752 38.76957 94.37169 69.93648
2753 38.78257 89.22581 69.73798
2754 38.79557 67.48667 68.27061
2755 38.80857 80.91247 66.35646
2756 38.82157 74.73748 64.76961
2757 38.83457 72.54101 64.02019
2758 38.84757 68.27089 64.43332
2759 38.86057 78.5876 66.23611
2760 38.87357 75.13877 69.66597
2761 38.88657 81.51714 75.15774
2762 38.89957 96.04543 83.44911
2763 38.91257 121.99956 95.73209
2764 38.92557 139.92423 113.82932
2765 38.93857 156.94408 140.17661
2766 38.95157 197.93656 177.59546
2767 38.96457 240.9781 228.75628
2768 38.97757 292.42605 295.31854
2769 38.99057 378.72002 376.77964
2770 39.00357 469.49053 468.99217
2771 39.01657 541.00966 562.28652
2772 39.02957 619.49425 640.11642
2773 39.04257 665.99564 681.89121
2774 39.05557 667.97582 673.55793
2775 39.06857 639.04318 618.71673
2776 39.08157 556.17803 535.93966
2777 39.09457 456.61869 445.7072
2778 39.10757 388.16947 362.30494
2779 39.12057 322.41049 293.45712
2780 39.13357 249.81368 242.44385
2781 39.14657 213.43845 209.96779
2782 39.15957 183.25316 195.50866
2783 39.17257 176.13392 198.24798
2784 39.18557 198.97808 217.50031
2785 39.19857 237.95242 252.59145
2786 39.21157 289.69427 302.24591
2787 39.22457 346.60779 363.6031
2788 39.23757 447.69805 430.82522
2789 39.25057 580.91298 493.69052
2790 39.26357 623.51388 538.09438
2791 39.27657 619.30368 551.63312
2792 39.28957 626.22651 532.2714
2793 39.30257 537.52715 490.31303
2794 39.31557 434.82226 439.45629
2795 39.32857 388.45887 388.82558
2796 39.34157 299.4937 341.31526
2797 39.35457 215.2582 296.0742
2798 39.36757 187.77618 252.23108
2799 39.38057 178.86535 210.86782
2800 39.39357 162.90468 173.97556
2801 39.40657 129.17347 142.81321
2802 39.41957 117.34019 117.56868
2803 39.43257 109.61712 97.76249
2804 39.44557 99.49466 82.623
2805 39.45857 80.35626 71.2588
2806 39.47157 80.32136 62.80794
2807 39.48457 69.94641 56.50697
2808 39.49757 59.14852 51.73986
2809 39.51057 57.51323 48.03011
2810 39.52357 43.28294 45.05871
2811 39.53657 51.40864 42.60971
2812 39.54957 45.80758 40.54266
2813 39.56257 35.40915 38.76688
2814 39.57557 29.91161 37.22187
2815 39.58857 29.0789 35.86522
2816 39.60157 30.13776 34.66555
2817 39.61457 31.58823 33.59861
2818 39.62757 25.29384 32.64505
2819 39.64057 30.9612 31.78912
2820 39.65357 29.76732 31.01788
2821 39.66657 22.15374 30.32044
2822 39.67957 30.0095 29.68771
2823 39.69257 30.99958 29.11202
2824 39.70557 30.01078 28.58688
2825 39.71857 23.14351 28.10678
2826 39.73157 23.00017 27.66697
2827 39.74457 26.83896 27.26341
2828 39.75757 27.0002 26.8926
2829 39.77057 26.99235 26.55154
2830 39.78357 23.28154 26.23769
2831 39.79657 23.00017 25.94879
2832 39.80957 23.00017 25.68295
2833 39.82257 23.00017 25.43858
2834 39.83557 22.11016 25.21434
2835 39.84857 22.88025 25.00919
2836 39.86157 27.35103 24.82231
2837 39.87457 28.0002 24.65423
2838 39.88757 27.14986 24.51589
2839 39.90057 30.36191 24.38704
2840 39.91357 24.35612 24.27262
2841 39.92657 22.17957 24.1795
2842 39.93957 22.00016 24.11185
2843 39.95257 29.20706 24.07656
2844 39.96557 34.16363 24.08415
2845 39.97857 30.31463 24.14926
2846 39.99157 25.91612 24.29019
2847 40.00457 25.76129 24.52674
2848 40.01757 33.51211 24.87616
2849 40.03057 27.10494 25.34725
2850 40.04357 28.38834 25.93281
2851 40.05657 29.27877 26.60006
2852 40.06957 29.00021 27.27905
2853 40.08257 24.79051 27.85802
2854 40.09557 38.21759 28.21249
2855 40.10857 34.77353 28.28368
2856 40.12157 25.29712 28.14357
2857 40.13457 27.63386 27.96359
2858 40.14757 33.91246 27.93048
2859 40.16057 30.22113 28.19972
2860 40.17357 36.48336 28.89103
2861 40.18657 37.02194 30.09069
2862 40.19957 30.32596 31.84219
2863 40.21257 33.42239 34.1221
2864 40.22557 43.51832 36.81161
2865 40.23857 46.83508 39.69704
2866 40.25157 47.14577 42.52216
2867 40.26457 42.3723 45.02124
2868 40.27757 45.18784 46.84374
2869 40.29057 47.72945 47.50772
2870 40.30357 43.93479 46.62448
2871 40.31657 43.52317 44.25943
2872 40.32957 45.53914 40.95431
2873 40.34257 42.47312 37.37754
2874 40.35557 34.0554 34.00822
2875 40.36857 30.48341 31.08658
2876 40.38157 32.89334 28.72438
2877 40.39457 39.17053 26.9133
2878 40.40757 35.83825 25.58508
2879 40.42057 26.88725 24.64516
2880 40.43357 30.60191 23.99673
2881 40.44657 31.88173 23.55619
2882 40.45957 31.89673 23.25956
2883 40.47257 28.32667 23.0626
2884 40.48557 20.54574 22.93734
2885 40.49857 24.07997 22.86783
2886 40.51157 24.74143 22.84659
2887 40.52457 32.09286 22.87259
2888 40.53757 30.45727 22.95092
2889 40.55057 24.34456 23.09423
2890 40.56357 26.00358 23.32576
2891 40.57657 25.40378 23.68368
2892 40.58957 22.2026 24.22647
2893 40.60257 25.17186 25.03304
2894 40.61557 22.47419 26.20122
2895 40.62857 26.00019 27.83567
2896 40.64157 26.27516 30.02722
2897 40.65457 28.3255 32.81916
2898 40.66757 32.25538 36.1652
2899 40.68057 32.26454 39.88032
2900 40.69357 30.47085 43.57458
2901 40.70657 31.54943 46.61728
2902 40.71957 29.35376 48.26567
2903 40.73257 29.26148 48.04884
2904 40.74557 36.23937 46.12131
2905 40.75857 28.25725 43.1376
2906 40.77157 26.58261 39.79921
2907 40.78457 32.17523 36.56917
2908 40.79757 24.56012 33.65951
2909 40.81057 32.41592 31.13465
2910 40.82357 29.12766 29.00828
2911 40.83657 28.61466 27.27829
2912 40.84957 19.58036 25.92422
2913 40.86257 23.57565 24.8907
2914 40.87557 20.385 24.11643
2915 40.88857 24.25907 23.54377
2916 40.90157 27.61127 23.12421
2917 40.91457 34.40203 22.81926
2918 40.92757 26.16985 22.59939
2919 40.94057 28.81365 22.4424
2920 40.95357 24.92673 22.33209
2921 40.96657 22.8125 22.25693
2922 40.97957 16.28731 22.20899
2923 40.99257 32.89556 22.18304
2924 41.00557 18.04439 22.17566
2925 41.01857 18.00013 22.18462
2926 41.03157 21.90904 22.20853
2927 41.04457 26.83671 22.24653
2928 41.05757 20.29842 22.29819
2929 41.07057 24.73755 22.36333
2930 41.08357 19.37479 22.44209
2931 41.09657 31.0596 22.53482
2932 41.10957 29.24702 22.64211
2933 41.12257 20.82982 22.76481
2934 41.13557 25.38758 22.90398
2935 41.14857 27.77617 23.061
2936 41.16157 27.12213 23.23755
2937 41.17457 21.79123 23.43566
2938 41.18757 22.71664 23.65786
2939 41.20057 23.8485 23.90719
2940 41.21357 28.19225 24.18752
2941 41.22657 27.34321 24.5038
2942 41.23957 31.9117 24.86283
2943 41.25257 39.4696 25.27398
2944 41.26557 22.62894 25.74921
2945 41.27857 27.4662 26.30758
2946 41.29157 29.22129 26.97485
2947 41.30457 28.2312 27.7854
2948 41.31757 30.27749 28.78219
2949 41.33057 36.24448 30.01443
2950 41.34357 38.00027 31.5324
2951 41.35657 40.90547 33.37983
2952 41.36957 43.43859 35.58502
2953 41.38257 48.25569 38.15157
2954 41.39557 50.69967 41.04947
2955 41.40857 55.82615 44.21455
2956 41.42157 55.28249 47.58917
2957 41.43457 56.00909 51.25545
2958 41.44757 61.61798 55.62538
2959 41.46057 69.8481 61.48105
2960 41.47357 76.19964 69.91488
2961 41.48657 89.9688 82.08299
2962 41.49957 116.84046 99.02573
2963 41.51257 155.23425 121.44174
2964 41.52557 176.20238 149.3894
2965 41.53857 200.25019 181.92555
2966 41.55157 223.1262 216.60873
2967 41.56457 254.1 248.958
2968 41.57757 271.32047 272.50472
2969 41.59057 267.24902 280.76231
2970 41.60357 240.13103 271.07804
2971 41.61657 231.73974 246.71222
2972 41.62957 220.60558 214.44001
2973 41.64257 198.97959 180.67255
2974 41.65557 188.98323 149.69755
2975 41.66857 174.59925 123.79795
2976 41.68157 156.9717 103.82878
2977 41.69457 128.92053 89.69204
2978 41.70757 100.92839 80.69078
2979 41.72057 88.00064 75.81028
2980 41.73357 83.58543 73.91967
2981 41.74657 81.45341 73.89986
2982 41.75957 75.03667 74.78758
2983 41.77257 61.64754 76.00218
2984 41.78557 63.5986 77.44385
2985 41.79857 63.78435 79.22186
2986 41.81157 65.00047 81.20843
2987 41.82457 65.7447 82.76927
2988 41.83757 72.07128 82.84757
2989 41.85057 80.6483 80.49193
2990 41.86357 78.28873 75.552
2991 41.87657 72.32144 68.81187
2992 41.88957 57.65526 61.41237
2993 41.90257 41.43595 54.27696
2994 41.91557 45.37133 47.95006
2995 41.92857 35.83025 42.67268
2996 41.94157 35.54354 38.482
2997 41.95457 39.27357 35.28765
2998 41.96757 34.62782 32.93331
2999 41.98057 37.44912 31.23917
3000 41.99357 24.97189 30.03205
3001 42.00657 27.06815 29.17773
3002 42.01957 24.44637 28.59402
3003 42.03257 25.36064 28.19571
3004 42.04557 23.60997 27.93856
3005 42.05857 24.64672 27.7968
3006 42.07157 20.65108 27.75734
3007 42.08457 27.30611 27.81597
3008 42.09757 24.32739 27.97569
3009 42.11057 26.61496 28.24703
3010 42.12357 29.56889 28.65079
3011 42.13657 27.80337 29.22365
3012 42.14957 31.76077 30.02754
3013 42.16257 24.36855 31.16315
3014 42.17557 33.85497 32.78628
3015 42.18857 25.5074 35.12317
3016 42.20157 38.90456 38.47716
3017 42.21457 27.37205 43.21636
3018 42.22757 32.32251 49.73221
3019 42.24057 36.72756 58.36362
3020 42.25357 33.07126 69.28877
3021 42.26657 57.28472 82.38853
3022 42.27957 94.01731 97.07458
3023 42.29257 134.4474 112.06887
3024 42.30557 164.42329 125.21136
3025 42.31857 248.5799 133.66079
3026 42.33157 276.5854 134.98861
3027 42.34457 268.22508 128.7429
3028 42.35757 194.63926 116.81566
3029 42.37057 126.07994 102.10915
3030 42.38357 90.85497 87.09683
3031 42.39657 58.12739 73.34291
3032 42.40957 45.80531 61.63583
3033 42.42257 37.67687 52.22649
3034 42.43557 38.8113 45.01715
3035 42.44857 39.00028 39.7073
3036 42.46157 31.0291 35.91115
3037 42.47457 36.13062 33.24483
3038 42.48757 37.00027 31.37924
3039 42.50057 31.00868 30.06117
3040 42.51357 29.15419 29.11156
3041 42.52657 34.85299 28.41196
3042 42.53957 27.7383 27.88764
3043 42.55257 34.163 27.49283
3044 42.56557 24.71113 27.19974
3045 42.57857 22.79661 26.99156
3046 42.59157 32.4386 26.85846
3047 42.60457 25.6808 26.79558
3048 42.61757 27.6004 26.80232
3049 42.63057 28.24342 26.88217
3050 42.64357 31.73458 27.04278
3051 42.65657 22.68279 27.29738
3052 42.66957 29.17878 27.66153
3053 42.68257 38.02015 28.14114
3054 42.69557 31.5137 28.7532
3055 42.70857 33.5786 29.50242
3056 42.72157 29.81379 30.38126
3057 42.73457 28.35514 31.36332
3058 42.74757 27.6651 32.39565
3059 42.76057 25.68492 33.39708
3060 42.77357 27.59108 34.28025
3061 42.78657 25.81116 35.00459
3062 42.79957 24.00017 35.61958
3063 42.81257 32.65189 36.25069
3064 42.82557 30.7035 37.04616
3065 42.83857 30.18723 38.1529
3066 42.85157 34.76494 39.72924
3067 42.86457 35.42194 41.97782
3068 42.87757 37.84227 45.18714
3069 42.89057 41.11727 49.77532
3070 42.90357 40.35458 56.32547
3071 42.91657 36.84565 65.59412
3072 42.92957 44.51764 78.46844
3073 42.94257 60.76306 95.85199
3074 42.95557 81.73331 118.47201
3075 42.96857 93.00586 146.61894
3076 42.98157 111.04116 179.82812
3077 42.99457 177.49434 216.47786
3078 43.00757 266.86346 253.27217
3079 43.02057 373.97367 284.84225
3080 43.03357 501.79739 304.39484
3081 43.04657 532.9883 306.42444
3082 43.05957 453.51795 290.29431
3083 43.07257 376.71015 260.73449
3084 43.08557 284.91312 224.65151
3085 43.09857 189.8317 187.8922
3086 43.11157 123.67436 154.19156
3087 43.12457 90.45596 125.48238
3088 43.13757 86.57808 102.44382
3089 43.15057 64.51972 84.93868
3090 43.16357 59.20102 72.34886
3091 43.17657 44.74103 63.83784
3092 43.18957 52.66068 58.59939
3093 43.20257 58.80393 55.87893
3094 43.21557 62.48376 55.07703
3095 43.22857 48.90157 55.70736
3096 43.24157 49.54791 57.32917
3097 43.25457 48.80609 59.45625
3098 43.26757 54.6471 61.47682
3099 43.28057 48.65366 62.66956
3100 43.29357 44.25778 62.42207
3101 43.30657 50.27762 60.56657
3102 43.31957 49.38635 57.4791
3103 43.33257 53.55822 53.80362
3104 43.34557 51.57804 50.12068
3105 43.35857 48.59158 46.81598
3106 43.37157 44.33969 44.0981
3107 43.38457 48.36754 42.0507
3108 43.39757 40.82879 40.6764
3109 43.41057 39.35391 39.93116
3110 43.42357 36.00026 39.75403
3111 43.43657 36.42555 40.09144
3112 43.44957 39.65953 40.91927
3113 43.46257 42.64945 42.26274
3114 43.47557 34.67617 44.21826
3115 43.48857 48.61123 46.98083
3116 43.50157 54.36798 50.87753
3117 43.51457 59.0662 56.40165
3118 43.52757 70.92845 64.23376
3119 43.54057 72.48664 75.22906
3120 43.55357 110.10527 90.34952
3121 43.56657 113.69373 110.51863
3122 43.57957 152.8113 136.39198
3123 43.59257 177.27119 168.10014
3124 43.60557 189.07683 204.87912
3125 43.61857 195.06531 244.62991
3126 43.63157 218.82718 283.38377
3127 43.64457 262.2459 315.05505
3128 43.65757 231.86878 332.54401
3129 43.67057 256.03954 330.91293
3130 43.68357 207.4417 310.68987
3131 43.69657 210.66047 277.48442
3132 43.70957 205.40203 238.40774
3133 43.72257 181.91812 199.15432
3134 43.73557 172.69395 163.24306
3135 43.74857 129.53653 132.4769
3136 43.76157 124.10731 107.46581
3137 43.77457 92.18862 88.01229
3138 43.78757 90.62191 73.4228
3139 43.80057 62.4938 62.77686
3140 43.81357 64.83185 55.13549
3141 43.82657 68.53252 49.6727
3142 43.83957 54.82082 45.73412
3143 43.85257 39.63762 42.84154
3144 43.86557 48.40003 40.66686
3145 43.87857 48.58731 38.99502
3146 43.89157 49.58922 37.68816
3147 43.90457 54.7075 36.66018
3148 43.91757 44.38128 35.86425
3149 43.93057 49.41192 35.26247
3150 43.94357 51.2456 34.83458
3151 43.95657 36.84797 34.57019
3152 43.96957 40.81961 34.46745
3153 43.98257 49.80058 34.53321
3154 43.99557 54.84458 34.78461
3155 44.00857 44.0169 35.25527
3156 44.02157 46.64525 35.99045
3157 44.03457 59.59151 37.04434
3158 44.04757 59.2743 38.52481
3159 44.06057 70.30545 40.57205
3160 44.07357 78.96657 43.37817
3161 44.08657 87.10022 47.19132
3162 44.09957 94.17819 52.30522
3163 44.11257 86.61682 59.03085
3164 44.12557 90.85141 67.65699
3165 44.13857 114.56778 78.40958
3166 44.15157 114.67984 91.39081
3167 44.16457 109.93043 106.44449
3168 44.17757 110.84878 122.93364
3169 44.19057 118.49231 139.4788
3170 44.20357 124.44472 153.78343
3171 44.21657 119.08446 162.90394
3172 44.22957 130.55514 164.38146
3173 44.24257 131.89291 157.75938
3174 44.25557 124.10003 144.95056
3175 44.26857 127.50753 128.99071
3176 44.28157 115.08685 112.60399
3177 44.29457 100.5404 97.62868
3178 44.30757 102.33877 85.08426
3179 44.32057 93.86007 75.38452
3180 44.33357 85.02796 68.50968
3181 44.34657 84.74098 64.13009
3182 44.35957 74.37733 61.69702
3183 44.37257 69.71865 60.50911
3184 44.38557 73.84373 59.78858
3185 44.39857 73.85141 58.83348
3186 44.41157 68.7587 57.2363
3187 44.42457 70.86036 54.99254
3188 44.43757 59.88899 52.41844
3189 44.45057 63.73605 49.86782
3190 44.46357 59.9901 47.58376
3191 44.47657 53.43615 45.71936
3192 44.48957 59.01458 44.34479
3193 44.50257 63.62555 43.47231
3194 44.51557 64.86359 43.07613
3195 44.52857 59.37233 43.10913
3196 44.54157 67.29859 43.51788
3197 44.55457 64.54224 44.25664
3198 44.56757 59.89622 45.29833
3199 44.58057 68.92708 46.63966
3200 44.59357 63.6745 48.30068
3201 44.60657 61.22538 50.32431
3202 44.61957 72.56886 52.78153
3203 44.63257 71.65964 55.78427
3204 44.64557 81.81279 59.50819
3205 44.65857 76.50694 64.22646
3206 44.67157 89.97966 70.35226
3207 44.68457 104.86655 78.48118
3208 44.69757 102.15018 89.51311
3209 44.71057 118.43066 104.53786
3210 44.72357 154.77983 124.89832
3211 44.73657 182.24195 152.05715
3212 44.74957 207.83184 187.39806
3213 44.76257 295.29303 231.9411
3214 44.77557 351.48106 285.97288
3215 44.78857 362.1341 348.58996
3216 44.80157 431.28053 417.01196
3217 44.81457 540.10483 485.85441
3218 44.82757 616.7227 546.94604
3219 44.84057 668.62297 591.18872
3220 44.85357 635.38082 612.8261
3221 44.86657 609.35148 612.6962
3222 44.87957 597.20587 596.39654
3223 44.89257 599.93748 569.26506
3224 44.90557 531.42337 533.43402
3225 44.91857 408.23538 489.03073
3226 44.93157 429.97127 437.39145
3227 44.94457 381.45746 382.55961
3228 44.95757 344.71269 329.83324
3229 44.97057 300.31211 283.65726
3230 44.98357 263.44582 246.84186
3231 44.99657 260.09976 220.8515
3232 45.00957 276.94262 206.28631
3233 45.02257 229.57769 203.17045
3234 45.03557 244.42807 211.03199
3235 45.04857 270.60976 228.84033
3236 45.06157 287.34188 254.83155
3237 45.07457 327.32739 286.20057
3238 45.08757 396.34249 318.70586
3239 45.10057 449.44718 346.46873
3240 45.11357 492.18801 362.77586
3241 45.12657 468.1967 362.46182
3242 45.13957 505.08888 344.63006
3243 45.15257 406.53388 313.09656
3244 45.16557 375.14022 274.03099
3245 45.17857 323.47281 233.17437
3246 45.19157 243.02594 194.54306
3247 45.20457 178.47353 160.4301
3248 45.21757 126.8902 131.83071
3249 45.23057 103.64396 108.84803
3250 45.24357 88.56488 91.01396
3251 45.25657 82.74319 77.53667
3252 45.26957 73.83244 67.52693
3253 45.28257 71.73316 60.13384
3254 45.29557 55.37774 54.63494
3255 45.30857 37.59532 50.46831
3256 45.32157 43.54373 47.22624
3257 45.33457 36.9126 44.6285
3258 45.34757 38.14785 42.48966
3259 45.36057 36.28822 40.68928
3260 45.37357 35.32672 39.14898
3261 45.38657 36.65358 37.81642
3262 45.39957 33.78322 36.6553
3263 45.41257 33.26722 35.63899
3264 45.42557 35.87098 34.74735
3265 45.43857 35.77294 33.96464
3266 45.45157 38.019 33.27823
3267 45.46457 35.24962 32.67799
3268 45.47757 35.50374 32.15579
3269 45.49057 34.55626 31.70518
3270 45.50357 27.48753 31.32127
3271 45.51657 30.09608 31.00057
3272 45.52957 29.55768 30.7411
3273 45.54257 27.67189 30.54261
3274 45.55557 28.42693 30.40707
3275 45.56857 24.94215 30.33941
3276 45.58157 31.06239 30.34874
3277 45.59457 37.51711 30.44971
3278 45.60757 41.3295 30.66404
3279 45.62057 40.83104 31.0216
3280 45.63357 31.67701 31.56019
3281 45.64657 35.36645 32.3241
3282 45.65957 39.8866 33.35937
3283 45.67257 37.30496 34.7068
3284 45.68557 41.5502 36.39356
3285 45.69857 44.58525 38.42316
3286 45.71157 41.16423 40.76424
3287 45.72457 39.37171 43.33679
3288 45.73757 46.46824 46.00065
3289 45.75057 48.62168 48.5692
3290 45.76357 50.31022 50.89034
3291 45.77657 59.80023 52.99676
3292 45.78957 61.9507 55.21153
3293 45.80257 78.34356 58.08669
3294 45.81557 80.34892 62.22806
3295 45.82857 82.79161 68.13937
3296 45.84157 91.61267 76.13248
3297 45.85457 93.59285 86.25822
3298 45.86757 101.58271 98.22477
3299 45.88057 114.68574 111.28694
3300 45.89357 106.00077 124.10248
3301 45.90657 108.56506 134.69135
3302 45.91957 116.24735 140.77656
3303 45.93257 116.29105 140.70732
3304 45.94557 110.60056 134.4298
3305 45.95857 100.95164 123.50733
3306 45.97157 103.8637 110.16314
3307 45.98457 87.01594 96.34399
3308 45.99757 88.98537 83.3734
3309 46.01057 105.08274 72.00312
3310 46.02357 59.00043 62.56253
3311 46.03657 58.05676 55.08849
3312 46.04957 53.44247 49.42738
3313 46.06257 55.45061 45.31985
3314 46.07557 51.87284 42.46986
3315 46.08857 51.00037 40.59505
3316 46.10157 49.05212 39.45719
3317 46.11457 34.3652 38.87448
3318 46.12757 46.03693 38.72128
3319 46.14057 36.1556 38.92145
3320 46.15357 38.40679 39.44066
3321 46.16657 43.53762 40.28315
3322 46.17957 36.00026 41.49081
3323 46.19257 35.50617 43.14403
3324 46.20557 23.33727 45.39537
3325 46.21857 35.07296 48.47764
3326 46.23157 39.13247 52.73313
3327 46.24457 54.97371 58.63473
3328 46.25757 54.01197 66.7907
3329 46.27057 54.00039 77.91949
3330 46.28357 87.90118 92.78145
3331 46.29657 79.41385 112.06132
3332 46.30957 91.3345 136.20511
3333 46.32257 121.10498 165.22219
3334 46.33557 152.72677 198.41971
3335 46.34857 195.43794 234.13481
3336 46.36157 226.27455 269.3389
3337 46.37457 256.8765 299.41728
3338 46.38757 247.55205 318.73372
3339 46.40057 229.29397 322.64154
3340 46.41357 231.34886 310.07739
3341 46.42657 214.81112 284.29875
3342 46.43957 213.70076 250.8808
3343 46.45257 175.37545 215.07672
3344 46.46557 151.40556 180.63823
3345 46.47857 115.20636 149.79812
3346 46.49157 85.32211 123.63534
3347 46.50457 86.40088 102.41889
3348 46.51757 70.61794 85.87458
3349 46.53057 67.56089 73.40293
3350 46.54357 74.16283 64.26078
3351 46.55657 50.90811 57.70088
3352 46.56957 55.75817 53.0713
3353 46.58257 38.52457 49.82533
3354 46.59557 47.07412 47.56278
3355 46.60857 42.91035 46.01331
3356 46.62157 46.8191 44.99433
3357 46.63457 54.90657 44.39213
3358 46.64757 53.53045 44.14059
3359 46.66057 55.40421 44.20614
3360 46.67357 53.64616 44.57864
3361 46.68657 66.54096 45.26769
3362 46.69957 70.74543 46.30371
3363 46.71257 78.61708 47.74433
3364 46.72557 71.3768 49.68692
3365 46.73857 82.01745 52.28854
3366 46.75157 89.33251 55.79394
3367 46.76457 93.61653 60.57007
3368 46.77757 95.63459 67.14182
3369 46.79057 117.26528 76.21798
3370 46.80357 131.14247 88.69121
3371 46.81657 134.057 105.59252
3372 46.82957 154.00522 127.98496
3373 46.84257 199.51848 156.79113
3374 46.85557 236.04631 192.55992
3375 46.86857 260.70974 235.18273
3376 46.88157 298.5392 283.5444
3377 46.89457 335.57343 335.09247
3378 46.90757 383.99194 385.34319
3379 46.92057 415.5907 427.67597
3380 46.93357 439.46572 454.29686
3381 46.94657 461.13862 459.04142
3382 46.95957 437.51627 440.68686
3383 46.97257 420.88865 403.71717
3384 46.98557 413.77817 355.68412
3385 46.99857 370.85694 303.86408
3386 47.01157 303.8711 253.58772
3387 47.02457 265.7611 208.13087
3388 47.03757 247.38471 169.1537
3389 47.05057 211.83602 137.14786
3390 47.06357 163.07821 111.81131
3391 47.07657 137.72624 92.35231
3392 47.08957 144.94035 77.74593
3393 47.10257 137.15894 66.93343
3394 47.11557 123.33101 58.95557
3395 47.12857 105.6956 53.02143
3396 47.14157 79.37276 48.52548
3397 47.15457 75.87262 45.03081
3398 47.16757 69.51095 42.23643
3399 47.18057 65.14886 39.94198
3400 47.19357 58.3432 38.01788
3401 47.20657 44.15204 36.37822
3402 47.21957 41.03329 34.9557
3403 47.23257 45.29086 33.7143
3404 47.24557 43.04614 32.62353
3405 47.25857 50.30781 31.65969
3406 47.27157 41.42923 30.80358
3407 47.28457 44.63672 30.03929
3408 47.29757 49.44328 29.35377
3409 47.31057 42.44615 28.73693
3410 47.32357 40.69951 28.18145
3411 47.33657 42.02163 27.68027
3412 47.34957 33.08506 27.22449
3413 47.36257 39.14534 26.81776
3414 47.37557 39.59485 26.46074
3415 47.38857 37.50119 26.14217
3416 47.40157 41.34624 25.85664
3417 47.41457 42.52472 25.59781
3418 47.42757 30.19119 25.35869
3419 47.44057 32.68479 25.13289
3420 47.45357 38.94113 24.91677
3421 47.46657 25.73723 24.7105
3422 47.47957 22.5584 24.51716
3423 47.49257 32.00023 24.34063
3424 47.50557 31.82026 24.18441
3425 47.51857 26.94804 24.05137
3426 47.53157 25.03251 23.94356
3427 47.54457 27.03144 23.86253
3428 47.55757 31.98183 23.8105
3429 47.57057 28.05459 23.7889
3430 47.58357 21.16473 23.79734
3431 47.59657 26.79964 23.83466
3432 47.60957 19.34687 23.89778
3433 47.62257 23.73389 23.98086
3434 47.63557 19.31599 24.07385
3435 47.64857 22.70782 24.16235
3436 47.66157 30.33621 24.23372
3437 47.67457 25.55768 24.27279
3438 47.68757 21.41148 24.27673
3439 47.70057 27.20284 24.25502
3440 47.71357 24.49198 24.22416
3441 47.72657 24.00017 24.20055
3442 47.73957 27.42907 24.19684
3443 47.75257 25.45827 24.22172
3444 47.76557 21.6506 24.28093
3445 47.77857 25.96503 24.3785
3446 47.79157 20.45968 24.51786
3447 47.80457 19.00014 24.70295
3448 47.81757 21.39334 24.9395
3449 47.83057 27.51489 25.23646
3450 47.84357 29.00021 25.60706
3451 47.85657 32.07217 26.07004
3452 47.86957 23.14528 26.64993
3453 47.88257 34.21516 27.37643
3454 47.89557 28.66487 28.28222
3455 47.90857 31.55514 29.39923
3456 47.92157 24.66087 30.75321
3457 47.93457 34.46162 32.35686
3458 47.94757 35.11021 34.20213
3459 47.96057 34.37758 36.25058
3460 47.97357 33.64275 38.42148
3461 47.98657 45.03932 40.58044
3462 47.99957 43.09329 42.5438
3463 48.01257 44.84135 44.12592
3464 48.02557 42.88761 45.2353
3465 48.03857 42.517 45.95956
3466 48.05157 47.71589 46.56158
3467 48.06457 45.12558 47.40216
3468 48.07757 50.39236 48.87458
3469 48.09057 56.58992 51.39009
3470 48.10357 53.5228 55.39143
3471 48.11657 68.66067 61.36125
3472 48.12957 75.28333 69.80734
3473 48.14257 79.89793 81.21785
3474 48.15557 84.22104 95.98732
3475 48.16857 109.62203 114.31599
3476 48.18157 135.52109 136.08775
3477 48.19457 140.59275 160.72108
3478 48.20757 160.50977 186.98255
3479 48.22057 194.14483 212.77289
3480 48.23357 215.82062 234.9965
3481 48.24657 224.64453 249.97282
3482 48.25957 236.98597 254.68726
3483 48.27257 244.45218 248.40386
3484 48.28557 222.97676 233.20497
3485 48.29857 197.15434 212.8679
3486 48.31157 192.00872 191.23492
3487 48.32457 168.67866 171.28889
3488 48.33757 142.58345 154.99743
3489 48.35057 128.82817 143.46115
3490 48.36357 128.14395 137.07135
3491 48.37657 141.13378 135.61231
3492 48.38957 170.11418 138.32052
3493 48.40257 186.5963 143.9167
3494 48.41557 193.55911 150.65291
3495 48.42857 219.62452 156.39891
3496 48.44157 233.71562 158.94546
3497 48.45457 222.58836 156.6566
3498 48.46757 210.33694 149.18373
3499 48.48057 211.8718 137.57068
3500 48.49357 172.95483 123.5912
3501 48.50657 148.47447 108.9514
3502 48.51957 122.09198 94.88861
3503 48.53257 93.219 82.13922
3504 48.54557 81.274 71.05001
3505 48.55857 72.96121 61.70466
3506 48.57157 51.66617 54.02792
3507 48.58457 47.21279 47.85611
3508 48.59757 46.58258 42.9785
3509 48.61057 39.84456 39.166
3510 48.62357 33.90401 36.19604
3511 48.63657 30.90093 33.87279
3512 48.64957 38.69727 32.03621
3513 48.66257 31.23542 30.56287
3514 48.67557 27.28629 29.36121
3515 48.68857 28.46768 28.36477
3516 48.70157 25.36983 27.52562
3517 48.71457 27.43369 26.80905
3518 48.72757 23.31033 26.18961
3519 48.74057 26.2806 25.64889
3520 48.75357 28.65872 25.17249
3521 48.76657 24.78013 24.74971
3522 48.77957 22.12703 24.37226
3523 48.79257 23.78609 24.03365
3524 48.80557 20.26178 23.72872
3525 48.81857 25.69697 23.45328
3526 48.83157 17.26166 23.20387
3527 48.84457 27.88932 22.97762
3528 48.85757 20.04749 22.7721
3529 48.87057 31.92842 22.58521
3530 48.88357 21.17504 22.41519
3531 48.89657 30.74208 22.26048
3532 48.90957 25.21456 22.11976
3533 48.92257 25.00018 21.99189
3534 48.93557 25.94463 21.87582
3535 48.94857 21.32752 21.77068
3536 48.96157 21.92477 21.67574
3537 48.97457 22.91486 21.59037
3538 48.98757 32.95283 21.51396
3539 49.00057 33.10537 21.44605
3540 49.01357 24.15067 21.38451
3541 49.02657 25.62529 21.32351
3542 49.03957 22.53968 21.27156
3543 49.05257 22.85537 21.23424
3544 49.06557 31.45314 21.20399
3545 49.07857 22.14028 21.18072
3546 49.09157 24.95294 21.16437
3547 49.10457 21.92243 21.15498
3548 49.11757 25.02833 21.15264
3549 49.13057 28.38735 21.15757
3550 49.14357 20.35634 21.17003
3551 49.15657 23.43137 21.19055
3552 49.16957 22.70225 21.21989
3553 49.18257 18.21985 21.25911
3554 49.19557 22.22314 21.30975
3555 49.20857 21.05525 21.37384
3556 49.22157 20.00014 21.45407
3557 49.23457 27.16415 21.55375
3558 49.24757 26.46779 21.67664
3559 49.26057 20.12419 21.8267
3560 49.27357 24.86668 22.00763
3561 49.28657 25.96272 22.22227
3562 49.29957 27.66632 22.47164
3563 49.31257 21.77739 22.75392
3564 49.32557 19.29354 23.0651
3565 49.33857 23.18409 23.39595
3566 49.35157 23.74643 23.72985
3567 49.36457 17.44753 24.04537
3568 49.37757 20.67759 24.32075
3569 49.39057 19.02889 24.54394
3570 49.40357 19.69782 24.72106
3571 49.41657 27.61856 24.87514
3572 49.42957 31.56761 25.03683
3573 49.44257 26.98301 25.23575
3574 49.45557 22.45261 25.4978
3575 49.46857 23.61307 25.8468
3576 49.48157 26.58335 26.30826
3577 49.49457 23.85774 26.91418
3578 49.50757 24.57118 27.7089
3579 49.52057 29.99617 28.75616
3580 49.53357 32.46441 30.14676
3581 49.54657 34.95654 32.0056
3582 49.55957 34.12733 34.49581
3583 49.57257 32.00023 37.81819
3584 49.58557 31.10343 42.19502
3585 49.59857 36.13904 47.85648
3586 49.61157 42.28603 55.00089
3587 49.62457 45.44283 63.75158
3588 49.63757 55.86158 74.1038
3589 49.65057 71.16759 85.86413
3590 49.66357 93.44541 98.56596
3591 49.67657 102.75873 111.38155
3592 49.68957 126.88383 123.04015
3593 49.70257 168.87454 131.88855
3594 49.71557 182.03405 136.27711
3595 49.72857 193.26872 135.25199
3596 49.74157 180.7306 129.07986
3597 49.75457 163.93061 119.11104
3598 49.76757 144.19008 107.08233
3599 49.78057 118.51227 94.50598
3600 49.79357 87.62594 82.46185
3601 49.80657 66.38849 71.61266
3602 49.81957 52.00038 62.30044
3603 49.83257 53.03928 54.63777
3604 49.84557 52.25325 48.57678
3605 49.85857 42.43967 43.94783
3606 49.87157 43.09068 40.5494
3607 49.88457 31.32061 38.159
3608 49.89757 36.42056 36.5714
3609 49.91057 37.39957 35.61766
3610 49.92357 35.95185 35.17487
3611 49.93657 40.5415 35.17019
3612 49.94957 41.6364 35.5816
3613 49.96257 37.24829 36.43738
3614 49.97557 47.94574 37.82653
3615 49.98857 43.97072 39.88389
3616 50.00157 55.34626 42.81217
3617 50.01457 51.96768 46.8685
3618 50.02757 59.44442 52.35008
3619 50.04057 65.32538 59.56773
3620 50.05357 86.6388 68.80316
3621 50.06657 94.21948 80.25144
3622 50.07957 108.07212 93.95699
3623 50.09257 109.92214 109.71799
3624 50.10557 125.28861 127.00254
3625 50.11857 149.20904 144.83033
3626 50.13157 154.8881 161.65317
3627 50.14457 182.19718 175.35355
3628 50.15757 190.91845 183.59375
3629 50.17057 184.01486 184.63716
3630 50.18357 190.9454 178.22712
3631 50.19657 171.35947 165.74233
3632 50.20957 154.47417 149.46273
3633 50.22257 153.03885 131.64324
3634 50.23557 131.09705 114.01026
3635 50.24857 113.97954 97.68982
3636 50.26157 114.86586 83.3172
3637 50.27457 96.54873 71.16474
3638 50.28757 96.82607 61.24488
3639 50.30057 86.16741 53.39383
3640 50.31357 72.50058 47.34255
3641 50.32657 63.93696 42.77819
3642 50.33957 53.39713 39.38823
3643 50.35257 48.53397 36.89418
3644 50.36557 55.67653 35.05867
3645 50.37857 49.41347 33.70294
3646 50.39157 39.66956 32.69455
3647 50.40457 52.81722 31.94586
3648 50.41757 35.6692 31.39332
3649 50.43057 39.83689 30.9947
3650 50.44357 46.76081 30.72356
3651 50.45657 42.51583 30.56334
3652 50.46957 41.0003 30.50411
3653 50.48257 34.89091 30.54065
3654 50.49557 33.00024 30.67132
3655 50.50857 35.23177 30.89772
3656 50.52157 27.19313 31.22488
3657 50.53457 24.72419 31.66194
3658 50.54757 25.00018 32.22374
3659 50.56057 37.67546 32.93317
3660 50.57357 36.75191 33.82472
3661 50.58657 44.94988 34.9494
3662 50.59957 44.60487 36.38056
3663 50.61257 44.65839 38.22357
3664 50.62557 46.00033 40.61724
3665 50.63857 46.64502 43.74143
3666 50.65157 54.61766 47.81512
3667 50.66457 58.37557 53.08785
3668 50.67757 67.83956 59.82213
3669 50.69057 66.13513 68.26624
3670 50.70357 85.40021 78.61976
3671 50.71657 103.17114 90.99414
3672 50.72957 117.23233 105.3565
3673 50.74257 131.52389 121.48048
3674 50.75557 155.55284 138.84932
3675 50.76857 172.00124 156.56556
3676 50.78157 182.17813 173.34683
3677 50.79457 207.29841 187.78101
3678 50.80757 230.25433 198.8981
3679 50.82057 238.00172 206.70794
3680 50.83357 226.09855 212.21031
3681 50.84657 216.4318 216.74319
3682 50.85957 209.47888 221.22929
3683 50.87257 196.61398 225.70939
3684 50.88557 192.63336 229.21526
3685 50.89857 181.6333 229.97998
3686 50.91157 173.92689 226.08689
3687 50.92457 173.88607 216.43578
3688 50.93757 155.75965 201.40204
3689 50.95057 143.65896 182.62055
3690 50.96357 137.10536 162.15754
3691 50.97657 122.48034 141.79953
3692 50.98957 116.32342 122.78851
3693 51.00257 89.66513 105.85963
3694 51.01557 74.85938 91.36458
3695 51.02857 73.7761 79.38182
3696 51.04157 77.31541 69.80034
3697 51.05457 69.09376 62.38754
3698 51.06757 57.09721 56.84807
3699 51.08057 50.84937 52.87208
3700 51.09357 51.05567 50.17428
3701 51.10657 58.11367 48.51595
3702 51.11957 50.16347 47.72788
3703 51.13257 56.98603 47.75779
3704 51.14557 47.2889 48.5793
3705 51.15857 48.52239 50.27076
3706 51.17157 41.95183 52.99531
3707 51.18457 47.05203 56.99802
3708 51.19757 59.23364 62.59195
3709 51.21057 78.62498 70.18409
3710 51.22357 81.00059 80.15879
3711 51.23657 81.18889 92.87222
3712 51.24957 89.84983 108.56028
3713 51.26257 123.47376 127.24878
3714 51.27557 120.99018 148.65249
3715 51.28857 176.6769 172.05509
3716 51.30157 192.97251 196.16148
3717 51.31457 198.09973 218.95186
3718 51.32757 193.4282 237.68155
3719 51.34057 206.9441 249.30375
3720 51.35357 231.49703 251.45909
3721 51.36657 233.32703 243.58895
3722 51.37957 206.31845 227.30507
3723 51.39257 209.04305 205.47921
3724 51.40557 195.4643 181.09825
3725 51.41857 168.54099 156.54436
3726 51.43157 119.58644 133.42938
3727 51.44457 85.35311 112.72855
3728 51.45757 96.59205 94.91572
3729 51.47057 75.80966 80.09028
3730 51.48357 56.0081 68.10545
3731 51.49657 64.90777 58.65187
3732 51.50957 40.50567 51.33643
3733 51.52257 45.81955 45.74635
3734 51.53557 48.88022 41.49526
3735 51.54857 29.99942 38.25035
3736 51.56157 23.35942 35.74336
3737 51.57457 31.37212 33.76953
3738 51.58757 20.03631 32.17974
3739 51.60057 32.65593 30.86839
3740 51.61357 33.09977 29.76318
3741 51.62657 26.76634 28.81408
3742 51.63957 24.23891 27.98629
3743 51.65257 30.09526 27.25713
3744 51.66557 28.41779 26.60961
3745 51.67857 28.8511 26.03104
3746 51.69157 26.47727 25.51155
3747 51.70457 29.32445 25.04327
3748 51.71757 25.07331 24.61972
3749 51.73057 27.24512 24.23552
3750 51.74357 24.79492 23.8861
3751 51.75657 27.1658 23.57012
3752 51.76957 23.31126 23.28096
3753 51.78257 27.40119 23.01484
3754 51.79557 24.43025 22.77105
3755 51.80857 23.75191 22.54748
3756 51.82157 21.03285 22.34237
3757 51.83457 18.53632 22.15413
3758 51.84757 17.27813 21.9814
3759 51.86057 19.13638 21.82304
3760 51.87357 22.10665 21.67801
3761 51.88657 21.61566 21.54548
3762 51.89957 22.36483 21.4247
3763 51.91257 17.62077 21.31512
3764 51.92557 21.6252 21.21632
3765 51.93857 20.42679 21.12803
3766 51.95157 20.56968 21.05045
3767 51.96457 18.83779 20.98431
3768 51.97757 21.35803 20.93116
3769 51.99057 21.5496 20.89352
3770 52.00357 17.58923 20.87501
3771 52.01657 18.37137 20.88024
3772 52.02957 19.41725 20.91475
3773 52.04257 17.85417 20.98466
3774 52.05557 19.81546 21.09616
3775 52.06857 23.65962 21.25469
3776 52.08157 25.00018 21.46389
3777 52.09457 24.46686 21.72438
3778 52.10757 20.85973 22.0323
3779 52.12057 21.08108 22.37766
3780 52.13357 26.01448 22.74215
3781 52.14657 20.59527 23.09691
3782 52.15957 19.2888 23.40191
3783 52.17257 27.89552 23.61071
3784 52.18557 31.85588 23.68393
3785 52.19857 30.82223 23.60895
3786 52.21157 23.4475 23.404
3787 52.22457 23.77602 23.11212
3788 52.23757 25.75765 22.78248
3789 52.25057 22.90053 22.457
3790 52.26357 23.36036 22.16553
3791 52.27657 16.02757 21.92707
3792 52.28957 15.30767 21.75156
3793 52.30257 19.37482 21.63641
3794 52.31557 20.00014 21.57815
3795 52.32857 25.67776 21.5652
3796 52.34157 31.5161 21.58135
3797 52.35457 20.32 21.60786
3798 52.36757 18.90137 21.62504
3799 52.38057 25.73943 21.63885
3800 52.39357 23.61072 21.64663
3801 52.40657 26.77234 21.65851
3802 52.41957 29.00211 21.68513
3803 52.43257 23.44911 21.73357
3804 52.44557 22.53139 21.80555
3805 52.45857 26.29188 21.89692
3806 52.47157 29.56332 21.99791
3807 52.48457 19.4713 22.09496
3808 52.49757 21.22582 22.17515
3809 52.51057 22.00016 22.23203
3810 52.52357 23.02933 22.27018
3811 52.53657 26.0206 22.30324
3812 52.54957 21.44215 22.34909
3813 52.56257 20.76102 22.42578
3814 52.57557 28.16934 22.55062
3815 52.58857 23.21888 22.74145
3816 52.60157 20.31723 23.01915
3817 52.61457 26.63592 23.41048
3818 52.62757 17.24105 23.95121
3819 52.64057 12.81627 24.68907
3820 52.65357 19.42687 25.68596
3821 52.66657 23.77431 27.01898
3822 52.67957 30.1317 28.78143
3823 52.69257 22.15422 31.06226
3824 52.70557 35.33004 33.96049
3825 52.71857 26.28572 37.55494
3826 52.73157 31.28338 41.89115
3827 52.74457 37.29849 46.96153
3828 52.75757 45.30131 52.68249
3829 52.77057 55.91317 58.86607
3830 52.78357 51.08322 65.18636
3831 52.79657 61.97407 71.14591
3832 52.80957 70.8897 76.07769
3833 52.82257 65.13384 79.24445
3834 52.83557 79.51843 80.06775
3835 52.84857 77.12673 78.38727
3836 52.86157 83.6368 74.54527
3837 52.87457 73.6813 69.21661
3838 52.88757 53.50825 63.13756
3839 52.90057 58.4284 56.91973
3840 52.91357 48.09994 50.98903
3841 52.92657 36.21884 45.62661
3842 52.93957 32.33462 40.98343
3843 52.95257 32.87886 37.1007
3844 52.96557 26.91925 33.95729
3845 52.97857 23.42379 31.4824
3846 52.99157 28.08504 29.57356
3847 53.00457 23.12947 28.11277
3848 53.01757 25.31521 26.98188
3849 53.03057 21.0871 26.07736
3850 53.04357 19.19121 25.32193
3851 53.05657 20.59817 24.66786
3852 53.06957 23.36746 24.09073
3853 53.08257 34.1296 23.57967
3854 53.09557 29.30755 23.12966
3855 53.10857 26.24084 22.73769
3856 53.12157 20.7541 22.40119
3857 53.13457 20.47919 22.11754
3858 53.14757 23.18899 21.88377
3859 53.16057 24.71987 21.69629
3860 53.17357 20.74149 21.55137
3861 53.18657 25.9988 21.44486
3862 53.19957 22.1007 21.37242
3863 53.21257 21.04025 21.32961
3864 53.22557 21.33004 21.31182
3865 53.23857 18.35933 21.31448
3866 53.25157 16.34983 21.33476
3867 53.26457 17.92124 21.36011
3868 53.27757 22.15244 21.38701
3869 53.29057 20.2769 21.40931
3870 53.30357 22.27454 21.4235
3871 53.31657 25.6009 21.43039
3872 53.32957 20.68299 21.43489
3873 53.34257 22.22809 21.44425
3874 53.35557 23.71631 21.46605
3875 53.36857 21.4391 21.50724
3876 53.38157 20.44901 21.57449
3877 53.39457 24.87117 21.67217
3878 53.40757 23.1558 21.80343
3879 53.42057 24.77826 21.97176
3880 53.43357 26.90839 22.17826
3881 53.44657 22.4986 22.4219
3882 53.45957 19.54191 22.69896
3883 53.47257 20.854 23.0022
3884 53.48557 28.77473 23.31989
3885 53.49857 32.07643 23.63497
3886 53.51157 30.53952 23.92558
3887 53.52457 28.23308 24.16844
3888 53.53757 29.02327 24.34174
3889 53.55057 30.46852 24.44363
3890 53.56357 28.23631 24.49975
3891 53.57657 27.9896 24.53611
3892 53.58957 26.96122 24.57053
3893 53.60257 28.47105 24.62453
3894 53.61557 27.86208 24.71495
3895 53.62857 32.81254 24.8537
3896 53.64157 33.17988 25.04972
3897 53.65457 25.94441 25.30998
3898 53.66757 23.33103 25.64056
3899 53.68057 25.03178 26.0479
3900 53.69357 20.18418 26.54013
3901 53.70657 18.54468 27.12884
3902 53.71957 29.29327 27.83126
3903 53.73257 30.00022 28.67285
3904 53.74557 27.54118 29.69027
3905 53.75857 22.31671 30.93485
3906 53.77157 29.80114 32.47514
3907 53.78457 41.0003 34.40018
3908 53.79757 39.83247 36.82052
3909 53.81057 36.22391 39.86578
3910 53.82357 38.06895 43.67623
3911 53.83657 43.42705 48.38781
3912 53.84957 50.16379 54.11224
3913 53.86257 57.94425 60.91426
3914 53.87557 74.13388 68.787
3915 53.88857 89.32897 77.62462
3916 53.90157 90.38368 87.18916
3917 53.91457 88.44393 97.07044
3918 53.92757 98.21044 106.65033
3919 53.94057 109.11327 115.11571
3920 53.95357 130.08427 121.59811
3921 53.96657 121.11683 125.46262
3922 53.97957 106.23257 126.64093
3923 53.99257 118.17053 125.73954
3924 54.00557 120.37549 123.81598
3925 54.01857 124.74087 122.01577
3926 54.03157 121.88239 121.29552
3927 54.04457 136.15319 122.30602
3928 54.05757 118.6861 125.3689
3929 54.07057 110.80268 130.47791
3930 54.08357 142.22818 137.28743
3931 54.09657 156.90179 145.08203
3932 54.10957 138.09032 152.76036
3933 54.12257 135.04482 158.9164
3934 54.13557 144.75574 162.10415
3935 54.14857 108.30973 161.31338
3936 54.16157 125.15805 156.38615
3937 54.17457 136.40395 148.05266
3938 54.18757 130.45028 137.56654
3939 54.20057 115.18653 126.24691
3940 54.21357 96.5971 115.20332
3941 54.22657 104.06139 105.27182
3942 54.23957 95.14305 97.06029
3943 54.25257 120.58789 91.0179
3944 54.26557 102.96909 87.49465
3945 54.27857 99.13431 86.78484
3946 54.29157 99.00072 89.15491
3947 54.30457 123.55153 94.85426
3948 54.31757 97.88099 104.10629
3949 54.33057 125.8974 117.07845
3950 54.34357 128.09995 133.83287
3951 54.35657 159.2777 154.26007
3952 54.36957 181.34729 177.9892
3953 54.38257 221.20745 204.29388
3954 54.39557 241.88211 231.96177
3955 54.40857 281.06295 259.15449
3956 54.42157 309.42102 283.33689
3957 54.43457 331.44572 301.46673
3958 54.44757 351.0152 310.64728
3959 54.46057 377.83054 309.13925
3960 54.47357 363.03692 297.13932
3961 54.48657 342.67826 276.67422
3962 54.49957 312.87972 250.7297
3963 54.51257 275.86053 222.25887
3964 54.52557 232.81284 193.62657
3965 54.53857 213.32482 166.48327
3966 54.55157 164.26982 141.85761
3967 54.56457 132.86996 120.29633
3968 54.57757 132.15382 101.98404
3969 54.59057 113.89994 86.84061
3970 54.60357 92.72711 74.60495
3971 54.61657 96.12554 64.90817
3972 54.62957 73.27696 57.33619
3973 54.64257 66.94732 51.4785
3974 54.65557 74.84339 46.96154
3975 54.66857 59.78387 43.46728
3976 54.68157 45.64784 40.73929
3977 54.69457 47.391 38.58008
3978 54.70757 39.1441 36.84322
3979 54.72057 37.99332 35.42328
3980 54.73357 39.25215 34.2459
3981 54.74657 32.49106 33.25909
3982 54.75957 35.99432 32.42603
3983 54.77257 34.61748 31.72412
3984 54.78557 32.35623 31.12509
3985 54.79857 31.3051 30.61622
3986 54.81157 29.21739 30.18538
3987 54.82457 36.14804 29.82089
3988 54.83757 36.04236 29.51536
3989 54.85057 31.85994 29.26583
3990 54.86357 27.54101 29.07359
3991 54.87657 21.23022 28.94263
3992 54.88957 25.40083 28.87801
3993 54.90257 27.82962 28.88505
3994 54.91557 26.00019 28.96937
3995 54.92857 28.22238 29.13731
3996 54.94157 28.03528 29.39743
3997 54.95457 23.80443 29.76238
3998 54.96757 26.61587 30.25226
3999 54.98057 25.3072 30.90245
4000 54.99357 31.67944 31.75943
4001 55.00657 29.44585 32.90065
4002 55.01957 24.19443 34.42836
4003 55.03257 22.91059 36.47046
4004 55.04557 29.15683 39.17648
4005 55.05857 28.35626 42.71039
4006 55.07157 32.78413 47.23602
4007 55.08457 33.24057 52.89908
4008 55.09757 33.05681 59.8339
4009 55.11057 49.00035 68.07939
4010 55.12357 53.20596 77.59152
4011 55.13657 68.21192 88.19689
4012 55.14957 73.23237 99.54965
4013 55.16257 94.21591 111.07902
4014 55.17557 116.36131 121.94188
4015 55.18857 145.10492 131.02906
4016 55.20157 194.99009 137.11216
4017 55.21457 224.7861 139.17878
4018 55.22757 220.13198 136.83353
4019 55.24057 225.60341 130.48377
4020 55.25357 172.72439 121.15004
4021 55.26657 139.41854 110.06314
4022 55.27957 113.57542 98.32918
4023 55.29257 65.35332 86.78556
4024 55.30557 58.91789 75.99229
4025 55.31857 56.33013 66.30094
4026 55.33157 34.81213 57.8729
4027 55.34457 32.00023 50.74753
4028 55.35757 32.08598 44.87077
4029 55.37057 33.7036 40.12585
4030 55.38357 25.06932 36.36043
4031 55.39657 27.90829 33.40936
4032 55.40957 21.00337 31.1121
4033 55.42257 21.99345 29.32434
4034 55.43557 21.01678 27.92423
4035 55.44857 27.8144 26.81394
4036 55.46157 33.78149 25.91806
4037 55.47457 18.74212 25.18062
4038 55.48757 23.66244 24.56121
4039 55.50057 14.66214 24.03114
4040 55.51357 24.16287 23.57027
4041 55.52657 10.37662 23.16439
4042 55.53957 26.17716 22.80337
4043 55.55257 29.78849 22.48015
4044 55.56557 19.38949 22.18832
4045 55.57857 26.74325 21.92389
4046 55.59157 15.03424 21.68335
4047 55.60457 22.3994 21.46383
4048 55.61757 23.15561 21.26636
4049 55.63057 18.82691 21.08186
4050 55.64357 17.17045 20.91206
4051 55.65657 22.70184 20.75544
4052 55.66957 18.36786 20.61065
4053 55.68257 15.41072 20.47656
4054 55.69557 13.43054 20.3521
4055 55.70857 19.97393 20.2364
4056 55.72157 15.88051 20.12877
4057 55.73457 25.32571 20.02836
4058 55.74757 19.31358 19.93451
4059 55.76057 21.8818 19.84674
4060 55.77357 21.82429 19.76458
4061 55.78657 17.42325 19.68757
4062 55.79957 14.58919 19.61534
4063 55.81257 11.91345 19.54754
4064 55.82557 15.79953 19.48385
4065 55.83857 15.97297 19.42401
4066 55.85157 18.32913 19.36777
4067 55.86457 14.75303 19.3149
4068 55.87757 17.16788 19.26521
4069 55.89057 21.27226 19.21853
4070 55.90357 18.24329 19.17469
4071 55.91657 17.23257 19.13356
4072 55.92957 19.81907 19.095
4073 55.94257 19.80735 19.0589
4074 55.95557 16.06772 19.0262
4075 55.96857 14.0001 18.9953
4076 55.98157 13.43345 18.96655
4077 55.99457 13.00009 18.94425
4078 56.00757 16.82786 18.91915
4079 56.02057 15.70488 18.89616
4080 56.03357 16.21604 18.87538
4081 56.04657 21.0343 18.85696
4082 56.05957 16.92853 18.84115
4083 56.07257 13.49183 18.82829
4084 56.08557 16.94944 18.81892
4085 56.09857 18.52272 18.8137
4086 56.11157 14.72761 18.81368
4087 56.12457 12.83043 18.82021
4088 56.13757 15.89545 18.83512
4089 56.15057 14.37358 18.86068
4090 56.16357 13.98975 18.89964
4091 56.17657 17.16486 18.95509
4092 56.18957 17.631 19.03037
4093 56.20257 20.79576 19.12867
4094 56.21557 20.0607 19.25269
4095 56.22857 20.02394 19.40415
4096 56.24157 21.68763 19.58321
4097 56.25457 16.35826 19.78784
4098 56.26757 18.04482 20.0131
4099 56.28057 19.66183 20.25021
4100 56.29357 22.28415 20.48555
4101 56.30657 23.90443 20.69996
4102 56.31957 17.01152 20.86963
4103 56.33257 26.5975 20.97015
4104 56.34557 26.84524 20.98388
4105 56.35857 21.76957 20.90706
4106 56.37157 17.07576 20.75157
4107 56.38457 21.29512 20.53973
4108 56.39757 25.74742 20.29636
4109 56.41057 24.89105 20.04321
4110 56.42357 16.60486 19.79634
4111 56.43657 22.43883 19.56666
4112 56.44957 24.00017 19.36074
4113 56.46257 23.00265 19.18191
4114 56.47557 19.56891 19.03093
4115 56.48857 21.46113 18.90676
4116 56.50157 18.49086 18.80711
4117 56.51457 15.20089 18.72899
4118 56.52757 12.6493 18.66934
4119 56.54057 21.58012 18.62733
4120 56.55357 18.73994 18.59473
4121 56.56657 17.72123 18.57177
4122 56.57957 22.22828 18.55639
4123 56.59257 16.9033 18.54693
4124 56.60557 24.27667 18.54207
4125 56.61857 16.75855 18.54075
4126 56.63157 14.07071 18.54212
4127 56.64457 15.0608 18.54555
4128 56.65757 15.89856 18.55076
4129 56.67057 14.24528 18.55962
4130 56.68357 19.77973 18.56898
4131 56.69657 12.97935 18.58183
4132 56.70957 12.0434 18.5997
4133 56.72257 16.00377 18.62446
4134 56.73557 19.96408 18.65839
4135 56.74857 14.11369 18.70416
4136 56.76157 17.88474 18.76482
4137 56.77457 19.92262 18.84287
4138 56.78757 12.38951 18.93696
4139 56.80057 12.00009 19.06225
4140 56.81357 17.58908 19.21492
4141 56.82657 15.23538 19.39643
4142 56.83957 15.00011 19.60657
4143 56.85257 19.50888 19.84293
4144 56.86557 20.89198 20.10005
4145 56.87857 19.2363 20.3686
4146 56.89157 18.12813 20.63438
4147 56.90457 23.17269 20.87779
4148 56.91757 20.59146 21.0774
4149 56.93057 20.00014 21.20606
4150 56.94357 24.16189 21.24869
4151 56.95657 19.24315 21.20487
4152 56.96957 14.75006 21.08848
4153 56.98257 22.02614 20.92298
4154 56.99557 20.03673 20.73336
4155 57.00857 15.86904 20.54067
4156 57.02157 14.22725 20.35987
4157 57.03457 18.57776 20.19984
4158 57.04757 20.75317 20.0641
4159 57.06057 18.77081 19.95158
4160 57.07357 15.80054 19.85758
4161 57.08657 17.89324 19.77519
4162 57.09957 18.28677 19.69751
4163 57.11257 18.00013 19.61998
4164 57.12557 17.30659 19.54156
4165 57.13857 15.63288 19.46421
4166 57.15157 15.67382 19.3913
4167 57.16457 17.99149 19.32613
4168 57.17757 17.69238 19.27123
4169 57.19057 17.64408 19.22828
4170 57.20357 16.09799 19.19794
4171 57.21657 17.49112 19.18093
4172 57.22957 21.45584 19.17642
4173 57.24257 18.77209 19.18203
4174 57.25557 18.3765 19.19682
4175 57.26857 13.57416 19.21827
4176 57.28157 10.1486 19.24347
4177 57.29457 18.33664 19.26886
4178 57.30757 21.228 19.28715
4179 57.32057 18.45562 19.29952
4180 57.33357 18.53474 19.31231
4181 57.34657 14.27793 19.32145
4182 57.35957 15.14782 19.32951
4183 57.37257 17.47584 19.33944
4184 57.38557 18.46472 19.35396
4185 57.39857 22.00016 19.37544
4186 57.41157 21.52504 19.4058
4187 57.42457 25.18695 19.4466
4188 57.43757 23.17095 19.49899
4189 57.45057 16.33622 19.56367
4190 57.46357 14.08104 19.64083
4191 57.47657 16.65977 19.73004
4192 57.48957 23.25958 19.83012
4193 57.50257 16.37729 19.93899
4194 57.51557 16.37487 20.05355
4195 57.52857 21.54366 20.16897
4196 57.54157 21.36843 20.27939
4197 57.55457 16.26803 20.37795
4198 57.56757 16.42464 20.45824
4199 57.58057 17.26904 20.51646
4200 57.59357 19.38096 20.55298
4201 57.60657 27.7155 20.57215
4202 57.61957 20.78485 20.58069
4203 57.63257 14.46732 20.58562
4204 57.64557 13.66987 20.59292
4205 57.65857 21.72051 20.60717
4206 57.67157 24.61612 20.63161
4207 57.68457 21.80085 20.6684
4208 57.69757 22.45828 20.71893
4209 57.71057 18.2472 20.78398
4210 57.72357 20.42305 20.86393
4211 57.73657 23.18228 20.9589
4212 57.74957 17.86331 21.06895
4213 57.76257 20.79304 21.19413
4214 57.77557 20.78895 21.3347
4215 57.78857 21.94002 21.49115
4216 57.80157 14.77381 21.66452
4217 57.81457 23.00017 21.85698
4218 57.82757 24.10296 22.06905
4219 57.84057 28.96683 22.30427
4220 57.85357 22.31161 22.5673
4221 57.86657 18.00013 22.8643
4222 57.87957 18.94318 23.20386
4223 57.89257 24.81256 23.59772
4224 57.90557 15.00011 24.06146
4225 57.91857 15.08824 24.61499
4226 57.93157 16.62588 25.28261
4227 57.94457 24.2734 26.09245
4228 57.95757 27.47469 27.07504
4229 57.97057 18.90319 28.26132
4230 57.98357 17.27004 29.67966
4231 57.99657 24.51578 31.35192
4232 58.00957 41.92538 33.28994
4233 58.02257 37.93857 35.49081
4234 58.03557 31.00803 37.93164
4235 58.04857 43.85693 40.56074
4236 58.06157 46.93751 43.29582
4237 58.07457 48.93863 46.01907
4238 58.08757 47.08189 48.55589
4239 58.10057 59.34146 50.70402
4240 58.11357 42.1518 52.26784
4241 58.12657 53.08363 53.12041
4242 58.13957 53.08082 53.25732
4243 58.15257 48.4521 52.8043
4244 58.16557 56.99776 51.97289
4245 58.17857 52.66146 50.99538
4246 58.19157 54.64011 50.0844
4247 58.20457 47.17043 49.42982
4248 58.21757 52.0209 49.16911
4249 58.23057 57.25121 49.42716
4250 58.24357 56.31992 50.32385
4251 58.25657 48.52738 51.98965
4252 58.26957 52.74329 54.57694
4253 58.28257 53.17449 58.26131
4254 58.29557 57.00188 63.23092
4255 58.30857 58.7908 69.66691
4256 58.32157 69.14654 77.72117
4257 58.33457 85.87051 87.49013
4258 58.34757 82.39425 98.98938
4259 58.36057 93.51362 112.13011
4260 58.37357 118.74338 126.68206
4261 58.38657 147.19685 142.23349
4262 58.39957 151.39622 158.14241
4263 58.41257 154.26747 173.49749
4264 58.42557 164.41492 187.13761
4265 58.43857 171.45739 197.80502
4266 58.45157 179.13312 204.46735
4267 58.46457 196.1008 206.70093
4268 58.47757 168.60405 204.89364
4269 58.49057 166.63886 200.10386
4270 58.50357 164.09307 193.67395
4271 58.51657 168.74078 186.84624
4272 58.52957 166.9175 180.53686
4273 58.54257 167.50839 175.26399
4274 58.55557 167.38925 171.16072
4275 58.56857 168.55369 168.02252
4276 58.58157 150.62536 165.3742
4277 58.59457 136.00098 162.56057
4278 58.60757 120.25552 158.87336
4279 58.62057 108.5532 153.72308
4280 58.63357 110.62831 146.82147
4281 58.64657 114.66377 138.27211
4282 58.65957 119.09156 128.51137
4283 58.67257 112.28391 118.1265
4284 58.68557 101.48652 107.67759
4285 58.69857 93.57846 97.59224
4286 58.71157 87.51762 88.19061
4287 58.72457 74.22687 79.63956
4288 58.73757 62.31637 72.03643
4289 58.75057 67.26683 65.42228
4290 58.76357 73.54736 59.79591
4291 58.77657 75.39991 55.12163
4292 58.78957 63.52999 51.33722
4293 58.80257 46.19878 48.36464
4294 58.81557 40.82412 46.12208
4295 58.82857 46.57429 44.53531
4296 58.84157 46.31532 43.54682
4297 58.85457 45.73691 43.12248
4298 58.86757 54.18285 43.25594
4299 58.88057 56.23127 43.97057
4300 58.89357 51.62472 45.31964
4301 58.90657 52.00636 47.38422
4302 58.91957 56.05591 50.26853
4303 58.93257 55.14208 54.09242
4304 58.94557 65.34725 58.98067
4305 58.95857 71.23449 65.04918
4306 58.97157 67.28491 72.38793
4307 58.98457 71.29461 81.04079
4308 58.99757 83.7049 90.9817
4309 59.01057 94.51004 102.08589
4310 59.02357 102.36457 114.09533
4311 59.03657 125.28877 126.58152
4312 59.04957 139.59993 138.91996
4313 59.06257 151.57106 150.30686
4314 59.07557 155.33379 159.85423
4315 59.08857 170.3408 166.77726
4316 59.10157 151.26236 170.56012
4317 59.11457 172.80697 171.02011
4318 59.12757 179.54905 168.23847
4319 59.14057 148.55635 162.46386
4320 59.15357 152.92396 154.09244
4321 59.16657 129.13663 143.69793
4322 59.17957 128.23998 131.99971
4323 59.19257 117.62299 119.75894
4324 59.20557 128.19974 107.65553
4325 59.21857 110.98402 96.21256
4326 59.23157 90.53658 85.78113
4327 59.24457 73.78122 76.56267
4328 59.25757 60.52516 68.64139
4329 59.27057 81.54957 62.0175
4330 59.28357 73.76822 56.63597
4331 59.29657 68.89086 52.40855
4332 59.30957 66.10701 49.23249
4333 59.32257 69.88349 47.00531
4334 59.33557 62.93006 45.63603
4335 59.34857 55.00944 45.05273
4336 59.36157 62.89379 45.20623
4337 59.37457 52.25611 46.07007
4338 59.38757 58.76828 47.63722
4339 59.40057 63.78507 49.91539
4340 59.41357 71.57657 52.91417
4341 59.42657 76.68601 56.64415
4342 59.43957 68.6559 61.10023
4343 59.45257 70.7523 66.2501
4344 59.46557 71.00051 72.01814
4345 59.47857 76.38514 78.267
4346 59.49157 92.97597 84.7824
4347 59.50457 95.8783 91.27669
4348 59.51757 94.26531 97.4296
4349 59.53057 89.71179 102.96891
4350 59.54357 100.87072 107.75436
4351 59.55657 98.81101 111.80234
4352 59.56957 95.51661 115.22071
4353 59.58257 108.90869 118.08863
4354 59.59557 123.31564 120.34791
4355 59.60857 130.79064 121.75499
4356 59.62157 137.51956 121.91773
4357 59.63457 149.89941 120.42106
4358 59.64757 163.7607 117.00498
4359 59.66057 161.69082 111.70329
4360 59.67357 152.51404 104.85359
4361 59.68657 135.96395 96.98037
4362 59.69957 119.33884 88.63726
4363 59.71257 103.49737 80.29864
4364 59.72557 82.69253 72.32152
4365 59.73857 84.39019 64.93897
4366 59.75157 75.59465 58.2972
4367 59.76457 62.52814 52.46577
4368 59.77757 58.33104 47.45802
4369 59.79057 47.4488 43.24534
4370 59.80357 40.05162 39.76932
4371 59.81657 36.4417 36.95245
4372 59.82957 35.00025 34.70739
4373 59.84257 32.52099 32.94544
4374 59.85557 29.78042 31.57966
4375 59.86857 29.59148 30.53069
4376 59.88157 34.71846 29.72914
4377 59.89457 36.84055 29.11334
4378 59.90757 28.02097 28.62871
4379 59.92057 28.72057 28.22657
4380 59.93357 30.14941 27.86438
4381 59.94657 23.21876 27.50787
4382 59.95957 22.1213 27.13465
4383 59.97257 24.00017 26.73598
4384 59.98557 23.48971 26.31515
4385 59.99857 21.99908 25.88289
4386 60.01157 25.41581 25.45249
4387 60.02457 22.78951 25.03658
4388 60.03757 20.17889 24.64555
4389 60.05057 22.774 24.28717
4390 60.06357 19.45111 23.96681
4391 60.07657 22.64647 23.68756
4392 60.08957 26.00019 23.45077
4393 60.10257 28.1063 23.25642
4394 60.11557 26.88714 23.10344
4395 60.12857 21.80294 22.99
4396 60.14157 26.52347 22.91374
4397 60.15457 23.60585 22.87194
4398 60.16757 19.66291 22.86156
4399 60.18057 35.2768 22.87922
4400 60.19357 29.42662 22.92102
4401 60.20657 22.70966 22.98245
4402 60.21957 28.65609 23.05852
4403 60.23257 33.67817 23.14434
4404 60.24557 33.00024 23.23617
4405 60.25857 29.07109 23.33232
4406 60.27157 20.29247 23.4333
4407 60.28457 20.71774 23.5408
4408 60.29757 20.27264 23.65616
4409 60.31057 22.05048 23.78016
4410 60.32357 25.75818 23.90864
4411 60.33657 26.54369 24.03936
4412 60.34957 20.83598 24.17012
4413 60.36257 20.34394 24.30255
4414 60.37557 31.78723 24.44431
4415 60.38857 29.57161 24.60959
4416 60.40157 27.47211 24.81792
4417 60.41457 39.25575 25.09245
4418 60.42757 27.17325 25.458
4419 60.44057 29.79475 25.9408
4420 60.45357 36.54868 26.57553
4421 60.46657 24.57658 27.39004
4422 60.47957 34.00025 28.41548
4423 60.49257 34.37069 29.68163
4424 60.50557 38.47661 31.21467
4425 60.51857 48.75656 33.03441
4426 60.53157 39.03136 35.15138
4427 60.54457 48.83272 37.56354
4428 60.55757 46.63082 40.25336
4429 60.57057 42.12828 43.18293
4430 60.58357 44.54106 46.28605
4431 60.59657 53.82375 49.47132
4432 60.60957 50.3428 52.61599
4433 60.62257 59.70849 55.57887
4434 60.63557 48.02918 58.22984
4435 60.64857 50.04085 60.49998
4436 60.66157 58.95155 62.42183
4437 60.67457 62.93907 64.13812
4438 60.68757 68.84893 65.86431
4439 60.70057 67.07084 67.82675
4440 60.71357 72.72998 70.20726
4441 60.72657 73.00053 73.109
4442 60.73957 61.7795 76.53872
4443 60.75257 64.70112 80.39445
4444 60.76557 82.39033 84.46022
4445 60.77857 74.9472 88.39581
4446 60.79157 82.05937 91.74744
4447 60.80457 86.54264 94.00546
4448 60.81757 100.13456 94.71531
4449 60.83057 85.55281 93.61234
4450 60.84357 94.12555 90.71449
4451 60.85657 96.00069 86.30758
4452 60.86957 86.80541 80.83653
4453 60.88257 76.74042 74.77508
4454 60.89557 72.55223 68.53623
4455 60.90857 62.32624 62.43914
4456 60.92157 62.37095 56.70359
4457 60.93457 44.1348 51.47151
4458 60.94757 51.41874 46.8223
4459 60.96057 65.72774 42.78431
4460 60.97357 71.26947 39.34739
4461 60.98657 55.57953 36.47279
4462 60.99957 44.84491 34.10228
4463 61.01257 36.46111 32.16707
4464 61.02557 38.30023 30.59624
4465 61.03857 37.88004 29.32375
4466 61.05157 32.81927 28.29258
4467 61.06457 25.50488 27.45601
4468 61.07757 32.47821 26.77686
4469 61.09057 36.33318 26.2261
4470 61.10357 32.05722 25.78141
4471 61.11657 20.29135 25.42612
4472 61.12957 23.9229 25.14827
4473 61.14257 30.25506 24.93963
4474 61.15557 25.44261 24.79547
4475 61.16857 24.43055 24.71411
4476 61.18157 26.00019 24.69687
4477 61.19457 29.52679 24.74832
4478 61.20757 25.06601 24.87674
4479 61.22057 18.29633 25.09472
4480 61.23357 24.81243 25.41983
4481 61.24657 25.51916 25.87507
4482 61.25957 27.99664 26.48897
4483 61.27257 25.54782 27.2957
4484 61.28557 19.03685 28.33326
4485 61.29857 20.50859 29.642
4486 61.31157 22.99428 31.26154
4487 61.32457 26.95465 33.22681
4488 61.33757 28.52151 35.5634
4489 61.35057 26.59384 38.28218
4490 61.36357 27.29454 41.37343
4491 61.37657 30.89813 44.80034
4492 61.38957 27.17078 48.49138
4493 61.40257 32.15742 52.3312
4494 61.41557 47.00034 56.15056
4495 61.42857 55.18625 59.71967
4496 61.44157 71.79305 62.75449
4497 61.45457 76.64257 64.94999
4498 61.46757 80.20646 66.04588
4499 61.48057 106.77445 65.90607
4500 61.49357 123.73408 64.56851
4501 61.50657 94.6707 62.23168
4502 61.51957 65.2837 59.18696
4503 61.53257 59.01138 55.74016
4504 61.54557 52.52365 52.15797
4505 61.55857 46.09885 48.64677
4506 61.57157 44.90203 45.35287
4507 61.58457 26.29021 42.37149
4508 61.59757 29.24106 39.75711
4509 61.61057 33.37909 37.53318
4510 61.62357 29.00021 35.7006
4511 61.63657 26.9973 34.24476
4512 61.64957 20.27881 33.14098
4513 61.66257 21.68866 32.35822
4514 61.67557 33.77963 31.86249
4515 61.68857 32.15743 31.62014
4516 61.70157 29.40179 31.60191
4517 61.71457 29.28237 31.78793
4518 61.72757 22.00016 32.17374
4519 61.74057 23.02641 32.77549
4520 61.75357 27.51682 33.63166
4521 61.76657 24.84897 34.79655
4522 61.77957 25.13055 36.35197
4523 61.79257 32.78852 38.36942
4524 61.80557 37.63587 40.92185
4525 61.81857 34.44249 44.07045
4526 61.83157 31.52477 47.85674
4527 61.84457 45.7341 52.29407
4528 61.85757 52.83677 57.35839
4529 61.87057 50.42524 62.97784
4530 61.88357 43.49612 69.02037
4531 61.89657 51.78129 75.27879
4532 61.90957 66.00048 81.45537
4533 61.92257 66.16163 87.15398
4534 61.93557 70.95588 91.89712
4535 61.94857 69.11211 95.18872
4536 61.96157 77.96327 96.62581
4537 61.97457 63.11211 96.0191
4538 61.98757 68.8763 93.46763
4539 62.00057 53.44141 89.31394
4540 62.01357 75.13852 84.02224
4541 62.02657 56.94829 78.06813
4542 62.03957 66.37008 71.85516
4543 62.05257 50.2104 65.69348
4544 62.06557 40.69455 59.80443
4545 62.07857 38.17438 54.33738
4546 62.09157 40.70939 49.38756
4547 62.10457 33.85532 45.00668
4548 62.11757 33.00024 41.21009
4549 62.13057 32.12695 37.98305
4550 62.14357 36.31712 35.28792
4551 62.15657 32.73296 33.07178
4552 62.16957 26.0954 31.27368
4553 62.18257 30.00197 29.83072
4554 62.19557 34.29509 28.68271
4555 62.20857 31.74505 27.7753
4556 62.22157 28.58857 27.06184
4557 62.23457 22.4424 26.50399
4558 62.24757 28.05666 26.07145
4559 62.26057 30.00022 25.74095
4560 62.27357 25.41486 25.49537
4561 62.28657 18.72 25.32238
4562 62.29957 26.67727 25.21117
4563 62.31257 22.65541 25.15672
4564 62.32557 25.0721 25.15518
4565 62.33857 19.85369 25.19737
4566 62.35157 21.22854 25.29659
4567 62.36457 20.22088 25.46398
4568 62.37757 15.57561 25.70082
4569 62.39057 16.02507 26.01942
4570 62.40357 20.99057 26.43595
4571 62.41657 27.58629 26.97056
4572 62.42957 28.70973 27.65082
4573 62.44257 24.18822 28.50038
4574 62.45557 23.8764 29.55675
4575 62.46857 30.53968 30.85822
4576 62.48157 31.57791 32.44592
4577 62.49457 26.4262 34.36124
4578 62.50757 32.18969 36.64268
4579 62.52057 37.42473 39.32283
4580 62.53357 36.43463 42.42562
4581 62.54657 39.89029 45.96357
4582 62.55957 40.8171 49.93358
4583 62.57257 40.07206 54.30978
4584 62.58557 44.15614 59.03289
4585 62.59857 48.03246 63.99697
4586 62.61157 53.0495 69.03538
4587 62.62457 51.5419 73.90981
4588 62.63757 47.45927 78.31146
4589 62.65057 50.42955 81.88845
4590 62.66357 53.39982 84.31055
4591 62.67657 55.45697 85.36076
4592 62.68957 59.57362 85.01234
4593 62.70257 61.38004 83.44337
4594 62.71557 58.42724 80.97771
4595 62.72857 57.74971 77.98941
4596 62.74157 57.62837 74.82008
4597 62.75457 64.76536 71.73272
4598 62.76757 68.90323 68.89729
4599 62.78057 59.4735 66.39261
4600 62.79357 64.85699 64.21362
4601 62.80657 78.42263 62.28147
4602 62.81957 65.08547 60.46325
4603 62.83257 64.27429 58.60302
4604 62.84557 54.34506 56.56547
4605 62.85857 52.68263 54.27673
4606 62.87157 50.76901 51.74171
4607 62.88457 46.21279 49.03034
4608 62.89757 41.71229 46.24469
4609 62.91057 42.94697 43.48732
4610 62.92357 47.46399 40.84285
4611 62.93657 43.15941 38.37206
4612 62.94957 36.24201 36.11405
4613 62.96257 38.80811 34.09017
4614 62.97557 36.82842 32.30788
4615 62.98857 41.47007 30.76376
4616 63.00157 37.2524 29.4461
4617 63.01457 41.60275 28.33744
4618 63.02757 40.56687 27.41685
4619 63.04057 40.308 26.66201
4620 63.05357 27.49398 26.05071
4621 63.06657 26.4296 25.56335
4622 63.07957 33.70243 25.17815
4623 63.09257 31.30526 24.87979
4624 63.10557 27.38743 24.65415
4625 63.11857 30.23854 24.48981
4626 63.13157 31.12624 24.37768
4627 63.14457 24.59618 24.31099
4628 63.15757 30.17905 24.28503
4629 63.17057 32.15924 24.29721
4630 63.18357 33.93066 24.34471
4631 63.19657 32.6422 24.42792
4632 63.20957 27.39826 24.54798
4633 63.22257 34.76119 24.70747
4634 63.23557 29.06007 24.90729
4635 63.24857 30.98021 25.15799
4636 63.26157 30.01031 25.47254
4637 63.27457 31.00004 25.8606
4638 63.28757 30.00996 26.33985
4639 63.30057 25.09849 26.93337
4640 63.31357 27.91147 27.67227
4641 63.32657 38.56587 28.58897
4642 63.33957 34.24728 29.72811
4643 63.35257 45.28847 31.13905
4644 63.36557 48.79264 32.87597
4645 63.37857 37.02924 34.99551
4646 63.39157 55.12999 37.55316
4647 63.40457 49.79222 40.59845
4648 63.41757 57.02034 44.16967
4649 63.43057 46.54489 48.28749
4650 63.44357 65.03975 52.94814
4651 63.45657 62.83231 58.11604
4652 63.46957 60.29755 63.7152
4653 63.48257 79.35572 69.62019
4654 63.49557 75.51603 75.63966
4655 63.50857 97.82995 81.51431
4656 63.52157 96.50644 86.91367
4657 63.53457 104.62317 91.46494
4658 63.54757 90.36965 94.81779
4659 63.56057 87.56471 96.73739
4660 63.57357 104.18366 97.18584
4661 63.58657 100.61964 96.34331
4662 63.59957 106.27279 94.55367
4663 63.61257 93.41685 92.22894
4664 63.62557 94.59023 89.763
4665 63.63857 100.61201 87.48217
4666 63.65157 104.85013 85.62845
4667 63.66457 107.40563 84.3584
4668 63.67757 94.84296 83.74392
4669 63.69057 86.27024 83.76994
4670 63.70357 89.03674 84.3302
4671 63.71657 85.69848 85.22472
4672 63.72957 81.69489 86.16582
4673 63.74257 89.35883 86.80356
4674 63.75557 102.23002 86.77881
4675 63.76857 87.68432 85.8059
4676 63.78157 84.5853 83.74682
4677 63.79457 79.14159 80.64523
4678 63.80757 76.74745 76.69707
4679 63.82057 85.83509 72.17961
4680 63.83357 81.39761 67.37925
4681 63.84657 72.18244 62.54531
4682 63.85957 70.55421 57.87277
4683 63.87257 71.00051 53.50322
4684 63.88557 73.13602 49.53316
4685 63.89857 66.09321 46.0232
4686 63.91157 56.97233 43.00611
4687 63.92457 65.07475 40.49382
4688 63.93757 70.04681 38.48355
4689 63.95057 62.12608 36.96349
4690 63.96357 52.78218 35.91789
4691 63.97657 56.28974 35.33118
4692 63.98957 66.54593 35.19127
4693 64.00257 65.1112 35.49101
4694 64.01557 56.61014 36.2283
4695 64.02857 47.00034 37.40457
4696 64.04157 46.58545 39.02195
4697 64.05457 45.19037 41.07916
4698 64.06757 52.69173 43.56674
4699 64.08057 64.84503 46.46151
4700 64.09357 62.62522 49.72047
4701 64.10657 67.11491 53.27408
4702 64.11957 69.60328 57.01874
4703 64.13257 66.98313 60.80954
4704 64.14557 79.30258 64.45539
4705 64.15857 70.00051 67.72187
4706 64.17157 70.63199 70.34886
4707 64.18457 75.97629 72.08766
4708 64.19757 81.44966 72.75407
4709 64.21057 77.2905 72.27966
4710 64.22357 81.92681 70.73555
4711 64.23657 68.66216 68.31445
4712 64.24957 76.51306 65.2741
4713 64.26257 78.98592 61.88619
4714 64.27557 73.7258 58.39223
4715 64.28857 50.62446 54.9873
4716 64.30157 59.96816 51.81995
4717 64.31457 52.51387 48.99997
4718 64.32757 63.63933 46.60834
4719 64.34057 55.49517 44.70628
4720 64.35357 60.55361 43.34222
4721 64.36657 52.50247 42.55606
4722 64.37957 45.93945 42.38128
4723 64.39257 49.3877 42.84541
4724 64.40557 43.28087 43.96955
4725 64.41857 62.2256 45.7668
4726 64.43157 51.51955 48.23962
4727 64.44457 61.931 51.37601
4728 64.45757 55.32911 55.14446
4729 64.47057 77.52325 59.48783
4730 64.48357 83.0778 64.31581
4731 64.49657 84.74074 69.49564
4732 64.50957 94.94332 74.84115
4733 64.52257 95.18705 80.10262
4734 64.53557 118.55038 84.96339
4735 64.54857 107.47039 89.05542
4736 64.56157 123.629 92.00658
4737 64.57457 103.13325 93.52009
4738 64.58757 119.96457 93.46177
4739 64.60057 109.13334 91.90883
4740 64.61357 92.37407 89.13218
4741 64.62657 121.04447 85.52172
4742 64.63957 105.71128 81.49769
4743 64.65257 98.36268 77.44555
4744 64.66557 98.00071 73.68412
4745 64.67857 98.00071 70.45851
4746 64.69157 88.81519 67.94438
4747 64.70457 109.80791 66.25457
4748 64.71757 83.24173 65.44435
4749 64.73057 87.11103 65.51468
4750 64.74357 70.42282 66.41376
4751 64.75657 81.03513 68.03683
4752 64.76957 83.0006 70.22438
4753 64.78257 68.56512 72.7593
4754 64.79557 76.07125 75.36616
4755 64.80857 68.04878 77.72108
4756 64.82157 79.11089 79.47373
4757 64.83457 75.52471 80.30614
4758 64.84757 76.39925 80.00192
4759 64.86057 92.79366 78.49585
4760 64.87357 79.84642 75.88538
4761 64.88657 74.23072 72.39143
4762 64.89957 74.00054 68.29286
4763 64.91257 58.25064 63.86652
4764 64.92557 58.92102 59.35108
4765 64.93857 57.34962 54.93327
4766 64.95157 58.16115 50.74895
4767 64.96457 60.4211 46.88964
4768 64.97757 48.39289 43.41015
4769 64.99057 61.64393 40.33529
4770 65.00357 57.06931 37.66574
4771 65.01657 42.28161 35.38343
4772 65.02957 40.64331 33.45682
4773 65.04257 44.60368 31.84621
4774 65.05557 47.28219 30.5087
4775 65.06857 47.36933 29.40254
4776 65.08157 37.06276 28.48988
4777 65.09457 35.88969 27.73805
4778 65.10757 37.79775 27.11967
4779 65.12057 32.86079 26.61217
4780 65.13357 30.58166 26.19749
4781 65.14657 30.4287 25.86158
4782 65.15957 30.56183 25.591
4783 65.17257 23.27652 25.37807
4784 65.18557 23.50146 25.21616
4785 65.19857 24.21344 25.10028
4786 65.21157 23.13183 25.02684
4787 65.22457 28.04832 24.99331
4788 65.23757 30.00022 24.99804
4789 65.25057 30.98462 25.04024
4790 65.26357 26.69507 25.12004
4791 65.27657 26.19625 25.23867
4792 65.28957 29.22549 25.39907
4793 65.30257 29.62052 25.60637
4794 65.31557 36.21338 25.86833
4795 65.32857 31.21147 26.19611
4796 65.34157 18.46337 26.60467
4797 65.35457 21.19333 27.11292
4798 65.36757 29.59725 27.74415
4799 65.38057 29.78631 28.52607
4800 65.39357 31.38336 29.4908
4801 65.40657 30.13413 30.67441
4802 65.41957 25.53361 32.11559
4803 65.43257 27.5867 33.8545
4804 65.44557 33.94289 35.93046
4805 65.45857 32.66406 38.37855
4806 65.47157 39.93866 41.22488
4807 65.48457 42.43457 44.48376
4808 65.49757 40.21322 48.15073
4809 65.51057 46.81346 52.19801
4810 65.52357 57.98424 56.57077
4811 65.53657 63.82092 61.18549
4812 65.54957 68.37265 65.93047
4813 65.56257 77.53713 70.66583
4814 65.57557 83.53815 75.22001
4815 65.58857 83.20949 79.38344
4816 65.60157 95.4333 82.90687
4817 65.61457 94.49462 85.51853
4818 65.62757 109.7763 86.97064
4819 65.64057 106.55411 87.09971
4820 65.65357 115.02761 85.88893
4821 65.66657 118.94508 83.47696
4822 65.67957 98.12473 80.12115
4823 65.69257 110.75615 76.13111
4824 65.70557 90.398 71.80674
4825 65.71857 75.67393 67.40068
4826 65.73157 78.2539 63.10549
4827 65.74457 64.16291 59.0581
4828 65.75757 50.10529 55.34668
4829 65.77057 52.33062 52.02853
4830 65.78357 62.44739 49.14083
4831 65.79657 35.22582 46.70969
4832 65.80957 38.78354 44.75668
4833 65.82257 49.72358 43.30184
4834 65.83557 44.95488 42.36545
4835 65.84857 43.96479 41.96983
4836 65.86157 42.82103 42.14143
4837 65.87457 36.18862 42.91321
4838 65.88757 47.90784 44.32446
4839 65.90057 32.0666 46.42064
4840 65.91357 47.77534 49.2503
4841 65.92657 35.31197 52.86011
4842 65.93957 50.45808 57.28831
4843 65.95257 51.95657 62.5564
4844 65.96557 69.97977 68.66027
4845 65.97857 84.10968 75.55964
4846 65.99157 84.07416 83.16669
4847 66.00457 94.08253 91.33392
4848 66.01757 79.58809 99.84205
4849 66.03057 109.38536 108.39078
4850 66.04357 124.52913 116.59706
4851 66.05657 131.26218 124.00696
4852 66.06957 149.34022 130.12732
4853 66.08257 144.28767 134.47511
4854 66.09557 154.8609 136.64962
4855 66.10857 151.97783 136.41436
4856 66.12157 145.20997 133.75759
4857 66.13457 145.63582 128.90551
4858 66.14757 128.23666 122.28106
4859 66.16057 125.59601 114.40777
4860 66.17357 118.91213 105.81399
4861 66.18657 95.22448 96.96463
4862 66.19957 73.6444 88.2307
4863 66.21257 67.4847 79.88665
4864 66.22557 72.98434 72.12165
4865 66.23857 60.97727 65.05457
4866 66.25157 56.00041 58.74783
4867 66.26457 50.25451 53.21903
4868 66.27757 42.33377 48.45091
4869 66.29057 44.19073 44.40008
4870 66.30357 39.11542 41.00523
4871 66.31657 38.71457 38.19516
4872 66.32957 31.30769 35.89263
4873 66.34257 28.97643 34.02203
4874 66.35557 37.78619 32.51326
4875 66.36857 34.33331 31.30289
4876 66.38157 33.77422 30.33609
4877 66.39457 33.52392 29.56696
4878 66.40757 28.95438 28.95838
4879 66.42057 25.80168 28.48125
4880 66.43357 25.58952 28.11364
4881 66.44657 25.42076 27.8399
4882 66.45957 30.69528 27.64977
4883 66.47257 31.62583 27.53782
4884 66.48557 27.90201 27.503
4885 66.49857 24.30428 27.54841
4886 66.51157 27.82212 27.68131
4887 66.52457 26.76799 27.91316
4888 66.53757 27.11342 28.25978
4889 66.55057 27.00595 28.7414
4890 66.56357 28.34428 29.38252
4891 66.57657 38.87842 30.21154
4892 66.58957 45.28875 31.25986
4893 66.60257 45.78131 32.56065
4894 66.61557 42.9002 34.14841
4895 66.62857 44.00032 36.05136
4896 66.64157 45.29067 38.29623
4897 66.65457 45.31953 40.90076
4898 66.66757 44.64146 43.87118
4899 66.68057 46.19959 47.198
4900 66.69357 49.68582 50.85424
4901 66.70657 59.28367 54.78932
4902 66.71957 63.37108 58.92165
4903 66.73257 63.27904 63.13474
4904 66.74557 63.75443 67.27181
4905 66.75857 66.6596 71.13774
4906 66.77157 68.31725 74.51455
4907 66.78457 70.11106 77.19566
4908 66.79757 69.28979 79.03375
4909 66.81057 79.49448 79.98423
4910 66.82357 67.26135 80.12086
4911 66.83657 58.66296 79.61272
4912 66.84957 91.00066 78.67556
4913 66.86257 84.98475 77.51949
4914 66.87557 68.25214 76.31126
4915 66.88857 71.90127 75.15547
4916 66.90157 84.47783 74.0887
4917 66.91457 91.78457 73.08239
4918 66.92757 79.12042 72.05295
4919 66.94057 83.96957 70.88208
4920 66.95357 75.07501 69.44845
4921 66.96657 79.79981 67.66576
4922 66.97957 45.75752 65.51319
4923 66.99257 60.29971 63.04439
4924 67.00557 67.30548 60.37199
4925 67.01857 66.86179 57.63828
4926 67.03157 56.2557 54.98756
4927 67.04457 69.28201 52.54889
4928 67.05757 58.5801 50.42982
4929 67.07057 70.28007 48.71371
4930 67.08357 62.41938 47.46724
4931 67.09657 49.16067 46.75264
4932 67.10957 71.46386 46.59889
4933 67.12257 52.19015 47.02643
4934 67.13557 56.06729 48.03935
4935 67.14857 74.95711 49.62404
4936 67.16157 73.29674 51.74744
4937 67.17457 52.95319 54.35463
4938 67.18757 51.20563 57.36544
4939 67.20057 66.03063 60.66972
4940 67.21357 73.95125 64.12158
4941 67.22657 49.40225 67.53409
4942 67.23957 73.35077 70.68012
4943 67.25257 85.56975 73.30138
4944 67.26557 90.77155 75.13848
4945 67.27857 81.55795 75.97224
4946 67.29157 81.00059 75.69504
4947 67.30457 81.00059 74.3142
4948 67.31757 61.79554 71.96353
4949 67.33057 75.37882 68.85969
4950 67.34357 84.15812 65.25029
4951 67.35657 75.26803 61.37169
4952 67.36957 61.75242 57.42612
4953 67.38257 65.19014 53.57529
4954 67.39557 64.29041 49.94294
4955 67.40857 48.7883 46.62127
4956 67.42157 44.32992 43.67513
4957 67.43457 39.04858 41.14745
4958 67.44757 44.52327 39.0628
4959 67.46057 41.16757 37.4307
4960 67.47357 35.22702 36.24849
4961 67.48657 31.64336 35.50382
4962 67.49957 41.08451 35.17656
4963 67.51257 35.57652 35.24016
4964 67.52557 37.53555 35.66237
4965 67.53857 35.99607 36.40517
4966 67.55157 38.67762 37.42292
4967 67.56457 46.53031 38.66298
4968 67.57757 41.12828 40.06189
4969 67.59057 46.46901 41.54319
4970 67.60357 50.00036 43.01519
4971 67.61657 52.05805 44.3708
4972 67.62957 63.81611 45.49186
4973 67.64257 65.67016 46.2609
4974 67.65557 71.21814 46.57901
4975 67.66857 83.40163 46.38863
4976 67.68157 80.36477 45.68836
4977 67.69457 77.87977 44.53256
4978 67.70757 76.5346 43.01611
4979 67.72057 75.00054 41.25151
4980 67.73357 58.29401 39.3486
4981 67.74657 44.06661 37.4022
4982 67.75957 44.30763 35.48771
4983 67.77257 38.0635 33.66148
4984 67.78557 29.77223 31.96336
4985 67.79857 29.09438 30.41959
4986 67.81157 30.53739 29.04531
4987 67.82457 28.36394 27.84409
4988 67.83757 28.06955 26.81746
4989 67.85057 30.00022 25.96205
4990 67.86357 19.55249 25.26451
4991 67.87657 17.28919 24.71166
4992 67.88957 22.17874 24.28859
4993 67.90257 19.87119 23.97641
4994 67.91557 26.12081 23.76734
4995 67.92857 27.86468 23.6424
4996 67.94157 22.24809 23.58759
4997 67.95457 20.42825 23.58751
4998 67.96757 23.92748 23.6282
4999 67.98057 27.59193 23.69516
5000 67.99357 21.82152 23.77339
5001 68.00657 15.16544 23.84786
5002 68.01957 18.51424 23.90476
5003 68.03257 20.63154 23.93323
5004 68.04557 22.15234 23.9271
5005 68.05857 23.20991 23.88565
5006 68.07157 20.37222 23.81339
5007 68.08457 25.65809 23.71868
5008 68.09757 27.95731 23.61247
5009 68.11057 30.00022 23.50736
5010 68.12357 25.81129 23.41703
5011 68.13657 15.13223 23.35587
5012 68.14957 16.9114 23.33871
5013 68.16257 25.38341 23.38049
5014 68.17557 21.2597 23.49628
5015 68.18857 23.49796 23.70098
5016 68.20157 26.08245 24.00948
5017 68.21457 20.22995 24.43615
5018 68.22757 20.34049 24.99436
5019 68.24057 21.14973 25.69571
5020 68.25357 30.99966 26.54915
5021 68.26657 22.61988 27.55978
5022 68.27957 22.6222 28.72765
5023 68.29257 27.95646 30.04628
5024 68.30557 19.9249 31.50116
5025 68.31857 29.39829 33.06792
5026 68.33157 27.54643 34.71018
5027 68.34457 38.69875 36.37712
5028 68.35757 49.75889 37.99899
5029 68.37057 47.22459 39.49723
5030 68.38357 43.9266 40.7717
5031 68.39657 69.63654 41.72152
5032 68.40957 65.10863 42.25882
5033 68.42257 55.49853 42.32833
5034 68.43557 62.0617 41.92208
5035 68.44857 62.79513 41.08171
5036 68.46157 58.25493 39.88711
5037 68.47457 40.77979 38.43718
5038 68.48757 34.04342 36.82945
5039 68.50057 35.97692 35.15407
5040 68.51357 34.00727 33.48527
5041 68.52657 37.96758 31.87511
5042 68.53957 19.34382 30.36286
5043 68.55257 33.58019 28.97502
5044 68.56557 28.22771 27.72763
5045 68.57857 28.0002 26.62822
5046 68.59157 21.40439 25.67749
5047 68.60457 16.32914 24.87091
5048 68.61757 29.82782 24.20017
5049 68.63057 24.6167 23.65453
5050 68.64357 20.39211 23.22205
5051 68.65657 23.56855 22.8906
5052 68.66957 23.11799 22.64874
5053 68.68257 23.87244 22.48636
5054 68.69557 28.31196 22.39516
5055 68.70857 22.18068 22.36875
5056 68.72157 21.84268 22.4028
5057 68.73457 20.33494 22.4954
5058 68.74757 25.75902 22.64671
5059 68.76057 25.37463 22.859
5060 68.77357 20.98585 23.13658
5061 68.78657 30.30851 23.48575
5062 68.79957 30.65113 23.91462
5063 68.81257 23.81525 24.43297
5064 68.82557 16.65772 25.05191
5065 68.83857 23.2863 25.78344
5066 68.85157 24.51344 26.63973
5067 68.86457 29.1344 27.63256
5068 68.87757 30.27668 28.77245
5069 68.89057 30.71385 30.06776
5070 68.90357 28.18536 31.52455
5071 68.91657 24.225 33.14634
5072 68.92957 31.20679 34.93363
5073 68.94257 33.65231 36.88224
5074 68.95557 33.66429 38.9804
5075 68.96857 43.1582 41.20447
5076 68.98157 46.06767 43.5141
5077 68.99457 51.34342 45.8475
5078 69.00757 48.13206 48.11769
5079 69.02057 55.06095 50.21141
5080 69.03357 62.60501 51.99401
5081 69.04657 63.5951 53.32187
5082 69.05957 67.50887 54.06691
5083 69.07257 64.25232 54.14444
5084 69.08557 60.00043 53.53655
5085 69.09857 65.55032 52.29631
5086 69.11157 59.64411 50.5332
5087 69.12457 60.09806 48.38832
5088 69.13757 54.86941 46.00008
5089 69.15057 48.66892 43.49794
5090 69.16357 48.44085 40.98663
5091 69.17657 44.9823 38.54711
5092 69.18957 36.8031 36.23895
5093 69.20257 31.23254 34.10352
5094 69.21557 34.6715 32.16703
5095 69.22857 28.80937 30.44313
5096 69.24157 25.00018 28.93516
5097 69.25457 27.18022 27.63832
5098 69.26757 27.86975 26.54168
5099 69.28057 25.00018 25.62994
5100 69.29357 24.18766 24.88522
5101 69.30657 20.22574 24.28829
5102 69.31957 21.02373 23.81979
5103 69.33257 29.00021 23.46096
5104 69.34557 24.96759 23.19421
5105 69.35857 20.85362 23.00342
5106 69.37157 24.6131 22.87379
5107 69.38457 22.67387 22.79194
5108 69.39757 26.61571 22.74581
5109 69.41057 31.36618 22.72458
5110 69.42357 25.70066 22.71866
5111 69.43657 16.29731 22.71966
5112 69.44957 18.72381 22.72034
5113 69.46257 22.7228 22.71502
5114 69.47557 22.26761 22.69792
5115 69.48857 23.77277 22.66625
5116 69.50157 23.27636 22.6189
5117 69.51457 17.13946 22.55716
5118 69.52757 24.22796 22.48446
5119 69.54057 25.43593 22.40581
5120 69.55357 26.58427 22.32677
5121 69.56657 23.61386 22.25327
5122 69.57957 19.6933 22.18874
5123 69.59257 25.75269 22.13753
5124 69.60557 21.34655 22.10257
5125 69.61857 28.0002 22.08608
5126 69.63157 26.81244 22.08968
5127 69.64457 19.5746 22.11471
5128 69.65757 18.15265 22.16225
5129 69.67057 25.29133 22.23326
5130 69.68357 20.43306 22.32806
5131 69.69657 24.68837 22.4487
5132 69.70957 30.46983 22.59824
5133 69.72257 25.54956 22.77864
5134 69.73557 31.58882 22.99253
5135 69.74857 25.76558 23.24556
5136 69.76157 22.34132 23.54447
5137 69.77457 28.57316 23.89815
5138 69.78757 18.2603 24.31801
5139 69.80057 27.11415 24.81838
5140 69.81357 32.99116 25.41683
5141 69.82657 32.00108 26.1344
5142 69.83957 31.01099 26.99562
5143 69.85257 33.9382 28.02832
5144 69.86557 27.21438 29.26298
5145 69.87857 33.71666 30.73191
5146 69.89157 30.20193 32.46601
5147 69.90457 34.69854 34.49874
5148 69.91757 45.2275 36.86105
5149 69.93057 42.321 39.57358
5150 69.94357 59.28877 42.65093
5151 69.95657 56.50042 46.09659
5152 69.96957 57.78058 49.8997
5153 69.98257 54.47972 54.03199
5154 69.99557 79.2379 58.44152
5155 70.00857 76.11785 63.05082
5156 70.02157 72.44926 67.74989
5157 70.03457 82.08668 72.39354
5158 70.04757 98.12078 76.80327
5159 70.06057 98.53868 80.77842
5160 70.07357 95.5684 84.11987
5161 70.08657 92.59813 86.66412
5162 70.09957 91.20973 88.31857
5163 70.11257 105.8401 89.0841
5164 70.12557 130.82071 89.05284
5165 70.13857 118.73236 88.38245
5166 70.15157 109.24443 87.25675
5167 70.16457 108.74214 85.84843
5168 70.17757 111.19513 84.29161
5169 70.19057 104.78548 82.66951
5170 70.20357 114.80985 81.01468
5171 70.21657 118.59746 79.3196
5172 70.22957 119.38443 77.55574
5173 70.24257 124.77397 75.69622
5174 70.25557 107.51416 73.73642
5175 70.26857 104.62113 71.70525
5176 70.28157 103.43589 69.66328
5177 70.29457 90.72534 67.6898
5178 70.30757 82.47143 65.86547
5179 70.32057 89.09155 64.25356
5180 70.33357 95.83808 62.89416
5181 70.34657 82.53947 61.79602
5182 70.35957 67.07416 60.9363
5183 70.37257 76.40304 60.26126
5184 70.38557 71.10766 59.68971
5185 70.39857 55.49731 59.11969
5186 70.41157 58.08311 58.44142
5187 70.42457 59.74209 57.55321
5188 70.43757 57.00041 56.38629
5189 70.45057 51.76811 54.91636
5190 70.46357 49.56692 53.1674
5191 70.47657 54.01398 51.20171
5192 70.48957 54.02646 49.10242
5193 70.50257 42.32897 46.95661
5194 70.51557 40.99968 44.84383
5195 70.52857 46.82671 42.83108
5196 70.54157 46.53855 40.97229
5197 70.55457 48.89301 39.31012
5198 70.56757 41.96236 37.87841
5199 70.58057 41.81699 36.70433
5200 70.59357 42.85869 35.81023
5201 70.60657 34.17052 35.215
5202 70.61957 30.39455 34.93505
5203 70.63257 31.00022 34.98486
5204 70.64557 33.99626 35.37731
5205 70.65857 38.63569 36.12336
5206 70.67157 40.83767 37.2296
5207 70.68457 44.27654 38.70668
5208 70.69757 41.0003 40.5532
5209 70.71057 40.65213 42.76424
5210 70.72357 41.57245 45.32681
5211 70.73657 44.39129 48.21745
5212 70.74957 42.1165 51.39942
5213 70.76257 42.56248 54.81912
5214 70.77557 52.84717 58.4019
5215 70.78857 61.41131 62.04785
5216 70.80157 58.78501 65.62978
5217 70.81457 62.04025 68.99458
5218 70.82757 56.94085 71.97451
5219 70.84057 61.12642 74.40963
5220 70.85357 63.27822 76.17712
5221 70.86657 57.00041 77.21949
5222 70.87957 61.4958 77.558
5223 70.89257 77.40307 77.28357
5224 70.90557 66.70296 76.52904
5225 70.91857 70.16621 75.43498
5226 70.93157 71.1563 74.1209
5227 70.94457 71.56289 72.66882
5228 70.95757 67.77685 71.11209
5229 70.97057 59.74834 69.44587
5230 70.98357 58.23268 67.63496
5231 70.99657 60.74394 65.63303
5232 71.00957 65.45968 63.40383
5233 71.02257 50.74121 60.93966
5234 71.03557 48.30623 58.26902
5235 71.04857 51.0686 55.45137
5236 71.06157 38.62332 52.56308
5237 71.07457 49.37416 49.68168
5238 71.08757 56.52188 46.87443
5239 71.10057 43.73137 44.19315
5240 71.11357 34.204 41.67394
5241 71.12657 45.97914 39.33977
5242 71.13957 43.00891 37.20349
5243 71.15257 31.15358 35.27045
5244 71.16557 35.88679 33.54015
5245 71.17857 37.93505 32.00736
5246 71.19157 40.87272 30.66301
5247 71.20457 23.94409 29.49519
5248 71.21757 32.37668 28.49017
5249 71.23057 30.21703 27.63353
5250 71.24357 23.57547 26.91103
5251 71.25657 23.90807 26.3072
5252 71.26957 27.59214 25.81162
5253 71.28257 21.78367 25.41667
5254 71.29557 20.12199 25.11127
5255 71.30857 24.34138 24.88882
5256 71.32157 26.71684 24.74491
5257 71.33457 23.60653 24.67725
5258 71.34757 13.77666 24.68567
5259 71.36057 15.31443 24.77186
5260 71.37357 21.73081 24.93909
5261 71.38657 20.5739 25.19196
5262 71.39957 24.79319 25.53585
5263 71.41257 27.57804 25.97622
5264 71.42557 16.31505 26.51813
5265 71.43857 22.22924 27.16578
5266 71.45157 33.35116 27.92071
5267 71.46457 33.75247 28.78244
5268 71.47757 21.90999 29.74665
5269 71.49057 23.83561 30.80445
5270 71.50357 28.87827 31.9414
5271 71.51657 36.38666 33.13701
5272 71.52957 34.80214 34.36089
5273 71.54257 33.00024 35.57538
5274 71.55557 33.6801 36.73304
5275 71.56857 34.00025 37.7786
5276 71.58157 30.04007 38.65385
5277 71.59457 21.49906 39.30607
5278 71.60757 34.6453 39.69909
5279 71.62057 37.69748 39.82325
5280 71.63357 34.62061 39.69995
5281 71.64657 31.94798 39.37879
5282 71.65957 30.60076 38.92853
5283 71.67257 29.81898 38.42616
5284 71.68557 25.51596 37.94781
5285 71.69857 34.98683 37.56307
5286 71.71157 35.58714 37.33247
5287 71.72457 30.10214 37.30689
5288 71.73757 32.62337 37.52769
5289 71.75057 39.31158 38.02708
5290 71.76357 40.85093 38.82555
5291 71.77657 42.59677 39.9355
5292 71.78957 45.49792 41.35832
5293 71.80257 43.01854 43.08189
5294 71.81557 46.81007 45.08297
5295 71.82857 46.8187 47.32347
5296 71.84157 44.68947 49.74902
5297 71.85457 54.41513 52.28701
5298 71.86757 57.91123 54.84486
5299 71.88057 55.72599 57.3103
5300 71.89357 60.10785 59.55647
5301 71.90657 63.00046 61.45259
5302 71.91957 64.20542 62.8848
5303 71.93257 67.95918 63.77774
5304 71.94557 68.70956 64.11287
5305 71.95857 62.02519 63.93335
5306 71.97157 61.34436 63.3337
5307 71.98457 67.2401 62.43821
5308 71.99757 65.02696 61.37841
5309 72.01057 66.00373 60.27544
5310 72.02357 60.45478 59.23
5311 72.03657 51.7507 58.31814
5312 72.04957 52.32791 57.59017
5313 72.06257 57.07454 57.07086
5314 72.07557 53.10978 56.75989
5315 72.08857 60.18216 56.63308
5316 72.10157 55.10913 56.64402
5317 72.11457 48.51792 56.73273
5318 72.12757 57.86067 56.83838
5319 72.14057 72.30123 56.90463
5320 72.15357 70.00051 56.90267
5321 72.16657 71.28012 56.83851
5322 72.17957 74.17037 56.75313
5323 72.19257 66.80705 56.713
5324 72.20557 67.65219 56.79527
5325 72.21857 72.57002 57.07332
5326 72.23157 60.34567 57.60552
5327 72.24457 56.23152 58.4295
5328 72.25757 53.72674 59.55846
5329 72.27057 64.26836 60.97958
5330 72.28357 63.76788 62.65238
5331 72.29657 50.62506 64.50674
5332 72.30957 70.06269 66.44028
5333 72.32257 63.69763 68.31995
5334 72.33557 80.16932 69.98522
5335 72.34857 82.22397 71.2579
5336 72.36157 86.74326 71.96638
5337 72.37457 110.85363 71.97384
5338 72.38757 90.24055 71.20638
5339 72.40057 74.55729 69.66877
5340 72.41357 89.90112 67.44077
5341 72.42657 85.82102 64.65591
5342 72.43957 73.8995 61.47274
5343 72.45257 54.09794 58.04911
5344 72.46557 56.95603 54.52561
5345 72.47857 55.04981 51.01791
5346 72.49157 56.93117 47.61629
5347 72.50457 39.80197 44.3876
5348 72.51757 35.21807 41.37876
5349 72.53057 39.67845 38.61971
5350 72.54357 28.8916 36.12646
5351 72.55657 27.08439 33.90339
5352 72.56957 33.34145 31.94535
5353 72.58257 36.68818 30.23982
5354 72.59557 26.3675 28.76872
5355 72.60857 20.61944 27.51079
5356 72.62157 32.99365 26.44125
5357 72.63457 26.43707 25.53619
5358 72.64757 19.92176 24.77186
5359 72.66057 24.01907 24.12608
5360 72.67357 24.17361 23.57893
5361 72.68657 22.36686 23.11406
5362 72.69957 24.42039 22.71484
5363 72.71257 24.20335 22.37012
5364 72.72557 21.63944 22.06992
5365 72.73857 23.33114 21.80625
5366 72.75157 17.09643 21.57274
5367 72.76457 17.27161 21.36438
5368 72.77757 22.48364 21.17711
5369 72.79057 21.05082 21.00781
5370 72.80357 26.54694 20.85404
5371 72.81657 23.26015 20.71383
5372 72.82957 29.47208 20.58619
5373 72.84257 25.33219 20.46864
5374 72.85557 24.74888 20.3607
5375 72.86857 23.96839 20.26145
5376 72.88157 18.99606 20.17011
5377 72.89457 17.65756 20.08598
5378 72.90757 22.53277 20.00845
5379 72.92057 24.36258 19.937
5380 72.93357 20.23403 19.87115
5381 72.94657 15.52903 19.81048
5382 72.95957 13.39224 19.75461
5383 72.97257 20.17543 19.70323
5384 72.98557 20.29594 19.65608
5385 72.99857 17.57824 19.61291
5386 73.01157 19.70473 19.57356
5387 73.02457 18.76701 19.53777
5388 73.03757 17.00012 19.50546
5389 73.05057 15.92321 19.47655
5390 73.06357 17.11427 19.45096
5391 73.07657 19.00014 19.42868
5392 73.08957 17.98272 19.40967
5393 73.10257 15.00495 19.39395
5394 73.11557 15.44449 19.38155
5395 73.12857 21.35288 19.3725
5396 73.14157 20.30969 19.36685
5397 73.15457 15.91838 19.36463
5398 73.16757 19.24622 19.3619
5399 73.18057 22.87877 19.36672
5400 73.19357 24.00017 19.37507
5401 73.20657 22.74175 19.38696
5402 73.21957 21.00015 19.4023
5403 73.23257 18.20265 19.42101
5404 73.24557 15.94874 19.44295
5405 73.25857 20.13958 19.46768
5406 73.27157 22.37006 19.49539
5407 73.28457 21.56024 19.52543
5408 73.29757 17.94994 19.55743
5409 73.31057 17.02057 19.59097
5410 73.32357 20.65132 19.62574
5411 73.33657 20.79695 19.66164
5412 73.34957 15.86254 19.69888
5413 73.36257 20.00014 19.738
5414 73.37557 17.38495 19.77981
5415 73.38857 14.36802 19.82534
5416 73.40157 20.83419 19.87572
5417 73.41457 15.26094 19.93094
5418 73.42757 16.00012 19.99261
5419 73.44057 17.20512 20.06461
5420 73.45357 21.23124 20.14565
5421 73.46657 20.67313 20.23726
5422 73.47957 16.63388 20.3408
5423 73.49257 18.59746 20.45785
5424 73.50557 17.76583 20.59034
5425 73.51857 21.00015 20.74077
5426 73.53157 22.37292 20.91234
5427 73.54457 27.54508 21.10922
5428 73.55757 21.0625 21.33658
5429 73.57057 26.43279 21.60054
5430 73.58357 22.60436 21.90791
5431 73.59657 21.46439 22.26584
5432 73.60957 31.88813 22.68114
5433 73.62257 29.56956 23.1601
5434 73.63557 17.55377 23.70783
5435 73.64857 22.17657 24.32781
5436 73.66157 13.72454 25.0214
5437 73.67457 22.81258 25.78741
5438 73.68757 20.26322 26.62153
5439 73.70057 25.21368 27.51574
5440 73.71357 30.22971 28.45772
5441 73.72657 37.18322 29.42997
5442 73.73957 44.96146 30.40917
5443 73.75257 41.98511 31.36556
5444 73.76557 37.03472 32.26326
5445 73.77857 57.6475 33.0619
5446 73.79157 46.32098 33.7206
5447 73.80457 57.56079 34.204
5448 73.81757 54.18659 34.48941
5449 73.83057 51.16977 34.57263
5450 73.84357 52.86762 34.47005
5451 73.85657 48.38183 34.21618
5452 73.86957 41.60377 33.85763
5453 73.88257 39.16987 33.44616
5454 73.89557 47.04075 33.03357
5455 73.90857 44.46647 32.66503
5456 73.92157 50.1152 32.38306
5457 73.93457 39.77305 32.22155
5458 73.94757 22.63323 32.20828
5459 73.96057 29.28205 32.36998
5460 73.97357 37.67138 32.72253
5461 73.98657 38.1763 33.27866
5462 73.99957 37.18621 34.04634
5463 74.01257 33.78367 35.02746
5464 74.02557 40.94258 36.21955
5465 74.03857 46.13759 37.61418
5466 74.05157 47.00034 39.19671
5467 74.06457 50.05829 40.94539
5468 74.07757 44.96378 42.83042
5469 74.09057 43.74497 44.81326
5470 74.10357 53.55198 46.84729
5471 74.11657 51.20179 48.88081
5472 74.12957 50.43018 50.86307
5473 74.14257 54.52536 52.75342
5474 74.15557 56.69549 54.53066
5475 74.16857 66.59276 56.1992
5476 74.18157 67.62425 57.78757
5477 74.19457 71.98852 59.34125
5478 74.20757 74.34512 60.91021
5479 74.22057 72.06401 62.53606
5480 74.23357 69.72933 64.24218
5481 74.24657 72.12889 66.02642
5482 74.25957 77.07935 67.85706
5483 74.27257 71.73041 69.67139
5484 74.28557 69.98014 71.37397
5485 74.29857 73.75857 72.84346
5486 74.31157 75.00054 73.93932
5487 74.32457 80.66241 74.52044
5488 74.33757 74.98772 74.46769
5489 74.35057 65.36141 73.70851
5490 74.36357 65.07335 72.2337
5491 74.37657 59.15563 70.09952
5492 74.38957 60.74955 67.41268
5493 74.40257 59.38666 64.31272
5494 74.41557 51.00037 60.94745
5495 74.42857 53.4347 57.44902
5496 74.44157 52.1848 53.93211
5497 74.45457 52.20367 50.4887
5498 74.46757 50.60072 47.18896
5499 74.48057 41.65869 44.08388
5500 74.49357 42.62403 41.20819
5501 74.50657 49.41934 38.5829
5502 74.51957 46.4861 36.21765
5503 74.53257 38.85308 34.11309
5504 74.54557 40.2169 32.26089
5505 74.55857 33.28625 30.64818
5506 74.57157 29.37801 29.25741
5507 74.58457 28.89656 28.06839
5508 74.59757 25.21035 27.05968
5509 74.61057 25.82876 26.21017
5510 74.62357 32.6621 25.49829
5511 74.63657 32.00023 24.90519
5512 74.64957 29.13545 24.4134
5513 74.66257 24.54214 24.0075
5514 74.67557 25.01541 23.67416
5515 74.68857 20.02008 23.40209
5516 74.70157 22.77099 23.18183
5517 74.71457 17.53759 23.00324
5518 74.72757 20.29423 22.86584
5519 74.74057 22.75565 22.76205
5520 74.75357 20.19508 22.68888
5521 74.76657 23.54203 22.64424
5522 74.77957 23.53427 22.6256
5523 74.79257 29.20945 22.63282
5524 74.80557 26.81096 22.66604
5525 74.81857 16.27306 22.72619
5526 74.83157 24.9232 22.81501
5527 74.84457 19.66098 22.93521
5528 74.85757 20.39515 23.09059
5529 74.87057 31.2032 23.28618
5530 74.88357 21.69934 23.52838
5531 74.89657 25.35057 23.82513
5532 74.90957 20.88014 24.18495
5533 74.92257 20.22033 24.61802
5534 74.93557 22.08697 25.13497
5535 74.94857 24.07634 25.74672
5536 74.96157 34.36212 26.46403
5537 74.97457 27.48915 27.29709
5538 74.98757 33.82044 28.25496
5539 75.00057 30.50002 29.3448
5540 75.01357 21.40121 30.5713
5541 75.02657 30.84927 31.93586
5542 75.03957 26.44625 33.43565
5543 75.05257 47.82422 35.06271
5544 75.06557 31.00913 36.80269
5545 75.07857 50.81069 38.63363
5546 75.09157 41.19429 40.52456
5547 75.10457 43.91238 42.43434
5548 75.11757 45.92187 44.31153
5549 75.13057 53.60723 46.0961
5550 75.14357 54.00039 47.72418
5551 75.15657 67.96588 49.13609
5552 75.16957 69.92162 50.28643
5553 75.18257 57.24367 51.15316
5554 75.19557 71.32229 51.74207
5555 75.20857 83.69699 52.08443
5556 75.22157 67.37147 52.22864
5557 75.23457 60.64276 52.22997
5558 75.24757 60.86206 52.13832
5559 75.26057 66.11071 51.99606
5560 75.27357 67.84228 51.83471
5561 75.28657 63.0092 51.67822
5562 75.29957 61.17848 51.54805
5563 75.31257 60.18839 51.468
5564 75.32557 64.81325 51.4667
5565 75.33857 61.24715 51.5764
5566 75.35157 51.39507 51.82891
5567 75.36457 65.22056 52.25017
5568 75.37757 60.8508 52.85523
5569 75.39057 55.74274 53.64444
5570 75.40357 61.68421 54.6011
5571 75.41657 53.74223 55.6901
5572 75.42957 61.56541 56.85763
5573 75.44257 63.14888 58.03233
5574 75.45557 45.1288 59.12897
5575 75.46857 42.85177 60.05667
5576 75.48157 49.09926 60.73086
5577 75.49457 53.69333 61.08775
5578 75.50757 56.99037 61.09707
5579 75.52057 47.54586 60.76809
5580 75.53357 40.06982 60.1464
5581 75.54657 47.8704 59.30269
5582 75.55957 46.76374 58.31813
5583 75.57257 47.91031 57.27114
5584 75.58557 49.7927 56.22927
5585 75.59857 50.18819 55.24281
5586 75.61157 49.83236 54.34425
5587 75.62457 47.85218 53.5478
5588 75.63757 47.56451 52.84928
5589 75.65057 40.79498 52.22716
5590 75.66357 37.17763 51.64278
5591 75.67657 44.879 51.0473
5592 75.68957 49.47585 50.38867
5593 75.70257 47.45656 49.61389
5594 75.71557 51.55185 48.68593
5595 75.72857 50.56842 47.58961
5596 75.74157 39.15179 46.33449
5597 75.75457 35.42506 44.95204
5598 75.76757 41.6505 43.48823
5599 75.78057 43.35948 41.9951
5600 75.79357 36.32912 40.52361
5601 75.80657 36.04718 39.11919
5602 75.81957 41.27638 37.81969
5603 75.83257 38.01494 36.65484
5604 75.84557 33.43342 35.64755
5605 75.85857 36.60465 34.8133
5606 75.87157 36.00026 34.16146
5607 75.88457 35.62447 33.6955
5608 75.89757 34.26851 33.41317
5609 75.91057 32.28832 33.30658
5610 75.92357 31.00022 33.36224
5611 75.93657 31.33635 33.56092
5612 75.94957 32.32644 33.87746
5613 75.96257 35.84691 34.28063
5614 75.97557 37.0982 34.73294
5615 75.98857 31.92952 35.19112
5616 76.00157 47.68943 35.60781
5617 76.01457 48.1356 35.93351
5618 76.02757 39.86326 36.12283
5619 76.04057 42.43808 36.14067
5620 76.05357 39.43383 35.96338
5621 76.06657 48.74528 35.5886
5622 76.07957 36.13265 35.03042
5623 76.09257 37.61808 34.31669
5624 76.10557 30.65341 33.48331
5625 76.11857 37.00027 32.56864
5626 76.13157 34.94525 31.60922
5627 76.14457 26.5309 30.63722
5628 76.15757 28.66623 29.67939
5629 76.17057 27.31434 28.75687
5630 76.18357 28.70589 27.88498
5631 76.19657 27.0002 27.07701
5632 76.20957 26.87287 26.33859
5633 76.22257 25.64795 25.67585
5634 76.23557 22.57017 25.08695
5635 76.24857 20.36631 24.57213
5636 76.26157 31.94822 24.13222
5637 76.27457 21.31117 23.76031
5638 76.28757 25.54289 23.45156
5639 76.30057 32.76855 23.20074
5640 76.31357 28.76017 23.00259
5641 76.32657 23.92399 22.85223
5642 76.33957 21.91563 22.7455
5643 76.35257 18.90882 22.67938
5644 76.36557 14.07523 22.65225
5645 76.37857 22.98593 22.66405
5646 76.39157 39.80484 22.71622
5647 76.40457 31.19293 22.81149
5648 76.41757 27.1255 22.95361
5649 76.43057 27.0002 23.14712
5650 76.44357 27.94905 23.39708
5651 76.45657 27.06127 23.70879
5652 76.46957 28.85823 24.08756
5653 76.48257 29.00021 24.53844
5654 76.49557 30.81859 25.06632
5655 76.50857 27.40313 25.67423
5656 76.52157 21.66404 26.36527
5657 76.53457 24.51793 27.14105
5658 76.54757 25.86971 28.00147
5659 76.56057 26.00019 28.94425
5660 76.57357 24.30079 29.96399
5661 76.58657 21.48082 31.05127
5662 76.59957 31.78845 32.19152
5663 76.61257 26.62066 33.36395
5664 76.62557 24.19014 34.54048
5665 76.63857 32.00141 35.68506
5666 76.65157 31.62962 36.75358
5667 76.66457 34.90169 37.69529
5668 76.67757 33.68913 38.45635
5669 76.69057 28.43746 38.98577
5670 76.70357 29.25184 39.24314
5671 76.71657 28.51895 39.20618
5672 76.72957 36.0381 38.87534
5673 76.74257 38.27948 38.27372
5674 76.75557 35.15672 37.44231
5675 76.76857 33.29927 36.43245
5676 76.78157 30.23601 35.29818
5677 76.79457 30.36249 34.09044
5678 76.80757 29.65777 32.85368
5679 76.82057 36.93596 31.62464
5680 76.83357 37.09191 30.4324
5681 76.84657 35.64174 29.29916
5682 76.85957 30.94773 28.24119
5683 76.87257 28.62185 27.27003
5684 76.88557 29.00021 26.39181
5685 76.89857 26.59292 25.61009
5686 76.91157 30.32734 24.92507
5687 76.92457 29.92631 24.3344
5688 76.93757 29.2885 23.83375
5689 76.95057 27.0651 23.41735
5690 76.96357 26.20916 23.07841
5691 76.97657 28.54253 22.80962
5692 76.98957 24.74088 22.60375
5693 77.00257 25.18016 22.45325
5694 77.01557 25.9247 22.35174
5695 77.02857 28.52954 22.29363
5696 77.04157 29.07269 22.27442
5697 77.05457 24.46849 22.29086
5698 77.06757 27.83425 22.33869
5699 77.08057 29.61294 22.42212
5700 77.09357 23.92758 22.53908
5701 77.10657 25.19652 22.69094
5702 77.11957 26.94266 22.88019
5703 77.13257 17.73183 23.1088
5704 77.14557 18.06438 23.38039
5705 77.15857 21.00015 23.69869
5706 77.17157 23.35829 24.068
5707 77.18457 22.786 24.49324
5708 77.19757 19.35886 24.98028
5709 77.21057 27.54313 25.53604
5710 77.22357 30.94014 26.16854
5711 77.23657 29.34366 26.88659
5712 77.24957 28.66608 27.69912
5713 77.26257 26.32381 28.61335
5714 77.27557 24.80428 29.63576
5715 77.28857 23.6456 30.77072
5716 77.30157 33.46959 32.01598
5717 77.31457 36.1484 33.36492
5718 77.32757 30.98578 34.80542
5719 77.34057 21.94366 36.3183
5720 77.35357 23.32175 37.87646
5721 77.36657 36.24456 39.44384
5722 77.37957 36.06274 40.97456
5723 77.39257 36.59171 42.41328
5724 77.40557 48.7858 43.69692
5725 77.41857 45.54471 44.7592
5726 77.43157 39.11581 45.53793
5727 77.44457 50.15231 45.98432
5728 77.45757 43.74922 46.07226
5729 77.47057 50.18564 45.80169
5730 77.48357 42.55091 45.20121
5731 77.49657 49.40376 44.32028
5732 77.50957 39.72983 43.22087
5733 77.52257 38.75217 41.96821
5734 77.53557 43.19251 40.62422
5735 77.54857 36.47284 39.24363
5736 77.56157 32.7648 37.87289
5737 77.57457 39.48636 36.55074
5738 77.58757 33.62154 35.30952
5739 77.60057 29.32934 34.17647
5740 77.61357 33.7766 33.17467
5741 77.62657 30.09221 32.32348
5742 77.63957 31.78375 31.63865
5743 77.65257 26.3665 31.13104
5744 77.66557 39.77279 30.80989
5745 77.67857 26.06354 30.68261
5746 77.69157 35.96431 30.74878
5747 77.70457 39.94625 31.00647
5748 77.71757 36.09396 31.45033
5749 77.73057 39.86693 32.0716
5750 77.74357 30.43277 32.85786
5751 77.75657 32.84073 33.79271
5752 77.76957 19.88333 34.85586
5753 77.78257 22.70817 36.02067
5754 77.79557 36.75654 37.25575
5755 77.80857 44.35051 38.52266
5756 77.82157 46.79485 39.77535
5757 77.83457 47.88769 40.96052
5758 77.84757 41.85833 42.0189
5759 77.86057 46.20539 42.88902
5760 77.87357 47.00034 43.51372
5761 77.88657 58.86795 43.84666
5762 77.89957 51.78496 43.86208
5763 77.91257 43.37751 43.55858
5764 77.92557 51.81559 42.95948
5765 77.93857 41.07198 42.1082
5766 77.95157 34.00972 41.06064
5767 77.96457 46.39956 39.87707
5768 77.97757 50.77864 38.616
5769 77.99057 37.16979 37.32912
5770 78.00357 40.58474 36.06107
5771 78.01657 39.25763 34.84838
5772 78.02957 48.34096 33.72018
5773 78.04257 37.42628 32.69906
5774 78.05557 34.87539 31.8019
5775 78.06857 23.94939 31.0405
5776 78.08157 25.98974 30.42242
5777 78.09457 26.93308 29.95112
5778 78.10757 31.43322 29.62626
5779 78.12057 33.31186 29.44457
5780 78.13357 33.00024 29.40232
5781 78.14657 31.05383 29.49131
5782 78.15957 26.16689 29.7018
5783 78.17257 30.91888 30.02393
5784 78.18557 34.3812 30.44632
5785 78.19857 32.17282 30.9565
5786 78.21157 38.19096 31.54056
5787 78.22457 41.23237 32.18271
5788 78.23757 33.04752 32.8651
5789 78.25057 33.12555 33.5687
5790 78.26357 46.51291 34.27127
5791 78.27657 40.80874 34.9535
5792 78.28957 38.09628 35.59937
5793 78.30257 43.41086 36.19972
5794 78.31557 47.71928 36.75487
5795 78.32857 50.45042 37.27559
5796 78.34157 48.00035 37.78178
5797 78.35457 48.00035 38.29937
5798 78.36757 44.63862 38.85657
5799 78.38057 42.41129 39.48009
5800 78.39357 44.46073 40.19238
5801 78.40657 45.45083 41.00981
5802 78.41957 47.32209 41.94153
5803 78.43257 50.29237 42.98889
5804 78.44557 42.74374 44.14486
5805 78.45857 34.51947 45.39363
5806 78.47157 43.00493 46.71059
5807 78.48457 48.73741 48.06297
5808 78.49757 52.61929 49.41177
5809 78.51057 49.77329 50.71566
5810 78.52357 47.08413 51.93664
5811 78.53657 55.67601 53.04459
5812 78.54957 68.00049 54.02398
5813 78.56257 61.70161 54.87167
5814 78.57557 49.32196 55.59731
5815 78.58857 54.05233 56.21535
5816 78.60157 57.87028 56.73804
5817 78.61457 47.16777 57.16933
5818 78.62757 51.12814 57.50085
5819 78.64057 52.91227 57.70996
5820 78.65357 49.21402 57.76322
5821 78.66657 48.51354 57.62081
5822 78.67957 54.93866 57.24504
5823 78.69257 59.14149 56.60938
5824 78.70557 53.8902 55.70634
5825 78.71857 55.72518 54.55124
5826 78.73157 50.3925 53.18108
5827 78.74457 48.00035 51.64889
5828 78.75757 48.36593 50.01604
5829 78.77057 50.00036 48.34485
5830 78.78357 51.95593 46.69328
5831 78.79657 60.01082 45.11216
5832 78.80957 48.85722 43.64452
5833 78.82257 47.86713 42.32619
5834 78.83557 45.76731 41.18694
5835 78.84857 37.34043 40.25168
5836 78.86157 40.93155 39.54125
5837 78.87457 50.31017 39.07293
5838 78.88757 61.41124 38.86069
5839 78.90057 43.55795 38.91527
5840 78.91357 38.89365 39.2443
5841 78.92657 51.24581 39.8524
5842 78.93957 38.66001 40.74127
5843 78.95257 52.76191 41.90971
5844 78.96557 45.90372 43.35346
5845 78.97857 42.01454 45.06366
5846 78.99157 43.03921 47.02686
5847 79.00457 51.94991 49.22282
5848 79.01757 44.1245 51.62374
5849 79.03057 65.44085 54.18867
5850 79.04357 55.38928 56.87051
5851 79.05657 59.7741 59.6047
5852 79.06957 62.83491 62.31462
5853 79.08257 75.15428 64.91008
5854 79.09557 81.55051 67.29301
5855 79.10857 86.57599 69.36257
5856 79.12157 85.1903 71.02482
5857 79.13457 88.58161 72.20307
5858 79.14757 77.4913 72.84696
5859 79.16057 104.01395 72.93796
5860 79.17357 92.36942 72.49019
5861 79.18657 93.42068 71.54767
5862 79.19957 81.32429 70.17773
5863 79.21257 88.18752 68.46587
5864 79.22557 88.35013 66.50769
5865 79.23857 74.95508 64.40194
5866 79.25157 68.77879 62.24394
5867 79.26457 74.36463 60.12001
5868 79.27757 68.93013 58.10365
5869 79.29057 67.00048 56.2535
5870 79.30357 62.40586 54.61268
5871 79.31657 60.24458 53.20902
5872 79.32957 70.44361 52.05574
5873 79.34257 64.43219 51.15227
5874 79.35557 61.00044 50.48483
5875 79.36857 53.12228 50.02708
5876 79.38157 59.18202 49.74069
5877 79.39457 53.9477 49.5763
5878 79.40757 50.68681 49.4755
5879 79.42057 50.32383 49.37418
5880 79.43357 45.33402 49.20789
5881 79.44657 44.97043 48.9188
5882 79.45957 45.35354 48.46314
5883 79.47257 51.36908 47.81721
5884 79.48557 44.34207 46.97997
5885 79.49857 46.63891 45.97147
5886 79.51157 47.75047 44.82812
5887 79.52457 40.81982 43.59475
5888 79.53757 41.52407 42.32031
5889 79.55057 40.53601 41.05191
5890 79.56357 39.13521 39.83245
5891 79.57657 40.00029 38.69946
5892 79.58957 35.61917 37.68491
5893 79.60257 35.22658 36.81538
5894 79.61557 35.88904 36.11241
5895 79.62857 30.89288 35.59278
5896 79.64157 27.49222 35.26853
5897 79.65457 28.49439 35.14744
5898 79.66757 35.858 35.23232
5899 79.68057 36.2615 35.52139
5900 79.69357 30.93685 36.00804
5901 79.70657 27.41619 36.68065
5902 79.71957 28.279 37.52239
5903 79.73257 36.00026 38.51084
5904 79.74557 36.42892 39.6176
5905 79.75857 33.23158 40.80766
5906 79.77157 29.63552 42.0389
5907 79.78457 36.38828 43.26207
5908 79.79757 39.88833 44.42013
5909 79.81057 38.03292 45.4519
5910 79.82357 45.95365 46.29097
5911 79.83657 51.00037 46.88233
5912 79.84957 53.79507 47.17573
5913 79.86257 56.62447 47.14131
5914 79.87557 49.69382 46.77251
5915 79.88857 50.75299 46.08688
5916 79.90157 55.5682 45.12247
5917 79.91457 39.30004 43.93105
5918 79.92757 38.55105 42.57039
5919 79.94057 36.39991 41.09768
5920 79.95357 37.84015 39.56478
5921 79.96657 32.52044 38.01602
5922 79.97957 34.00025 36.48743
5923 79.99257 34.96133 35.0071
5924 80.00557 36.38778 33.59586
5925 80.01857 33.20464 32.26836
5926 80.03157 38.26345 31.03394
5927 80.04457 27.59898 29.89758
5928 80.05757 26.76297 28.86064
5929 80.07057 28.55397 27.9215
5930 80.08357 21.48756 27.07624
5931 80.09657 20.12679 26.31914
5932 80.10957 27.20847 25.64333
5933 80.12257 31.46007 25.04141
5934 80.13557 16.78735 24.50596
5935 80.14857 21.75758 24.03007
5936 80.16157 19.88877 23.60753
5937 80.17457 19.20306 23.23301
5938 80.18757 21.0917 22.90193
5939 80.20057 22.08179 22.6104
5940 80.21357 23.1436 22.35512
5941 80.22657 25.16931 22.13328
5942 80.23957 27.89759 21.9426
5943 80.25257 25.71047 21.78125
5944 80.26557 18.96866 21.64793
5945 80.27857 18.10792 21.5418
5946 80.29157 22.89538 21.46249
5947 80.30457 14.00529 21.4102
5948 80.31757 16.97552 21.38553
5949 80.33057 20.92769 21.39003
5950 80.34357 21.00015 21.4243
5951 80.35657 14.26573 21.49087
5952 80.36957 16.85654 21.59208
5953 80.38257 23.59574 21.73066
5954 80.39557 16.54165 21.90965
5955 80.40857 17.84492 22.13237
5956 80.42157 13.4377 22.40207
5957 80.43457 23.83094 22.72208
5958 80.44757 28.5708 23.09582
5959 80.46057 31.64843 23.52507
5960 80.47357 20.65351 24.01131
5961 80.48657 32.80669 24.55524
5962 80.49957 29.88229 25.15586
5963 80.51257 23.94173 25.81044
5964 80.52557 21.33384 26.51425
5965 80.53857 21.00015 27.26018
5966 80.55157 25.06682 28.03839
5967 80.56457 28.41045 28.83591
5968 80.57757 29.79371 29.63614
5969 80.59057 36.26893 30.41859
5970 80.60357 22.5268 31.15882
5971 80.61657 27.16524 31.82905
5972 80.62957 30.00022 32.39961
5973 80.64257 30.74415 32.8416
5974 80.65557 30.26621 33.13037
5975 80.66857 36.5171 33.24969
5976 80.68157 39.71447 33.19335
5977 80.69457 43.52163 32.96843
5978 80.70757 38.75115 32.59288
5979 80.72057 42.84464 32.09301
5980 80.73357 33.1844 31.49973
5981 80.74657 34.31088 30.84505
5982 80.75957 30.79865 30.15943
5983 80.77257 30.86886 29.47029
5984 80.78557 33.00024 28.80123
5985 80.79857 30.50045 28.17219
5986 80.81157 32.6904 27.5996
5987 80.82457 30.15931 27.09693
5988 80.83757 24.61939 26.67445
5989 80.85057 24.75603 26.34037
5990 80.86357 27.7263 26.10024
5991 80.87657 31.82749 25.95774
5992 80.88957 29.00037 25.91452
5993 80.90257 23.3633 25.97034
5994 80.91557 23.60729 26.12314
5995 80.92857 22.89699 26.36913
5996 80.94157 26.67485 26.70273
5997 80.95457 30.9883 27.11655
5998 80.96757 26.52786 27.60146
5999 80.98057 25.43085 28.14545
6000 80.99357 24.19043 28.73472
6001 81.00657 25.59582 29.35276
6002 81.01957 29.26189 29.98057
6003 81.03257 30.91142 30.5972
6004 81.04557 29.14217 31.18086
6005 81.05857 22.83995 31.70987
6006 81.07157 26.75001 32.16886
6007 81.08457 23.77973 32.54483
6008 81.09757 24.77846 32.83417
6009 81.11057 29.00021 33.03701
6010 81.12357 29.00021 33.15963
6011 81.13657 34.14038 33.21082
6012 81.14957 39.07067 33.19921
6013 81.16257 30.95826 33.13119
6014 81.17557 31.02467 33.00945
6015 81.18857 35.32775 32.83312
6016 81.20157 36.63542 32.59862
6017 81.21457 38.00027 32.30151
6018 81.22757 40.68002 31.93876
6019 81.24057 44.40983 31.51024
6020 81.25357 39.11195 31.02312
6021 81.26657 44.68035 30.48661
6022 81.27957 46.30499 29.91754
6023 81.29257 32.22855 29.33274
6024 81.30557 39.00028 28.75069
6025 81.31857 40.59462 28.18911
6026 81.33157 42.73262 27.66395
6027 81.34457 31.41609 27.18892
6028 81.35757 31.21808 26.7754
6029 81.37057 25.50499 26.43252
6030 81.38357 29.32742 26.16738
6031 81.39657 19.35593 25.9852
6032 81.40957 30.3668 25.8895
6033 81.42257 26.55487 25.88212
6034 81.43557 23.16901 25.96333
6035 81.44857 18.38597 26.13172
6036 81.46157 20.64406 26.38432
6037 81.47457 19.63185 26.71591
6038 81.48757 32.90137 27.12027
6039 81.50057 31.37757 27.59052
6040 81.51357 25.79054 28.11527
6041 81.52657 34.23992 28.68163
6042 81.53957 24.41462 29.27389
6043 81.55257 30.80306 29.87316
6044 81.56557 26.96082 30.45725
6045 81.57857 25.97073 31.00094
6046 81.59157 25.15655 31.47697
6047 81.60457 33.03876 31.85781
6048 81.61757 36.99907 32.1184
6049 81.63057 36.01047 32.23928
6050 81.64357 29.14111 32.20949
6051 81.65657 34.81999 32.02823
6052 81.66957 27.31987 31.70485
6053 81.68257 29.85059 31.25695
6054 81.69557 33.76109 30.70766
6055 81.70857 24.69722 30.08166
6056 81.72157 31.36327 29.40379
6057 81.73457 22.89551 28.6963
6058 81.74757 31.00573 27.97831
6059 81.76057 21.31252 27.26565
6060 81.77357 20.00014 26.57104
6061 81.78657 22.61258 25.90453
6062 81.79957 21.27837 25.2738
6063 81.81257 18.44721 24.68448
6064 81.82557 23.8876 24.14033
6065 81.83857 23.33788 23.64335
6066 81.85157 17.25151 23.19389
6067 81.86457 24.11333 22.79086
6068 81.87757 22.79456 22.43181
6069 81.89057 19.62569 22.11325
6070 81.90357 15.87383 21.83087
6071 81.91657 16.54343 21.57989
6072 81.92957 17.00012 21.35547
6073 81.94257 18.50378 21.153
6074 81.95557 19.00014 20.96849
6075 81.96857 14.60813 20.79873
6076 81.98157 11.55592 20.64132
6077 81.99457 13.13659 20.49192
6078 82.00757 21.02266 20.35503
6079 82.02057 18.46145 20.22754
6080 82.03357 21.45952 20.10866
6081 82.04657 13.24001 19.99843
6082 82.05957 13.30082 19.8967
6083 82.07257 18.61084 19.80332
6084 82.08557 20.00014 19.71815
6085 82.09857 18.1016 19.64102
6086 82.11157 18.86893 19.57175
6087 82.12457 19.38713 19.51012
6088 82.13757 21.41256 19.45594
6089 82.15057 19.44103 19.40896
6090 82.16357 21.08304 19.36893
6091 82.17657 17.69322 19.33508
6092 82.18957 17.50765 19.30738
6093 82.20257 16.01839 19.28701
6094 82.21557 16.349 19.27284
6095 82.22857 20.00014 19.26477
6096 82.24157 21.04771 19.26277
6097 82.25457 19.43082 19.26686
6098 82.26757 14.98431 19.27715
6099 82.28057 14.97625 19.29385
6100 82.29357 16.516 19.31726
6101 82.30657 15.52591 19.34792
6102 82.31957 21.03592 19.38606
6103 82.33257 24.81956 19.43246
6104 82.34557 19.6563 19.48781
6105 82.35857 16.69823 19.55316
6106 82.37157 17.12037 19.62889
6107 82.38457 18.75773 19.71594
6108 82.39757 21.04234 19.81529
6109 82.41057 23.45144 19.92775
6110 82.42357 21.07526 20.05406
6111 82.43657 23.75333 20.19482
6112 82.44957 17.81278 20.35047
6113 82.46257 17.19192 20.52118
6114 82.47557 21.27651 20.70684
6115 82.48857 19.67421 20.90698
6116 82.50157 23.97487 21.12069
6117 82.51457 27.57512 21.34661
6118 82.52757 27.94952 21.58279
6119 82.54057 19.52437 21.82668
6120 82.55357 16.85584 22.07504
6121 82.56657 21.75339 22.3239
6122 82.57957 26.87693 22.56862
6123 82.59257 21.51114 22.80394
6124 82.60557 23.49133 23.02424
6125 82.61857 25.47151 23.22392
6126 82.63157 24.51695 23.39796
6127 82.64457 15.35261 23.5426
6128 82.65757 16.29481 23.65628
6129 82.67057 28.6082 23.73903
6130 82.68357 25.32539 23.79411
6131 82.69657 18.1763 23.8269
6132 82.70957 20.33021 23.84448
6133 82.72257 25.5931 23.85501
6134 82.73557 19.75728 23.86713
6135 82.74857 30.68279 23.88962
6136 82.76157 33.73426 23.93117
6137 82.77457 24.76681 24.00033
6138 82.78757 22.35955 24.10569
6139 82.80057 17.38754 24.25597
6140 82.81357 20.82627 24.46008
6141 82.82657 19.5393 24.72724
6142 82.83957 25.79886 25.06696
6143 82.85257 23.40052 25.48902
6144 82.86557 29.95294 26.00335
6145 82.87857 28.92548 26.61998
6146 82.89157 27.43936 27.34884
6147 82.90457 42.80745 28.19949
6148 82.91757 31.93167 29.17997
6149 82.93057 23.02097 30.30029
6150 82.94357 33.86575 31.56619
6151 82.95657 29.11092 32.98257
6152 82.96957 42.55151 34.55197
6153 82.98257 34.37799 36.27393
6154 82.99557 40.63709 38.14421
6155 83.00857 44.75312 40.15403
6156 83.02157 54.28322 42.2891
6157 83.03457 43.06153 44.52898
6158 83.04757 46.5426 46.84722
6159 83.06057 52.39161 49.20847
6160 83.07357 51.22312 51.57343
6161 83.08657 56.27266 53.89761
6162 83.09957 72.6388 56.13433
6163 83.11257 68.12947 58.23746
6164 83.12557 61.0577 60.16365
6165 83.13857 64.1957 61.87365
6166 83.15157 61.68391 63.33207
6167 83.16457 71.65035 64.50636
6168 83.17757 68.33537 65.36469
6169 83.19057 64.6023 65.8766
6170 83.20357 68.73733 66.01458
6171 83.21657 60.64574 65.75745
6172 83.22957 58.00042 65.09681
6173 83.24257 56.48095 64.0414
6174 83.25557 68.74731 62.61958
6175 83.26857 55.98276 60.87814
6176 83.28157 47.8104 58.87783
6177 83.29457 51.32078 56.6869
6178 83.30757 43.76833 54.37241
6179 83.32057 47.00272 52.0036
6180 83.33357 36.19381 49.63578
6181 83.34657 36.12393 47.31716
6182 83.35957 33.6363 45.08673
6183 83.37257 32.32139 42.9748
6184 83.38557 39.50691 41.00453
6185 83.39857 46.20407 39.19123
6186 83.41157 46.71194 37.54635
6187 83.42457 44.13931 36.07655
6188 83.43757 41.16903 34.78461
6189 83.45057 32.79416 33.67087
6190 83.46357 35.08735 32.73353
6191 83.47657 33.03212 31.96895
6192 83.48957 31.99556 31.3721
6193 83.50257 28.8309 30.93677
6194 83.51557 26.75485 30.65576
6195 83.52857 32.24633 30.52101
6196 83.54157 31.81362 30.524
6197 83.55457 29.5214 30.65458
6198 83.56757 35.62424 30.90208
6199 83.58057 34.48262 31.25531
6200 83.59357 29.96598 31.70317
6201 83.60657 37.29706 32.23107
6202 83.61957 37.81255 32.82413
6203 83.63257 34.30873 33.46511
6204 83.64557 36.54848 34.13649
6205 83.65857 37.76774 34.82005
6206 83.67157 40.43224 35.49818
6207 83.68457 38.46806 36.15521
6208 83.69757 37.88512 36.77862
6209 83.71057 36.77159 37.35978
6210 83.72357 36.45379 37.89384
6211 83.73657 50.677 38.37881
6212 83.74957 51.27576 38.81408
6213 83.76257 48.26326 39.19895
6214 83.77557 48.35826 39.53152
6215 83.78857 41.08474 39.8085
6216 83.80157 44.33791 40.02589
6217 83.81457 38.67739 40.18048
6218 83.82757 39.87811 40.27158
6219 83.84057 43.09114 40.30243
6220 83.85357 38.65515 40.27801
6221 83.86657 33.00024 40.21562
6222 83.87957 33.54686 40.12642
6223 83.89257 36.31724 40.02477
6224 83.90557 40.00029 39.92314
6225 83.91857 38.29532 39.83045
6226 83.93157 36.50502 39.75081
6227 83.94457 45.98671 39.68276
6228 83.95757 40.71086 39.61918
6229 83.97057 46.59253 39.54755
6230 83.98357 45.97029 39.45097
6231 83.99657 46.5029 39.30985
6232 84.00957 33.78681 39.10436
6233 84.02257 46.01486 38.81731
6234 84.03557 43.00661 38.4372
6235 84.04857 52.26739 37.96032
6236 84.06157 41.4623 37.39164
6237 84.07457 38.74779 36.74417
6238 84.08757 44.00032 36.037
6239 84.10057 43.79081 35.2927
6240 84.11357 41.43126 34.53481
6241 84.12657 34.98115 33.78609
6242 84.13957 25.50039 33.06646
6243 84.15257 43.47955 32.3933
6244 84.16557 36.55207 31.78065
6245 84.17857 45.41188 31.23978
6246 84.19157 32.82349 30.77921
6247 84.20457 28.02564 30.40483
6248 84.21757 29.09333 30.12024
6249 84.23057 34.9442 29.92702
6250 84.24357 25.04343 29.82422
6251 84.25657 26.97172 29.80925
6252 84.26957 25.04849 29.87754
6253 84.28257 33.69362 30.0224
6254 84.29557 28.26411 30.23514
6255 84.30857 29.89242 30.50498
6256 84.32157 30.93641 30.81907
6257 84.33457 35.63161 31.16274
6258 84.34757 32.33481 31.51999
6259 84.36057 39.25181 31.87432
6260 84.37357 40.00029 32.21009
6261 84.38657 43.54676 32.51401
6262 84.39957 34.3566 32.77673
6263 84.41257 40.80132 32.99392
6264 84.42557 45.42779 33.1666
6265 84.43857 38.37773 33.30061
6266 84.45157 26.95577 33.40521
6267 84.46457 37.38383 33.49145
6268 84.47757 35.91714 33.57046
6269 84.49057 30.96668 33.65221
6270 84.50357 41.95221 33.74458
6271 84.51657 36.34459 33.85307
6272 84.52957 28.56146 33.98081
6273 84.54257 29.30136 34.12883
6274 84.55557 36.81447 34.29669
6275 84.56857 47.96697 34.48323
6276 84.58157 51.00037 34.68748
6277 84.59457 37.17988 34.90956
6278 84.60757 33.43519 35.15143
6279 84.62057 28.33973 35.41734
6280 84.63357 30.88373 35.71399
6281 84.64657 37.12664 36.04846
6282 84.65957 46.45629 36.4294
6283 84.67257 41.98552 36.86477
6284 84.68557 34.71033 37.36007
6285 84.69857 39.48097 37.91921
6286 84.71157 36.61873 38.54276
6287 84.72457 36.14146 39.22768
6288 84.73757 41.09192 39.96684
6289 84.75057 33.2657 40.74859
6290 84.76357 41.36415 41.55663
6291 84.77657 44.52596 42.3702
6292 84.78957 39.42162 43.16514
6293 84.80257 45.82531 43.91502
6294 84.81557 52.67688 44.59442
6295 84.82857 40.27733 45.18114
6296 84.84157 30.61723 45.65884
6297 84.85457 39.40752 46.01849
6298 84.86757 47.03869 46.25831
6299 84.88057 51.05592 46.38216
6300 84.89357 51.50366 46.39672
6301 84.90657 46.55319 46.30853
6302 84.91957 48.31597 46.1215
6303 84.93257 48.77397 45.8355
6304 84.94557 47.67781 45.44639
6305 84.95857 52.45015 44.94746
6306 84.97157 52.12067 44.33187
6307 84.98457 50.14049 43.59561
6308 84.99757 51.10049 42.73994
6309 85.01057 53.18017 41.77315
6310 85.02357 47.19802 40.71044
6311 85.03657 41.56141 39.57288
6312 85.04957 52.36837 38.38445
6313 85.06257 64.14822 37.17042
6314 85.07557 56.67401 35.95492
6315 85.08857 42.68918 34.75946
6316 85.10157 32.70375 33.60229
6317 85.11457 34.34631 32.49816
6318 85.12757 29.71672 31.45857
6319 85.14057 30.73172 30.49217
6320 85.15357 39.60237 29.60518
6321 85.16657 37.50674 28.80185
6322 85.17957 28.43778 28.08483
6323 85.19257 28.08539 27.45554
6324 85.20557 28.12499 26.91445
6325 85.21857 21.25749 26.46129
6326 85.23157 25.24174 26.0953
6327 85.24457 27.62166 25.81536
6328 85.25757 31.66989 25.62018
6329 85.27057 26.78839 25.50833
6330 85.28357 24.38503 25.47837
6331 85.29657 19.72794 25.52894
6332 85.30957 25.72575 25.6587
6333 85.32257 19.65585 25.86639
6334 85.33557 20.10917 26.1508
6335 85.34857 29.02008 26.51072
6336 85.36157 19.42417 26.94486
6337 85.37457 28.26518 27.4517
6338 85.38757 30.36794 28.02939
6339 85.40057 33.22556 28.67538
6340 85.41357 34.69202 29.38631
6341 85.42657 32.09306 30.15768
6342 85.43957 33.16606 30.98351
6343 85.45257 34.05128 31.85658
6344 85.46557 22.88332 32.76653
6345 85.47857 35.78759 33.70266
6346 85.49157 32.56252 34.65278
6347 85.50457 44.46692 35.60437
6348 85.51757 29.09757 36.54592
6349 85.53057 34.0778 37.46809
6350 85.54357 40.02137 38.36452
6351 85.55657 46.95191 39.23208
6352 85.56957 31.26956 40.07015
6353 85.58257 48.51888 40.8792
6354 85.59557 32.62351 41.65892
6355 85.60857 40.58109 42.40629
6356 85.62157 40.05678 43.11317
6357 85.63457 35.3323 43.7683
6358 85.64757 40.54235 44.35221
6359 85.66057 32.77638 44.84099
6360 85.67357 33.80794 45.20688
6361 85.68657 40.25781 45.42099
6362 85.69957 39.23225 45.45685
6363 85.71257 41.62261 45.29426
6364 85.72557 35.08676 44.92278
6365 85.73857 41.68874 44.34378
6366 85.75157 37.08977 43.57063
6367 85.76457 30.99358 42.62692
6368 85.77757 29.17568 41.54326
6369 85.79057 42.03409 40.35372
6370 85.80357 31.32039 39.09251
6371 85.81657 35.15329 37.79153
6372 85.82957 34.64565 36.47896
6373 85.84257 33.22529 35.17864
6374 85.85557 33.00024 33.91004
6375 85.86857 28.46948 32.68865
6376 85.88157 30.72625 31.52659
6377 85.89457 32.73553 30.43237
6378 85.90757 28.64795 29.41218
6379 85.92057 25.56926 28.47013
6380 85.93357 26.41128 27.60827
6381 85.94657 29.0871 26.82703
6382 85.95957 30.68594 26.12549
6383 85.97257 28.97281 25.50164
6384 85.98557 25.33664 24.95258
6385 85.99857 22.68822 24.47483
6386 86.01157 22.64622 24.06451
6387 86.02457 20.45558 23.71728
6388 86.03757 28.39359 23.42869
6389 86.05057 25.37183 23.19661
6390 86.06357 19.39374 23.01686
6391 86.07657 22.57905 22.88577
6392 86.08957 26.17332 22.80113
6393 86.10257 28.73016 22.761
6394 86.11557 27.73326 22.76403
6395 86.12857 23.77289 22.80948
6396 86.14157 23.09398 22.89715
6397 86.15457 24.53717 23.02733
6398 86.16757 30.27098 23.20078
6399 86.18057 27.24279 23.41856
6400 86.19357 22.02914 23.68192
6401 86.20657 22.01084 23.99233
6402 86.21957 20.00014 24.35111
6403 86.23257 23.82018 24.7594
6404 86.24557 28.0002 25.21799
6405 86.25857 25.71183 25.72709
6406 86.27157 23.44793 26.28326
6407 86.28457 24.43802 26.89081
6408 86.29757 24.57225 27.54414
6409 86.31057 25.25421 28.23916
6410 86.32357 26.184 28.97027
6411 86.33657 27.78746 29.73025
6412 86.34957 31.2237 30.51033
6413 86.36257 29.24351 31.30061
6414 86.37557 29.84239 32.08958
6415 86.38857 30.8491 32.86581
6416 86.40157 33.62374 33.61755
6417 86.41457 41.25863 34.33323
6418 86.42757 32.65779 35.0015
6419 86.44057 32.40593 35.61115
6420 86.45357 33.63442 36.15097
6421 86.46657 41.00999 36.61001
6422 86.47957 35.15672 36.97833
6423 86.49257 34.64985 37.24776
6424 86.50557 30.30878 37.41415
6425 86.51857 42.25968 37.47878
6426 86.53157 40.7552 37.44921
6427 86.54457 37.11429 37.33946
6428 86.55757 45.16333 37.16905
6429 86.57057 40.07327 36.96133
6430 86.58357 41.90816 36.74141
6431 86.59657 35.59465 36.53422
6432 86.60957 40.48522 36.36295
6433 86.62257 34.35919 36.248
6434 86.63557 35.83071 36.20636
6435 86.64857 35.47917 36.25136
6436 86.66157 38.7489 36.39251
6437 86.67457 42.30126 36.63552
6438 86.68757 38.38996 36.98223
6439 86.70057 40.28042 37.43057
6440 86.71357 36.21096 37.97441
6441 86.72657 44.79854 38.60345
6442 86.73957 35.80493 39.30302
6443 86.75257 52.95624 40.05423
6444 86.76557 41.84515 40.83332
6445 86.77857 52.09305 41.61342
6446 86.79157 38.25314 42.36388
6447 86.80457 42.87833 43.05297
6448 86.81757 39.75434 43.64942
6449 86.83057 32.43763 44.12427
6450 86.84357 52.88033 44.4538
6451 86.85657 42.00929 44.62105
6452 86.86957 50.91999 44.61714
6453 86.88257 46.09456 44.4416
6454 86.89557 37.25912 44.10191
6455 86.90857 40.84559 43.61214
6456 86.92157 44.80596 42.99119
6457 86.93457 44.05882 42.26051
6458 86.94757 48.65825 41.44198
6459 86.96057 42.54866 40.55614
6460 86.97357 46.55908 39.62101
6461 86.98657 35.27642 38.65162
6462 86.99957 27.75677 37.6602
6463 87.01257 38.46633 36.65673
6464 87.02557 35.63981 35.64991
6465 87.03857 38.44897 34.64794
6466 87.05157 38.14802 33.65916
6467 87.06457 34.63088 32.69211
6468 87.07757 35.66512 31.75545
6469 87.09057 31.06514 30.85748
6470 87.10357 34.06324 30.00569
6471 87.11657 32.59218 29.20628
6472 87.12957 33.58578 28.46399
6473 87.14257 37.13168 27.78198
6474 87.15557 33.36261 27.16193
6475 87.16857 29.71114 26.60417
6476 87.18157 32.01267 26.10789
6477 87.19457 27.79785 25.67134
6478 87.20757 31.13317 25.29197
6479 87.22057 31.5535 24.96663
6480 87.23357 21.01187 24.6916
6481 87.24657 23.33197 24.46276
6482 87.25957 26.69381 24.27557
6483 87.27257 29.73503 24.12521
6484 87.28557 28.30505 24.00621
6485 87.29857 27.0002 23.91325
6486 87.31157 23.73038 23.84269
6487 87.32457 20.71206 23.78868
6488 87.33757 18.73188 23.74676
6489 87.35057 24.24231 23.71311
6490 87.36357 24.92869 23.68458
6491 87.37657 23.00017 23.65877
6492 87.38957 21.21675 23.63384
6493 87.40257 23.50749 23.60836
6494 87.41557 30.02268 23.58114
6495 87.42857 25.09406 23.55101
6496 87.44157 23.43863 23.51665
6497 87.45457 23.18592 23.47691
6498 87.46757 22.67505 23.43168
6499 87.48057 22.37485 23.38004
6500 87.49357 20.00014 23.32218
6501 87.50657 25.55775 23.25903
6502 87.51957 24.06572 23.19233
6503 87.53257 23.31041 23.12453
6504 87.54557 23.34334 23.05861
6505 87.55857 17.86242 22.99789
6506 87.57157 22.27845 22.9458
6507 87.58457 21.43421 22.90572
6508 87.59757 21.35843 22.88088
6509 87.61057 25.29653 22.8743
6510 87.62357 20.08816 22.88882
6511 87.63657 15.58531 22.92705
6512 87.64957 16.97806 22.9915
6513 87.66257 20.38582 23.08454
6514 87.67557 20.24863 23.20846
6515 87.68857 17.9026 23.36356
6516 87.70157 18.49162 23.55588
6517 87.71457 21.2701 23.78561
6518 87.72757 20.68892 24.0548
6519 87.74057 26.00019 24.36542
6520 87.75357 26.31646 24.71928
6521 87.76657 24.85572 25.11807
6522 87.77957 19.11083 25.56329
6523 87.79257 22.73059 26.05625
6524 87.80557 35.06401 26.59811
6525 87.81857 28.93344 27.19011
6526 87.83157 27.28408 27.83324
6527 87.84457 31.49395 28.52851
6528 87.85757 31.57855 29.27681
6529 87.87057 26.77316 30.07885
6530 87.88357 26.21731 30.93477
6531 87.89657 26.37859 31.84404
6532 87.90957 24.98661 32.80515
6533 87.92257 28.62546 33.81522
6534 87.93557 28.2424 34.86973
6535 87.94857 34.50287 35.96195
6536 87.96157 38.57654 37.08224
6537 87.97457 45.52322 38.22128
6538 87.98757 38.10264 39.36422
6539 88.00057 43.84939 40.4952
6540 88.01357 40.01113 41.59684
6541 88.02657 69.7844 42.65101
6542 88.03957 67.70608 43.63965
6543 88.05257 65.88269 44.54538
6544 88.06557 73.98256 45.35194
6545 88.07857 61.79527 46.04446
6546 88.09157 59.70214 46.60982
6547 88.10457 69.93217 47.03707
6548 88.11757 50.27568 47.31849
6549 88.13057 81.82821 47.45074
6550 88.14357 75.66186 47.43603
6551 88.15657 57.98262 47.28252
6552 88.16957 56.00246 47.00399
6553 88.18257 54.02228 46.61839
6554 88.19557 53.02124 46.14586
6555 88.20857 54.93885 45.60653
6556 88.22157 43.48858 45.01852
6557 88.23457 41.1015 44.39655
6558 88.24757 43.81876 43.7511
6559 88.26057 38.42288 43.08822
6560 88.27357 38.91993 42.40979
6561 88.28657 40.81977 41.71429
6562 88.29957 39.20064 40.99787
6563 88.31257 44.33976 40.25567
6564 88.32557 40.60034 39.48336
6565 88.33857 35.64988 38.67845
6566 88.35157 29.83925 37.8416
6567 88.36457 34.95197 36.97597
6568 88.37757 36.8406 36.09034
6569 88.39057 37.83069 35.1936
6570 88.40357 33.89774 34.29672
6571 88.41657 36.24261 33.41079
6572 88.42957 31.39553 32.5462
6573 88.44257 26.04641 31.71175
6574 88.45557 25.78103 30.91451
6575 88.46857 30.62578 30.1595
6576 88.48157 33.52226 29.44998
6577 88.49457 24.23593 28.78753
6578 88.50757 20.25897 28.17223
6579 88.52057 21.46269 27.60297
6580 88.53357 27.04965 27.07761
6581 88.54657 26.86589 26.59329
6582 88.55957 23.19409 26.14668
6583 88.57257 25.45821 25.7343
6584 88.58557 29.72698 25.35278
6585 88.59857 26.29776 24.99911
6586 88.61157 34.59002 24.67083
6587 88.62457 35.43664 24.36612
6588 88.63757 29.79006 24.08373
6589 88.65057 27.36808 23.82299
6590 88.66357 22.64476 23.58356
6591 88.67657 20.00014 23.36534
6592 88.68957 24.20108 23.16838
6593 88.70257 26.40832 22.99276
6594 88.71557 25.41822 22.83858
6595 88.72857 22.71199 22.70596
6596 88.74157 19.87589 22.59502
6597 88.75457 19.55236 22.50595
6598 88.76757 20.54245 22.43904
6599 88.78057 19.40299 22.39462
6600 88.79357 19.04508 22.37315
6601 88.80657 23.07549 22.37519
6602 88.81957 22.48169 22.40143
6603 88.83257 22.44923 22.45266
6604 88.84557 23.58613 22.52982
6605 88.85857 25.72913 22.63391
6606 88.87157 26.3704 22.76608
6607 88.88457 24.62469 22.92754
6608 88.89757 22.35293 23.11956
6609 88.91057 14.43334 23.3434
6610 88.92357 15.84675 23.60024
6611 88.93657 18.65375 23.89116
6612 88.94957 21.00015 24.21698
6613 88.96257 21.00015 24.57821
6614 88.97557 21.76748 24.97509
6615 88.98857 20.38394 25.40728
6616 89.00157 18.91077 25.87385
6617 89.01457 22.93842 26.37316
6618 89.02757 21.00015 26.90266
6619 89.04057 24.00693 27.4587
6620 89.05357 29.67605 28.03632
6621 89.06657 27.42893 28.62911
6622 89.07957 24.60886 29.22891
6623 89.09257 27.17789 29.82572
6624 89.10557 28.86217 30.40761
6625 89.11857 26.00019 30.96077
6626 89.13157 26.79423 31.46984
6627 89.14457 27.72638 31.91853
6628 89.15757 24.97957 32.29071
6629 89.17057 26.59059 32.5717
6630 89.18357 21.77514 32.74963
6631 89.19657 23.79652 32.81675
6632 89.20957 30.51202 32.77287
6633 89.22257 19.73397 32.62079
6634 89.23557 30.44414 32.36938
6635 89.24857 29.93009 32.03146
6636 89.26157 37.51052 31.62231
6637 89.27457 29.06653 31.1582
6638 89.28757 24.00017 30.65508
6639 89.30057 23.18547 30.1277
6640 89.31357 18.75535 29.58906
6641 89.32657 23.88422 29.05022
6642 89.33957 22.68205 28.52025
6643 89.35257 21.53813 28.00634
6644 89.36557 34.10367 27.51407
6645 89.37857 15.29709 27.04757
6646 89.39157 30.20368 26.60987
6647 89.40457 19.22599 26.20314
6648 89.41757 22.90707 25.82901
6649 89.43057 21.00015 25.4888
6650 89.44357 21.24062 25.18376
6651 89.45657 29.81538 24.91519
6652 89.46957 19.02769 24.6845
6653 89.48257 22.988 24.49319
6654 89.49557 18.06491 24.34281
6655 89.50857 21.90867 24.23489
6656 89.52157 24.90182 24.17093
6657 89.53457 14.46982 24.15229
6658 89.54757 21.57922 24.18024
6659 89.56057 18.25026 24.25591
6660 89.57357 24.49305 24.38027
6661 89.58657 21.3296 24.55413
6662 89.59957 19.18469 24.77801
6663 89.61257 19.89795 25.05228
6664 89.62557 22.66384 25.37686
6665 89.63857 29.14606 25.75131
6666 89.65157 30.86829 26.17469
6667 89.66457 20.70237 26.64545
6668 89.67757 27.48253 27.16131
6669 89.69057 28.16189 27.71913
6670 89.70357 23.85816 28.31475
6671 89.71657 29.54812 28.94277
6672 89.72957 16.4458 29.5964
6673 89.74257 27.37604 30.26726
6674 89.75557 31.77038 30.94521
6675 89.76857 34.33499 31.61837
6676 89.78157 31.9269 32.27321
6677 89.79457 32.51707 32.89499
6678 89.80757 34.49725 33.46833
6679 89.82057 40.1704 33.97856
6680 89.83357 36.89956 34.41248
6681 89.84657 38.59406 34.75988
6682 89.85957 48.50645 35.01441
6683 89.87257 42.21533 35.17403
6684 89.88557 40.06733 35.24083
6685 89.89857 38.96299 35.22023
6686 89.91157 29.30085 35.11984
6687 89.92457 40.8227 34.94826
6688 89.93757 47.05229 34.71405
6689 89.95057 46.00033 34.42519
6690 89.96357 40.96412 34.08897
6691 89.97657 42.33755 33.71218
6692 89.98957 46.21972 33.30172
6693 90.00257 44.00144 32.865
6694 90.01557 36.10165 32.41043
6695 90.02857 41.27944 31.94737
6696 90.04157 42.29999 31.48606
6697 90.05457 34.63955 31.03708
6698 90.06757 40.25331 30.6109
6699 90.08057 34.03337 30.21736
6700 90.09357 25.65204 29.86527
6701 90.10657 31.12296 29.56067
6702 90.11957 32.97916 29.3127
6703 90.13257 32.00023 29.12457
6704 90.14557 28.56523 28.99958
6705 90.15857 27.88498 28.93965
6706 90.17157 29.11669 28.94542
6707 90.18457 30.68795 29.01624
6708 90.19757 31.84287 29.15018
6709 90.21057 38.14641 29.34405
6710 90.22357 42.80711 29.59338
6711 90.23657 34.9494 29.89231
6712 90.24957 32.82937 30.23361
6713 90.26257 23.59869 30.60849
6714 90.27557 24.17486 31.0069
6715 90.28857 25.61854 31.41704
6716 90.30157 26.85885 31.82582
6717 90.31457 31.44749 32.21906
6718 90.32757 38.9269 32.58204
6719 90.34057 49.71029 32.90026
6720 90.35357 44.36647 33.16048
6721 90.36657 30.8661 33.35185
6722 90.37957 39.31253 33.46691
6723 90.39257 40.60495 33.50248
6724 90.40557 42.29272 33.45994
6725 90.41857 42.71781 33.34513
6726 90.43157 40.90997 33.16772
6727 90.44457 38.00027 32.94032
6728 90.45757 39.01129 32.67736
6729 90.47057 42.24314 32.39407
6730 90.48357 42.30154 32.10557
6731 90.49657 42.00736 31.82615
6732 90.50957 45.80397 31.56884
6733 90.52257 32.57801 31.34507
6734 90.53557 27.57998 31.16459
6735 90.54857 30.91695 31.0354
6736 90.56157 35.00025 30.96373
6737 90.57457 34.67322 30.95411
6738 90.58757 33.15384 31.00938
6739 90.60057 32.27601 31.13067
6740 90.61357 24.80936 31.31738
6741 90.62657 43.00031 31.5672
6742 90.63957 41.40513 31.87602
6743 90.65257 29.10424 32.23761
6744 90.66557 31.31777 32.64386
6745 90.67857 44.00032 33.08709
6746 90.69157 42.96038 33.5553
6747 90.70457 30.32205 34.03632
6748 90.71757 35.0547 34.51737
6749 90.73057 36.53469 34.98572
6750 90.74357 47.86186 35.42949
6751 90.75657 43.95091 35.83833
6752 90.76957 41.88198 36.20403
6753 90.78257 34.03437 36.52066
6754 90.79557 40.96492 36.78449
6755 90.80857 36.07511 36.99363
6756 90.82157 41.82659 37.14763
6757 90.83457 41.03568 37.2472
6758 90.84757 49.5927 37.29419
6759 90.86057 38.6628 37.29167
6760 90.87357 38.00027 37.24428
6761 90.88657 46.32497 37.15828
6762 90.89957 39.67993 37.04153
6763 90.91257 39.00028 36.90302
6764 90.92557 47.05727 36.75228
6765 90.93857 33.83545 36.5985
6766 90.95157 38.12797 36.44982
6767 90.96457 44.19314 36.31252
6768 90.97757 42.43364 36.19066
6769 90.99057 42.0003 36.08558
6770 91.00357 41.16457 35.99605
6771 91.01657 37.69704 35.91806
6772 91.02957 44.34337 35.84529
6773 91.04257 47.6123 35.76956
6774 91.05557 47.20428 35.6816
6775 91.06857 34.42186 35.57202
6776 91.08157 50.40622 35.43235
6777 91.09457 51.40246 35.25606
6778 91.10757 50.75677 35.0393
6779 91.12057 39.80295 34.7812
6780 91.13357 37.47342 34.48374
6781 91.14657 40.18027 34.15115
6782 91.15957 35.98305 33.78893
6783 91.17257 40.36175 33.40287
6784 91.18557 41.60647 32.99957
6785 91.19857 45.12232 32.58335
6786 91.21157 38.87527 32.15781
6787 91.22457 37.00177 31.72534
6788 91.23757 26.16962 31.28738
6789 91.25057 23.88421 30.84479
6790 91.26357 31.09962 30.39838
6791 91.27657 29.60765 29.94932
6792 91.28957 27.61779 29.49955
6793 91.30257 28.0002 29.05193
6794 91.31557 28.59797 28.61021
6795 91.32857 30.17592 28.17889
6796 91.34157 25.79878 27.76289
6797 91.35457 28.24841 27.36727
6798 91.36757 31.88402 26.99703
6799 91.38057 27.71107 26.65678
6800 91.39357 25.00018 26.35068
6801 91.40657 24.47182 26.08243
6802 91.41957 25.03707 25.85521
6803 91.43257 30.57698 25.67171
6804 91.44557 28.01961 25.53422
6805 91.45857 24.42107 25.44341
6806 91.47157 25.60627 25.40301
6807 91.48457 20.65581 25.41292
6808 91.49757 21.67179 25.47377
6809 91.51057 28.2454 25.58575
6810 91.52357 28.36546 25.7486
6811 91.53657 26.71703 25.9615
6812 91.54957 25.64584 26.2231
6813 91.56257 20.59077 26.53139
6814 91.57557 23.19588 26.88367
6815 91.58857 26.05245 27.27645
6816 91.60157 23.00017 27.70539
6817 91.61457 23.00017 28.16517
6818 91.62757 23.71978 28.6494
6819 91.64057 25.69996 29.15041
6820 91.65357 27.68015 29.65854
6821 91.66657 27.01985 30.16473
6822 91.67957 23.9606 30.65741
6823 91.69257 27.86157 31.12305
6824 91.70557 31.3996 31.54766
6825 91.71857 33.48502 31.91681
6826 91.73157 39.75642 32.2165
6827 91.74457 32.91797 32.43418
6828 91.75757 35.21332 32.55991
6829 91.77057 47.7437 32.58737
6830 91.78357 41.72277 32.5146
6831 91.79657 43.76941 32.34421
6832 91.80957 44.10528 32.08298
6833 91.82257 46.31171 31.7411
6834 91.83557 39.79912 31.33116
6835 91.84857 38.80903 30.8668
6836 91.86157 36.71292 30.36191
6837 91.87457 32.53777 29.82975
6838 91.88757 38.39106 29.28248
6839 91.90057 29.6982 28.73094
6840 91.91357 28.84676 28.18448
6841 91.92657 32.42611 27.65109
6842 91.93957 22.72773 27.13746
6843 91.95257 27.55481 26.6491
6844 91.96557 24.20304 26.19041
6845 91.97857 25.81715 25.76512
6846 91.99157 24.24498 25.37587
6847 92.00457 26.21164 25.0247
6848 92.01757 16.43252 24.713
6849 92.03057 23.05202 24.44161
6850 92.04357 23.95823 24.21087
6851 92.05657 22.71193 24.02069
6852 92.06957 14.33178 23.87061
6853 92.08257 28.92703 23.75984
6854 92.09557 22.99332 23.68731
6855 92.10857 20.02309 23.65174
6856 92.12157 18.03526 23.6516
6857 92.13457 24.80783 23.68522
6858 92.14757 20.18711 23.75074
6859 92.16057 20.95284 23.84613
6860 92.17357 22.88572 23.96924
6861 92.18657 16.47009 24.11673
6862 92.19957 14.15421 24.28799
6863 92.21257 19.47833 24.47816
6864 92.22557 32.64387 24.68642
6865 92.23857 27.74779 24.90832
6866 92.25157 19.05056 25.14017
6867 92.26457 18.00013 25.3779
6868 92.27757 19.72706 25.6161
6869 92.29057 20.85369 25.85196
6870 92.30357 25.21832 26.07944
6871 92.31657 23.49904 26.29341
6872 92.32957 25.47157 26.4888
6873 92.34257 35.76684 26.66094
6874 92.35557 42.02014 26.80584
6875 92.36857 31.88351 26.92055
6876 92.38157 33.70506 27.00344
6877 92.39457 35.00025 27.05445
6878 92.40757 33.47163 27.07512
6879 92.42057 30.73705 27.06858
6880 92.43357 32.23366 27.03931
6881 92.44657 33.00024 26.99287
6882 92.45957 30.82628 26.93557
6883 92.47257 27.14127 26.87416
6884 92.48557 35.16287 26.81559
6885 92.49857 35.52575 26.76684
6886 92.51157 25.09536 26.73474
6887 92.52457 21.67523 26.72591
6888 92.53757 26.65629 26.7467
6889 92.55057 25.06873 26.80309
6890 92.56357 23.00017 26.90074
6891 92.57657 23.63558 27.04486
6892 92.58957 27.12768 27.24031
6893 92.60257 27.15345 27.49128
6894 92.61557 22.97184 27.80093
6895 92.62857 21.00015 28.1747
6896 92.64157 28.03024 28.61423
6897 92.65457 31.27246 29.12158
6898 92.66757 32.26426 29.69795
6899 92.68057 27.8832 30.34356
6900 92.69357 22.45399 31.05749
6901 92.70657 25.75401 31.83753
6902 92.71957 31.10561 32.67999
6903 92.73257 29.3852 33.57961
6904 92.74557 31.5719 34.52927
6905 92.75857 34.51725 35.51995
6906 92.77157 33.94699 36.54045
6907 92.78457 35.04671 37.5773
6908 92.79757 40.06942 38.61466
6909 92.81057 45.17256 39.63424
6910 92.82357 45.68249 40.61554
6911 92.83657 45.06633 41.53612
6912 92.84957 36.1555 42.37229
6913 92.86257 36.42491 43.10002
6914 92.87557 48.48137 43.69625
6915 92.88857 56.59021 44.14038
6916 92.90157 57.06273 44.41589
6917 92.91457 50.22416 44.51185
6918 92.92757 43.97475 44.42403
6919 92.94057 44.71474 44.15544
6920 92.95357 44.26385 43.71602
6921 92.96657 45.38626 43.12174
6922 92.97957 48.43345 42.39303
6923 92.99257 34.77741 41.55302
6924 93.00557 35.23004 40.62585
6925 93.01857 41.64135 39.63518
6926 93.03157 30.43924 38.60318
6927 93.04457 34.27814 37.5498
6928 93.05757 31.78454 36.4925
6929 93.07057 26.61302 35.44626
6930 93.08357 33.77437 34.42345
6931 93.09657 24.9531 33.43423
6932 93.10957 27.08694 32.48516
6933 93.12257 24.43698 31.58558
6934 93.13557 27.2511 30.73872
6935 93.14857 29.22024 29.94802
6936 93.16157 18.37744 29.21584
6937 93.17457 21.07259 28.54363
6938 93.18757 26.67549 27.93211
6939 93.20057 29.84131 27.38136
6940 93.21357 29.00021 26.89097
6941 93.22657 29.69561 26.46006
6942 93.23957 32.83776 26.0874
6943 93.25257 24.76168 25.77145
6944 93.26557 22.89083 25.5104
6945 93.27857 21.80132 25.3023
6946 93.29157 20.35816 25.14501
6947 93.30457 24.00017 25.03633
6948 93.31757 24.48789 24.97398
6949 93.33057 30.04408 24.95562
6950 93.34357 15.19949 24.97884
6951 93.35657 19.15985 25.0413
6952 93.36957 23.06019 25.14045
6953 93.38257 24.93988 25.27373
6954 93.39557 22.02053 25.43841
6955 93.40857 24.00152 25.63163
6956 93.42157 28.95191 25.85031
6957 93.43457 32.92194 26.09106
6958 93.44757 21.35404 26.3501
6959 93.46057 24.84256 26.62338
6960 93.47357 17.39469 26.90613
6961 93.48657 31.11169 27.19305
6962 93.49957 25.48424 27.47817
6963 93.51257 35.13053 27.75482
6964 93.52557 25.06795 28.01578
6965 93.53857 24.90128 28.25339
6966 93.55157 23.21779 28.4599
6967 93.56457 30.93169 28.62789
6968 93.57757 25.90067 28.75092
6969 93.59057 32.75323 28.82405
6970 93.60357 30.59411 28.84437
6971 93.61657 30.84184 28.81132
6972 93.62957 26.8417 28.72681
6973 93.64257 34.21809 28.595
6974 93.65557 25.44589 28.42186
6975 93.66857 28.61388 28.21464
6976 93.68157 25.24795 27.98127
6977 93.69457 24.00017 27.72984
6978 93.70757 28.63346 27.46818
6979 93.72057 30.00022 27.20364
6980 93.73357 36.01929 26.94288
6981 93.74657 27.60571 26.69184
6982 93.75957 18.13974 26.45579
6983 93.77257 23.94914 26.23927
6984 93.78557 31.27654 26.04626
6985 93.79857 25.97215 25.88013
6986 93.81157 29.9291 25.74377
6987 93.82457 26.17045 25.63956
6988 93.83757 23.00017 25.56946
6989 93.85057 21.01072 25.53499
6990 93.86357 20.00014 25.53733
6991 93.87657 32.86651 25.57726
6992 93.88957 32.39945 25.65527
6993 93.90257 32.36462 25.77153
6994 93.91557 35.61383 25.92597
6995 93.92857 23.32345 26.11826
6996 93.94157 19.75005 26.34785
6997 93.95457 23.00017 26.61395
6998 93.96757 25.29582 26.91555
6999 93.98057 23.04059 27.25132
7000 93.99357 21.10715 27.61961
7001 94.00657 31.78471 28.01836
7002 94.01957 38.39928 28.44504
7003 94.03257 30.7152 28.89657
7004 94.04557 27.56939 29.3693
7005 94.05857 30.50414 29.85895
7006 94.07157 29.02418 30.36072
7007 94.08457 22.64334 30.8694
7008 94.09757 28.4321 31.37963
7009 94.11057 34.4291 31.88628
7010 94.12357 27.54585 32.38405
7011 94.13657 25.66689 32.87121
7012 94.14957 32.25606 33.34505
7013 94.16257 40.45268 33.80535
7014 94.17557 35.7562 34.25355
7015 94.18857 35.21457 34.69241
7016 94.20157 37.39513 35.12563
7017 94.21457 38.00027 35.55715
7018 94.22757 37.25022 35.99051
7019 94.24057 38.19095 36.42837
7020 94.25357 38.80351 36.87207
7021 94.26657 33.34552 37.32142
7022 94.27957 42.04911 37.77461
7023 94.29257 53.11861 38.22834
7024 94.30557 43.63139 38.67794
7025 94.31857 47.13969 39.11762
7026 94.33157 49.04329 39.54067
7027 94.34457 45.42983 39.93967
7028 94.35757 54.27627 40.3066
7029 94.37057 52.87269 40.633
7030 94.38357 46.74429 40.91013
7031 94.39657 46.98487 41.12927
7032 94.40957 49.05549 41.2821
7033 94.42257 46.67924 41.36122
7034 94.43557 48.35119 41.3607
7035 94.44857 44.34855 41.27658
7036 94.46157 37.80372 41.1073
7037 94.47457 37.74684 40.8539
7038 94.48757 41.35375 40.52007
7039 94.50057 43.16712 40.11205
7040 94.51357 42.74514 39.63835
7041 94.52657 38.49896 39.10939
7042 94.53957 52.17798 38.53698
7043 94.55257 47.25464 37.93379
7044 94.56557 47.71075 37.31277
7045 94.57857 38.64421 36.68656
7046 94.59157 44.00032 36.06705
7047 94.60457 43.1254 35.46501
7048 94.61757 34.07782 34.88983
7049 94.63057 35.13558 34.34931
7050 94.64357 37.05801 33.84958
7051 94.65657 38.33509 33.39625
7052 94.66957 44.43158 32.99226
7053 94.68257 30.16822 32.63957
7054 94.69557 36.00026 32.3389
7055 94.70857 36.14734 32.08981
7056 94.72157 53.96874 31.89088
7057 94.73457 27.31538 31.73991
7058 94.74757 29.93545 31.63412
7059 94.76057 30.00022 31.57039
7060 94.77357 36.71034 31.54547
7061 94.78657 35.10292 31.55612
7062 94.79957 38.75529 31.59922
7063 94.81257 29.71185 31.67173
7064 94.82557 44.62199 31.7706
7065 94.83857 42.36428 31.89254
7066 94.85157 37.50481 32.03495
7067 94.86457 44.11373 32.19379
7068 94.87757 37.08692 32.3649
7069 94.89057 31.6535 32.54349
7070 94.90357 31.00022 32.72411
7071 94.91657 29.30118 32.90056
7072 94.92957 28.1606 33.06598
7073 94.94257 37.95651 33.21294
7074 94.95557 33.44207 33.33383
7075 94.96857 34.42982 33.42118
7076 94.98157 31.00052 33.46828
7077 94.99457 32.37031 33.46973
7078 95.00757 29.09966 33.42205
7079 95.02057 29.54061 33.32401
7080 95.03357 30.7605 33.17685
7081 95.04657 33.23158 32.98416
7082 95.05957 33.26037 32.75161
7083 95.07257 35.19012 32.4864
7084 95.08557 25.19958 32.19678
7085 95.09857 28.81158 31.89152
7086 95.11157 32.70045 31.57948
7087 95.12457 37.83234 31.26931
7088 95.13757 35.2376 30.96918
7089 95.15057 33.67071 30.68669
7090 95.16357 35.98191 30.42872
7091 95.17657 29.84323 30.2014
7092 95.18957 24.71874 30.01008
7093 95.20257 40.40121 29.85937
7094 95.21557 36.96159 29.7531
7095 95.22857 34.49902 29.69435
7096 95.24157 34.99496 29.68546
7097 95.25457 27.08875 29.72806
7098 95.26757 20.67523 29.82305
7099 95.28057 26.9986 29.97061
7100 95.29357 33.56164 30.1702
7101 95.30657 32.89727 30.42056
7102 95.31957 34.7081 30.71965
7103 95.33257 34.87363 31.06454
7104 95.34557 30.91327 31.45121
7105 95.35857 31.55935 31.87626
7106 95.37157 28.98112 32.33367
7107 95.38457 30.39615 32.81712
7108 95.39757 34.10777 33.31947
7109 95.41057 27.69505 33.83285
7110 95.42357 31.85847 34.34895
7111 95.43657 36.02458 34.85933
7112 95.44957 31.32748 35.35588
7113 95.46257 31.27021 35.83124
7114 95.47557 28.57762 36.27928
7115 95.48857 32.53965 36.69533
7116 95.50157 38.59752 37.07632
7117 95.51457 40.7502 37.42063
7118 95.52757 44.61739 37.72786
7119 95.54057 45.11937 37.99823
7120 95.55357 45.54793 38.23224
7121 95.56657 40.88119 38.43029
7122 95.57957 37.68681 38.59243
7123 95.59257 40.33371 38.7184
7124 95.60557 47.85193 38.80777
7125 95.61857 56.43279 38.86031
7126 95.63157 49.96427 38.87634
7127 95.64457 45.34988 38.85711
7128 95.65757 49.29768 38.80496
7129 95.67057 42.53553 38.72328
7130 95.68357 39.95952 38.61632
7131 95.69657 46.9358 38.48887
7132 95.70957 39.1503 38.34581
7133 95.72257 50.59514 38.19181
7134 95.73557 44.65459 38.03112
7135 95.74857 41.07217 37.86764
7136 95.76157 46.22709 37.70487
7137 95.77457 51.584 37.54627
7138 95.78757 55.66206 37.39559
7139 95.80057 59.68087 37.257
7140 95.81357 45.81312 37.13528
7141 95.82657 53.29667 37.03574
7142 95.83957 44.14529 36.96405
7143 95.85257 45.13538 36.92592
7144 95.86557 46.25061 36.9267
7145 95.87857 45.92631 36.97106
7146 95.89157 31.57986 37.06264
7147 95.90457 45.09572 37.20379
7148 95.91757 45.06006 37.3954
7149 95.93057 35.37807 37.63679
7150 95.94357 40.32853 37.92566
7151 95.95657 44.83312 38.25818
7152 95.96957 42.2294 38.62908
7153 95.98257 46.49769 39.03186
7154 95.99557 33.0782 39.45915
7155 96.00857 35.96811 39.90299
7156 96.02157 34.04335 40.35526
7157 96.03457 40.9739 40.808
7158 96.04757 51.84983 41.25361
7159 96.06057 52.97678 41.68492
7160 96.07357 51.0674 42.09511
7161 96.08657 41.43461 42.47739
7162 96.09957 45.70687 42.82475
7163 96.11257 43.19184 43.12967
7164 96.12557 37.44282 43.38405
7165 96.13857 36.08393 43.57942
7166 96.15157 37.8131 43.70731
7167 96.16457 50.55133 43.76004
7168 96.17757 42.2479 43.73162
7169 96.19057 57.6571 43.61859
7170 96.20357 45.26554 43.4208
7171 96.21657 44.714 43.1418
7172 96.22957 55.16347 42.78885
7173 96.24257 48.63028 42.37251
7174 96.25557 47.82744 41.90588
7175 96.26857 39.82852 41.40368
7176 96.28157 56.56744 40.88133
7177 96.29457 43.45867 40.35413
7178 96.30757 43.72491 39.83661
7179 96.32057 48.11042 39.3421
7180 96.33357 43.6271 38.88244
7181 96.34657 43.51569 38.4679
7182 96.35957 51.47809 38.10711
7183 96.37257 33.34024 37.80705
7184 96.38557 40.55914 37.57309
7185 96.39857 40.97411 37.409
7186 96.41157 39.00028 37.31698
7187 96.42457 41.09489 37.29761
7188 96.43757 44.06516 37.34989
7189 96.45057 38.89498 37.47119
7190 96.46357 36.66872 37.65725
7191 96.47657 42.2686 37.90211
7192 96.48957 44.3517 38.19812
7193 96.50257 41.44547 38.5359
7194 96.51557 44.40186 38.90437
7195 96.52857 51.33251 39.29085
7196 96.54157 49.12866 39.68121
7197 96.55457 45.40128 40.06026
7198 96.56757 44.41119 40.41224
7199 96.58057 45.73798 40.72143
7200 96.59357 49.27756 40.97304
7201 96.60657 51.55976 41.15403
7202 96.61957 53.09933 41.25377
7203 96.63257 56.69819 41.26542
7204 96.64557 60.58936 41.18513
7205 96.65857 55.24395 41.01287
7206 96.67157 43.39239 40.75179
7207 96.68457 51.49758 40.40775
7208 96.69757 61.57057 39.98852
7209 96.71057 50.79937 39.50311
7210 96.72357 43.94062 38.96114
7211 96.73657 45.00033 38.37249
7212 96.74957 48.60292 37.74698
7213 96.76257 47.27506 37.09427
7214 96.77557 43.87474 36.42382
7215 96.78857 48.57978 35.7449
7216 96.80157 44.30437 35.06644
7217 96.81457 36.99654 34.397
7218 96.82757 35.95442 33.74471
7219 96.84057 41.66672 33.11707
7220 96.85357 38.58025 32.52097
7221 96.86657 32.1387 31.96254
7222 96.87957 40.19092 31.44723
7223 96.89257 31.58767 30.97975
7224 96.90557 27.31959 30.56415
7225 96.91857 31.35737 30.20387
7226 96.93157 31.55778 29.90181
7227 96.94457 36.80984 29.66036
7228 96.95757 36.33336 29.48149
7229 96.97057 24.71841 29.36679
7230 96.98357 26.7187 29.31752
7231 96.99657 32.16668 29.33461
7232 97.00957 29.2684 29.41868
7233 97.02257 36.00026 29.57006
7234 97.03557 34.37491 29.78878
7235 97.04857 31.66754 30.07449
7236 97.06157 39.3014 30.42651
7237 97.07457 32.79779 30.84371
7238 97.08757 32.57783 31.32449
7239 97.10057 32.44361 31.8667
7240 97.11357 23.93609 32.46757
7241 97.12657 37.6747 33.12361
7242 97.13957 33.55431 33.83051
7243 97.15257 22.69366 34.58309
7244 97.16557 39.79505 35.37513
7245 97.17857 42.67196 36.19936
7246 97.19157 26.56334 37.04724
7247 97.20457 31.5138 37.90877
7248 97.21757 37.11386 38.77432
7249 97.23057 48.249 39.63141
7250 97.24357 51.00037 40.46717
7251 97.25657 50.8112 41.26876
7252 97.26957 48.21291 42.0222
7253 97.28257 51.65458 42.71389
7254 97.29557 43.73384 43.33073
7255 97.30857 36.51494 43.86073
7256 97.32157 57.9465 44.29349
7257 97.33457 53.98257 44.6208
7258 97.34757 49.03218 44.83509
7259 97.36057 43.09799 44.93757
7260 97.37357 61.50274 44.92663
7261 97.38657 54.28927 44.80553
7262 97.39957 33.01279 44.58021
7263 97.41257 51.82563 44.2588
7264 97.42557 42.72472 43.85119
7265 97.43857 51.24267 43.36844
7266 97.45157 43.77148 42.82233
7267 97.46457 51.13997 42.22477
7268 97.47757 46.63343 41.58733
7269 97.49057 49.53864 40.92081
7270 97.50357 35.13112 40.23491
7271 97.51657 43.37719 39.53794
7272 97.52957 40.72617 38.83675
7273 97.54257 32.39605 38.13672
7274 97.55557 33.50523 37.44185
7275 97.56857 34.00025 36.75505
7276 97.58157 30.73956 36.07839
7277 97.59457 30.00022 35.41353
7278 97.60757 37.15828 34.76192
7279 97.62057 33.50231 34.12509
7280 97.63357 30.44921 33.50493
7281 97.64657 32.297 32.90358
7282 97.65957 32.24456 32.32349
7283 97.67257 35.72906 31.76728
7284 97.68557 32.58517 31.23757
7285 97.69857 38.25957 30.73689
7286 97.71157 36.70418 30.26749
7287 97.72457 31.46973 29.83133
7288 97.73757 31.3926 29.43
7289 97.75057 34.05905 29.06473
7290 97.76357 36.35297 28.7364
7291 97.77657 35.00094 28.44556
7292 97.78957 32.68719 28.19247
7293 97.80257 28.12055 27.97712
7294 97.81557 27.27359 27.79921
7295 97.82857 27.37342 27.65823
7296 97.84157 30.70141 27.55339
7297 97.85457 28.75156 27.48369
7298 97.86757 25.40315 27.44787
7299 97.88057 26.17443 27.44443
7300 97.89357 23.53695 27.47165
7301 97.90657 24.40391 27.5275
7302 97.91957 25.32806 27.60973
7303 97.93257 27.83241 27.7153
7304 97.94557 27.23739 27.84226
7305 97.95857 27.16597 27.98694
7306 97.97157 24.82304 28.14582
7307 97.98457 20.50795 28.31498
7308 97.99757 26.9748 28.49022
7309 98.01057 29.58443 28.66701
7310 98.02357 25.52213 28.84071
7311 98.03657 28.74532 29.00661
7312 98.04957 29.79265 29.1602
7313 98.06257 22.862 29.29747
7314 98.07557 20.75372 29.41516
7315 98.08857 26.8565 29.51113
7316 98.10157 29.07026 29.58395
7317 98.11457 27.86074 29.63544
7318 98.12757 28.81034 29.66715
7319 98.14057 24.77782 29.68253
7320 98.15357 25.62128 29.68617
7321 98.16657 25.36917 29.68347
7322 98.17957 27.79557 29.68031
7323 98.19257 28.20694 29.68269
7324 98.20557 23.67866 29.69657
7325 98.21857 25.64315 29.72749
7326 98.23157 26.36253 29.78055
7327 98.24457 27.78046 29.86023
7328 98.25757 33.40224 29.97034
7329 98.27057 32.57841 30.11399
7330 98.28357 31.76685 30.29352
7331 98.29657 25.19241 30.51052
7332 98.30957 27.40902 30.76577
7333 98.32257 36.00942 31.05924
7334 98.33557 23.28163 31.39005
7335 98.34857 25.13293 31.75645
7336 98.36157 37.02313 32.15496
7337 98.37457 32.30767 32.58355
7338 98.38757 39.60132 33.03676
7339 98.40057 34.38012 33.50888
7340 98.41357 35.28017 33.99305
7341 98.42657 34.38175 34.48129
7342 98.43957 45.51975 34.9645
7343 98.45257 41.64781 35.43253
7344 98.46557 34.5617 35.87435
7345 98.47857 39.17431 36.27837
7346 98.49157 45.91554 36.63287
7347 98.50457 38.00027 36.92654
7348 98.51757 38.10098 37.14914
7349 98.53057 40.27131 37.29215
7350 98.54357 52.02991 37.34944
7351 98.55657 40.85838 37.31768
7352 98.56957 39.18341 37.19662
7353 98.58257 42.0003 36.98908
7354 98.59557 41.95909 36.70059
7355 98.60857 41.18808 36.33897
7356 98.62157 46.95758 35.91366
7357 98.63457 45.09206 35.43503
7358 98.64757 52.98331 34.9138
7359 98.66057 42.09246 34.36048
7360 98.67357 38.07345 33.78499
7361 98.68657 36.05668 33.19645
7362 98.69957 43.69533 32.60301
7363 98.71257 46.85623 32.01184
7364 98.72557 47.00034 31.42915
7365 98.73857 37.67895 30.86026
7366 98.75157 37.92249 30.30966
7367 98.76457 27.96488 29.78112
7368 98.77757 24.29301 29.27778
7369 98.79057 29.35504 28.80218
7370 98.80357 31.76534 28.35637
7371 98.81657 31.12758 27.94192
7372 98.82957 33.58842 27.55953
7373 98.84257 30.58897 27.21098
7374 98.85557 30.00022 26.89627
7375 98.86857 32.49918 26.6156
7376 98.88157 26.41566 26.36899
7377 98.89457 27.43965 26.15622
7378 98.90757 24.78723 25.97701
7379 98.92057 29.55347 25.83094
7380 98.93357 21.59928 25.71759
7381 98.94657 22.86762 25.63653
7382 98.95957 20.18226 25.58737
7383 98.97257 29.55148 25.56979
7384 98.98557 25.56272 25.58353
7385 98.99857 23.00017 25.62851
7386 99.01157 17.93271 25.70461
7387 99.02457 24.5682 25.81204
7388 99.03757 21.66338 25.95087
7389 99.05057 25.24773 26.12137
7390 99.06357 28.68446 26.32379
7391 99.07657 24.27979 26.55838
7392 99.08957 23.99345 26.82515
7393 99.10257 28.27276 27.12489
7394 99.11557 25.48801 27.4574
7395 99.12857 25.53891 27.82267
7396 99.14157 27.62497 28.22049
7397 99.15457 33.5339 28.65043
7398 99.16757 29.74098 29.11182
7399 99.18057 30.35541 29.60363
7400 99.19357 33.41514 30.12445
7401 99.20657 30.12426 30.67238
7402 99.21957 25.73908 31.24512
7403 99.23257 33.99675 31.83961
7404 99.24557 36.5458 32.45218
7405 99.25857 33.0713 33.07845
7406 99.27157 35.55561 33.71335
7407 99.28457 31.33391 34.35119
7408 99.29757 34.08353 34.9858
7409 99.31057 41.50501 35.61072
7410 99.32357 40.51492 36.21954
7411 99.33657 38.09844 36.8062
7412 99.34957 35.06916 37.36533
7413 99.36257 38.10095 37.89249
7414 99.37557 34.53167 38.38422
7415 99.38857 30.53722 38.83758
7416 99.40157 36.01907 39.2527
7417 99.41457 34.0801 39.6279
7418 99.42757 37.40633 39.96253
7419 99.44057 44.7347 40.25573
7420 99.45357 51.91058 40.50613
7421 99.46657 42.48459 40.71168
7422 99.47957 39.39702 40.86959
7423 99.49257 47.00034 40.97654
7424 99.50557 48.04004 41.02895
7425 99.51857 48.3171 41.02346
7426 99.53157 51.20833 40.9575
7427 99.54457 58.93131 40.82982
7428 99.55757 49.22797 40.64092
7429 99.57057 51.70338 40.39327
7430 99.58357 48.41668 40.09094
7431 99.59657 42.55463 39.74201
7432 99.60957 39.18988 39.35388
7433 99.62257 31.14682 38.93578
7434 99.63557 45.01067 38.49744
7435 99.64857 43.42531 38.04856
7436 99.66157 47.09 37.59838
7437 99.67457 43.56498 37.15526
7438 99.68757 41.37704 36.72654
7439 99.70057 37.41756 36.31834
7440 99.71357 32.69156 35.93552
7441 99.72657 39.28825 35.58169
7442 99.73957 34.31931 35.25924
7443 99.75257 27.58199 34.96936
7444 99.76557 36.14853 34.71213
7445 99.77857 36.72357 34.48658
7446 99.79157 34.35808 34.29079
7447 99.80457 30.59282 34.12201
7448 99.81757 32.93676 33.97683
7449 99.83057 17.57915 33.8514
7450 99.84357 31.91146 33.74167
7451 99.85657 30.60593 33.6437
7452 99.86957 27.24119 33.55395
7453 99.88257 43.52808 33.46952
7454 99.89557 35.8038 33.38838
7455 99.90857 31.72584 33.30942
7456 99.92157 25.11732 33.23243
7457 99.93457 29.13579 33.15796
7458 99.94757 35.87736 33.08714
7459 99.96057 23.00635 33.02136
7460 99.97357 24.9794 32.96206
7461 99.98657 24.02048 32.91046
7462 99.99957 29.81889 32.86741
7463 100.01257 28.08047 32.83324
7464 100.02557 30.85007 32.80772
7465 100.03857 33.82035 32.79005
7466 100.05157 27.48936 32.77886
7467 100.06457 35.28209 32.77229
7468 100.07757 40.55174 32.76813
7469 100.09057 37.39877 32.76386
7470 100.10357 26.31468 32.75685
7471 100.11657 40.85009 32.74449
7472 100.12957 29.94078 32.72436
7473 100.14257 28.0002 32.69439
7474 100.15557 38.20987 32.65299
7475 100.16857 35.79584 32.59914
7476 100.18157 35.00025 32.53239
7477 100.19457 37.46343 32.45282
7478 100.20757 41.24485 32.36094
7479 100.22057 42.80153 32.25749
7480 100.23357 40.62637 32.14329
7481 100.24657 40.00029 32.01898
7482 100.25957 49.2581 31.88492
7483 100.27257 42.86154 31.74065
7484 100.28557 36.24202 31.58667
7485 100.29857 29.80808 31.42164
7486 100.31157 32.39115 31.24448
7487 100.32457 39.05361 31.05398
7488 100.33757 26.74822 30.84908
7489 100.35057 28.01513 30.62908
7490 100.36357 35.8413 30.39379
7491 100.37657 33.2286 30.14373
7492 100.38957 35.03074 29.8801
7493 100.40257 28.39638 29.60479
7494 100.41557 35.73478 29.32025
7495 100.42857 33.65421 29.0293
7496 100.44157 24.57556 28.73494
7497 100.45457 26.3554 28.4402
7498 100.46757 33.28604 28.14792
7499 100.48057 31.18149 27.86066
7500 100.49357 26.81534 27.58069
7501 100.50657 27.74774 27.30853
7502 100.51957 31.29062 27.04814
7503 100.53257 31.87487 26.79924
7504 100.54557 29.89468 26.56245
7505 100.55857 30.08592 26.33802
7506 100.57157 27.80258 26.12591
7507 100.58457 24.47715 25.92576
7508 100.59757 25.0264 25.737
7509 100.61057 24.4906 25.55887
7510 100.62357 21.52032 25.39051
7511 100.63657 22.90034 25.23098
7512 100.64957 25.05329 25.07936
7513 100.66257 21.6825 24.93483
7514 100.67557 19.00014 24.79668
7515 100.68857 19.88755 24.66438
7516 100.70157 20.13257 24.53757
7517 100.71457 20.69564 24.41607
7518 100.72757 27.96769 24.29987
7519 100.74057 28.13149 24.18906
7520 100.75357 20.36491 24.08381
7521 100.76657 22.0791 23.98435
7522 100.77957 19.37444 23.89089
7523 100.79257 18.90699 23.80365
7524 100.80557 17.00012 23.7228
7525 100.81857 20.10111 23.64848
7526 100.83157 23.99235 23.58078
7527 100.84457 21.94849 23.51975
7528 100.85757 24.42614 23.4654
7529 100.87057 18.86589 23.41772
7530 100.88357 16.65491 23.37664
7531 100.89657 23.57029 23.34207
7532 100.90957 23.34929 23.31391
7533 100.92257 18.7349 23.29199
7534 100.93557 18.00013 23.27617
7535 100.94857 18.49094 23.26624
7536 100.96157 19.05819 23.26198
7537 100.97457 16.90241 23.26315
7538 100.98757 19.13751 23.26948
7539 101.00057 16.20586 23.28069
7540 101.01357 19.54589 23.2965
7541 101.02657 29.25657 23.31661
7542 101.03957 24.7682 23.34074
7543 101.05257 20.3288 23.36867
7544 101.06557 25.75085 23.40022
7545 101.07857 18.85388 23.4353
7546 101.09157 18.95449 23.47393
7547 101.10457 24.11522 23.51627
7548 101.11757 18.81568 23.56261
7549 101.13057 25.42655 23.61337
7550 101.14357 28.71018 23.6691
7551 101.15657 25.30609 23.73043
7552 101.16957 18.15382 23.79807
7553 101.18257 20.66946 23.87272
7554 101.19557 29.48707 23.95506
7555 101.20857 21.23566 24.04571
7556 101.22157 25.88863 24.14521
7557 101.23457 22.75472 24.25395
7558 101.24757 14.08688 24.37218
7559 101.26057 19.08943 24.49998
7560 101.27357 30.97036 24.63727
7561 101.28657 16.18617 24.78374
7562 101.29957 18.93318 24.93889
7563 101.31257 18.03236 25.10199
7564 101.32557 28.53657 25.27206
7565 101.33857 22.36461 25.44787
7566 101.35157 23.87622 25.62791
7567 101.36457 25.8564 25.81036
7568 101.37757 23.24559 25.99288
7569 101.39057 18.44829 26.17351
7570 101.40357 26.08021 26.3493
7571 101.41657 24.33658 26.51725
7572 101.42957 30.14587 26.67417
7573 101.44257 25.79197 26.81678
7574 101.45557 25.00018 26.94182
7575 101.46857 28.39303 27.04625
7576 101.48157 27.32362 27.12746
7577 101.49457 30.31372 27.18341
7578 101.50757 37.54795 27.21288
7579 101.52057 36.57463 27.21484
7580 101.53357 28.81254 27.19117
7581 101.54657 29.36636 27.14284
7582 101.55957 34.67305 27.07209
7583 101.57257 29.08024 26.98186
7584 101.58557 27.0002 26.87553
7585 101.59857 24.00395 26.75673
7586 101.61157 25.95675 26.62914
7587 101.62457 26.27097 26.49638
7588 101.63757 27.43882 26.36187
7589 101.65057 25.872 26.22879
7590 101.66357 22.90173 26.1
7591 101.67657 25.44801 25.97805
7592 101.68957 25.64089 25.86518
7593 101.70257 27.67914 25.76333
7594 101.71557 29.00021 25.67409
7595 101.72857 27.05048 25.59881
7596 101.74157 27.28018 25.53853
7597 101.75457 24.84981 25.49401
7598 101.76757 21.75984 25.46578
7599 101.78057 23.44115 25.45408
7600 101.79357 20.19751 25.45892
7601 101.80657 18.77138 25.48005
7602 101.81957 21.16115 25.51698
7603 101.83257 26.56487 25.56896
7604 101.84557 28.3182 25.63502
7605 101.85857 24.2464 25.71393
7606 101.87157 24.16353 25.80421
7607 101.88457 22.81462 25.90416
7608 101.89757 23.64724 26.0118
7609 101.91057 23.93361 26.12495
7610 101.92357 19.99779 26.24114
7611 101.93657 21.94775 26.35727
7612 101.94957 23.55612 26.47187
7613 101.96257 22.4716 26.58157
7614 101.97557 19.30798 26.68375
7615 101.98857 24.03226 26.77594
7616 102.00157 27.49148 26.85563
7617 102.01457 21.88613 26.92235
7618 102.02757 24.04716 26.97465
7619 102.04057 21.64793 27.01236
7620 102.05357 25.6083 27.03606
7621 102.06657 26.82385 27.04702
7622 102.07957 24.61798 27.04718
7623 102.09257 23.62789 27.03895
7624 102.10557 25.1744 27.02509
7625 102.11857 26.53301 27.00857
7626 102.13157 24.05541 26.99241
7627 102.14457 29.66334 26.97962
7628 102.15757 29.1277 26.97302
7629 102.17057 25.0665 26.97527
7630 102.18357 33.69736 26.98855
7631 102.19657 31.82837 27.01558
7632 102.20957 27.86801 27.05801
7633 102.22257 26.91213 27.11751
7634 102.23557 30.68413 27.19546
7635 102.24857 26.74689 27.29299
7636 102.26157 25.02663 27.41091
7637 102.27457 22.93406 27.54973
7638 102.28757 25.55307 27.70962
7639 102.30057 24.00017 27.89042
7640 102.31357 22.98152 28.09157
7641 102.32657 19.96921 28.31216
7642 102.33957 24.55187 28.55084
7643 102.35257 26.82621 28.80587
7644 102.36557 26.00019 29.07506
7645 102.37857 26.15434 29.35582
7646 102.39157 28.00987 29.64507
7647 102.40457 34.13457 29.93936
7648 102.41757 35.12466 30.23479
7649 102.43057 35.65678 30.5271
7650 102.44357 32.77307 30.81169
7651 102.45657 31.09431 31.08375
7652 102.46957 32.92608 31.33834
7653 102.48257 42.10927 31.57051
7654 102.49557 30.67853 31.77551
7655 102.50857 26.00019 31.94892
7656 102.52157 26.44527 32.08684
7657 102.53457 36.00026 32.18611
7658 102.54757 36.04962 32.24446
7659 102.56057 37.88217 32.26066
7660 102.57357 30.01476 32.23465
7661 102.58657 32.98499 32.16751
7662 102.59957 36.94028 32.06175
7663 102.61257 20.42365 31.92074
7664 102.62557 23.86086 31.74886
7665 102.63857 30.68703 31.55119
7666 102.65157 33.83627 31.33325
7667 102.66457 34.00025 31.10076
7668 102.67757 22.89401 30.85943
7669 102.69057 23.83137 30.61474
7670 102.70357 22.1888 30.3718
7671 102.71657 29.16635 30.13528
7672 102.72957 32.65779 29.90932
7673 102.74257 31.24835 29.69757
7674 102.75557 26.67008 29.50308
7675 102.76857 32.8491 29.32839
7676 102.78157 39.92364 29.17544
7677 102.79457 38.49145 29.0459
7678 102.80757 31.38933 28.94073
7679 102.82057 35.71539 28.86049
7680 102.83357 31.3545 28.8053
7681 102.84657 32.39009 28.77484
7682 102.85957 21.98632 28.76837
7683 102.87257 28.32165 28.78474
7684 102.88557 31.7671 28.8224
7685 102.89857 28.97238 28.87939
7686 102.91157 38.45887 28.95336
7687 102.92457 35.36611 29.04158
7688 102.93757 25.72806 29.14094
7689 102.95057 26.58668 29.24797
7690 102.96357 25.17065 29.35892
7691 102.97657 30.27742 29.46975
7692 102.98957 28.8749 29.57631
7693 103.00257 24.28963 29.67442
7694 103.01557 27.00653 29.76008
7695 103.02857 29.65802 29.82961
7696 103.04157 28.70442 29.87992
7697 103.05457 25.44828 29.90867
7698 103.06757 35.93344 29.91442
7699 103.08057 38.0551 29.8967
7700 103.09357 40.47438 29.85609
7701 103.10657 33.82886 29.79408
7702 103.11957 28.17701 29.713
7703 103.13257 33.04965 29.61583
7704 103.14557 30.88308 29.50599
7705 103.15857 32.58681 29.3872
7706 103.17157 27.67159 29.26328
7707 103.18457 24.84962 29.13807
7708 103.19757 32.1737 29.01531
7709 103.21057 29.81025 28.89852
7710 103.22357 21.94567 28.79128
7711 103.23657 22.49433 28.69678
7712 103.24957 30.89274 28.61812
7713 103.26257 32.64488 28.55821
7714 103.27557 33.69446 28.5198
7715 103.28857 36.70273 28.5055
7716 103.30157 28.60511 28.51771
7717 103.31457 23.75888 28.55862
7718 103.32757 24.71089 28.63036
7719 103.34057 23.00017 28.73472
7720 103.35357 24.6399 28.8733
7721 103.36657 32.20045 29.04749
7722 103.37957 37.65966 29.25839
7723 103.39257 33.62006 29.50691
7724 103.40557 31.88942 29.79361
7725 103.41857 27.4777 30.11878
7726 103.43157 26.50461 30.48239
7727 103.44457 32.31918 30.88406
7728 103.45757 31.00022 31.32304
7729 103.47057 32.28302 31.79814
7730 103.48357 32.51398 32.30735
7731 103.49657 28.20367 32.84947
7732 103.50957 33.30519 33.42144
7733 103.52257 35.91525 34.02008
7734 103.53557 29.894 34.64157
7735 103.54857 36.82464 35.28146
7736 103.56157 40.24532 35.93461
7737 103.57457 37.88982 36.59518
7738 103.58757 43.07535 37.2567
7739 103.60057 32.43085 37.91116
7740 103.61357 40.36714 38.55307
7741 103.62657 36.59232 39.17382
7742 103.63957 30.04412 39.76588
7743 103.65257 27.99456 40.32219
7744 103.66557 36.65749 40.83647
7745 103.67857 34.51582 41.30366
7746 103.69157 33.21272 41.72013
7747 103.70457 38.58383 42.08389
7748 103.71757 31.71272 42.39465
7749 103.73057 41.66034 42.65362
7750 103.74357 32.11213 42.86334
7751 103.75657 34.12208 43.02724
7752 103.76957 43.72411 43.14919
7753 103.78257 41.41107 43.23339
7754 103.79557 46.93946 43.28357
7755 103.80857 57.87857 43.30301
7756 103.82157 41.10512 43.29437
7757 103.83457 43.51025 43.25958
7758 103.84757 55.13072 43.20001
7759 103.86057 58.84177 43.11593
7760 103.87357 52.01313 43.0092
7761 103.88657 53.00038 42.87991
7762 103.89957 53.00038 42.72901
7763 103.91257 44.15341 42.55794
7764 103.92557 49.83881 42.36879
7765 103.93857 53.85303 42.16439
7766 103.95157 46.37438 41.94835
7767 103.96457 49.77368 41.72494
7768 103.97757 47.2001 41.499
7769 103.99057 56.23541 41.27572
7770 104.00357 47.8645 41.06044
7771 104.01657 46.09666 40.85842
7772 104.02957 46.00033 40.67459
7773 104.04257 61.02572 40.51338
7774 104.05557 56.88294 40.37852
7775 104.06857 47.36024 40.27293
7776 104.08157 46.85443 40.19862
7777 104.09457 28.42825 40.15661
7778 104.10757 47.52549 40.14692
7779 104.12057 43.75682 40.16857
7780 104.13357 45.25807 40.21957
7781 104.14657 48.41391 40.297
7782 104.15957 45.82191 40.39702
7783 104.17257 61.47893 40.51514
7784 104.18557 47.40575 40.64617
7785 104.19857 42.76517 40.78451
7786 104.21157 45.26516 40.92459
7787 104.22457 51.21558 41.06078
7788 104.23757 53.7355 41.18791
7789 104.25057 54.7256 41.30146
7790 104.26357 48.56279 41.39777
7791 104.27657 40.35734 41.47419
7792 104.28957 46.34579 41.52916
7793 104.30257 50.68591 41.56215
7794 104.31557 51.676 41.5736
7795 104.32857 40.68323 41.56475
7796 104.34157 45.49304 41.53741
7797 104.35457 49.06272 41.49377
7798 104.36757 39.73275 41.43611
7799 104.38057 32.49604 41.36659
7800 104.39357 37.77775 41.28702
7801 104.40657 38.36296 41.19872
7802 104.41957 40.17442 41.10235
7803 104.43257 50.03703 40.9979
7804 104.44557 55.0004 40.8847
7805 104.45857 51.03445 40.76145
7806 104.47157 48.557 40.62638
7807 104.48457 49.00035 40.47744
7808 104.49757 48.46354 40.31242
7809 104.51057 50.63486 40.12918
7810 104.52357 51.44942 39.92577
7811 104.53657 45.43671 39.70055
7812 104.54957 47.9605 39.45225
7813 104.56257 50.10183 39.17999
7814 104.57557 45.47707 38.88334
7815 104.58857 47.86766 38.56219
7816 104.60157 45.88812 38.21684
7817 104.61457 43.6823 37.84804
7818 104.62757 55.30497 37.45696
7819 104.64057 56.17555 37.04531
7820 104.65357 41.33129 36.61534
7821 104.66657 45.92507 36.16981
7822 104.67957 50.03902 35.71197
7823 104.69257 41.0003 35.24551
7824 104.70557 41.75549 34.77434
7825 104.71857 39.69119 34.3025
7826 104.73157 37.5779 33.83399
7827 104.74457 41.21752 33.37267
7828 104.75757 36.00026 32.92213
7829 104.77057 39.9365 32.48557
7830 104.78357 45.77361 32.06583
7831 104.79657 40.69211 31.66528
7832 104.80957 37.91237 31.28589
7833 104.82257 31.8468 30.92919
7834 104.83557 29.5571 30.59631
7835 104.84857 31.00022 30.28802
7836 104.86157 27.63824 30.00471
7837 104.87457 22.22802 29.74648
7838 104.88757 35.00025 29.51311
7839 104.90057 32.71156 29.30411
7840 104.91357 24.78123 29.11877
7841 104.92657 23.16402 28.95613
7842 104.93957 22.58875 28.81506
7843 104.95257 32.0542 28.69432
7844 104.96557 28.1795 28.59182
7845 104.97857 28.3227 28.50764
7846 104.99157 25.15964 28.43971
7847 105.00457 28.24341 28.38684
7848 105.01757 37.6491 28.34801
7849 105.03057 19.33505 28.32247
7850 105.04357 32.724 28.3098
7851 105.05657 17.75832 28.30993
7852 105.06957 31.90026 28.32316
7853 105.08257 31.09028 28.35012
7854 105.09557 31.43923 28.39174
7855 105.10857 25.562 28.44915
7856 105.12157 32.63836 28.52367
7857 105.13457 26.79861 28.61669
7858 105.14757 22.83824 28.72959
7859 105.16057 19.27524 28.86371
7860 105.17357 27.89694 29.02027
7861 105.18657 23.0109 29.20032
7862 105.19957 24.001 29.40474
7863 105.21257 24.99107 29.63417
7864 105.22557 32.84806 29.88901
7865 105.23857 36.88452 30.16937
7866 105.25157 36.03911 30.47509
7867 105.26457 23.63415 30.8056
7868 105.27757 32.41341 31.16022
7869 105.29057 27.41178 31.53767
7870 105.30357 40.8226 31.93635
7871 105.31657 29.2382 32.35423
7872 105.32957 25.29521 32.78877
7873 105.34257 34.80942 33.23694
7874 105.35557 29.82743 33.69515
7875 105.36857 37.71939 34.15919
7876 105.38157 39.86229 34.62428
7877 105.39457 29.77523 35.08505
7878 105.40757 30.52672 35.5356
7879 105.42057 35.99377 35.96956
7880 105.43357 44.40135 36.38029
7881 105.44657 50.06247 36.76102
7882 105.45957 47.79032 37.10511
7883 105.47257 49.37813 37.40632
7884 105.48557 44.52158 37.65905
7885 105.49857 50.72799 37.85866
7886 105.51157 47.66042 38.0016
7887 105.52457 56.54146 38.08559
7888 105.53757 50.34115 38.10967
7889 105.55057 60.19627 38.07415
7890 105.56357 53.4294 37.98048
7891 105.57657 45.43397 37.83108
7892 105.58957 35.55998 37.62912
7893 105.60257 57.65776 37.37834
7894 105.61557 46.44395 37.08282
7895 105.62857 43.38273 36.74689
7896 105.64157 40.36914 36.375
7897 105.65457 43.53232 35.97168
7898 105.66757 43.1406 35.54155
7899 105.68057 44.80055 35.08926
7900 105.69357 39.51882 34.61952
7901 105.70657 36.22734 34.13708
7902 105.71957 40.01842 33.64667
7903 105.73257 33.6883 33.15296
7904 105.74557 32.0868 32.66048
7905 105.75857 37.86968 32.17356
7906 105.77157 37.74441 31.69628
7907 105.78457 33.22999 31.2324
7908 105.79757 30.45608 30.78532
7909 105.81057 33.20556 30.35746
7910 105.82357 35.47595 29.95282
7911 105.83657 34.48586 29.57307
7912 105.84957 31.98233 29.22022
7913 105.86257 30.49478 28.89595
7914 105.87557 34.87741 28.60166
7915 105.88857 36.62661 28.3385
7916 105.90157 31.21133 28.10738
7917 105.91457 32.54924 27.909
7918 105.92757 33.55039 27.74388
7919 105.94057 28.0002 27.61235
7920 105.95357 24.59894 27.51463
7921 105.96657 21.24587 27.45076
7922 105.97957 24.62148 27.42066
7923 105.99257 26.20937 27.42412
7924 106.00557 26.92767 27.4605
7925 106.01857 30.75138 27.52995
7926 106.03157 27.24655 27.63158
7927 106.04457 25.40368 27.76466
7928 106.05757 32.15854 27.92831
7929 106.07057 20.31279 28.12152
7930 106.08357 20.54223 28.34311
7931 106.09657 28.52322 28.59171
7932 106.10957 23.14339 28.86578
7933 106.12257 29.77777 29.1636
7934 106.13557 30.85043 29.4832
7935 106.14857 23.00017 29.82241
7936 106.16157 26.99792 30.1788
7937 106.17457 35.69086 30.54966
7938 106.18757 31.22039 30.93202
7939 106.20057 34.68548 31.32255
7940 106.21357 24.22703 31.7176
7941 106.22657 26.95265 32.11318
7942 106.23957 34.20727 32.5049
7943 106.25257 33.81759 32.88808
7944 106.26557 29.3746 33.25773
7945 106.27857 31.88663 33.60867
7946 106.29157 36.66972 33.93564
7947 106.30457 38.26833 34.23346
7948 106.31757 28.85267 34.49723
7949 106.33057 26.89924 34.72254
7950 106.34357 20.76638 34.90567
7951 106.35657 26.00019 35.04374
7952 106.36957 25.02931 35.13492
7953 106.38257 17.97972 35.17847
7954 106.39557 27.08824 35.17476
7955 106.40857 28.15646 35.12524
7956 106.42157 30.40951 35.03231
7957 106.43457 35.53386 34.89919
7958 106.44757 28.43566 34.7297
7959 106.46057 37.19262 34.52806
7960 106.47357 41.60054 34.29868
7961 106.48657 28.01884 34.04562
7962 106.49957 28.95659 33.77371
7963 106.51257 24.0062 33.48687
7964 106.52557 24.98906 33.1886
7965 106.53857 24.02121 32.88217
7966 106.55157 32.72168 32.57029
7967 106.56457 31.08196 32.25589
7968 106.57757 27.20332 31.94108
7969 106.59057 34.51469 31.62793
7970 106.60357 29.42388 31.31839
7971 106.61657 34.5171 31.01435
7972 106.62957 35.90982 30.71763
7973 106.64257 37.79956 30.43006
7974 106.65557 25.54397 30.15343
7975 106.66857 23.12035 29.88952
7976 106.68157 19.5095 29.64001
7977 106.69457 34.46951 29.40648
7978 106.70757 30.20431 29.19034
7979 106.72057 39.07516 28.99283
7980 106.73357 31.87399 28.81497
7981 106.74657 34.09896 28.6575
7982 106.75957 38.23959 28.52094
7983 106.77257 33.40085 28.40553
7984 106.78557 28.84022 28.31123
7985 106.79857 28.0002 28.23776
7986 106.81157 23.37916 28.18453
7987 106.82457 29.60274 28.15075
7988 106.83757 27.49817 28.13532
7989 106.85057 24.51933 28.13693
7990 106.86357 34.22736 28.15401
7991 106.87657 35.11788 28.18477
7992 106.88957 31.15751 28.22719
7993 106.90257 28.59868 28.27903
7994 106.91557 33.52703 28.33786
7995 106.92857 29.87182 28.40105
7996 106.94157 31.02633 28.46582
7997 106.95457 26.38916 28.52928
7998 106.96757 30.16328 28.58844
7999 106.98057 32.71769 28.64033
8000 106.99357 26.94933 28.68163
8001 107.00657 26.48596 28.71051
8002 107.01957 28.61173 28.7241
8003 107.03257 32.60991 28.72041
8004 107.04557 34.40855 28.69791
8005 107.05857 31.6731 28.65569
8006 107.07157 32.2877 28.59348
8007 107.08457 32.87633 28.51163
8008 107.09757 30.34411 28.41113
8009 107.11057 26.28958 28.2935
8010 107.12357 25.0646 28.16073
8011 107.13657 27.56708 28.01469
8012 107.14957 36.68593 27.8588
8013 107.16257 39.98059 27.6953
8014 107.17557 32.5524 27.52686
8015 107.18857 29.48285 27.35615
8016 107.20157 27.63661 27.18571
8017 107.21457 29.16543 27.01796
8018 107.22757 29.01845 26.85519
8019 107.24057 21.67124 26.69951
8020 107.25357 23.03157 26.55289
8021 107.26657 26.57705 26.41714
8022 107.27957 24.7605 26.29391
8023 107.29257 23.8068 26.18471
8024 107.30557 25.39358 26.09092
8025 107.31857 25.6167 26.01376
8026 107.33157 27.61517 25.95432
8027 107.34457 30.90927 25.91355
8028 107.35757 27.58525 25.89225
8029 107.37057 21.56193 25.89108
8030 107.38357 19.34093 25.91054
8031 107.39657 25.40825 25.95099
8032 107.40957 21.25646 26.01262
8033 107.42257 25.21683 26.09545
8034 107.43557 27.4117 26.19881
8035 107.44857 29.4122 26.32347
8036 107.46157 33.88399 26.46839
8037 107.47457 23.79368 26.63288
8038 107.48757 24.98183 26.81607
8039 107.50057 21.26614 27.01686
8040 107.51357 20.17393 27.23397
8041 107.52657 22.87596 27.46588
8042 107.53957 20.50464 27.71083
8043 107.55257 26.61523 27.96684
8044 107.56557 28.80511 28.23167
8045 107.57857 26.14837 28.50283
8046 107.59157 19.92808 28.77757
8047 107.60457 27.51203 29.05289
8048 107.61757 21.24365 29.32553
8049 107.63057 27.70916 29.592
8050 107.64357 26.1358 29.84862
8051 107.65657 28.00574 30.09148
8052 107.66957 33.26359 30.31651
8053 107.68257 20.52946 30.52005
8054 107.69557 26.2475 30.69802
8055 107.70857 37.31202 30.84671
8056 107.72157 30.00022 30.96281
8057 107.73457 30.57337 31.04347
8058 107.74757 38.44322 31.08659
8059 107.76057 29.27495 31.09081
8060 107.77357 34.85675 31.05569
8061 107.78657 30.97426 30.98173
8062 107.79957 29.95208 30.87034
8063 107.81257 26.98793 30.72382
8064 107.82557 25.00778 30.54515
8065 107.83857 36.8357 30.33785
8066 107.85157 22.3546 30.10586
8067 107.86457 27.79894 29.85328
8068 107.87757 28.95675 29.58428
8069 107.89057 18.58725 29.30295
8070 107.90357 33.92433 29.01321
8071 107.91657 28.51264 28.71874
8072 107.92957 26.16643 28.42294
8073 107.94257 30.53505 28.12891
8074 107.95557 24.72082 27.83947
8075 107.96857 32.87159 27.55712
8076 107.98157 25.22798 27.28412
8077 107.99457 38.74447 27.02245
8078 108.00757 30.71154 26.77386
8079 108.02057 23.91532 26.53988
8080 108.03357 28.86313 26.32186
8081 108.04657 19.24075 26.12094
8082 108.05957 24.35975 25.9381
8083 108.07257 25.19237 25.77415
8084 108.08557 25.00018 25.62976
8085 108.09857 21.84822 25.50547
8086 108.11157 22.5563 25.40168
8087 108.12457 19.92752 25.31866
8088 108.13757 23.54961 25.2566
8089 108.15057 27.9935 25.21553
8090 108.16357 21.61605 25.19544
8091 108.17657 24.09964 25.19619
8092 108.18957 27.43736 25.21756
8093 108.20257 20.20483 25.25924
8094 108.21557 17.69888 25.32086
8095 108.22857 20.06665 25.40194
8096 108.24157 21.00015 25.50196
8097 108.25457 23.67619 25.62028
8098 108.26757 24.34109 25.75619
8099 108.28057 24.00017 25.90891
8100 108.29357 26.55723 26.07752
8101 108.30657 22.96541 26.2604
8102 108.31957 24.33619 26.45773
8103 108.33257 25.17164 26.66756
8104 108.34557 22.80097 26.88859
8105 108.35857 24.94861 27.11925
8106 108.37157 22.362 27.35781
8107 108.38457 22.41929 27.60238
8108 108.39757 23.88029 27.85087
8109 108.41057 28.50045 28.101
8110 108.42357 29.75956 28.35031
8111 108.43657 33.36258 28.59621
8112 108.44957 36.91915 28.83598
8113 108.46257 26.83436 29.06692
8114 108.47557 25.00558 29.28635
8115 108.48857 30.01915 29.49178
8116 108.50157 29.00021 29.68101
8117 108.51457 35.59012 29.85221
8118 108.52757 39.77476 30.00409
8119 108.54057 37.80377 30.13588
8120 108.55357 40.44125 30.24742
8121 108.56657 37.12087 30.33913
8122 108.57957 28.21004 30.41196
8123 108.59257 26.70112 30.46727
8124 108.60557 33.20414 30.50676
8125 108.61857 35.78303 30.53228
8126 108.63157 37.76321 30.54573
8127 108.64457 36.77094 30.54894
8128 108.65757 34.44681 30.54355
8129 108.67057 33.83473 30.53095
8130 108.68357 29.36745 30.51219
8131 108.69657 30.00885 30.48794
8132 108.70957 28.25406 30.45854
8133 108.72257 31.43991 30.42389
8134 108.73557 29.51096 30.38357
8135 108.74857 33.00024 30.33684
8136 108.76157 32.15327 30.2827
8137 108.77457 31.36225 30.21998
8138 108.78757 31.837 30.14743
8139 108.80057 25.77211 30.06386
8140 108.81357 33.03193 29.96819
8141 108.82657 34.17918 29.85966
8142 108.83957 43.99985 29.73784
8143 108.85257 30.00022 29.60276
8144 108.86557 31.61957 29.45492
8145 108.87857 35.11271 29.29532
8146 108.89157 24.0957 29.1254
8147 108.90457 29.34556 28.947
8148 108.91757 31.4885 28.76226
8149 108.93057 32.01327 28.5735
8150 108.94357 23.00116 28.38316
8151 108.95657 33.67011 28.1937
8152 108.96957 26.35427 28.0075
8153 108.98257 36.56618 27.82683
8154 108.99557 39.03819 27.6538
8155 109.00857 22.37357 27.49034
8156 109.02157 26.2505 27.33815
8157 109.03457 29.66192 27.19877
8158 109.04757 36.98254 27.07345
8159 109.06057 22.10755 26.96342
8160 109.07357 24.21906 26.86955
8161 109.08657 28.86476 26.7926
8162 109.09957 25.04808 26.73312
8163 109.11257 27.21069 26.69139
8164 109.12557 41.94677 26.6678
8165 109.13857 29.07577 26.66249
8166 109.15157 23.09453 26.67526
8167 109.16457 22.0258 26.70582
8168 109.17757 21.03571 26.75374
8169 109.19057 26.72736 26.81838
8170 109.20357 12.8309 26.89894
8171 109.21657 16.67361 26.99442
8172 109.22957 31.79676 27.10359
8173 109.24257 20.192 27.22516
8174 109.25557 24.42989 27.35752
8175 109.26857 26.79027 27.49894
8176 109.28157 22.57455 27.64755
8177 109.29457 34.25316 27.80136
8178 109.30757 34.26966 27.95829
8179 109.32057 28.86794 28.11628
8180 109.33357 34.76395 28.27328
8181 109.34657 29.31583 28.42738
8182 109.35957 39.55914 28.57684
8183 109.37257 31.3959 28.72012
8184 109.38557 41.89315 28.85596
8185 109.39857 29.08246 28.98337
8186 109.41157 26.57214 29.10158
8187 109.42457 36.31295 29.21011
8188 109.43757 36.70184 29.30859
8189 109.45057 32.2191 29.39677
8190 109.46357 25.02968 29.47445
8191 109.47657 31.1006 29.54139
8192 109.48957 35.45322 29.59729
8193 109.50257 29.55111 29.64177
8194 109.51557 31.9468 29.67435
8195 109.52857 32.60676 29.69451
8196 109.54157 34.74754 29.7017
8197 109.55457 36.67717 29.69546
8198 109.56757 26.32831 29.67547
8199 109.58057 34.79888 29.64164
8200 109.59357 32.2928 29.59421
8201 109.60657 35.92172 29.53376
8202 109.61957 34.72693 29.4613
8203 109.63257 26.06085 29.37823
8204 109.64557 29.07523 29.28635
8205 109.65857 33.00024 29.18777
8206 109.67157 30.64953 29.08485
8207 109.68457 36.51111 28.98013
8208 109.69757 40.29677 28.87622
8209 109.71057 35.6527 28.77573
8210 109.72357 32.45222 28.68119
8211 109.73657 31.46213 28.59499
8212 109.74957 33.11297 28.51908
8213 109.76257 31.89063 28.45595
8214 109.77557 26.45843 28.40708
8215 109.78857 21.50797 28.37394
8216 109.80157 25.83949 28.35773
8217 109.81457 34.91468 28.35884
8218 109.82757 35.59418 28.37836
8219 109.84057 33.08269 28.41731
8220 109.85357 31.08507 28.47517
8221 109.86657 32.19206 28.55171
8222 109.87957 33.71489 28.64641
8223 109.89257 31.16315 28.75849
8224 109.90557 32.45196 28.88681
8225 109.91857 38.79122 29.02995
8226 109.93157 38.33479 29.1862
8227 109.94457 32.13686 29.35351
8228 109.95757 32.15543 29.52952
8229 109.97057 28.64116 29.71154
8230 109.98357 27.65107 29.8966
