#------------------------------------------------------------------------------
#$Date: 2017-05-18 04:14:19 +0300 (Thu, 18 May 2017) $
#$Revision: 196703 $
#$URL: file:///home/coder/svn-repositories/cod/cif/7/12/01/7120114.cif $
#------------------------------------------------------------------------------
#
# This file is available in the Crystallography Open Database (COD),
# http://www.crystallography.net/
#
# All data on this site have been placed in the public domain by the
# contributors.
#
data_7120114
loop_
_publ_author_name
'Kawasaki, Kenshiro'
'Sugiyama, Rion'
'Tsuji, Takashi'
'Iwasa, Takeshi'
'Tsunoyama, Hironori'
'Mizuhata, Yoshiyuki'
'Tokitoh, Norihiro'
'Nakajima, Atsushi'
_publ_section_title
;
 Designer Ligand Field for Blue-green Luminescence of Organoeuropium(II)
 Sandwich Complexes with Cyclononatetraenyl Ligands
;
_journal_name_full               'Chem. Commun.'
_journal_paper_doi               10.1039/C7CC03045B
_journal_year                    2017
_chemical_formula_moiety         'C18 H18 Eu'
_chemical_formula_sum            'C18 H18 Eu'
_chemical_formula_weight         386.28
_chemical_name_systematic
;
Bis(cyclononatetraenyl)europium(II)
;
_chemical_properties_physical
', Air-sensitive,Moisture-sensitive,Oxygen-sensitive'
_space_group_crystal_system      monoclinic
_space_group_IT_number           14
_space_group_name_Hall           '-P 2yn'
_space_group_name_H-M_alt        'P 1 21/n 1'
_symmetry_space_group_name_Hall  '-P 2yn'
_symmetry_space_group_name_H-M   'P 1 21/n 1'
_atom_sites_solution_hydrogens   geom
_atom_sites_solution_primary     direct
_atom_sites_solution_secondary   difmap
_audit_creation_method           SHELXL-2014/7
_audit_update_record
;
2017-04-20 deposited with the CCDC.
2017-05-11 downloaded from the CCDC.
;
_cell_angle_alpha                90
_cell_angle_beta                 99.710(3)
_cell_angle_gamma                90
_cell_formula_units_Z            2
_cell_length_a                   7.2625(2)
_cell_length_b                   9.0561(4)
_cell_length_c                   11.2528(7)
_cell_measurement_reflns_used    9062
_cell_measurement_temperature    103(2)
_cell_measurement_theta_max      27.750
_cell_measurement_theta_min      2.904
_cell_volume                     729.49(6)
_computing_cell_refinement
;
HKL2000 (Otwinowski & Minor, 1997)
;
_computing_data_collection
;
CrystalClear (Rigaku, 1999)
;
_computing_data_reduction
;
HKL2000 (Otwinowski & Minor, 1997)
;
_computing_molecular_graphics
;
<i>Yadokari-XG</i> (Wakita, 2001; Kabuto <i>et al.</i>,  2009),
Mercury (Macrae <i>et al.</i>,  2008) and
<i>CrystalMaker</i> (Palmer, 2007)
;
_computing_publication_material
;
<i>Yadokari-XG</i> (Wakita, 2001; Kabuto <i>et al.</i>,  2009)
;
_computing_structure_refinement
;
SHELXL2014 (Sheldrick, 2015<i>b</i>)
;
_computing_structure_solution
;
SHELXT (Sheldrick, 2015<i>a</i>)
;
_diffrn_ambient_temperature      103(2)
_diffrn_detector_area_resol_mean 28.5714
_diffrn_measured_fraction_theta_full 0.998
_diffrn_measured_fraction_theta_max 0.998
_diffrn_measurement_device_type  'Rigaku Saturn'
_diffrn_measurement_method       \w
_diffrn_radiation_type           MoK\a
_diffrn_radiation_wavelength     0.71075
_diffrn_reflns_av_R_equivalents  0.0336
_diffrn_reflns_av_unetI/netI     0.0180
_diffrn_reflns_Laue_measured_fraction_full 0.998
_diffrn_reflns_Laue_measured_fraction_max 0.998
_diffrn_reflns_limit_h_max       9
_diffrn_reflns_limit_h_min       -9
_diffrn_reflns_limit_k_max       11
_diffrn_reflns_limit_k_min       -11
_diffrn_reflns_limit_l_max       14
_diffrn_reflns_limit_l_min       -14
_diffrn_reflns_number            9040
_diffrn_reflns_point_group_measured_fraction_full 0.998
_diffrn_reflns_point_group_measured_fraction_max 0.998
_diffrn_reflns_theta_full        25.242
_diffrn_reflns_theta_max         27.750
_diffrn_reflns_theta_min         2.904
_diffrn_source                   'fine-focus sealed tube'
_exptl_absorpt_coefficient_mu    4.282
_exptl_absorpt_correction_T_max  0.50609
_exptl_absorpt_correction_T_min  0.46967
_exptl_absorpt_correction_type   multi-scan
_exptl_absorpt_process_details
;
(MULABS; Blessing, 1995)
;
_exptl_crystal_colour            orange
_exptl_crystal_density_diffrn    1.759
_exptl_crystal_density_method    'not measured'
_exptl_crystal_description       prism
_exptl_crystal_F_000             378
_exptl_crystal_preparation       ', Luminescent'
_exptl_crystal_size_max          0.200
_exptl_crystal_size_mid          0.100
_exptl_crystal_size_min          0.050
_refine_diff_density_max         0.472
_refine_diff_density_min         -0.675
_refine_diff_density_rms         0.066
_refine_ls_extinction_method     none
_refine_ls_goodness_of_fit_ref   1.136
_refine_ls_hydrogen_treatment    constr
_refine_ls_matrix_type           full
_refine_ls_number_parameters     170
_refine_ls_number_reflns         1712
_refine_ls_number_restraints     108
_refine_ls_restrained_S_all      1.121
_refine_ls_R_factor_all          0.0246
_refine_ls_R_factor_gt           0.0186
_refine_ls_shift/su_max          0.001
_refine_ls_shift/su_mean         0.000
_refine_ls_structure_factor_coef Fsqd
_refine_ls_weighting_details
'w=1/[\s^2^(Fo^2^)+(0.0036P)^2^+1.0194P] where P=(Fo^2^+2Fc^2^)/3'
_refine_ls_weighting_scheme      calc
_refine_ls_wR_factor_gt          0.0374
_refine_ls_wR_factor_ref         0.0397
_reflns_Friedel_coverage         0.000
_reflns_number_gt                1395
_reflns_number_total             1712
_reflns_threshold_expression     'I > 2\s(I)'
_cod_data_source_file            c7cc03045b2.cif
_cod_data_source_block           cnt2eu
_cod_database_code               7120114
_shelx_space_group_comment
;
The symmetry employed for this shelxl refinement is uniquely defined
by the following loop, which should always be used as a source of
symmetry information in preference to the above space-group names.
They are only intended as comments.
;
_shelx_estimated_absorpt_t_min   0.481
_shelx_estimated_absorpt_t_max   0.814
_shelx_res_file
;

    cnt2eu.res created by SHELXL-2014/7

TITL cnt2eu_b.res
REM  Yadorkari-X generated
CELL 0.71075 7.2625 9.0561 11.2528 90.0000 99.7100 90.0000
ZERR 2.0 0.0002 0.0004 0.0007 0.0000 0.0030 0.0000
LATT 1
SYMM 1/2-X, 1/2+Y, 1/2-Z
REM  SPGR P21/n monoclinic
SFAC Eu C H
UNIT 2 36 36
SIZE 0.20 0.10 0.05
TEMP -170.0
L.S. 10
FMAP 2
PLAN -20
ACTA
CONF
LIST 4
WPDB -1
BOND $H
OMIT -10.000000 55.500000
OMIT    1    1    2
OMIT    2    0    0
OMIT    2    2    1

RIGU C1 > C9
RIGU C10 > C18
RTAB ydkr Eu1  C1
RTAB ydkr Eu1  C2
RTAB ydkr Eu1  C3
RTAB ydkr Eu1  C4
RTAB ydkr Eu1  C5
RTAB ydkr Eu1  C6
RTAB ydkr Eu1  C7
RTAB ydkr Eu1  C8
RTAB ydkr Eu1  C9
RTAB ydkr Eu1  C10
RTAB ydkr Eu1  C11
RTAB ydkr Eu1  C12
RTAB ydkr Eu1  C13
RTAB ydkr Eu1  C14
RTAB ydkr Eu1  C15
RTAB ydkr Eu1  C16
RTAB ydkr Eu1  C17
RTAB ydkr Eu1  C18
RTAB ydkr C1 Eu1 C2
RTAB ydkr C2 Eu1 C3
RTAB ydkr C3 Eu1 C4
RTAB ydkr C4 Eu1 C5
RTAB ydkr C5 Eu1 C6
RTAB ydkr C6 Eu1 C7
RTAB ydkr C7 Eu1 C8
RTAB ydkr C8 Eu1 C9
RTAB ydkr C9 Eu1 C1
RTAB ydkr C10 Eu1 C11
RTAB ydkr C11 Eu1 C12
RTAB ydkr C12 Eu1 C13
RTAB ydkr C13 Eu1 C14
RTAB ydkr C14 Eu1 C15
RTAB ydkr C15 Eu1 C16
RTAB ydkr C16 Eu1 C17
RTAB ydkr C17 Eu1 C18
RTAB ydkr C18 Eu1 C10

WGHT    0.003600    1.019400
FVAR       1.93235   0.57789
EU1   1    0.000000    0.000000    0.000000    10.50000    0.02425    0.02587 =
         0.01946    0.00117   -0.00002    0.00347
PART 1
C1    2    0.311072   -0.026484    0.192652    21.00000    0.04019    0.04869 =
         0.02951    0.00433   -0.01139   -0.00517
AFIX  43
H1    3    0.406213    0.040404    0.226808    21.00000   -1.20000
AFIX   0
C2    2    0.369455   -0.105577    0.098903    21.00000    0.02411    0.03182 =
         0.03419    0.00698   -0.00794   -0.00315
AFIX  43
H2    3    0.494345   -0.080091    0.092634    21.00000   -1.20000
AFIX   0
C3    2    0.300206   -0.211098    0.011180    21.00000    0.02017    0.02464 =
         0.03466    0.00589    0.00672    0.00262
AFIX  43
H3    3    0.391015   -0.232283   -0.038091    21.00000   -1.20000
AFIX   0
C4    2    0.139680   -0.294091   -0.025748    21.00000    0.03291    0.02146 =
         0.02963    0.00365    0.01436    0.00166
AFIX  43
H4    3    0.153851   -0.353013   -0.093469    21.00000   -1.20000
AFIX   0
C5    2   -0.034472   -0.317571    0.005503    21.00000    0.03951    0.01775 =
         0.02646    0.00070    0.01336   -0.00450
AFIX  43
H5    3   -0.101275   -0.387293   -0.048383    21.00000   -1.20000
AFIX   0
C6    2   -0.143249   -0.274422    0.087747    21.00000    0.03068    0.02791 =
         0.02710    0.00820    0.00793   -0.00199
AFIX  43
H6    3   -0.259135   -0.325485    0.073185    21.00000   -1.20000
AFIX   0
C7    2   -0.138406   -0.179442    0.186128    21.00000    0.03178    0.03834 =
         0.02112    0.00718    0.01054    0.00898
AFIX  43
H7    3   -0.249878   -0.188022    0.219282    21.00000   -1.20000
AFIX   0
C8    2   -0.017990   -0.075334    0.250382    21.00000    0.04795    0.04532 =
         0.01926    0.00413    0.00501    0.00314
AFIX  43
H8    3   -0.074679   -0.033033    0.312533    21.00000   -1.20000
AFIX   0
C9    2    0.158026   -0.014263    0.252111    21.00000    0.05457    0.04423 =
         0.02106   -0.00285   -0.00221   -0.00732
AFIX  43
H9    3    0.181584    0.059071    0.313153    21.00000   -1.20000
PART 2
AFIX   0
C10   2    0.355459   -0.035108    0.159585   -21.00000    0.01556    0.03053 =
         0.02645    0.00317    0.00327   -0.00017
AFIX  43
H10   3    0.472921    0.013342    0.177211   -21.00000   -1.20000
AFIX   0
C11   2    0.354698   -0.142402    0.064126   -21.00000    0.02789    0.03486 =
         0.03425   -0.00063    0.00380    0.00708
AFIX  43
H11   3    0.474768   -0.143258    0.041244   -21.00000   -1.20000
AFIX   0
C12   2    0.244332   -0.242782   -0.004984   -21.00000    0.04330    0.02759 =
         0.02869   -0.00350    0.00245    0.00906
AFIX  43
H12   3    0.309753   -0.284077   -0.063367   -21.00000   -1.20000
AFIX   0
C13   2    0.071187   -0.302050   -0.016603   -21.00000    0.04840    0.03550 =
         0.02985   -0.00035   -0.00269   -0.00234
AFIX  43
H13   3    0.049077   -0.367104   -0.083728   -21.00000   -1.20000
AFIX   0
C14   2   -0.082077   -0.295896    0.040043   -21.00000    0.04352    0.03387 =
         0.03962    0.00450    0.00134   -0.00305
AFIX  43
H14   3   -0.173095   -0.365095    0.004186   -21.00000   -1.20000
AFIX   0
C15   2   -0.146370   -0.222917    0.130961   -21.00000    0.03278    0.02998 =
         0.03065    0.00943    0.00007   -0.00437
AFIX  43
H15   3   -0.265376   -0.260848    0.139552   -21.00000   -1.20000
AFIX   0
C16   2   -0.094947   -0.109782    0.216545   -21.00000    0.02506    0.04056 =
         0.02719    0.00781    0.00227   -0.00013
AFIX  43
H16   3   -0.193627   -0.092640    0.260541   -21.00000   -1.20000
AFIX   0
C17   2    0.053604   -0.015163    0.257364   -21.00000    0.02742    0.03983 =
         0.01591    0.00032    0.00678    0.00265
AFIX  43
H17   3    0.024622    0.045339    0.320667   -21.00000   -1.20000
AFIX   0
C18   2    0.231833    0.018347    0.234123   -21.00000    0.02166    0.04757 =
         0.01916    0.00172   -0.00115    0.00278
AFIX  43
H18   3    0.284577    0.099514    0.281512   -21.00000   -1.20000
PART 0

AFIX   0
HKLF 4 1 1 0 0 0 1 0 0 0 1

REM  cnt2eu_b.res
REM R1 =  0.0186 for    1395 Fo > 4sig(Fo)  and  0.0246 for all    1712 data
REM    170 parameters refined using    108 restraints

END

WGHT      0.0036      1.0195

REM Highest difference peak  0.472,  deepest hole -0.675,  1-sigma level  0.066
Q1    1   0.1121  0.0007  0.0020  11.00000  0.05    0.47
Q2    1   0.3000 -0.1509  0.1337  11.00000  0.05    0.40
Q3    1   0.0548 -0.1428 -0.0288  11.00000  0.05    0.30
Q4    1   0.1359  0.0939  0.0525  11.00000  0.05    0.29
Q5    1  -0.0081 -0.0005 -0.1220  11.00000  0.05    0.27
Q6    1   0.0579  0.1364 -0.0354  11.00000  0.05    0.24
Q7    1   0.1464 -0.0884  0.0596  11.00000  0.05    0.23
Q8    1   0.1479 -0.0888 -0.0227  11.00000  0.05    0.23
Q9    1  -0.0078  0.0420 -0.1969  11.00000  0.05    0.22
Q10   1   0.0928 -0.1078  0.0799  11.00000  0.05    0.20
Q11   1   0.3639  0.1634  0.0208  11.00000  0.05    0.19
Q12   1   0.0212  0.2592  0.0270  11.00000  0.05    0.19
Q13   1   0.3130 -0.3009  0.1146  11.00000  0.05    0.19
Q14   1   0.1774  0.3566  0.0554  11.00000  0.05    0.18
Q15   1   0.0017 -0.0280  0.2996  11.00000  0.05    0.18
Q16   1   0.1314  0.0074  0.1223  11.00000  0.05    0.18
Q17   1   0.4332  0.1891 -0.0034  11.00000  0.05    0.17
Q18   1   0.1284  0.3241  0.2575  11.00000  0.05    0.17
Q19   1   0.2319  0.3661  0.1414  11.00000  0.05    0.17
Q20   1   0.1120  0.1229 -0.1588  11.00000  0.05    0.17
;
_shelx_res_checksum              69635
_shelx_hkl_file
;
  -9   0   1 2353.55   83.64
   9   0  -1 2674.31   82.08
  -9   0   2  -17.84   11.71
   9   0  -2   15.45    6.39
   9   0  -3 2654.73   83.61
  -9   0   3 2518.41   86.53
   9   0  -4   19.83    6.46
  -9   0   5 2789.12   95.60
   9   0  -5 3136.33   95.04
  -9   0   6  -18.54   12.96
   9   0  -6   12.87    6.99
   9   0  -7 1543.30   49.22
  -9   0   7 1399.95   54.88
   9   0  -8   16.29    6.60
   9  -1  -1   -2.17    6.66
   9   1  -1   31.48    7.46
  -9  -1   1  -10.16   12.64
  -9   1   1    0.71   12.96
   9   1  -2 3278.86  104.31
  -9  -1   2 3135.44  103.54
   9  -1  -2 3388.79  102.67
  -9   1   2 3145.71  103.99
   9   1  -3    1.36    6.97
   9  -1  -3   44.11    7.73
  -9  -1   4 2873.97   99.22
  -9   1   4 2789.87  100.76
   9  -1  -4 3239.30   95.19
   9   1  -4 2926.32   94.41
  -9  -1   5  -12.81   13.69
  -9   1   5   21.41   12.61
   9  -1  -5   16.19    6.88
   9   1  -5   -2.25    7.85
  -9  -1   6 2302.96   78.97
   9  -1  -6 2399.92   75.53
  -9   1   6 2184.55   78.37
   9   1  -6 2419.33   75.26
   9  -1  -7   23.97    6.92
  -9   1   7  -24.71   13.54
  -9  -1   7   57.04   15.09
  -9  -1   8 1584.23   57.18
  -9   1   8 1347.97   55.68
   9  -1  -8 1523.63   49.69
   9   1  -8 1462.68   48.91
   9   2  -1 4134.89  125.71
  -9  -2   1 3627.20  123.06
   9  -2  -1 4089.43  121.26
  -9   2   1 3645.10  126.54
  -9  -2   2   16.61   11.98
  -9   2   2    1.66   14.25
   9   2  -2    9.77    8.12
   9  -2  -2   15.83    5.55
   9  -2  -3 3330.04   95.57
   9   2  -3 3063.03   97.59
  -9   2   3 2825.32   99.78
  -9  -2   3 2727.45  101.11
   9   2  -4    0.04    8.77
  -9  -2   4  -11.94   12.40
  -9   2   4   17.30   14.87
   9  -2  -4   10.26    7.80
   9  -2  -5 2506.44   81.39
  -9  -2   5 2542.15   85.36
  -9   2   5 2283.21   83.91
   9   2  -5 2769.96   83.86
   9  -2  -6   83.09    8.45
  -9  -2   6   78.97   15.52
  -9   2   6   41.74   15.97
   9   2  -6   90.72   10.06
   9  -2  -7 2089.55   66.44
   9   2  -7 2138.20   66.74
  -9  -2   7 1953.47   71.61
  -9   2   7 1898.96   71.66
  -9   2   8   24.46   17.75
  -9   3   1   -0.18   12.56
   9   3  -1  -11.50   11.00
  -9  -3   1   78.17   14.44
   9  -3  -1   17.38    6.65
   9  -3  -2 2679.17   80.43
   9   3  -2 2510.82   83.40
  -9   3   2 2246.20   81.23
  -9  -3   2 2560.82   83.80
  -9  -3   3   53.94   15.20
  -9   3   3   15.37   12.93
   9   3  -3   52.96    9.95
   9  -3  -3   41.17    6.51
  -9   3   4 1514.82   57.81
   9   3  -4 1521.33   52.90
  -9  -3   4 1607.48   56.59
   9  -3  -4 1724.98   52.77
   9  -3  -5    8.81    6.57
  -9   3   5   -2.55   11.73
  -9  -3   5  -10.95   14.13
   9   3  -5   35.93    9.65
  -9  -3   6 1918.52   67.60
  -9   3   6 1751.45   65.51
   9   3  -6 2100.09   64.82
   9  -3  -6 1994.38   62.78
   9   3  -7   36.28    9.69
  -9   3   7   32.88   16.24
  -9  -4   1 1893.98   66.12
   9   4  -1 1852.18   67.22
   9  -4  -1 1999.55   63.02
  -9  -4   2   11.92   14.50
   9  -4  -2   21.37    6.47
   9   4  -3 1545.84   55.90
  -9  -4   3 1453.80   56.76
   9  -4  -3 1669.64   51.88
   9   4  -4   30.29   12.51
   9  -4  -4   -7.13    6.49
  -9  -4   4   22.39   12.73
  -9  -4   5 1474.74   54.78
   9   4  -5 1550.66   54.13
   9  -4  -5 1625.33   50.70
   9  -4  -6   29.26    7.74
   9  -5  -2 1723.99   56.10
   9  -5  -3   41.51    7.51
  -8   0   1    2.24   10.14
   8   0  -1   -3.01    5.09
  -8   0   2 3460.54  113.98
   8   0  -2 3630.61  112.79
  -8   0   3   24.74   11.04
   8   0  -3    7.23    5.37
  -8   0   4 3429.48  111.02
   8   0  -4 3558.26  109.55
   8   0  -5   -6.01    5.80
  -8   0   5    3.06   11.62
   8   0  -6 3623.01  110.36
  -8   0   6 3337.62  117.89
  -8   0   7    1.68   14.25
   8   0  -8 2484.80   77.47
   8   0  -8 2234.98   79.47
  -8   0   8 2522.62   83.54
   8   0  -9    7.15   10.96
  -8   0  10 2580.04   86.83
   8   0 -10 2577.67   79.41
   8   0 -10 2196.50   80.40
   8   0 -11  -34.92   14.66
   8   1  -1 5111.28  156.65
   8  -1  -1 5017.25  155.05
  -8   1   1 4869.75  155.97
  -8  -1   1 4965.27  156.83
   8   1  -2   73.94    6.87
   8  -1  -2   47.91    6.19
  -8  -1   3 3863.56  128.07
   8  -1  -3 4225.18  126.25
  -8   1   3 3929.55  129.40
   8   1  -3 3980.63  125.91
   8   1  -4   41.94    6.12
  -8   1   4   66.83   12.07
   8  -1  -4   63.96    6.99
  -8  -1   4   28.38   12.82
  -8  -1   5 3871.59  131.73
  -8   1   5 4176.81  132.93
   8  -1  -5 4240.54  129.75
   8   1  -5 4257.79  129.78
  -8  -1   6   36.30   13.81
   8  -1  -6   43.80    5.71
  -8   1   6   -5.38   11.54
   8   1  -6   31.18    6.29
   8  -1  -7 2871.69   89.71
  -8   1   7 2921.51   95.59
   8   1  -7 2803.66   89.61
  -8  -1   7 2679.37   93.42
   8  -1  -7 2837.12   91.70
   8  -1  -8   92.11    7.37
  -8   1   8   70.56   16.77
   8  -1  -8   77.67   13.48
  -8  -1   8   10.72   14.80
   8  -1  -9 2422.91   75.47
  -8   1   9 2300.62   82.79
   8   1  -9 2276.18   76.97
  -8  -1   9 2398.12   79.73
   8  -1  -9 2181.73   77.03
   8   1  -9 2493.74   75.89
   8   1 -10   15.87    6.31
  -8   1  10   39.45   17.17
   8  -1 -10   54.16   14.99
   8   1 -10    1.50   13.75
  -8  -1  10   20.03   20.14
   8  -1 -10   41.73    6.76
   8   2  -1   79.22    8.47
  -8  -2   1   44.78   12.19
   8  -2  -1   42.01    5.36
  -8   2   1   36.92   10.79
   8   2  -2 5382.09  167.05
  -8  -2   2 5227.25  166.70
  -8   2   2 5055.05  165.22
   8  -2  -2 5623.53  166.96
   8  -2  -3   14.29    5.27
  -8   2   3   18.30   12.04
   8   2  -3   21.33    7.05
  -8  -2   3   38.16   13.04
  -8   2   4 4716.86  145.73
  -8  -2   4 4374.25  145.62
   8  -2  -4 4657.14  144.17
   8   2  -4 4729.87  144.94
  -8  -2   5   42.68   16.13
  -8   2   5    0.25   13.53
   8   2  -5   -4.26    5.79
   8  -2  -5   14.81    6.17
   8   2  -6 3634.75  111.59
  -8   2   6 3516.30  118.20
   8  -2  -6 3319.52  112.04
  -8  -2   6 3626.94  118.19
   8  -2  -6 3642.16  111.63
   8   2  -7   15.29    5.81
   8  -2  -7   19.83    6.49
  -8   2   7  -14.93   14.82
   8  -2  -7  -11.65   11.90
   8  -2  -8 2811.80   86.08
   8   2  -8 2857.12   86.88
   8  -2  -8 2530.98   87.57
  -8   2   8 2786.68   92.22
  -8  -2   8 2644.53   91.21
  -8  -2   9   43.33   20.91
   8   2  -9   32.15    7.29
   8  -2  -9   48.37    7.68
  -8   2   9   76.16   20.31
   8  -2  -9   36.59   14.64
  -8   2  10 1697.82   62.12
   8  -2 -10 1580.03   55.98
   8   2 -10 1535.04   57.03
   8   2 -10 1661.58   53.57
   8  -2 -10 1702.18   53.76
  -8  -2  10 1701.47   58.85
   8   3  -1 4091.53  129.19
  -8  -3   1 3831.49  128.79
   8  -3  -1 4280.44  127.34
  -8   3   1 3909.69  128.85
  -8  -3   2  128.16   15.01
   8   3  -2   88.98    9.81
  -8   3   2   84.09   13.09
  -8  -3   3 4319.59  145.82
   8   3  -3 4566.81  144.75
   8  -3  -3 4857.74  141.97
  -8   3   3 4467.07  148.74
   8  -3  -4   46.86    6.27
   8   3  -4   84.36    9.75
  -8  -3   4   62.45   12.11
  -8   3   4   34.62   11.72
   8   3  -5 3566.84  112.59
   8  -3  -5 3564.82  111.26
  -8  -3   5 3548.69  114.76
  -8   3   5 3480.36  114.46
   8   3  -6   49.09    7.76
  -8   3   6   77.01   14.13
   8  -3  -6   30.73    6.11
  -8  -3   6   28.75   14.32
   8   3  -7 3059.10   98.24
  -8   3   7 3065.57  103.04
   8  -3  -7 2939.10   98.14
   8  -3  -7 3149.38   95.27
  -8  -3   7 2910.56  100.87
   8  -3  -8   -4.25   11.97
  -8  -3   8   26.69   15.92
  -8   3   8   11.95   13.72
   8   3  -8   28.23    8.29
   8  -3  -9 1889.57   67.23
   8  -3  -9 2051.31   64.08
  -8   3   9 1892.90   69.97
  -8  -3   9 2095.78   70.37
   8   3  -9 2072.48   65.90
   8  -3 -10    2.20   14.59
  -8   3  10  -16.19   16.95
   8   3 -10  -17.79    7.14
   8  -4  -1   19.03    5.72
   8   4  -1   30.57   10.83
  -8   4   1   22.84   12.19
  -8  -4   1   74.50   12.85
  -8  -4   2 3054.92  106.33
   8  -4  -2 3472.08  102.78
  -8   4   2 3239.38  104.82
   8   4  -2 3320.22  107.86
  -8   4   3   76.88   12.08
   8  -4  -3   60.45    5.97
   8   4  -3  120.90   10.84
  -8  -4   3   91.52   13.21
  -8  -4   4 3522.36  114.08
   8   4  -4 3431.25  111.31
  -8   4   4 3319.40  115.32
   8  -4  -4 3708.92  110.43
   8  -4  -5   15.01   11.47
  -8  -4   5   33.69   13.46
   8   4  -5   20.38    7.82
   8  -4  -6 2803.38   93.50
  -8  -4   6 2911.18   98.75
   8   4  -6 3093.43   93.81
   8   4  -7    9.71    9.03
   8  -4  -7   23.13   12.80
  -8  -4   7   -0.82   14.04
  -8   4   7   59.42   26.76
   8   4  -8 2315.88   74.08
   8  -4  -8 2224.37   76.65
  -8   4   8 2364.26   88.85
  -8  -4   8 2352.92   77.49
  -8   4   9   79.04   30.65
   8   4  -9   23.81    7.26
  -8  -5   1 2146.75   75.34
   8   5  -1 2378.59   77.03
   8  -5  -2   19.34    5.82
   8   5  -2  -11.13   13.58
  -8  -5   2   30.81   11.94
  -8  -5   3 2630.22   93.94
   8   5  -3 2865.87   92.18
  -8  -5   4  -16.11   13.05
   8   5  -4   25.47   10.67
  -8   5   4   45.17   24.56
  -8   5   5 3593.56  122.16
   8  -5  -5 3031.51  107.32
  -8  -5   5 3416.56  109.05
   8   5  -5 3420.73  111.57
   8   5  -6   -7.08   11.27
  -8  -5   6   14.49   13.31
  -8  -5   7 1678.02   61.54
   8   5  -7 1785.18   58.96
  -8   5   7 1819.89   68.61
   8  -5  -7 1602.00   57.10
   8  -5  -8  -17.85   12.29
  -8  -5   8    1.68   13.72
   8   5  -8   45.46    9.81
  -8   5   8   41.31   28.07
   8  -6  -1   10.34    5.49
   8   6  -1   -9.26   16.49
  -8  -6   1   57.31   13.03
   8   6  -2 2339.30   77.27
  -8  -6   2 2061.30   73.54
  -8   6   3   -8.26   22.75
   8   6  -3   -1.93   15.67
  -8  -6   3   15.34   14.29
   8   6  -4 2575.72   81.85
  -8   6   4 2286.97   86.48
  -8  -6   4 2242.12   81.17
  -8  -6   5  -12.57   11.90
  -8   6   5   33.06   28.27
   8  -6  -5  -26.06   11.23
   8   6  -6 1684.86   60.32
  -8  -6   6 1778.28   58.97
  -8   6   6 1637.85   71.96
  -8  -6   7   30.69   14.38
   8  -6  -7   49.24   13.44
   8   6  -7   38.78   12.40
  -8  -7   1 2148.84   72.59
  -8   7   2   62.98   26.11
  -8  -7   3 1611.92   57.63
  -8  -7   4   25.13   12.94
  -8   7   4  -27.77   29.60
  -7   0   1 9047.24  283.72
   7   0  -1 9216.45  280.42
  -7   0   2   23.25    8.74
   7   0  -2   -1.04    4.64
  -7   0   3 6830.21  210.87
   7   0  -3 6857.32  211.23
  -7   0   4    2.00   10.04
   7   0  -4   19.18    4.74
  -7   0   5 7484.26  240.61
   7   0  -5 7538.13  229.23
   7   0  -5 7337.28  230.68
   7   0  -6   15.96    4.71
   7   0  -6    5.42    8.26
  -7   0   7 6588.99  209.74
   7   0  -7 6396.69  208.30
   7   0  -7 6758.88  204.50
   7   0  -8    4.42   11.49
  -7   0   9 4303.87  139.97
   7   0  -9 4135.60  134.75
   7   0  -9 4139.71  131.44
   7   0 -10   18.89   12.55
   7   0 -10   -6.69    6.08
  -7   0  10   36.68   19.11
   7   0 -11 3188.27  103.92
   7   0 -11 3241.25  100.66
  -7   0  11 3047.29  106.10
   7   0 -12   -9.36   13.47
   7   0 -12   -7.07    6.42
  -7   0  12   37.31   22.92
   7  -1  -1   47.18    5.46
  -7   1   1   69.44   10.29
  -7  -1   1   83.98   12.03
   7   1  -2 7644.69  232.29
   7  -1  -2 7391.70  232.35
  -7  -1   2 7727.72  234.44
  -7   1   2 7391.54  235.38
  -7  -1   3   28.27   10.37
   7   1  -3   26.67    4.96
   7  -1  -3   25.76    4.57
   7  -1  -3    2.61    6.65
  -7   1   3   10.26    9.15
   7  -1  -4 6595.73  205.90
  -7  -1   4 6753.85  209.58
  -7   1   4 6520.05  206.84
   7   1  -4 6792.70  205.59
   7  -1  -4 6603.30  206.59
   7   1  -5   10.75    5.80
  -7   1   5   66.11   13.35
  -7  -1   5   25.25   10.88
   7  -1  -5   50.61    9.67
   7   1  -5   12.29    8.12
   7   1  -6 7024.09  210.56
  -7   1   6 6774.60  213.81
   7  -1  -6 6766.15  212.64
  -7  -1   6 6753.24  215.19
   7  -1  -6 6969.67  211.41
   7   1  -6 6699.55  213.39
  -7   1   7    9.16   14.43
   7   1  -7   39.18    6.05
  -7  -1   7   51.75   14.66
   7  -1  -7    9.60    5.34
   7  -1  -7   -0.75    9.64
   7   1  -7   -9.92   10.46
   7  -1  -8 4638.87  139.91
   7  -1  -8 4459.64  140.80
  -7  -1   8 4394.06  149.17
   7   1  -8 4517.09  139.89
   7   1  -8 4385.20  141.78
  -7   1   8 4432.61  149.24
   7  -1  -9   32.90   11.50
   7   1  -9  -10.05    5.97
  -7  -1   9    5.83   15.71
   7  -1  -9   -2.60    4.62
  -7   1   9   22.95   18.92
   7   1  -9   -3.80   13.06
  -7  -1  10 3157.08  107.87
   7  -1 -10 3147.94  103.57
   7  -1 -10 3217.18  101.42
   7   1 -10 3330.85  101.84
  -7   1  10 3124.62  107.14
   7   1 -10 3190.86  104.00
   7  -1 -11   11.48    5.78
   7  -1 -11   -1.50   12.35
   7   1 -11   22.78    6.71
  -7  -1  11    8.96   20.81
   7   1 -11   25.62   14.28
  -7   1  11   21.32   21.82
   7  -1 -12 1858.22   63.60
   7   1 -12 1936.37   65.17
  -7   1  12 1832.06   70.58
   7   1 -12 1782.33   59.09
   7  -1 -12 1814.06   60.19
  -7  -1  12 1815.74   67.54
   7  -2  -1 5820.88  175.48
   7   2  -1 5617.60  177.51
  -7   2   1 5831.55  176.44
  -7  -2   1 5537.65  178.85
  -7  -2   2  -19.59    9.62
   7   2  -2   14.30    5.43
  -7   2   2   21.02    9.87
   7  -2  -2    8.89    4.57
  -7   2   3 6961.00  214.79
   7  -2  -3 7126.97  216.67
   7   2  -3 6723.60  214.23
  -7  -2   3 6736.32  216.55
   7  -2  -3 7234.96  214.81
   7  -2  -4  150.41   10.97
  -7   2   4  142.11   12.49
   7  -2  -4  136.05    7.05
   7   2  -4  112.78   13.83
  -7  -2   4  105.52   13.14
   7  -2  -5 5487.08  165.78
   7   2  -5 5183.87  166.88
   7   2  -5 5374.64  163.94
  -7   2   5 5344.33  172.09
   7  -2  -5 5445.24  167.39
  -7  -2   5 5181.68  170.40
   7  -2  -6    2.02    5.37
  -7  -2   6    3.53   11.86
   7  -2  -6   19.88    9.80
   7   2  -6   -0.11    5.97
  -7   2   6   48.71   14.11
   7  -2  -7 4208.07  126.16
  -7  -2   7 4051.90  132.61
   7  -2  -7 4034.30  128.26
  -7   2   7 4027.72  131.60
   7   2  -7 3903.33  128.16
   7   2  -7 3992.54  124.96
   7  -2  -8   47.90   11.40
   7   2  -8   86.79   14.01
  -7   2   8   73.52   15.04
   7   2  -8   62.38    6.38
   7  -2  -9 2803.35   94.61
  -7  -2   9 2942.01  100.96
  -7   2   9 2983.45  104.29
   7   2  -9 2949.53   97.18
   7   2  -9 2979.75   92.00
  -7   2  10  -20.14   19.64
   7   2 -10    2.60    5.05
   7   2 -10   -5.61   13.16
   7  -2 -11 1667.18   53.33
  -7   2  11 1535.10   60.82
   7  -2 -11 1725.96   56.81
   7   2 -11 1625.28   52.10
  -7  -2  11 1558.61   58.02
   7   2 -11 1601.53   57.93
   7   2 -12   53.31    6.85
   7  -2 -12   -2.11   13.99
  -7   2  12   14.73   19.54
   7   2 -12   29.38   17.06
   7  -2 -12   52.07    7.85
  -7  -3   1    6.56    8.75
   7  -3  -1   17.80    4.71
   7   3  -1    4.19    7.14
  -7   3   1   56.17    9.80
  -7  -3   2 7211.74  231.60
   7   3  -2 7299.51  233.54
   7  -3  -2 8094.56  231.70
   7  -3  -2 7672.57  236.07
  -7   3   2 7352.53  234.25
   7  -3  -3   10.48    8.34
   7   3  -3   27.85    7.27
  -7   3   3   25.27   10.27
  -7  -3   3   29.16   11.63
   7  -3  -3   26.24    5.04
   7  -3  -4 5771.28  176.92
  -7   3   4 5544.30  174.41
   7   3  -4 5700.53  175.45
  -7  -3   4 5503.97  176.25
   7  -3  -5   33.55   10.31
  -7  -3   5   17.86   11.81
  -7   3   5   11.43   11.83
  -7   3   5   27.91   25.22
   7   3  -5   14.54    6.07
  -7  -3   6 3282.97  104.24
  -7   3   6 3076.47  109.70
  -7   3   6 3228.90  103.50
   7   3  -6 3047.21   99.08
   7  -3  -6 3115.04  101.11
   7   3  -6 3159.08  100.00
  -7  -3   7   -5.15   12.80
  -7   3   7   20.55   24.02
   7   3  -7   38.38    5.61
  -7   3   7   13.26   12.43
   7   3  -7    9.50   11.79
   7  -3  -7   59.69   10.88
  -7  -3   8 3320.36  112.89
   7   3  -8 3374.51  108.51
   7  -3  -8 3314.47  106.89
  -7   3   8 3447.68  114.76
  -7   3   8 3238.37  117.53
   7   3  -8 3491.79  107.16
  -7   3   9   62.74   28.18
  -7   3   9   43.20   19.48
   7  -3  -9   30.97   12.32
   7   3  -9   47.16    7.16
   7   3 -10 2278.24   69.64
  -7   3  10 2136.99   75.33
   7  -3 -10 1951.90   70.59
  -7   3  10 2086.82   81.34
   7   3 -10 2233.03   72.75
  -7  -3  10 2151.44   76.87
  -7   3  11  -15.20   25.49
   7  -3 -11   33.30   14.55
  -7  -3  11   24.95   19.17
  -7   3  11   54.55   18.02
   7   3 -11  -36.11   16.44
  -7  -4   1 7391.17  240.41
   7   4  -1 7670.47  243.56
  -7   4   1 7720.00  244.32
   7  -4  -1 8244.57  238.89
  -7  -4   1 7710.05  244.78
  -7  -4   2   37.02    9.40
  -7   4   2   -3.57    9.33
   7   4  -2   12.12    8.20
  -7  -4   2   60.23   10.45
   7  -4  -2   25.52    8.31
  -7  -4   3 5669.83  179.71
  -7   4   3 5843.87  185.17
   7  -4  -3 5781.66  181.48
  -7   4   3 5875.75  190.39
   7   4  -3 5797.91  180.35
  -7  -4   4  136.95   11.86
   7   4  -4   97.55    9.64
  -7   4   4  111.52   26.03
  -7   4   4  111.10   12.21
   7  -4  -4  152.16   12.33
   7  -4  -5 4215.00  136.93
  -7  -4   5 4289.88  134.85
   7   4  -5 4256.52  131.63
  -7   4   5 4170.73  134.11
  -7   4   5 4124.38  138.97
  -7   4   6   14.96   24.43
  -7  -4   6   25.38   14.85
   7  -4  -6    7.77   10.42
   7   4  -6   30.89    7.53
  -7   4   6   20.91   11.31
   7   4  -7 3109.85   97.74
   7  -4  -7 3119.52   97.54
  -7   4   7 3212.75  101.29
  -7   4   7 3029.91  104.10
   7   4  -7 2860.47   99.03
  -7  -4   7 3020.64  104.56
  -7   4   8   41.83   26.81
   7   4  -8   22.47    6.82
   7  -4  -8   29.11   14.81
  -7  -4   8    8.45   14.60
  -7   4   8   -3.82   11.47
   7   4  -8    5.16   14.06
   7   4  -9 3357.91  107.96
   7   4  -9 3293.03  105.25
  -7   4   9 3247.96  115.02
  -7  -4   9 3538.12  112.60
   7  -4  -9 2986.71  106.61
  -7   4   9 3514.46  115.67
   7   4 -10   29.65   15.73
   7   4 -10   14.22    6.02
  -7   4  10   -6.37   17.95
  -7  -4  10  -15.95   16.49
  -7   4  10  -53.95   26.67
   7  -4 -10  -23.23   12.26
  -7   4  11 1677.06   67.33
   7   4 -11 1644.24   56.69
   7  -4 -11 1576.23   56.02
  -7   4  11 1576.90   61.81
  -7  -4  11 1692.75   62.52
   7   4 -11 1467.97   52.23
  -7  -5   1   42.60   10.02
  -7  -5   1   38.04   14.28
   7  -5  -1   13.78    9.55
   7   5  -2 5423.52  158.22
  -7   5   2 4841.74  166.22
  -7  -5   2 4865.63  159.21
  -7  -5   2 5067.15  159.62
   7  -5  -2 4664.65  157.13
   7   5  -3   96.35   10.25
  -7  -5   3   92.97   14.41
  -7   5   3   17.32   23.94
  -7  -5   3   54.75   11.38
  -7  -5   4 4048.41  140.02
   7   5  -4 4517.59  140.61
  -7   5   4 4654.52  144.34
   7  -5  -4 4289.25  138.15
  -7   5   5   57.91   27.34
   7   5  -5  105.82    9.72
   7  -5  -5   71.23   13.40
  -7  -5   6 4043.37  130.65
   7  -5  -6 3764.67  126.94
  -7   5   6 3834.06  129.29
   7   5  -6 4037.11  125.84
   7  -5  -7   30.98   12.70
   7   5  -7   34.66    9.57
  -7  -5   7    4.03   14.83
  -7   5   7  111.59   31.23
  -7   5   8 2828.25  102.97
   7   5  -8 2483.35   87.75
  -7  -5   8 2494.85   90.64
   7  -5  -8 2621.29   86.39
   7   5  -8 2851.39   86.94
   7   5  -9   16.26    8.86
  -7  -5   9   67.62   16.33
   7  -5  -9   26.19   13.42
  -7   5  10 2042.87   80.80
  -7  -5  10 2300.28   78.62
   7   5 -10 2100.74   71.63
   7   5 -10 2070.41   68.14
   7  -5 -10 1926.16   68.81
  -7  -6   1 3702.05  127.77
  -7   6   1 4411.04  138.11
  -7  -6   1 4096.95  126.45
   7  -6  -1 3897.83  125.13
   7   6  -1 3966.51  130.38
   7   6  -2   53.00   13.19
  -7   6   2  165.61   22.74
  -7  -6   2   75.18   11.19
   7  -6  -2   64.64   11.93
  -7  -6   2   32.28   11.59
  -7  -6   3 3056.03   97.33
  -7  -6   3 2686.96   95.66
   7  -6  -3 2851.44   96.50
  -7   6   3 3069.63  104.30
   7   6  -3 3139.55   97.17
   7   6  -4   56.14   12.62
   7  -6  -4    0.94   12.32
  -7  -6   4   12.99   11.82
  -7   6   4   -6.75   23.91
  -7  -6   5 3759.52  116.63
   7  -6  -5 3421.55  113.66
  -7   6   5 3464.72  130.18
   7   6  -5 3568.74  116.14
   7  -6  -6   34.09   14.15
  -7  -6   6  112.86   13.24
   7   6  -6   74.24   11.10
  -7   6   6   -9.06   31.53
  -7  -6   7 2065.93   72.75
   7   6  -7 2165.84   70.52
  -7   6   7 1961.88   81.69
   7  -6  -7 1946.38   69.63
  -7   6   8  -58.20   30.27
   7   6  -8   26.60   10.36
   7  -6  -8  -16.34   13.49
  -7   6   9 1883.35   78.21
   7   6  -9 1714.47   62.43
  -7  -6   9 1990.86   66.65
   7  -6  -9 1679.67   61.84
   7  -7  -1   32.30   11.83
  -7  -7   1   24.69   11.64
  -7   7   1   81.00   21.37
   7   7  -1   37.15   21.06
  -7   7   2 2754.78   96.76
  -7  -7   2 2472.97   88.04
  -7  -7   2 2781.01   88.22
   7   7  -2 2845.08   94.62
   7  -7  -2 2521.96   86.31
   7   7  -3   68.53   18.40
  -7  -7   3    1.68   12.45
  -7   7   3   48.51   27.05
   7  -7  -3   46.69   12.12
  -7  -7   3   15.06   10.62
  -7  -7   4 2055.00   67.95
   7  -7  -4 1897.01   64.68
  -7   7   4 1809.76   78.69
   7   7  -4 2009.89   68.63
  -7  -7   4 1797.51   65.56
  -7   7   5  165.90   33.32
   7  -7  -5   57.42   15.26
   7   7  -5  102.22   16.52
  -7  -7   6 1917.52   64.21
   7   7  -6 2103.59   67.82
  -7   7   6 1658.44   83.61
   7  -7  -6 1764.66   62.65
   7  -7  -7   10.90   13.84
   7   7  -7   11.62   12.87
  -7   7   7   79.66   39.60
  -7  -7   7   31.01   14.01
   7  -7  -8 1298.45   49.78
   7   7  -8 1390.97   52.28
  -7  -7   8 1431.41   50.99
   7  -8  -1 1825.36   64.33
  -7  -8   1 1981.32   67.58
  -7  -8   1 1802.24   70.44
   7   8  -1 2273.39   78.14
  -7   8   1 1925.73   76.55
  -7  -8   2   33.74   12.68
  -7   8   2    4.98   26.14
  -7  -8   2   59.35   12.45
   7  -8  -2   36.12   12.24
   7   8  -2   75.69   24.70
  -7  -8   3 1607.65   59.08
   7   8  -3 1912.05   69.11
  -7  -8   3 1632.97   58.51
   7  -8  -3 1499.89   56.99
  -7   8   3 1823.37   75.38
  -7  -8   4   17.31   13.98
   7  -8  -4    2.79   12.23
  -7  -8   4   -8.94   12.35
   7   8  -4   20.40   20.65
  -7   8   4   25.71   37.42
  -7   8   5 1588.02   67.74
   7   8  -5 1577.36   60.67
  -7  -8   5 1491.34   52.80
   7  -8  -5 1362.19   51.77
   7  -8  -6    9.86   14.86
  -7  -8   6   -3.14   12.89
  -6   0   1   36.77    9.09
  -6   0   1    2.71    5.56
   6   0  -1   15.73    4.76
   6   0  -1    5.27    3.76
  -6   0   215375.28  470.29
   6   0  -215400.35  467.36
   6   0  -215223.17  468.71
  -6   0   3   40.63    8.95
   6   0  -3   11.24    5.55
   6   0  -3    8.40    3.89
   6   0  -4 8583.84  260.73
   6   0  -4 8332.93  259.50
  -6   0   4 8603.31  265.21
  -6   0   5    9.27   10.42
   6   0  -5   -4.11    3.82
   6   0  -5   -6.99    7.81
   6   0  -6 8300.69  252.39
  -6   0   6 8082.83  260.29
   6   0  -6 8284.38  254.06
  -6   0   7   26.30   13.54
   6   0  -7  -24.38    8.96
  -6   0   8 4950.67  162.48
   6   0  -8 5183.09  160.70
   6   0  -8 5175.46  158.44
   6   0  -9   -2.53    4.26
  -6   0   9    5.94   18.01
  -6   0  10 3176.72  114.21
   6   0 -10 3521.98  108.55
   6   0 -10 3637.73  113.06
  -6   0  11   53.95   20.78
   6   0 -11   12.16   13.05
   6   0 -11   11.14    5.37
  -6   0  12 3255.80  116.06
   6   0 -12 3433.76  110.40
   6   0 -12 3438.17  106.47
  -6   0  13  -38.81   21.69
   6   0 -13   -4.70    4.99
   6   0 -13    2.85   14.50
  -6   1   114447.87  456.13
  -6   1   114904.05  450.42
   6   1  -114693.02  450.05
  -6  -1   115046.90  453.06
  -6  -1   115498.30  446.24
   6  -1  -114197.89  448.84
   6  -1  -113624.47  448.36
   6   1  -2  338.98   14.17
   6   1  -2  371.32   14.03
   6  -1  -2  431.26   13.93
  -6   1   2  436.34   16.92
  -6  -1   2  364.47   16.95
   6  -1  -2  445.20   15.70
  -6  -1   2  400.74   14.25
   6   1  -310287.68  311.45
   6   1  -310277.26  309.99
   6  -1  -3 9781.03  310.23
   6  -1  -310239.56  311.14
  -6   1   310062.25  314.32
  -6  -1   310220.03  312.59
  -6  -1   4  542.33   21.09
   6  -1  -4  422.53   17.41
   6  -1  -4  430.77   15.84
  -6   1   4  450.74   19.94
  -6  -1   5 8951.90  274.47
   6  -1  -5 8763.27  269.88
  -6   1   5 8511.75  277.13
   6   1  -5 9022.36  268.33
   6   1  -5 8887.27  271.86
   6  -1  -5 8627.97  269.67
   6   1  -6   71.71    6.07
   6   1  -6  112.51   10.30
  -6  -1   6   77.64   12.46
   6  -1  -6  108.01    5.66
  -6   1   6  111.15   14.25
   6  -1  -6   79.76    9.26
  -6  -1   7 7379.97  231.87
   6   1  -7 7130.90  224.99
   6  -1  -7 7034.92  222.41
  -6   1   7 7317.09  230.83
   6   1  -7 7280.33  221.92
   6   1  -8  191.25    8.03
  -6  -1   8  120.27   18.10
  -6   1   8  219.15   17.55
   6   1  -8  193.07   13.61
  -6  -1   9 4181.73  131.35
   6  -1  -9 4016.62  128.57
  -6   1   9 4016.99  136.14
   6   1  -9 4088.39  131.55
   6   1  -9 4104.05  127.83
   6  -1 -10   26.03   11.64
  -6   1  10   42.37   20.79
   6   1 -10  -23.63   11.73
   6   1 -10    2.04    5.48
  -6  -1  11 3567.33  118.99
   6  -1 -11 3628.74  113.71
  -6   1  11 3540.27  125.32
   6   1 -11 3493.80  111.47
   6  -1 -11 3433.57  111.63
   6   1 -11 3550.61  113.26
   6   1 -12   -3.71   14.46
   6   1 -12   28.50    5.64
  -6   1  12   67.33   23.35
   6  -1 -12  -11.23   13.26
   6  -1 -12    4.96    5.58
   6  -1 -13 1746.65   61.03
  -6  -1  13 1866.90   73.09
   6   1 -13 2112.30   67.46
   6  -1 -13 1896.21   66.66
  -6  -2   1   -0.54    8.78
  -6  -2   1   19.35    6.96
   6  -2  -1    0.54    5.92
   6  -2  -1    6.21    3.93
  -6   2   1   14.39    8.14
   6  -2  -2 9261.17  278.79
   6  -2  -2 9505.30  284.98
   6   2  -2 8747.85  279.38
  -6   2   2 9215.61  279.62
   6   2  -2 8668.86  279.22
  -6  -2   2 9422.20  281.23
  -6  -2   2 8914.25  281.23
  -6   2   3   80.37   10.04
   6   2  -3   87.47    5.96
   6   2  -3  123.48    8.25
  -6  -2   3  119.23    7.39
   6  -2  -3   99.05    8.16
  -6  -2   3   83.06   10.61
  -6   2   410417.73  330.57
  -6  -2   4 9885.70  312.95
   6   2  -4 9723.92  310.93
   6   2  -4 9781.85  307.52
   6  -2  -410600.09  311.99
  -6   2   410393.89  316.41
  -6  -2   5   60.97   10.44
  -6   2   5   -0.61   10.76
   6  -2  -5   13.92    7.71
   6   2  -5   37.59    7.67
   6   2  -5   11.77    4.81
   6  -2  -6 8159.74  247.27
  -6  -2   6 7914.01  254.06
   6   2  -6 8006.50  248.41
  -6   2   6 7950.77  256.16
   6   2  -6 8048.54  244.25
  -6   2   6 7963.12  256.68
  -6  -2   7   52.81   13.30
  -6   2   7   33.49   12.14
   6  -2  -7   27.99    9.58
   6   2  -7   45.75    5.65
  -6   2   7   84.59   22.21
  -6   2   8 6482.11  211.31
  -6  -2   8 6895.45  208.05
   6   2  -8 6414.40  203.84
   6   2  -8 6431.39  199.22
   6  -2  -8 6397.29  201.94
  -6   2   8 6451.91  207.22
  -6   2   9   38.94   22.65
  -6  -2   9   36.86   18.62
   6  -2  -9   38.10   11.13
   6   2  -9   38.26   11.95
   6   2  -9   13.59    4.46
  -6   2  10 4290.83  140.18
   6   2 -10 3880.68  130.43
  -6   2  10 3841.22  130.97
  -6  -2  10 4052.59  129.74
   6  -2 -10 3999.84  126.37
   6   2 -10 3881.80  123.02
  -6   2  11  101.87   21.98
  -6  -2  11    9.54   19.93
   6   2 -11   17.02    5.73
  -6   2  11   69.89   22.43
   6   2 -11   30.61   14.05
   6  -2 -12 2477.58   79.23
  -6  -2  12 2284.35   88.63
   6   2 -12 2476.51   82.15
  -6   2  12 2125.56   85.75
   6   2 -12 2341.01   74.64
  -6   2  12 2534.44   90.63
  -6   2  13   86.62   28.21
   6  -2 -13   20.65   15.31
  -6   2  13   46.66   26.53
   6   2 -13   35.01   15.28
  -6   3   1 8728.92  263.52
   6  -3  -1 8867.60  276.29
   6   3  -1 8335.44  266.32
  -6  -3   1 8602.06  267.24
  -6  -3   1 8741.92  268.31
  -6   3   2   33.53    8.78
   6   3  -2   69.30    6.95
  -6  -3   2   38.67   12.04
  -6   3   2   59.38   17.46
   6  -3  -2   35.35    6.92
   6   3  -3 7561.90  249.11
  -6  -3   3 7849.06  254.55
   6  -3  -3 8869.10  251.25
   6   3  -3 7797.27  247.74
  -6  -3   3 7806.81  248.49
  -6   3   3 8477.31  246.86
  -6   3   3 8263.81  257.83
  -6   3   4   66.60   24.64
   6   3  -4   17.14    5.45
  -6  -3   4   -5.26    7.03
  -6   3   4   -4.49    8.81
  -6  -3   5 8730.50  274.86
   6  -3  -5 9435.23  276.02
   6   3  -5 8737.68  272.44
  -6   3   5 9037.06  276.64
   6   3  -5 8640.54  272.40
  -6   3   5 8703.50  277.52
  -6  -3   6  -28.85   13.74
   6   3  -6   11.66   10.16
  -6   3   6   40.88   12.03
   6  -3  -6   30.23   10.28
  -6   3   6   55.32   25.76
   6   3  -7 5626.84  175.12
  -6   3   7 5439.71  183.73
   6   3  -7 5411.30  176.25
   6  -3  -7 5732.76  176.47
  -6  -3   7 5734.87  183.52
  -6   3   7 5992.58  184.45
   6   3  -8   28.01   10.82
  -6   3   8  -25.77   23.18
  -6  -3   8   34.78   14.19
  -6   3   8   41.73   16.63
   6   3  -8   34.10    5.39
  -6   3   9 5655.48  191.55
   6   3  -9 5926.80  185.07
   6   3  -9 6110.74  183.78
  -6   3   9 5994.94  193.91
   6  -3  -9 5981.61  185.61
  -6  -3   9 5860.33  187.14
  -6  -3  10   18.85   18.61
   6   3 -10   -2.82   12.22
   6  -3 -10   43.84   12.10
  -6   3  10   -6.82   29.17
  -6   3  10   58.64   18.81
   6   3 -10   18.70    5.49
   6  -3 -11 2879.40   94.40
  -6   3  11 3198.94  107.75
   6   3 -11 2926.97   94.33
   6   3 -11 2897.30   91.21
  -6   3  11 2574.30  104.75
  -6  -3  11 2761.53  102.92
  -6  -3  12   28.56   21.33
  -6   3  12  -29.17   21.95
   6   3 -12    9.86   14.62
  -6   3  12  119.63   30.87
   6   3 -13 2209.03   72.26
  -6   3  13 1779.69   76.32
  -6   3  13 2162.49   79.39
  -6   4   1   61.09   19.65
  -6   4   1   64.79    8.18
  -6  -4   1   95.98   10.80
   6  -4  -1   81.43    8.57
  -6  -4   1  101.57    9.19
   6   4  -1   72.05    9.66
   6   4  -2 6860.36  208.37
  -6   4   2 6907.79  209.10
  -6  -4   2 6788.93  213.11
   6  -4  -2 6537.74  211.41
  -6   4   2 6136.16  214.09
  -6  -4   2 7011.93  207.61
  -6  -4   3  -12.43   11.24
  -6  -4   3   15.37    8.03
  -6   4   3   -4.16   18.92
   6  -4  -3    6.96    8.43
  -6   4   3   -3.66    9.07
   6   4  -3   -2.94    7.14
  -6   4   4 6661.94  198.69
   6  -4  -4 6457.82  200.94
  -6  -4   4 6410.09  202.82
   6   4  -4 6600.59  198.50
  -6   4   4 6270.50  206.06
  -6  -4   4 6172.22  204.23
   6   4  -4 6294.62  198.87
  -6   4   5  154.09   12.35
   6   4  -5  130.19   13.69
  -6   4   5  161.58   24.85
   6   4  -5  201.87    9.76
  -6  -4   5  172.14   13.69
   6  -4  -5  153.62   12.20
  -6  -4   5  154.37   10.77
   6  -4  -6 5145.41  169.13
  -6   4   6 5429.91  170.29
  -6   4   6 5162.33  179.06
   6   4  -6 5333.08  167.37
  -6  -4   6 5465.88  174.62
   6   4  -6 5521.94  166.48
   6   4  -7   36.28    7.07
   6  -4  -7  -17.58   11.61
  -6  -4   7   49.94   13.71
  -6   4   7   43.13   12.33
   6   4  -7   11.84   12.45
  -6  -4   8 4900.21  159.01
  -6   4   8 4751.14  161.46
  -6   4   8 4932.13  155.79
   6   4  -8 4740.50  150.04
   6   4  -8 4417.11  150.27
   6  -4  -8 4835.89  149.65
  -6   4   9   37.73   17.13
   6   4  -9   14.20   15.44
   6  -4  -9   -1.97   12.10
  -6  -4   9    7.01   14.84
  -6   4   9   51.52   30.62
   6   4 -10 3397.80  105.32
   6  -4 -10 3393.33  105.88
   6   4 -10 3513.76  110.14
  -6   4  10 2928.88  112.97
  -6  -4  10 3326.13  112.47
  -6   4  10 3308.74  122.42
   6   4 -11   26.85   16.89
  -6  -4  11   -1.20   20.50
  -6   4  11  -26.57   21.17
   6  -4 -11  -14.43   12.71
  -6   4  11  -78.07   26.97
  -6  -4  12 2064.36   76.24
   6   4 -12 1870.45   69.74
  -6   4  12 2205.27   82.75
   6  -4 -12 1882.92   67.43
  -6  -5   1 7655.63  230.84
   6  -5  -1 7144.52  231.14
   6   5  -1 7483.35  231.13
  -6  -5   1 7589.61  236.82
  -6   5   1 7450.09  237.34
   6   5  -2   53.56    9.32
  -6  -5   2   27.49    9.39
   6  -5  -2   24.97    9.54
  -6  -5   2   69.64   10.42
  -6  -5   3 3878.09  126.59
  -6   5   3 3868.23  134.89
  -6  -5   3 3979.57  126.92
   6  -5  -3 4068.49  128.02
   6   5  -3 4004.74  126.55
  -6   5   4   51.97   25.13
  -6  -5   4   60.58   11.41
   6  -5  -4   61.29   11.83
  -6  -5   4   65.23   10.84
   6   5  -4   58.28    9.79
   6   5  -4   77.61   17.59
   6   5  -5 5779.35  182.50
   6   5  -5 5864.20  182.06
  -6  -5   5 5883.49  187.68
  -6   5   5 5834.97  199.83
  -6  -5   5 5737.79  183.24
   6  -5  -5 5671.92  182.75
   6   5  -6   60.17   17.75
  -6  -5   6  -28.80   12.11
  -6  -5   6   19.62   10.46
   6  -5  -6    6.77   10.70
  -6   5   6  -41.81   26.97
   6   5  -6   13.90    8.07
  -6  -5   7 4282.09  142.48
   6   5  -7 4282.13  137.79
   6  -5  -7 4461.36  141.37
   6   5  -7 4379.77  140.49
  -6   5   7 4434.83  153.63
   6   5  -8    8.53   16.55
   6  -5  -8   12.54   11.71
  -6   5   8   83.68   37.42
   6   5  -8   18.74    6.86
   6   5  -9 3543.52  116.62
   6  -5  -9 3275.42  110.34
  -6   5   9 3292.70  125.02
  -6  -5   9 3570.62  116.60
   6   5  -9 3587.98  111.63
   6   5 -10   45.29    8.90
   6   5 -10   48.51   17.24
  -6  -5  10   27.96   16.64
  -6   5  10   16.27   31.78
   6  -5 -10   35.45   15.09
   6  -5 -11 1326.58   50.65
  -6  -5  11 1428.92   57.26
  -6   5  11 1386.22   70.89
   6   5 -11 1577.60   55.58
  -6   6   1  434.60   28.56
  -6  -6   1  370.63   19.11
   6  -6  -1  390.73   19.10
   6   6  -1  352.15   21.75
  -6  -6   1  433.34   19.83
   6   6  -2 5042.39  160.02
  -6  -6   2 5056.12  157.97
  -6  -6   2 4871.95  160.52
  -6   6   2 5094.17  172.37
   6  -6  -2 5126.75  158.06
  -6   6   3  -41.38   30.20
   6   6  -3   67.96   14.40
   6  -6  -3   -1.34   10.80
  -6   6   4 4892.25  160.42
  -6  -6   4 4552.70  147.40
   6  -6  -4 4969.13  151.71
  -6  -6   4 4338.11  148.93
   6   6  -4 4575.09  146.98
  -6   6   5   53.60   29.68
   6   6  -5    3.05    9.70
   6   6  -5   17.51   18.38
  -6  -6   5   20.67   11.14
  -6  -6   5  -19.66    9.81
   6  -6  -5    2.57   12.57
  -6  -6   6 4943.04  168.26
   6  -6  -6 5372.91  167.48
   6   6  -6 5036.28  170.51
  -6   6   6 5467.08  174.05
  -6  -6   6 5320.98  170.06
   6   6  -6 5715.05  169.35
   6   6  -7    2.55    8.82
   6  -6  -7   10.56   11.68
  -6  -6   7   -1.84   14.41
   6   6  -8 2978.46  103.18
  -6   6   8 3224.53  113.74
  -6  -6   8 3124.87  103.39
   6  -6  -8 3091.51  100.92
   6   6  -8 2985.79  101.43
   6   6  -9   90.10   10.61
  -6  -6   9  119.09   16.51
  -6   6   9   78.16   37.68
   6  -6  -9  118.03   15.02
   6   6  -9  185.62   22.38
   6  -6 -10 1940.88   65.58
  -6   6  10 2001.08   83.34
  -6  -6  10 2026.65   71.58
   6   6 -10 1919.06   70.28
  -6  -6  11   87.83   18.86
   6   6 -11   62.76   20.47
   6  -7  -1 4594.45  147.80
  -6  -7   1 4598.68  145.29
  -6  -7   1 4479.43  146.18
  -6   7   1 4654.00  159.33
   6   7  -1 4532.83  150.05
  -6  -7   2  298.03   17.18
  -6  -7   2  295.21   17.62
   6   7  -2  263.75   21.63
  -6   7   2  312.13   32.16
  -6  -7   3 4205.05  142.60
  -6   7   3 4536.68  151.39
   6   7  -3 4462.53  142.08
   6  -7  -3 4279.30  137.13
  -6  -7   3 4215.92  139.35
   6   7  -4   41.71   14.95
  -6  -7   4   46.71   13.67
  -6   7   5 4056.21  140.30
   6   7  -5 4379.54  134.42
  -6  -7   5 4173.88  133.63
   6  -7  -5 4139.61  132.19
  -6  -7   5 3810.57  132.36
   6  -7  -6  -12.60   11.84
  -6  -7   6   57.45   14.41
  -6   7   6   45.51   33.33
   6   7  -6   49.67   24.16
  -6  -7   6   40.79   12.29
   6   7  -6   48.21   14.84
   6   7  -7 2485.38   85.95
   6   7  -7 2394.18   81.89
  -6  -7   7 2527.26   81.56
  -6   7   7 2465.67   90.96
  -6  -7   7 2271.43   81.48
   6  -7  -7 2392.64   80.34
  -6   7   8  -19.92   37.04
   6   7  -8   65.43   26.75
  -6  -7   8  120.16   16.74
   6   7  -8   89.70   14.42
  -6   7   9 2147.65   82.35
   6  -7  -9 1839.40   67.23
  -6  -7   9 2082.08   70.19
   6   7  -9 1864.75   74.58
  -6  -7  10   62.22   16.24
   6   7 -10   74.58   24.79
  -6  -8   1   38.76   11.48
   6  -8  -1    1.59   12.49
  -6   8   1   28.62   28.37
   6   8  -1   99.49   24.61
   6   8  -2 3594.51  121.44
  -6  -8   2 3676.26  115.42
  -6  -8   2 3403.40  116.85
  -6   8   2 3640.65  126.03
   6  -8  -2 3452.82  114.17
   6  -8  -3   10.07   10.78
  -6  -8   3   12.73   12.20
   6   8  -3  -25.36   26.07
  -6   8   3   -9.12   28.24
  -6  -8   3    8.92   12.04
  -6  -8   4 2818.23   91.18
   6   8  -4 2771.41   95.74
  -6   8   4 3030.37  104.37
   6  -8  -4 2680.88   90.22
  -6  -8   4 2610.99   91.03
   6  -8  -5   -2.91   12.59
  -6   8   5   22.37   31.37
   6   8  -5   -0.82   20.53
  -6   8   6 1672.34   76.01
  -6  -8   6 1846.46   64.61
  -6  -8   6 1794.98   62.34
   6   8  -6 1828.54   66.24
   6  -8  -6 1869.24   61.42
  -6  -8   7   32.20   12.55
   6  -8  -7   54.11   14.49
  -6  -8   7   67.51   14.96
  -6   8   7   90.91   39.77
   6  -8  -8 1338.73   47.22
   6   8  -8 1141.19   49.92
  -6   8   8 1340.44   68.01
   6   8  -8 1374.30   55.26
  -6  -8   8 1317.03   48.69
  -6  -9   1 2018.95   73.50
  -6   9   1 2298.55   85.36
   6   9  -1 2259.29   92.06
   6  -9  -1 2053.75   75.04
   6  -9  -2   24.92   15.93
   6   9  -2  -44.38   37.26
  -6  -9   2   17.29   12.19
  -6   9   2  -58.61   34.60
   6  -9  -3 2171.97   69.77
  -6  -9   3 1974.03   74.40
  -6   9   3 2170.14   86.96
   6   9  -3 2125.53   81.39
   6   9  -4   19.02   33.51
   6  -9  -4   10.92   12.25
  -6   9   4  -99.62   30.97
  -6  -9   4  -10.66   14.89
   6  -9  -5 1629.25   56.20
  -6  -9   5 1416.34   56.03
   6   9  -5 1573.83   62.89
  -6   9   5 1873.17   74.23
  -6   9   6   16.05   42.94
  -6  -9   6   15.00   12.27
   6   9  -6   48.14   27.87
   6  -9  -6    5.38   12.51
  -5   0   113587.45  417.42
   5   0  -113487.55  410.78
  -5   0   113827.32  409.57
   5   0  -113010.95  413.55
  -5   0   2    9.95    3.57
   5   0  -2    2.57    4.71
   5   0  -2    3.22    2.32
  -5   0   2  -12.45    6.59
   5   0  -313523.66  432.45
  -5   0   314659.13  440.83
   5   0  -314475.96  432.24
  -5   0   4   18.42    8.03
   5   0  -5 9208.47  280.94
   5   0  -5 8980.42  281.11
  -5   0   5 9429.52  291.28
   5   0  -710225.33  312.54
  -5   0   710208.68  322.41
   5   0  -710092.71  313.12
   5   0  -8   -4.94    9.88
   5   0  -8   -7.64    4.16
   5   0  -9 6494.29  200.78
   5   0  -9 6455.80  201.11
  -5   0   9 6417.21  207.00
   5   0 -10    0.40    4.56
   5   0 -10    4.58   11.37
  -5   0  10   45.25   21.37
   5   0 -11 5558.15  172.72
   5   0 -11 5563.27  170.62
  -5   0  11 5246.16  175.44
   5   0 -12    6.53   13.70
  -5   0  12   18.01   27.38
   5   0 -12    1.33    5.30
  -5   0  13 3248.45  120.68
   5   0 -13 3405.39  108.62
  -5  -1   1    8.87    6.48
   5   1  -1    8.54    3.13
   5   1  -1    2.25    3.84
   5  -1  -1    3.45    4.02
  -5   1   1   15.24    4.61
  -5  -1   213723.76  419.96
  -5   1   212894.52  415.89
   5   1  -213260.29  414.94
  -5  -1   214690.81  414.93
   5  -1  -213664.09  414.83
   5  -1  -213040.03  414.90
   5   1  -213609.76  415.86
   5  -1  -3  148.43    6.29
  -5  -1   3  199.82   11.05
  -5   1   3  136.92   10.09
   5  -1  -3  168.03    7.71
   5  -1  -413311.67  410.01
  -5   1   413044.36  415.28
   5   1  -413200.23  411.09
  -5  -1   413252.94  421.14
  -5  -1   415320.31  423.69
   5   1  -413587.65  413.73
  -5   1   413072.34  428.10
   5   1  -5    8.97    6.81
  -5   1   5   51.58   11.24
  -5   1   5   50.63   13.87
  -5  -1   5   32.99    4.97
   5   1  -5   10.51    3.31
  -5  -1   5   29.36   10.86
  -5   1   6 9048.48  293.90
   5   1  -6 9566.83  289.97
   5   1  -6 9167.97  284.36
   5  -1  -6 9496.94  285.02
  -5  -1   6 9460.75  290.39
  -5   1   6 9257.73  289.09
   5  -1  -7   45.24    8.48
  -5   1   7   35.41   18.02
   5   1  -7   21.54    7.96
  -5  -1   7   52.68   14.31
  -5   1   7  -12.66   14.56
  -5   1   8 9726.65  304.21
   5   1  -8 9401.92  291.42
   5   1  -8 9456.40  294.75
  -5   1   8 9360.12  305.73
   5  -1  -8 9602.35  291.38
  -5  -1   8 9506.72  301.69
   5  -1  -9   17.67   10.19
   5   1  -9   47.29   10.24
   5   1  -9    5.93    3.74
  -5  -1   9   24.98   19.85
  -5   1   9   39.76   20.32
  -5   1  10 5050.52  165.87
   5  -1 -10 4925.28  156.97
   5   1 -10 4940.28  155.88
  -5  -1  10 4998.73  162.84
   5   1 -10 5185.17  158.77
  -5   1  10 5038.65  163.17
  -5   1  11  113.17   21.97
   5  -1 -11   61.63   12.65
  -5  -1  11   89.33   21.75
  -5   1  11   92.36   26.65
   5   1 -11   95.18    6.00
   5   1 -11   99.86   14.21
   5   1 -12 4636.10  140.38
  -5   1  12 4030.58  147.22
   5   1 -12 4176.91  134.64
  -5   1  12 4381.96  148.53
  -5  -1  12 4429.96  146.85
   5  -1 -12 4346.30  139.99
   5  -1 -13   10.32   14.91
  -5   1  13   74.59   31.52
   5   1 -13   -8.79   14.81
  -5   1  13   -6.64   18.82
  -5  -1  14 1750.20   73.80
   5   1 -14 1542.76   58.36
  -5   1  14 1477.52   70.87
   5  -1 -14 1581.06   57.24
  -5   2   115173.11  458.76
  -5  -2   114946.89  459.14
  -5  -2   115235.38  456.64
   5   2  -114241.03  457.52
   5   2  -114544.09  456.53
  -5   2   115370.96  457.99
   5  -2  -115243.54  466.08
  -5   2   2   24.63    7.61
   5   2  -2   28.71    3.99
  -5  -2   2   14.90    4.92
  -5  -2   2   29.02    7.32
  -5   2   2  -12.15   13.10
   5  -2  -2   41.59    7.13
   5   2  -313021.29  415.97
  -5  -2   313379.36  420.21
  -5   2   314135.38  421.65
  -5  -2   314210.64  432.02
  -5   2   313546.96  427.56
   5  -2  -314599.50  419.95
   5   2  -313209.92  419.03
   5   2  -4   31.96    3.75
   5  -2  -4   17.41    6.65
  -5   2   4   32.83   14.39
   5   2  -4   43.12    7.30
  -5  -2   4    9.52    8.94
  -5   2   4   35.13    9.56
   5   2  -514247.92  446.40
  -5  -2   515255.66  459.00
  -5   2   514384.47  454.47
   5   2  -513785.37  441.39
  -5  -2   514404.83  458.37
   5  -2  -515144.55  443.58
  -5   2   514998.05  458.65
  -5   2   6  611.19   24.63
   5   2  -6  565.13   19.28
  -5  -2   6  595.37   21.95
   5   2  -6  595.39   22.01
  -5   2   6  565.36   29.30
   5  -2  -6  574.99   21.14
  -5  -2   6  556.50   24.65
  -5  -2   7 9292.44  300.15
   5   2  -7 9364.40  291.80
   5   2  -7 9251.33  297.80
  -5   2   7 9784.67  303.01
  -5   2   7 9712.63  302.47
   5  -2  -7 9946.22  292.90
   5   2  -8   17.89    3.79
  -5   2   8   51.69   19.85
   5   2  -8   -7.45   10.30
  -5   2   8   -6.45   28.83
   5  -2  -8   30.21    9.18
  -5   2   9 7883.59  252.53
   5   2  -9 7668.93  240.71
   5  -2  -9 7849.64  242.16
   5   2  -9 7962.90  246.23
  -5   2   9 7906.63  258.50
  -5  -2   9 7864.07  249.12
   5   2 -10   80.74   13.38
  -5   2  10   70.69   22.51
   5  -2 -10   73.70   12.26
  -5  -2  10   49.36   20.00
   5   2 -10   67.07    5.47
  -5   2  10   92.26   24.49
   5   2 -11 4291.90  140.65
  -5   2  11 4234.78  147.49
  -5  -2  11 4160.30  140.26
  -5   2  11 4711.30  150.22
   5   2 -11 4280.93  133.99
   5  -2 -11 4344.37  135.98
   5  -2 -12   26.58   15.53
  -5  -2  12   55.49   25.85
  -5   2  12  -32.04   24.58
  -5   2  13 2118.32   88.51
  -5   2  13 2379.01   87.46
   5   2 -13 2615.53   83.59
   5  -2 -13 2235.65   77.19
  -5  -2  13 2469.03   88.11
  -5   3   1  417.14   22.92
   5  -3  -1  421.90   17.37
   5  -3  -1  410.55   15.13
   5   3  -1  376.54   14.28
  -5   3   1  458.52   16.38
  -5  -3   1  380.23   15.90
  -5  -3   1  348.55   15.99
   5   3  -1  364.86   15.99
   5  -3  -210191.56  352.43
  -5  -3   211294.12  353.11
   5   3  -211660.48  355.35
   5  -3  -212168.96  364.36
  -5   3   211855.33  361.51
  -5  -3   211835.33  359.68
   5   3  -211254.67  352.62
  -5   3   212356.77  351.77
  -5   3   3   21.65    7.58
   5   3  -3    6.02    4.64
   5   3  -3    9.97    7.25
  -5  -3   3   11.79    6.70
   5  -3  -3   -4.10    6.77
  -5   3   3  -22.31   19.71
   5   3  -416739.96  526.40
  -5   3   416485.06  530.72
  -5  -3   416896.93  528.14
  -5   3   418217.57  530.44
   5  -3  -418252.47  530.18
  -5  -3   417235.32  534.54
   5   3  -416869.37  524.84
  -5  -3   5    0.98   10.61
   5   3  -5   24.02    5.04
  -5   3   5   23.45   20.36
  -5   3   610501.21  337.32
  -5  -3   610481.43  331.08
   5  -3  -611175.96  325.30
   5   3  -610050.28  323.84
  -5  -3   610566.66  327.29
   5   3  -610314.39  322.59
  -5   3   610794.16  329.52
   5   3  -7   23.29    4.52
   5   3  -7   46.38   10.14
   5  -3  -7   34.93   15.30
  -5  -3   7   43.40    9.24
  -5   3   7   95.49   24.97
  -5  -3   7    6.16   12.75
  -5   3   7   27.66   11.99
  -5   3   8 7431.64  239.43
  -5  -3   8 6984.49  231.77
   5  -3  -8 7381.64  223.12
   5   3  -8 7063.68  226.40
  -5   3   8 7672.64  238.32
   5   3  -8 6898.08  221.92
   5   3  -9   70.15    6.04
   5   3  -9  128.67   15.00
   5  -3  -9   93.65   10.87
  -5   3   9   73.35   18.12
  -5   3   9  111.75   26.29
  -5  -3   9   66.57   16.11
   5  -3 -10 5434.58  173.55
   5   3 -10 5804.86  176.97
   5   3 -10 5780.58  172.39
  -5  -3  10 5684.32  178.12
  -5   3  10 5268.33  195.16
  -5   3  10 5085.54  181.70
   5  -3 -11   33.39   11.72
  -5   3  11   26.56   21.72
  -5  -3  11   -3.39   22.19
  -5   3  11   27.84   24.75
   5   3 -11   41.86    7.41
   5   3 -11   76.72   14.39
  -5  -3  12 2942.22  106.71
   5  -3 -12 2942.26   97.39
  -5   3  12 2801.27  107.28
   5   3 -12 3184.01   99.54
  -5   3  12 3311.75  113.22
  -5   3  13  146.23   34.27
  -5  -3  13   72.40   23.36
  -5   3  13    8.77   30.91
   5  -3 -13   30.35   14.16
   5  -4  -111622.14  357.90
  -5   4   111231.62  362.18
  -5  -4   111524.43  352.91
   5   4  -111080.80  357.54
   5   4  -111685.78  353.28
   5  -4  -111090.68  356.06
  -5  -4   111496.71  355.84
  -5   4   111957.57  348.53
   5   4  -2   27.94   11.23
  -5   4   2   11.65   21.50
  -5  -4   2   32.67    7.55
   5   4  -2    6.39    5.81
  -5  -4   2   51.56    9.44
  -5   4   312732.75  365.29
  -5  -4   311597.50  367.05
  -5  -4   311627.63  368.64
   5   4  -311751.46  369.95
  -5   4   311719.10  374.39
   5   4  -311790.83  366.85
   5  -4  -312255.62  372.21
   5   4  -4  224.74   13.66
  -5   4   4  123.53   11.67
  -5  -4   4  206.77   11.53
  -5   4   4  135.71   23.60
   5   4  -4  168.67    8.82
  -5  -4   4  159.61   12.70
  -5  -4   511527.35  362.82
  -5   4   511783.89  365.02
  -5  -4   512184.33  364.24
   5  -4  -511376.25  361.00
   5   4  -512121.08  359.94
   5   4  -511838.79  359.27
  -5   4   510766.38  364.03
  -5   4   6  271.93   27.38
   5   4  -6  254.94   16.81
   5   4  -6  216.34   10.74
  -5   4   6  326.12   16.97
   5  -4  -6  268.46   14.17
  -5  -4   6  252.10   15.98
  -5  -4   6  239.48   14.17
  -5  -4   7 5012.42  159.98
  -5  -4   7 5225.94  164.09
   5   4  -7 4787.71  160.41
  -5   4   7 5315.85  166.39
  -5   4   7 5026.73  166.75
   5  -4  -7 5380.73  161.88
   5   4  -7 5032.25  159.55
   5   4  -8  182.15    9.18
  -5   4   8  210.32   33.21
   5   4  -8  160.73   16.52
  -5  -4   8  219.12   15.63
  -5   4   8  156.55   18.73
   5  -4  -8  169.17   12.61
  -5  -4   8  160.41   20.03
  -5   4   9 5093.47  170.38
   5   4  -9 5442.23  164.04
   5   4  -9 5146.49  162.32
   5  -4  -9 5143.70  161.00
  -5  -4   9 4878.90  164.27
  -5   4   9 5185.44  177.13
   5   4 -10   18.70    5.29
   5  -4 -10   37.09   12.29
   5   4 -10   32.87   16.53
  -5   4  10    9.99   30.43
  -5   4  11 2433.19   97.04
  -5  -4  11 2878.06   97.61
   5  -4 -11 2590.86   88.77
  -5   4  11 2886.90  103.07
   5   4 -11 2884.80   92.93
   5  -4 -12   15.09   14.27
  -5   4  12   45.95   24.46
  -5  -4  12   33.13   21.29
   5   4 -12   63.01   17.26
  -5   4  13 2097.69   79.18
   5   4 -13 2168.91   76.81
  -5  -4  13 2368.07   78.91
  -5   4  13 2176.93   91.15
   5  -4 -13 2060.03   72.58
   5  -5  -1    0.98    7.59
   5   5  -1  -27.12   18.89
  -5  -5   1   -9.65    8.17
  -5  -5   1    9.40    7.68
   5  -5  -210004.79  306.61
   5   5  -2 9533.92  307.60
  -5   5   2 9411.22  306.38
  -5   5   210350.35  303.72
  -5  -5   2 9724.74  308.29
  -5  -5   2 9679.37  305.60
   5   5  -2 9879.07  302.43
  -5   5   3  144.72   28.74
  -5   5   3  211.95   10.61
  -5  -5   3  147.80   11.77
   5  -5  -3  248.28   13.38
   5   5  -4 7693.92  242.71
   5   5  -4 7647.20  246.18
  -5   5   4 7440.65  241.54
  -5  -5   4 7874.35  241.25
  -5  -5   4 7822.41  241.17
   5  -5  -4 7818.05  244.65
  -5   5   4 8131.16  244.30
  -5  -5   5  133.38   12.09
   5  -5  -5  101.29   11.41
  -5   5   5   33.47   44.96
  -5  -5   5  135.87   11.08
  -5   5   5  113.08   10.61
   5   5  -5  146.50    9.81
   5   5  -5   99.61   16.57
  -5  -5   6 6095.54  196.55
   5   5  -6 6240.24  192.68
  -5  -5   6 6196.27  191.54
   5  -5  -6 6034.92  191.72
  -5   5   6 5844.05  198.33
   5   5  -6 6062.56  192.29
  -5   5   6 6341.64  199.11
  -5   5   7   45.62   13.19
   5   5  -7  -12.22   13.62
  -5   5   7  -13.97   30.07
  -5  -5   7   13.34   13.41
   5   5  -7   34.49    7.10
  -5  -5   7    3.91   11.58
   5  -5  -8 4701.61  139.36
  -5   5   8 4624.03  149.66
   5   5  -8 4088.72  138.89
   5   5  -8 4475.23  137.58
  -5  -5   8 4027.97  138.70
  -5  -5   8 4156.72  141.14
  -5   5   8 4245.46  144.10
  -5   5   9  -44.14   30.35
   5   5  -9    7.85   17.63
   5   5  -9   10.68    6.63
   5  -5  -9  -10.36   11.72
  -5  -5   9   25.49   13.56
  -5  -5   9   21.63   17.05
  -5   5  10 2826.37  109.58
   5  -5 -10 2988.23   97.42
   5   5 -10 3091.44  101.66
  -5  -5  10 3159.37  102.97
  -5   5  10 3042.02  109.47
   5  -5 -11  -14.73   13.49
   5   5 -11   24.17   18.17
  -5   5  11   46.96   33.03
   5   5 -12 1931.70   70.58
   5  -5 -12 1731.74   64.26
  -5  -5  12 1946.44   69.37
  -5   5  12 1994.16   82.67
  -5   6   1 8163.12  265.10
   5   6  -1 8259.86  260.18
   5  -6  -1 8530.72  258.01
  -5  -6   1 8061.25  259.07
  -5  -6   1 8156.39  258.77
  -5   6   2  -22.00   23.17
  -5  -6   2   22.59    9.56
  -5  -6   2   34.32    9.05
   5  -6  -2   75.13    9.91
   5   6  -2  -18.89   24.76
  -5  -6   3 6054.30  193.38
  -5   6   3 6177.36  195.96
  -5  -6   3 6098.19  193.90
   5   6  -3 5951.59  198.06
   5   6  -3 5979.13  191.08
   5  -6  -3 6408.37  192.82
   5  -6  -4   29.54   10.09
  -5  -6   4   36.77   10.48
   5   6  -4   25.31   10.48
  -5  -6   4   13.89   11.37
   5   6  -4  -20.62   20.66
   5   6  -5 6320.36  198.63
   5  -6  -5 6508.30  202.09
   5   6  -5 6311.14  201.83
  -5  -6   5 6124.09  201.44
  -5  -6   5 6453.92  203.95
  -5   6   5 6469.43  214.09
   5   6  -6   44.63   17.41
  -5  -6   6   38.52   12.60
   5  -6  -6    6.00   11.06
  -5  -6   6   21.05   12.07
  -5   6   6   -6.30   34.68
   5   6  -7 4522.28  149.07
  -5  -6   7 4674.16  148.90
  -5   6   7 4535.30  162.59
  -5  -6   7 4652.13  154.51
   5  -6  -7 5099.44  150.23
   5   6  -7 4647.25  152.27
   5   6  -8  -15.51   19.19
  -5  -6   8   25.03   12.73
   5  -6  -8   28.27   12.91
   5   6  -8   11.42    9.23
   5   6  -9 3878.99  124.91
  -5   6   9 3669.19  132.34
   5   6  -9 3423.91  121.02
   5  -6  -9 3972.46  121.98
  -5  -6   9 3570.67  121.64
  -5  -6   9 3959.50  125.00
   5  -6 -10    1.14   13.13
  -5   6  10   49.00   36.87
   5   6 -10   -7.01   19.25
  -5   6  11 2060.69   89.95
  -5  -6  11 2000.23   75.59
   5   6 -11 2042.26   74.10
   5  -6 -11 2052.98   68.32
   5   6 -12  -19.90   22.63
  -5   6  12   11.57   40.10
  -5  -6  12  -13.52   20.23
  -5  -7   1  155.39   10.82
  -5  -7   1  114.33   13.02
   5   7  -1  177.92   20.44
  -5   7   1   44.87   26.72
   5   7  -2 5959.19  198.70
   5  -7  -2 6364.06  197.25
  -5   7   2 5935.67  199.64
  -5  -7   2 6302.17  193.79
  -5  -7   2 6172.81  198.45
   5  -7  -3   37.37   11.90
  -5  -7   3   38.88   11.98
   5   7  -3  114.82   19.68
  -5   7   3  -15.94   29.88
  -5  -7   3   91.96   10.35
   5   7  -3   50.92   29.03
   5  -7  -4 5606.25  171.43
  -5  -7   4 5433.44  172.28
   5   7  -4 5702.85  177.97
  -5   7   4 5311.60  193.52
  -5  -7   4 5479.69  175.37
   5   7  -4 5255.91  180.61
   5   7  -5  199.87   26.18
  -5   7   5  228.04   40.08
   5   7  -5  136.61   17.29
  -5  -7   5  110.29   12.93
  -5  -7   5   90.51   12.32
   5  -7  -5  142.40   12.30
   5  -7  -6 4947.74  153.16
  -5  -7   6 4866.89  154.84
   5   7  -6 4516.33  156.78
   5   7  -6 4866.47  158.60
  -5   7   6 4835.98  168.36
  -5  -7   7   68.89   12.89
   5   7  -7  103.81   13.25
   5  -7  -7   46.64   12.54
  -5   7   7   85.77   36.90
   5   7  -7   63.40   26.66
  -5   7   8 3061.36  123.97
  -5  -7   8 3266.26  107.28
   5  -7  -8 3210.79  102.89
   5   7  -8 3084.39  105.04
   5   7  -8 3172.83  110.71
  -5  -7   8 3186.91  104.56
   5   7  -9  133.04   25.81
  -5  -7   9  125.69   22.73
  -5   7   9   69.08   43.02
  -5  -7   9   73.44   15.23
   5  -7  -9   86.65   16.20
  -5   7  10 2625.34  106.40
   5  -7 -10 2375.99   84.29
  -5  -7  10 2602.76   92.61
  -5  -7  10 2430.02   85.58
   5   7 -10 2690.55   91.81
  -5  -7  11   -7.66   15.28
   5   7 -11   11.09   24.66
   5  -8  -1 5150.26  156.11
  -5   8   1 4933.21  161.30
  -5  -8   1 4729.98  155.51
   5   8  -1 4785.01  165.00
  -5  -8   1 4929.74  159.02
  -5  -8   2  -17.18   12.32
  -5   8   2    8.99   35.65
  -5  -8   2   -0.68   10.74
   5   8  -2    4.63   24.03
   5   8  -3 4374.41  144.64
  -5  -8   3 4358.98  141.74
   5  -8  -3 4378.10  139.03
  -5  -8   3 4493.60  140.96
  -5   8   3 4166.23  149.79
  -5   8   4   74.00   41.77
  -5  -8   4   45.51   12.04
   5   8  -4   19.18   21.14
   5  -8  -4   48.09   12.44
  -5  -8   4   48.89   14.06
   5   8  -4   90.80   32.01
   5  -8  -5 3537.07  111.66
  -5   8   5 3341.68  128.67
   5   8  -5 3708.57  118.41
  -5  -8   5 3459.48  111.58
   5   8  -5 3119.48  118.72
  -5  -8   5 3468.27  114.71
   5   8  -6  142.75   30.23
   5   8  -6  169.92   24.41
   5  -8  -6  137.11   13.89
  -5  -8   6  143.19   14.56
  -5   8   7 2251.63   97.42
   5   8  -7 2219.87   85.19
   5   8  -7 1992.81   80.83
  -5  -8   7 2302.90   79.61
   5  -8  -7 2293.58   73.12
  -5  -8   7 2340.64   77.98
   5  -8  -8   49.34   13.59
  -5  -8   8   70.49   13.78
  -5   8   8  176.19   47.10
   5   8  -8  -18.42   30.18
  -5  -8   9 1945.91   71.02
  -5  -8   9 2067.22   75.94
   5   8  -9 2154.43   81.25
  -5   8   9 2088.10   96.29
   5  -8  -9 2094.89   70.88
  -5  -9   1   42.47   12.58
   5  -9  -1   -8.39   12.60
  -5   9   1 -110.44   34.39
  -5   9   2 3050.49  123.09
   5  -9  -2 3197.61  101.53
  -5  -9   2 2970.16  104.13
   5   9  -2 2988.55  112.79
   5   9  -3   38.64   32.62
   5  -9  -3   46.89   13.49
  -5  -9   3   19.31   13.38
  -5   9   3   23.99   40.58
  -5  -9   4 2122.58   68.40
  -5   9   4 1782.77   89.28
   5   9  -4 2060.47   86.45
   5  -9  -4 2010.89   67.68
   5  -9  -5  -14.46   11.96
  -5  -9   5   36.32   14.34
   5   9  -5  -21.38   35.81
  -5  -9   6 1640.37   60.42
   5   9  -6 1454.06   67.35
  -5   9   6 1712.15   84.78
   5   9  -6 1807.99   70.30
  -5   9   7  -44.20   59.22
   5  -9  -7   58.11   12.98
   5   9  -8 1416.16   64.76
  -5  -9   8 1500.11   55.31
  -5 -10   1 1891.17   66.02
   5  10  -1 1852.68   99.23
  -5  10   1 1847.94   78.95
   5 -10  -1 1855.12   64.78
   5 -10  -2   68.42   12.75
  -5 -10   2   23.42   13.74
   5  10  -2   55.83   49.46
  -5  10   2  -21.87   33.81
  -5  10   3 1424.44   80.66
   5 -10  -3 1577.42   54.00
  -5 -10   3 1610.43   55.78
   5  10  -3 1273.23   79.11
  -5 -10   4   28.71   14.64
  -5  10   4  -10.25   43.76
   5  10  -4   39.18   37.93
   5 -10  -4   81.48   15.28
  -5 -10   5 1213.61   47.34
  -5  10   5 1040.44   70.40
   5 -10  -5 1396.46   46.08
   5  10  -5 1340.14   67.80
   4   0  -1   -0.15    1.86
  -4   0   227248.71  794.01
   4   0  -226512.55  799.77
  -4   0   226345.69  822.40
   4   0  -225437.41  808.77
  -4   0   3  -13.04    5.99
   4   0  -3    3.57    4.07
   4   0  -428235.16  853.51
  -4   0   429458.33  863.81
   4   0  -429070.88  846.12
  -4   0   425440.85  855.17
   4   0  -5   -2.72    6.51
  -4   0   5   36.05    9.97
  -4   0   615230.38  486.32
  -4   0   614993.40  488.22
  -4   0   616831.60  477.02
   4   0  -615224.59  473.20
  -4   0   7   33.13   15.42
   4   0  -7   -0.68    7.59
  -4   0   7   46.93   14.20
  -4   0   816303.08  514.23
   4   0  -817093.77  514.99
  -4   0   816954.33  519.60
  -4   0   816913.53  527.48
  -4   0   9   -8.20   16.28
   4   0  -9   14.20    9.30
  -4   0   9   20.46   20.28
  -4   0  10 5997.10  191.86
  -4   0  10 5975.70  193.58
   4   0 -10 5818.82  185.96
  -4   0  11    6.95   19.29
  -4   0  11   92.15   27.20
   4   0 -12 6738.25  206.55
  -4   0  12 6515.77  224.55
  -4   0  13    3.10   32.00
   4   0 -14 2871.56   93.83
  -4   0  14 2700.05  108.62
  -4  -1   120842.44  648.18
   4   1  -119962.08  644.96
  -4   1   121961.60  644.38
   4   1  -120382.59  645.13
   4  -1  -120875.37  646.35
  -4  -1   121537.84  639.72
  -4   1   121570.83  650.06
   4  -1  -122026.60  647.87
   4   1  -2  691.50   22.89
  -4  -1   2  707.96   24.59
  -4   1   2  817.27   29.58
  -4  -1   2  688.94   24.40
   4   1  -2  670.86   22.47
   4   1  -327363.06  850.86
   4   1  -326799.17  846.40
  -4  -1   330030.93  876.61
   4  -1  -328725.91  838.71
  -4  -1   327880.83  856.33
  -4   1   327941.00  858.11
  -4   1   327082.48  856.80
  -4  -1   4  218.69    7.76
  -4  -1   4  153.99   11.08
  -4   1   4  213.33   12.28
   4  -1  -4  203.08    9.00
   4   1  -4  169.75    7.00
   4   1  -4  188.33    8.66
   4   1  -515390.50  486.52
   4   1  -516061.24  491.45
  -4   1   516157.64  497.46
   4  -1  -515784.11  482.75
  -4  -1   517308.55  493.26
  -4  -1   515883.08  492.64
  -4   1   515230.42  495.17
   4   1  -6   42.39    6.63
   4   1  -6   24.10    2.82
  -4  -1   6   25.80   11.63
   4  -1  -6   30.40    6.68
  -4   1   6   -9.55   15.77
  -4  -1   6   43.66    7.48
  -4   1   714787.62  483.11
   4   1  -714523.76  466.88
   4  -1  -715121.90  461.95
  -4   1   715703.44  479.17
  -4  -1   716079.80  475.21
   4   1  -715554.65  471.65
  -4  -1   715382.29  471.37
  -4  -1   8  215.95   20.16
   4   1  -8  213.40   13.19
  -4   1   8  187.41   21.55
   4  -1  -8  194.58   11.36
  -4   1   8  177.15   20.59
   4   1  -8  209.41    8.07
  -4  -1   8  195.58   13.82
   4   1  -9 8974.95  285.80
   4   1  -9 9633.21  290.68
  -4   1   9 9617.94  302.01
  -4   1   9 9221.80  302.49
   4  -1  -9 9283.58  284.07
  -4  -1   9 9570.04  290.65
  -4  -1   9 9012.48  288.48
  -4   1  10   55.44   19.97
  -4   1  10  132.72   25.61
   4   1 -10   32.38    4.71
  -4  -1  10    9.53   21.63
   4  -1 -10   44.36   10.65
   4   1 -10   11.86   10.50
   4   1 -11 5462.54  172.38
   4   1 -11 5394.39  167.84
   4  -1 -11 5592.69  170.22
  -4   1  11 5423.86  182.52
  -4   1  11 5318.82  185.19
  -4  -1  11 5524.30  182.84
  -4   1  12    4.47   25.48
   4  -1 -12   13.78   13.10
  -4   1  12   10.92   27.81
   4   1 -13 3595.71  119.58
  -4  -1  13 3842.86  137.63
  -4   1  13 3449.22  132.19
   4  -1 -13 3701.47  117.88
   4  -1 -14   24.54   14.94
  -4   1  14   12.47   39.11
  -4  -1  14  -46.37   34.10
   4   1 -14    0.21   14.36
   4  -2  -1  965.52   30.95
  -4   2   1  996.93   31.87
  -4   2   1 1030.59   33.02
  -4  -2   1  941.40   32.74
   4   2  -1  940.57   30.64
  -4  -2   1  954.73   33.03
   4   2  -1  947.63   30.30
  -4   2   1  916.23   34.86
   4  -2  -219383.20  589.88
   4   2  -218772.11  582.65
   4   2  -218372.31  582.74
  -4   2   218751.98  591.84
  -4  -2   219653.16  597.98
  -4   2   220004.95  593.41
  -4  -2   219088.13  591.61
   4  -2  -221518.81  586.88
   4  -2  -217406.33  583.05
  -4  -2   3  216.66    9.22
  -4   2   3  214.50   10.16
  -4   2   3  246.99   17.29
   4   2  -3  197.25    7.63
  -4  -2   3  199.24   11.39
   4   2  -3  196.46    9.45
   4   2  -414707.92  473.69
   4   2  -414963.47  478.45
  -4   2   415561.40  489.02
  -4  -2   415286.37  486.75
   4  -2  -416656.71  476.00
  -4  -2   415902.04  485.19
  -4   2   416152.73  483.50
   4   2  -5    9.59    7.16
   4   2  -5   16.13    3.17
  -4   2   5    1.63   18.05
  -4   2   5    2.08   10.55
  -4  -2   5   18.28    6.57
   4  -2  -5   -2.57    5.86
  -4   2   611204.15  360.49
   4   2  -610974.72  347.98
   4   2  -610997.95  352.30
   4  -2  -611786.91  346.29
  -4  -2   611629.42  352.38
  -4   2   612069.40  362.10
  -4  -2   611233.78  358.29
  -4  -2   7  148.98   16.60
  -4   2   7  241.92   19.20
  -4   2   7  207.59   24.71
   4   2  -7  185.58    7.50
  -4  -2   7  135.30   11.98
   4   2  -810074.30  309.39
   4   2  -8 9880.69  312.06
  -4   2   8 9985.52  323.42
  -4   2   810127.82  320.57
  -4  -2   810137.86  312.66
  -4  -2   8 9954.00  315.64
   4  -2  -810175.38  307.87
  -4   2   9  143.95   22.96
  -4   2   9   46.74   22.52
   4   2  -9   36.94   11.32
   4   2  -9   66.46    4.59
  -4  -2   9   77.90   22.01
   4  -2  -9   93.85    9.90
  -4   2  10 5980.60  191.50
  -4   2  10 5577.00  189.86
  -4  -2  10 5691.02  185.07
   4   2 -10 5830.10  175.85
  -4  -2  10 5241.53  177.34
   4   2 -10 5499.13  178.94
   4  -2 -10 5710.01  174.37
  -4  -2  11   92.50   24.43
  -4   2  11  181.34   27.33
   4   2 -11  103.95   15.54
  -4   2  11  150.44   23.65
   4  -2 -11   84.35   11.97
   4  -2 -12 4129.53  128.25
   4   2 -12 4093.36  133.02
  -4   2  12 4400.23  146.73
  -4   2  12 3817.46  143.09
  -4  -2  12 3987.02  139.66
   4  -2 -13  -15.03   13.33
  -4   2  13   52.76   27.05
  -4   2  13  -62.55   29.98
   4   2 -13  -19.66   14.02
  -4  -2  13   47.89   29.21
   4  -2 -14 1640.63   61.57
   4   2 -14 1751.94   62.36
  -4  -2  14 1891.33   74.40
  -4   3   118433.69  600.40
  -4  -3   119456.68  582.43
  -4  -3   118727.77  583.21
   4  -3  -118696.48  589.96
   4   3  -119204.83  581.64
  -4   3   120260.28  578.57
   4  -3  -117753.44  582.70
   4   3  -119301.00  576.99
   4   3  -2   -5.78    3.67
   4  -3  -2    0.33    6.00
  -4   3   2   32.02   15.23
  -4   3   2    8.45    5.37
   4  -3  -2    4.10    4.35
   4  -3  -313372.70  405.26
  -4  -3   312520.08  400.20
  -4   3   311988.91  399.79
   4  -3  -314402.50  399.45
   4   3  -312517.20  399.86
   4   3  -312496.29  397.08
  -4  -3   313171.25  399.73
  -4   3   313497.04  399.28
  -4   3   4   22.75    7.86
   4   3  -4   49.77    4.31
  -4  -3   4   49.38    8.59
  -4   3   4   54.01   20.49
  -4  -3   4   45.83    6.23
   4   3  -4   59.58    7.63
   4  -3  -513897.12  413.08
  -4  -3   513704.74  420.76
   4   3  -512800.88  413.99
  -4   3   513938.86  425.48
  -4  -3   513449.81  421.34
  -4   3   512984.82  416.73
   4   3  -513253.36  412.63
  -4  -3   6   68.06   10.94
   4  -3  -6   98.53    9.12
  -4   3   6   80.17   20.94
   4   3  -6   68.79    4.79
  -4  -3   6   78.41    9.61
  -4   3   6   31.66   12.86
   4   3  -7 8342.65  268.33
  -4   3   7 8577.89  273.79
  -4  -3   7 8735.99  268.85
  -4  -3   7 8593.25  271.81
   4   3  -7 8374.63  264.16
   4  -3  -7 8854.11  264.01
  -4   3   7 8903.76  275.47
   4   3  -8   58.81   11.29
   4   3  -8   37.49    4.34
  -4   3   8    2.11   21.93
  -4  -3   8   62.79   19.30
   4  -3  -8   71.09   10.61
  -4  -3   8   35.67   12.89
   4   3  -9 7192.61  225.42
   4   3  -9 7112.58  220.01
  -4   3   9 7154.04  238.69
  -4  -3   9 7411.83  232.61
  -4  -3   9 7114.01  224.49
   4  -3  -9 7090.02  220.14
  -4   3   9 7087.92  235.73
   4   3 -10    7.07    3.71
  -4  -3  10  -11.25   15.21
  -4   3  10   47.32   27.30
  -4   3  10  -27.59   24.80
   4  -3 -10    2.13   11.88
  -4  -3  10   28.58   21.55
   4   3 -10    9.98   13.05
  -4   3  11 4913.21  164.57
  -4   3  11 4547.14  174.17
   4   3 -11 5062.45  155.68
   4  -3 -11 5023.06  153.49
  -4  -3  11 4945.46  159.87
  -4  -3  12   25.91   24.53
  -4   3  12  -23.90   35.56
  -4   3  12   71.78   34.68
   4   3 -12  -25.15   13.43
   4  -3 -12   51.73   12.52
   4  -3 -13 2863.57   97.71
  -4   3  13 3066.62  115.59
  -4  -3  13 2972.22  112.35
   4   3 -13 3162.87  101.35
  -4   3  14   62.62   30.37
   4   3 -14   -1.23   16.54
  -4  -3  14  -23.13   27.75
   4  -4  -1  352.20   14.64
   4   4  -1  329.83   14.17
  -4   4   1  392.22   13.35
  -4   4   1  344.10   21.75
  -4  -4   1  317.61   13.98
   4   4  -1  362.36   17.76
   4   4  -217382.99  528.64
  -4   4   216957.85  527.55
  -4   4   217765.73  526.29
  -4  -4   217292.54  528.60
   4   4  -217500.20  533.52
   4  -4  -216060.07  530.23
   4  -4  -217414.31  538.43
  -4  -4   217679.13  530.01
  -4   4   3  168.80   22.50
  -4  -4   3  181.16   10.75
   4   4  -3  202.03    8.53
  -4   4   3  132.99    8.87
  -4  -4   3  193.90   12.25
   4  -4  -3  148.12    9.94
   4  -4  -412561.74  411.91
  -4  -4   413371.45  417.92
  -4   4   414607.97  425.44
   4   4  -413471.11  416.12
   4  -4  -413622.78  422.61
   4   4  -413696.01  416.92
  -4   4   413238.05  421.88
  -4  -4   413834.25  416.71
  -4  -4   5  280.80   14.33
  -4   4   5  303.15   26.92
   4   4  -5  235.85   10.46
   4   4  -5  234.33   14.84
  -4  -4   5  230.05   15.95
   4  -4  -5  274.73   12.17
  -4   4   5  322.83   15.46
  -4  -4   611207.13  345.63
  -4  -4   611529.37  342.75
  -4   4   611530.36  356.43
   4   4  -610731.85  340.57
  -4   4   610614.04  348.43
   4  -4  -610618.09  339.00
   4   4  -611090.83  342.77
  -4   4   7  295.07   19.15
  -4  -4   7  249.02   16.71
  -4   4   7  352.32   31.42
   4   4  -7  300.28   16.93
  -4  -4   7  353.42   18.23
   4  -4  -7  249.38   14.36
   4   4  -7  348.03   11.85
  -4   4   8 7569.10  249.97
  -4   4   8 7831.03  252.50
   4   4  -8 7777.93  242.34
  -4  -4   8 7768.55  245.47
   4  -4  -8 7361.54  236.53
   4   4  -8 7849.29  237.69
  -4  -4   8 7569.85  240.98
  -4   4   9  203.06   32.31
  -4  -4   9  186.10   16.93
   4   4  -9   97.23   16.18
   4  -4  -9  201.21   13.37
  -4  -4   9  166.35   20.66
  -4   4   9  133.93   25.24
  -4   4  10 6703.41  213.58
  -4   4  10 5673.63  214.24
   4  -4 -10 6232.64  195.09
  -4  -4  10 6009.48  200.85
   4   4 -10 6708.15  201.74
  -4  -4  10 6473.32  205.41
  -4  -4  11    4.83   16.02
  -4  -4  11   29.02   21.62
   4  -4 -11   44.99   12.80
  -4   4  11   19.06   30.12
   4   4 -11   81.86   16.48
  -4   4  11  132.86   31.04
   4   4 -12 4171.70  130.90
  -4   4  12 3940.05  143.71
  -4   4  12 3541.35  143.45
   4  -4 -12 3674.99  124.84
  -4  -4  12 4339.84  139.05
  -4   4  13   -7.62   26.18
  -4  -4  13   85.26   27.43
   4   4 -13   80.10   20.00
   4  -4 -13   57.04   13.25
   4   5  -118144.15  563.83
   4   5  -118287.98  570.65
  -4   5   117935.34  575.01
  -4  -5   117972.58  564.49
  -4   5   119788.44  560.88
   4  -5  -117949.85  570.07
  -4  -5   118061.91  564.29
   4  -5  -118939.39  569.02
  -4   5   2   34.45   25.56
   4   5  -2   12.06   16.58
   4  -5  -2   -2.22    8.36
  -4  -5   2   22.82    8.18
  -4  -5   2   -8.84    6.82
  -4   5   314789.68  422.08
   4   5  -313551.24  427.10
  -4  -5   313323.61  423.28
   4  -5  -313676.49  419.95
   4   5  -313336.65  419.72
  -4   5   313617.59  430.18
  -4  -5   313390.01  425.09
   4  -5  -313933.71  424.75
   4   5  -4    5.66    8.16
  -4   5   4   40.53   29.77
  -4  -5   4   15.53    8.34
   4  -5  -4   26.67    8.22
   4   5  -4   10.27   14.50
  -4   5   510915.25  326.77
  -4  -5   510294.70  330.58
  -4   5   510067.36  331.61
   4   5  -510310.00  325.31
   4   5  -510439.77  327.17
   4  -5  -510315.50  326.17
  -4  -5   510591.91  321.87
   4  -5  -6   12.56    8.40
   4   5  -6   42.76    7.71
  -4   5   6  -39.46   30.14
  -4  -5   6   71.83   12.71
   4   5  -6   82.62   16.12
  -4  -5   6   24.27   10.89
  -4   5   6   26.66   12.04
   4   5  -7 7527.00  244.22
  -4   5   7 8006.47  251.56
  -4   5   7 7916.72  258.17
   4   5  -7 7810.13  243.18
  -4  -5   7 7393.58  241.46
   4  -5  -7 7936.58  239.87
  -4  -5   7 7391.05  244.97
   4   5  -8  -10.54   14.01
   4  -5  -8   10.69   11.27
  -4  -5   8   20.21   13.04
  -4   5   8   73.00   34.28
  -4   5   8  -10.38   16.99
   4   5  -8   -8.06    6.87
   4   5  -9 7385.38  234.66
  -4   5   9 7372.32  252.55
  -4  -5   9 7508.98  236.99
  -4  -5   9 7753.22  244.45
   4  -5  -9 7520.78  233.69
  -4   5   9 7460.28  248.60
   4   5  -9 7594.22  237.93
  -4   5  10   71.08   22.67
  -4   5  10  170.56   32.33
  -4  -5  10   44.45   15.12
  -4  -5  10    6.23   21.04
   4  -5 -10   67.92   12.99
   4   5 -10   70.88   17.09
   4   5 -11 3870.50  125.28
  -4  -5  11 3366.86  122.92
  -4  -5  11 3764.65  130.58
   4  -5 -11 3736.48  119.18
  -4   5  11 3786.78  141.95
  -4   5  11 3931.00  141.63
   4   5 -12   12.26   20.91
  -4   5  12   34.81   38.55
   4  -5 -12    2.16   13.32
  -4   5  12   34.69   32.67
  -4   5  13 2853.63  103.84
   4   5 -13 2556.24   91.88
   4  -5 -13 2572.14   88.10
  -4  -5  13 2760.17   92.13
  -4   5  13 2451.11  101.23
  -4  -6   1   86.44   10.12
   4   6  -1   10.97   30.78
  -4   6   1  146.38   28.63
   4   6  -1   67.73   15.02
   4  -6  -1   77.69   10.18
   4  -6  -1   62.11    9.85
   4   6  -210519.14  344.04
  -4  -6   211166.27  339.93
   4   6  -210918.90  344.43
  -4   6   211033.01  343.23
   4  -6  -210771.29  339.68
  -4  -6   210784.68  336.97
   4  -6  -210982.53  341.21
   4   6  -3   74.44   13.29
   4  -6  -3   56.13    9.84
  -4   6   3  125.02   37.19
  -4  -6   3  113.65    9.29
   4   6  -3  106.55   19.75
   4   6  -4 6228.61  203.75
  -4   6   4 6418.98  216.23
  -4  -6   4 6666.89  204.00
  -4  -6   4 6498.94  205.75
   4  -6  -4 6749.86  202.77
   4   6  -4 6342.35  205.87
   4   6  -5   22.75    9.64
   4   6  -5   67.63   20.82
  -4  -6   5   41.82   11.27
  -4   6   5   59.42   33.01
  -4  -6   5    4.62   10.11
   4  -6  -6 7237.01  210.87
  -4  -6   6 6455.05  209.67
   4   6  -6 6646.72  209.48
   4   6  -6 6565.38  215.10
  -4   6   6 6934.40  225.55
  -4  -6   6 6382.33  214.23
  -4   6   7  262.00   37.73
  -4  -6   7  152.78   14.90
   4   6  -7   65.87   17.80
  -4  -6   7  122.05   15.74
   4   6  -7   90.07   10.42
   4   6  -8 5817.77  190.95
  -4  -6   8 5626.26  191.70
   4   6  -8 5774.59  185.31
  -4   6   8 5952.96  197.02
  -4  -6   8 5923.00  185.57
   4  -6  -8 6202.52  185.68
  -4   6   9  156.18   41.39
  -4  -6   9  191.21   18.00
   4   6  -9  170.97   20.52
  -4  -6   9  122.75   17.66
   4  -6  -9   82.33   13.62
  -4  -6  10 3807.93  126.46
   4  -6 -10 3851.32  124.06
   4   6 -10 3937.47  130.08
  -4   6  10 4010.79  147.15
  -4  -6  10 3768.68  133.74
  -4  -6  11   48.83   19.61
   4   6 -11   54.91   21.93
  -4   6  11   -4.32   33.52
  -4  -6  11   80.77   19.90
  -4  -6  12 2094.88   73.78
  -4   6  12 1952.15   85.04
   4   6 -12 1875.22   68.70
  -4  -6  12 1730.25   69.44
   4  -6 -12 1851.34   63.26
   4  -7  -1 6224.93  191.43
  -4  -7   1 6007.79  189.94
   4  -7  -1 5807.98  194.06
   4   7  -1 6417.18  194.52
  -4   7   1 5950.39  198.29
  -4  -7   1 6059.63  192.94
  -4  -7   2  333.84   13.56
   4   7  -2  354.89   26.09
   4   7  -2  293.47   30.08
   4  -7  -2  283.04   15.65
   4  -7  -2  238.11   13.86
  -4  -7   2  278.59   15.11
   4  -7  -3 5012.13  164.56
   4   7  -3 4839.44  170.69
  -4   7   3 5323.28  175.36
   4   7  -3 5307.82  168.68
  -4  -7   3 5311.69  163.73
  -4  -7   3 5388.21  167.71
   4   7  -4  176.56   17.13
  -4  -7   4  198.12   14.72
   4  -7  -4  167.38   12.60
  -4   7   4  100.70   39.16
   4   7  -4  132.46   26.75
  -4   7   5 5661.79  199.27
  -4  -7   5 5803.30  187.44
  -4  -7   5 6090.63  191.39
   4  -7  -5 6005.71  186.39
   4   7  -5 6004.48  192.42
   4   7  -5 6130.25  193.61
  -4   7   6   50.21   43.69
  -4  -7   6   13.34   13.13
  -4  -7   6   -6.59   11.86
   4   7  -6  -32.28   15.96
   4  -7  -7 4774.40  145.82
  -4   7   7 4609.07  169.05
   4   7  -7 4618.11  152.91
   4   7  -7 4342.34  155.88
  -4  -7   7 4580.61  148.85
  -4  -7   7 4717.28  152.78
   4  -7  -8   27.43   13.21
  -4  -7   8   20.72   12.77
  -4  -7   8   -6.66   15.84
  -4  -7   9 3171.30  107.48
   4  -7  -9 3189.24  105.34
  -4  -7   9 3183.23  110.53
   4   7  -9 3352.38  114.59
  -4   7   9 3404.92  128.34
  -4   7  10  228.29   47.16
  -4  -7  10   91.66   16.98
   4  -7 -10   53.67   12.89
  -4  -7  10   37.85   18.86
  -4  -7  11 1751.81   63.46
   4  -7 -11 1596.52   55.47
  -4   7  11 1666.42   80.03
   4   7 -11 1568.02   64.64
  -4  -7  11 1462.53   58.92
  -4  -8   1   26.09   11.63
  -4  -8   1    0.97    8.54
   4   8  -1  -31.30   47.14
  -4   8   1   10.80   32.83
   4   8  -1   24.85   36.28
   4  -8  -1  -14.09   10.82
   4   8  -2 5554.81  189.11
  -4  -8   2 5609.89  181.07
  -4   8   2 5782.75  192.94
  -4  -8   2 5785.05  183.78
   4   8  -2 5606.72  196.75
   4  -8  -2 5974.92  181.72
   4   8  -3  299.51   41.59
  -4  -8   3  222.59   12.79
  -4   8   3  194.20   45.72
  -4  -8   3  297.91   17.99
  -4   8   4 5651.43  205.52
  -4  -8   4 6010.40  187.89
  -4  -8   4 5740.20  184.24
   4   8  -4 5964.80  193.63
   4   8  -4 5772.91  192.24
   4  -8  -4 5755.28  180.80
   4   8  -5   47.80   22.24
  -4   8   5   16.79   43.47
  -4  -8   5   33.02   10.98
  -4  -8   5   32.44   14.23
   4   8  -5  -16.43   27.43
   4  -8  -5   34.83   11.53
  -4  -8   6 5149.14  169.14
  -4   8   6 4801.28  182.38
   4   8  -6 5262.45  172.50
  -4  -8   6 5420.26  169.87
   4  -8  -6 5506.32  165.87
   4   8  -6 5067.85  170.86
   4   8  -7  119.27   26.08
  -4  -8   7   81.64   12.77
  -4   8   7  140.80   45.45
  -4  -8   7   40.44   16.51
   4  -8  -7   73.75   13.20
  -4  -8   8 2914.50   95.11
  -4  -8   8 2870.66   99.04
   4  -8  -8 2795.14   90.88
  -4   8   8 2359.71  114.09
   4   8  -8 3130.24  102.14
   4  -8  -9   49.99   15.98
  -4  -8   9   36.36   18.55
   4   8  -9   90.71   28.45
  -4  -8   9  -22.54   14.18
  -4   8   9    7.81   48.08
   4   8 -10 2170.35   80.92
  -4  -8  10 2013.41   75.38
   4  -8 -10 2133.66   71.12
  -4   8  10 2084.12   96.33
  -4   9   1 4582.66  164.52
   4   9  -1 4610.11  180.41
  -4  -9   1 4795.42  156.79
   4   9  -1 4594.29  175.05
   4  -9  -1 5191.87  153.07
  -4   9   2  114.83   57.16
   4  -9  -2   42.72   12.21
   4   9  -2  141.41   53.43
  -4  -9   2   15.91   12.54
   4   9  -3 4331.85  162.67
   4  -9  -3 4901.84  145.39
   4   9  -3 4193.38  163.75
  -4   9   3 4457.16  158.54
  -4  -9   3 4612.18  148.84
   4   9  -4   32.03   34.18
   4   9  -4  -12.02   41.28
  -4  -9   4  -24.55   14.37
  -4   9   4  110.75   54.39
   4  -9  -4   21.31   11.96
   4  -9  -5 4141.42  124.62
   4   9  -5 3609.47  140.36
   4   9  -5 4092.85  140.09
  -4  -9   5 3966.63  129.59
  -4   9   5 3554.77  143.51
   4   9  -6   28.66   33.64
   4   9  -6  111.11   38.26
  -4  -9   6   45.24   16.45
  -4   9   7 2394.54  113.00
   4  -9  -7 2882.33   88.24
   4   9  -7 2864.56  104.35
  -4  -9   7 2606.63   91.13
   4  -9  -8   15.92   12.47
   4   9  -8  103.16   35.14
  -4  -9   8   22.86   16.40
  -4   9   8   58.69   49.43
   4   9  -9 1971.81   80.68
  -4  -9   9 1826.28   68.41
  -4  10   1  -60.01   40.47
  -4 -10   1  -27.63   13.80
   4  10  -1  -39.74   58.49
   4 -10  -1  -10.25   13.02
  -4  10   2 2115.56  101.93
   4  10  -2 2122.34  109.36
  -4 -10   2 2242.67   78.48
   4  10  -2 2739.21  112.01
   4 -10  -2 2469.82   79.98
  -4  10   3   21.63   44.59
   4  10  -3   70.79   49.08
   4 -10  -3   37.11   12.49
   4  10  -3   83.97   53.62
  -4 -10   3   30.93   12.83
   4  10  -4 2141.45   99.40
   4 -10  -4 2206.74   71.51
  -4  10   4 2039.69  100.74
  -4 -10   4 2092.82   74.56
   4  10  -5   56.30   48.52
   4  10  -5   34.44   47.23
   4 -10  -5   -9.75   12.38
  -4 -10   5   13.77   12.56
   4  10  -6 1535.72   84.82
  -4 -10   6 1573.75   62.03
  -4  10   6 1792.55   89.78
   4 -10  -6 1818.72   58.52
  -4 -10   7   80.57   17.25
   4  10  -7  -47.21   40.29
  -4  11   1 1440.18   79.30
  -4 -11   1 1506.34   57.18
   4 -11  -1 1679.76   58.21
   4  11  -1 1584.27  108.99
  -4 -11   2   -0.75   15.84
   4 -11  -2   34.06   16.84
   4  11  -2  185.58   72.45
  -4  11   2  134.95   42.44
  -4 -11   3 1439.80   54.97
  -4  11   3 1331.26   79.25
   4 -11  -3 1607.11   54.89
   4  11  -3 1447.38  100.87
   4  11  -4  144.36   57.87
  -4  11   4   26.15   50.46
   4  11  -4   66.19   58.98
   3   0  -129045.25  871.65
   3   0  -127973.41  887.67
  -3   0   129296.57  869.64
  -3   0   129139.42  898.32
   3   0  -336487.70 1058.57
  -3   0   333380.48 1074.36
  -3   0   335774.68 1077.09
  -3   0   334729.81 1082.83
   3   0  -4    3.71    4.75
  -3   0   4   -4.50    8.89
  -3   0   521617.45  677.94
  -3   0   520944.08  677.53
  -3   0   522990.15  665.68
   3   0  -521744.84  661.83
  -3   0   6  -13.86   10.52
   3   0  -6   -0.25    6.22
  -3   0   6  -16.92    8.18
  -3   0   714794.05  469.88
  -3   0   715332.63  476.47
   3   0  -714976.26  455.68
   3   0  -8   26.66    8.36
  -3   0   8   14.15   14.29
  -3   0   8   46.23   21.46
   3   0  -8   31.92   11.65
   3   0  -910225.73  310.93
  -3   0   910465.20  318.39
  -3   0   910046.33  322.04
   3   0  -9 9557.05  314.26
   3   0 -10   63.32   15.27
  -3   0  10   32.57   16.59
   3   0 -10   34.39   10.57
  -3   0  10   72.21   30.13
   3   0 -11 6287.06  189.36
  -3   0  11 6571.48  200.63
  -3   0  11 6023.61  205.23
   3   0 -11 5580.02  194.46
   3   0 -12  -16.97   13.01
  -3   0  13 4703.84  170.74
   3   0 -13 4843.10  152.08
   3   0 -14   49.39   18.06
  -3   0  14   19.69   38.71
   3   0 -15 2620.56   89.63
   3   1  -1  179.07    6.54
   3   1  -1  199.17    7.06
  -3   1   1  201.14    9.29
  -3  -1   1  180.33    7.88
  -3   1   1  180.52    6.95
   3  -1  -1  162.36    7.38
  -3  -1   1  174.59    8.96
   3   1  -231680.62  976.91
  -3   1   231146.08  981.38
  -3   1   233611.08  987.73
  -3  -1   232738.13  997.75
   3  -1  -232359.14  963.11
  -3  -1   231487.67  987.64
   3   1  -231877.92  977.30
   3   1  -3   67.03    3.38
   3   1  -3   86.43    6.12
  -3   1   3   77.70   13.62
  -3  -1   3   87.96    5.15
   3  -1  -3   52.45    5.25
  -3   1   3   68.42    7.69
   3   1  -428251.77  876.20
  -3   1   427215.50  889.41
  -3   1   428761.49  883.44
  -3  -1   430875.97  877.40
  -3  -1   429151.26  880.17
   3  -1  -428609.29  860.54
   3   1  -427883.73  876.14
   3   1  -5 1507.56   47.01
  -3   1   5 1451.57   52.78
  -3   1   5 1323.12   43.82
  -3   1   5 1355.16   49.17
  -3  -1   5 1645.69   50.12
   3   1  -5 1459.86   45.14
  -3  -1   5 1463.11   50.78
   3  -1  -5 1427.55   45.32
   3   1  -615510.92  482.18
   3   1  -616401.37  484.35
  -3   1   615867.89  502.87
  -3  -1   616759.61  491.91
  -3   1   614639.04  495.58
   3  -1  -615660.09  473.79
   3  -1  -614708.13  479.78
  -3  -1   616457.96  485.41
   3   1  -7  115.59    5.15
   3   1  -7  113.21    9.22
  -3   1   7  154.40   19.75
  -3  -1   7  113.76   12.78
  -3  -1   7  137.11   18.75
   3  -1  -7  139.83    8.51
   3  -1  -7  163.57    8.97
  -3   1   7  194.87   18.74
   3   1  -815010.59  443.49
   3   1  -814613.89  440.62
  -3   1   813787.34  454.49
  -3  -1   814126.33  448.54
  -3  -1   814918.68  451.66
   3  -1  -813568.21  444.44
   3  -1  -814652.79  436.00
  -3   1   814799.13  459.02
   3   1  -9  439.89   15.81
  -3  -1   9  528.07   25.02
   3  -1  -9  503.62   19.28
   3  -1  -9  448.31   19.41
   3   1  -9  480.79   19.74
  -3   1   9  523.12   29.56
  -3   1   9  537.73   35.41
  -3  -1   9  469.33   34.59
   3  -1 -10 7454.84  229.04
   3   1 -10 7579.56  228.81
   3   1 -10 7480.85  229.82
  -3   1  10 7595.79  245.62
  -3  -1  10 7134.51  239.01
  -3  -1  10 7681.74  243.07
   3  -1 -10 6880.39  233.51
  -3   1  10 7704.14  246.05
   3   1 -11   71.25    4.82
  -3   1  11  118.34   21.80
  -3   1  11   40.69   33.35
  -3  -1  11   64.05   20.59
   3  -1 -11   73.77   11.37
   3   1 -11   92.80   13.56
  -3  -1  11   94.77   32.17
   3   1 -12 6858.86  211.24
  -3   1  12 6454.02  227.12
   3  -1 -12 7138.95  212.27
  -3  -1  12 5964.16  218.74
  -3  -1  12 6641.20  219.10
  -3   1  12 7161.79  222.54
   3   1 -13   35.25   14.84
  -3   1  13  190.42   41.72
  -3  -1  13  -49.96   35.79
  -3  -1  14 2883.19  107.61
   3   1 -14 2872.22   94.55
  -3   1  14 2624.41  108.53
   3  -1 -14 2730.51   92.79
   3   1 -15   22.16   19.33
   3  -1 -15    2.53   13.35
   3   2  -136239.52 1101.54
   3   2  -135395.46 1102.30
  -3   2   134572.00 1116.55
  -3  -2   137335.67 1120.76
  -3  -2   137996.06 1113.15
   3  -2  -136652.75 1123.70
   3  -2  -134045.95 1105.30
  -3   2   139022.23 1118.48
   3   2  -2   10.26    3.05
   3   2  -2   11.32    5.63
  -3  -2   2   10.30    4.88
   3  -2  -2    4.59    4.52
  -3   2   2   20.34    5.79
  -3  -2   2   31.72    6.95
   3  -2  -2    8.17    2.40
   3   2  -320721.20  658.70
  -3   2   321305.93  669.47
  -3  -2   322192.28  660.21
   3  -2  -322618.38  659.17
  -3   2   322823.79  666.48
  -3  -2   321391.98  670.50
   3   2  -320578.94  665.69
   3   2  -4  450.14   16.52
  -3   2   4  403.01   13.82
   3   2  -4  393.28   14.06
  -3   2   4  491.57   23.81
  -3   2   4  504.49   17.76
  -3  -2   4  401.60   16.31
  -3  -2   4  444.75   18.72
   3   2  -520202.48  616.28
  -3   2   520201.22  628.32
  -3   2   518960.51  634.04
  -3   2   521208.13  628.17
  -3  -2   520724.08  623.13
   3  -2  -521726.33  613.38
  -3  -2   521003.91  628.69
   3   2  -519794.34  621.17
   3  -2  -519038.53  620.01
  -3   2   6   14.55   15.20
   3   2  -6   29.92    2.92
  -3   2   6   29.30   16.30
  -3  -2   6   -3.65   13.14
   3  -2  -6   24.77    6.11
   3  -2  -6   29.92    3.67
   3   2  -715508.35  484.51
   3   2  -715334.64  489.24
  -3   2   715970.30  499.15
  -3  -2   716096.98  497.92
  -3  -2   716025.21  485.91
   3  -2  -716340.11  477.40
   3  -2  -715703.70  490.13
  -3   2   716199.45  501.18
  -3   2   8   36.91   23.31
  -3  -2   8   75.94   14.12
  -3  -2   8   63.26   19.44
   3  -2  -8   42.12    8.47
   3   2  -8   70.51    3.93
   3   2  -910246.48  321.87
  -3   2   910667.40  332.61
  -3   2   910712.13  338.90
  -3  -2   910124.47  329.11
   3  -2  -910726.03  316.36
   3  -2  -910179.72  321.63
  -3  -2   910124.29  326.83
   3   2  -910054.98  316.99
   3   2 -10  -28.07   10.22
  -3   2  10  -31.71   25.00
  -3  -2  10  -31.35   16.72
  -3  -2  10    4.62   23.61
   3  -2 -10    3.27    9.73
  -3   2  10   -8.03   28.79
  -3  -2  11 7734.99  250.19
   3  -2 -11 7993.92  235.08
   3   2 -11 7707.12  239.14
  -3   2  11 6853.14  253.10
  -3  -2  11 7139.55  244.64
  -3   2  11 8198.75  253.27
  -3  -2  12   14.77   21.57
   3  -2 -12   67.17   12.18
  -3  -2  12   63.63   32.81
   3   2 -12   70.84   15.47
  -3   2  12   80.06   37.50
  -3   2  12  173.79   29.26
   3  -2 -13 4124.97  130.31
   3   2 -13 4145.46  129.60
  -3  -2  13 4125.56  142.41
  -3   2  13 3556.74  143.78
   3   2 -14   17.24   15.34
  -3   2  14   13.27   40.31
   3  -2 -14   -0.75   15.04
  -3   3   1  125.80   16.09
  -3   3   1  139.44    6.99
  -3  -3   1  122.06    7.80
   3  -3  -1  160.74    8.06
   3  -3  -1  147.07    9.21
   3   3  -1  138.77   11.15
   3   3  -217107.42  519.53
   3   3  -216687.47  520.48
  -3   3   217066.54  523.22
  -3  -3   217426.70  520.17
  -3  -3   217345.54  523.79
   3  -3  -216944.67  527.22
   3  -3  -215522.39  519.04
  -3   3   217951.69  521.74
   3   3  -3   18.71    7.16
  -3   3   3    3.75    6.16
  -3  -3   3   11.76    8.08
   3  -3  -3   25.44    5.40
  -3   3   3   50.83   19.80
   3  -3  -3    9.30    2.37
   3  -3  -414653.33  442.66
  -3  -3   414839.73  444.99
   3   3  -414529.54  444.23
   3   3  -414097.64  444.07
  -3   3   413785.36  439.64
  -3   3   415326.94  453.93
  -3  -3   414316.13  447.68
   3  -3  -413983.31  440.66
  -3   3   414606.22  456.98
   3   3  -5   48.82    7.60
  -3   3   5  -13.01   11.85
  -3  -3   5   36.77    9.26
   3  -3  -5   13.74    6.66
  -3  -3   5    6.36   10.40
   3   3  -5   27.58    3.36
   3   3  -618956.38  598.06
  -3   3   619210.48  612.99
  -3   3   620539.61  624.73
  -3  -3   619265.78  603.93
   3  -3  -620512.00  593.30
   3  -3  -618627.59  606.34
   3   3  -619660.72  597.13
  -3  -3   619836.23  605.83
  -3  -3   7  466.12   20.39
   3   3  -7  390.26   13.66
  -3   3   7  379.84   24.23
  -3  -3   7  441.15   21.92
   3  -3  -7  378.71   16.46
   3  -3  -7  406.56   15.14
   3   3  -7  418.79   18.00
   3   3  -810264.76  319.16
   3   3  -810084.49  324.14
  -3   3   810509.93  343.79
   3  -3  -810375.32  327.27
  -3  -3   810944.75  331.88
   3  -3  -811074.02  317.57
  -3  -3   8 9994.28  330.84
  -3   3   810752.59  342.82
   3   3  -9   77.90    4.84
   3   3  -9   87.59   12.54
  -3   3   9   86.88   33.71
  -3  -3   9  122.89   16.65
  -3  -3   9   72.72   22.06
  -3   3   9  108.35   28.37
   3  -3  -9   31.34   10.03
   3   3 -10 6922.06  225.09
  -3   3  10 7695.59  252.42
  -3   3  10 6853.72  242.32
  -3  -3  10 7123.51  237.24
   3  -3 -10 7691.39  225.23
  -3  -3  10 7449.88  232.77
   3   3 -11  163.76   16.67
  -3  -3  11  124.43   20.92
  -3  -3  11  289.06   30.69
  -3   3  11  102.16   33.66
  -3   3  12 5092.48  165.73
   3  -3 -12 4825.68  148.86
  -3   3  12 4229.72  164.94
  -3  -3  12 4951.33  164.72
  -3  -3  12 4489.68  162.11
   3   3 -12 4952.62  153.75
   3   3 -13   20.27   18.16
  -3   3  13   42.75   25.23
  -3   3  13  -48.84   37.16
  -3  -3  13   75.49   31.33
  -3  -3  13   21.16   22.19
   3   3 -14 2279.64   76.69
  -3   3  14 2155.22   94.18
  -3  -3  14 2088.14   92.34
   3  -3 -14 2155.94   73.77
  -3  -4   117529.24  541.71
   3   4  -117460.28  537.78
   3  -4  -116920.49  541.71
   3   4  -117646.99  548.14
  -3   4   117130.54  542.54
  -3  -4   117728.79  540.33
   3  -4  -117256.74  546.90
  -3   4   119119.48  537.13
   3   4  -2  275.63   14.77
  -3  -4   2  244.24   11.07
   3   4  -2  243.73   10.75
  -3   4   2  199.55   22.32
  -3   4   2  208.27    9.25
  -3  -4   2  245.61   11.84
   3  -4  -2  230.02   11.01
   3  -4  -2  217.94    9.30
  -3   4   313817.43  399.00
   3   4  -312843.42  401.86
   3   4  -312603.72  399.69
   3  -4  -313111.66  401.27
  -3  -4   312528.55  400.07
  -3   4   313026.92  399.67
  -3  -4   313014.23  395.83
   3  -4  -312707.94  399.26
   3  -4  -4  188.28    9.55
  -3  -4   4  202.04   11.62
   3   4  -4  187.82    8.27
   3  -4  -4  156.97    7.13
   3   4  -4  158.95   13.08
  -3   4   4  169.24   24.76
  -3  -4   4  165.78   11.87
  -3   4   519331.48  597.81
   3  -4  -518798.86  587.65
   3  -4  -518996.65  590.15
  -3  -4   519716.81  595.86
  -3   4   520280.88  599.15
  -3  -4   519097.77  601.55
   3   4  -519491.19  596.00
   3   4  -518846.21  594.60
  -3  -4   6   -4.38   10.92
   3   4  -6   39.38   11.47
  -3   4   6   44.34   16.18
  -3  -4   6   21.31   12.02
   3  -4  -6   29.63    8.32
   3  -4  -6   28.78    4.72
   3  -4  -711838.49  367.53
   3   4  -712271.04  370.30
  -3   4   711230.69  383.19
   3   4  -712478.94  372.62
  -3   4   712318.50  388.79
  -3  -4   712462.80  374.05
  -3  -4   712309.18  381.54
   3  -4  -711411.80  375.60
   3  -4  -8   63.33    9.06
   3   4  -8   20.24    4.65
   3   4  -8   31.39   14.19
  -3   4   8   94.83   33.13
  -3  -4   8   30.42   16.66
   3  -4  -8   26.97    6.18
  -3   4   9 7794.04  258.31
  -3  -4   9 7696.28  248.98
  -3   4   9 7719.15  259.71
   3   4  -9 7576.68  240.01
   3   4  -9 7734.71  247.35
  -3  -4   9 8008.40  245.54
   3  -4  -9 8150.27  239.13
  -3  -4  10   21.65   22.11
   3   4 -10   70.58   16.26
  -3   4  10   74.69   40.54
  -3   4  10   45.08   31.74
  -3  -4  10   13.00   17.52
  -3   4  11 4748.48  175.29
   3   4 -11 5160.79  162.03
  -3   4  11 4792.04  183.74
  -3  -4  11 4940.41  165.89
  -3  -4  11 5090.32  162.57
   3  -4 -11 4828.91  155.66
  -3  -4  12   20.26   22.14
   3   4 -12   15.98   17.01
  -3   4  12   26.18   31.67
  -3  -4  12   23.54   27.84
  -3  -4  13 3043.30  109.89
   3   4 -13 3080.06  100.00
  -3   4  13 2764.80  111.90
  -3   4  13 2897.79  114.90
  -3  -4  13 2539.76   98.47
   3  -4 -13 2770.30   91.53
   3   4 -14   63.60   17.50
  -3   4  14   17.41   40.61
  -3  -4  14   21.14   25.58
   3  -4 -14   21.77   14.84
   3  -5  -1  443.94   16.57
  -3   5   1  415.16   12.90
  -3  -5   1  362.89   14.29
  -3  -5   1  354.91   15.76
  -3   5   1  369.37   27.87
   3   5  -1  428.25   25.32
   3  -5  -1  376.22   16.42
   3   5  -1  314.04   18.28
  -3  -5   218855.34  609.79
   3  -5  -219778.88  607.79
   3   5  -219430.23  610.63
   3   5  -219176.87  608.19
  -3   5   220501.78  613.10
   3  -5  -220069.95  605.98
  -3   5   221072.13  600.89
  -3  -5   218897.85  602.73
  -3   5   3  101.05   26.66
   3  -5  -3  102.34    6.54
  -3   5   3   91.08    6.46
  -3  -5   3   77.75    8.49
   3  -5  -3  102.79    8.65
   3   5  -415884.25  501.77
  -3   5   416266.16  502.50
  -3   5   417119.65  504.79
  -3  -5   415815.78  504.86
   3  -5  -416716.55  499.66
   3   5  -415837.19  506.06
   3  -5  -416858.39  499.13
  -3  -5   415616.82  505.01
   3   5  -5   80.23   14.24
  -3   5   5  116.29   31.45
  -3   5   5   58.52   11.21
  -3  -5   5   47.14    9.18
   3   5  -5   77.32    8.02
  -3  -5   5   61.22   11.18
   3  -5  -5   41.92    8.58
   3   5  -614562.49  454.56
  -3   5   614444.97  462.85
  -3   5   615291.22  469.56
  -3  -5   614704.19  455.76
   3  -5  -614836.45  451.16
   3  -5  -614298.79  448.40
  -3  -5   614709.23  453.11
   3   5  -614772.48  458.66
   3   5  -7  192.38   17.79
  -3   5   7  184.49   20.35
  -3  -5   7  126.34   15.65
  -3   5   7   86.64   31.89
  -3  -5   7  146.81   16.70
   3   5  -7  144.09    9.78
   3   5  -8 8008.86  257.80
  -3   5   8 7885.20  272.03
  -3   5   8 8342.35  275.76
  -3  -5   8 8026.82  262.80
   3  -5  -8 8599.83  256.28
   3   5  -8 8446.84  260.46
  -3  -5   8 8278.82  262.94
   3   5  -9    1.72   14.54
  -3  -5   9  -14.09   18.37
  -3   5   9  -57.40   43.99
  -3  -5   9   46.79   20.43
   3  -5  -9   44.04   11.15
  -3  -5  10 6526.72  214.22
   3   5 -10 6757.33  214.28
  -3   5  10 6966.13  225.80
  -3   5  10 6605.17  228.14
  -3  -5  10 6941.31  220.18
   3  -5 -10 6708.19  208.86
  -3   5  11   50.03   36.48
   3   5 -11   -5.97   17.66
  -3   5  11   -6.32   36.40
  -3  -5  11  -32.26   19.56
   3  -5 -11   28.03   13.18
  -3  -5  12 3141.95  117.54
   3   5 -12 3356.55  117.24
  -3   5  12 3373.54  139.96
  -3   5  12 3681.21  129.27
  -3  -5  12 3882.99  119.70
   3  -5 -12 3162.46  108.88
   3  -5 -13   17.63   13.66
  -3   5  13  -27.53   39.36
  -3  -5  13   23.76   23.79
  -3  -5  13   84.22   25.69
   3  -6  -114331.26  479.63
   3   6  -115557.88  472.43
   3   6  -115943.04  483.24
  -3  -6   115567.73  476.79
  -3  -6   115215.00  472.81
   3  -6  -115179.14  471.95
  -3   6   115116.32  475.31
   3  -6  -2  192.41   12.55
   3   6  -2  232.88   25.48
   3   6  -2  284.44   19.04
  -3   6   2  246.19   33.17
  -3  -6   2  256.83   14.52
  -3  -6   2  260.50   11.65
   3  -6  -2  196.03   11.77
  -3  -6   311874.73  377.98
   3   6  -311988.41  380.65
   3   6  -312179.84  380.74
  -3   6   312446.05  387.00
  -3  -6   312318.12  378.97
   3  -6  -312152.66  375.87
   3  -6  -311991.15  375.67
   3   6  -4   89.24   14.51
  -3  -6   4   28.63   11.46
  -3  -6   4   25.22    8.60
   3  -6  -4   20.06    8.46
   3  -6  -4   12.78    6.06
  -3   6   4   91.84   34.02
   3  -6  -510914.09  329.42
  -3  -6   510762.46  333.28
  -3   6   510572.83  343.43
  -3  -6   510089.23  330.31
   3  -6  -510689.41  326.02
   3   6  -510508.31  336.82
   3   6  -510555.35  332.93
   3  -6  -6  105.62    7.77
   3   6  -6   97.43   11.81
   3   6  -6  117.68   20.31
  -3  -6   6  110.11   13.12
   3  -6  -6  109.43   10.87
  -3  -6   6   91.89   13.45
  -3  -6   7 6941.80  219.73
   3   6  -7 6638.89  221.38
  -3   6   7 6881.30  235.16
   3  -6  -7 7053.00  214.89
  -3  -6   7 6993.46  221.60
   3   6  -7 7109.51  224.50
  -3  -6   8   25.35   17.64
  -3   6   8   -3.08   43.29
   3  -6  -8   -9.34   10.81
   3   6  -9 6440.33  206.35
  -3  -6   9 6389.39  204.43
  -3  -6   9 6266.94  203.12
   3  -6  -9 6409.52  200.56
  -3   6   9 6170.21  219.35
   3   6 -10  105.61   21.49
  -3   6  10  143.39   49.30
  -3  -6  10  -32.33   17.48
   3  -6 -10   23.67   12.08
  -3  -6  10   32.73   20.81
   3   6 -11 2928.94  105.46
  -3   6  11 3274.36  126.72
  -3  -6  11 2888.15  107.33
   3  -6 -11 3062.82   96.53
  -3  -6  11 2929.05  105.15
  -3   6  12  -32.10   45.76
  -3  -6  12   52.79   22.58
  -3  -6  12   -6.43   22.59
   3   6 -12  -27.00   22.86
   3  -6 -12    0.60   13.55
  -3   6  13 2029.23  103.50
  -3  -6  13 1905.39   79.82
  -3  -6  13 2135.41   80.98
   3  -6 -13 2105.93   70.84
   3   7  -1   59.96   27.10
   3  -7  -1   45.87    9.26
   3   7  -1  115.48   37.99
  -3  -7   1   60.55   11.20
  -3  -7   1   25.24    7.34
   3  -7  -1   79.51   11.06
   3   7  -2 8093.59  266.14
   3   7  -2 8123.07  267.71
  -3   7   2 8704.70  287.51
  -3  -7   2 8472.95  259.77
   3  -7  -2 8592.50  260.17
   3  -7  -2 8294.25  265.27
  -3  -7   2 8308.76  261.30
   3  -7  -3   -2.25    9.23
   3   7  -3   19.03   26.04
   3   7  -3    7.60   17.11
  -3   7   3  -18.53   38.91
  -3  -7   3   45.73   10.97
  -3  -7   3    1.01    5.96
   3   7  -4 6069.59  190.48
   3   7  -4 6217.53  197.08
  -3   7   4 5869.96  205.47
  -3  -7   4 5964.54  187.71
  -3  -7   4 5911.49  189.54
   3  -7  -4 5987.96  184.52
   3  -7  -4 5520.19  185.62
  -3  -7   5   41.76   13.07
   3   7  -5   35.91   17.43
   3   7  -5   20.78   25.93
  -3   7   5   53.02   47.70
  -3  -7   5   14.50    9.31
   3  -7  -5  -12.16   10.12
   3  -7  -5   11.62    6.69
  -3  -7   6 6551.03  195.39
   3  -7  -6 6137.13  194.12
   3   7  -6 6064.45  199.06
  -3  -7   6 6204.38  198.26
   3   7  -6 5981.24  198.60
  -3  -7   7   33.47   14.95
  -3  -7   7   21.37   11.62
   3  -7  -7    7.93   11.26
   3   7  -7   30.18   16.27
   3   7  -7   20.50   22.26
  -3  -7   8 3926.28  127.88
  -3   7   8 3775.52  148.55
  -3  -7   8 3878.15  130.04
   3  -7  -8 3887.56  124.30
   3   7  -8 4042.36  131.89
   3   7  -9  -19.97   23.72
  -3  -7   9   -9.21   14.94
   3  -7  -9   32.83   13.53
  -3   7   9   50.76   44.17
  -3  -7   9   37.45   14.99
  -3   7  10 3019.58  121.77
  -3  -7  10 2874.08  102.58
  -3  -7  10 3039.63  102.41
   3  -7 -10 2912.85   95.93
   3   7 -10 2970.14  107.87
  -3  -7  11   98.31   23.21
   3   7 -11  133.86   26.32
   3  -7 -11   39.58   14.13
  -3  -7  11   63.63   20.72
  -3  -7  12 1548.70   64.48
   3  -7 -12 1477.82   54.41
   3   7 -12 1853.46   67.11
  -3  -7  12 1527.73   64.15
  -3   7  12 1631.49   89.99
   3   8  -1 7240.97  241.43
  -3  -8   1 7007.08  226.33
   3  -8  -1 7247.07  229.20
   3   8  -1 7309.56  246.56
  -3   8   1 7223.17  250.27
   3  -8  -1 7965.45  231.05
  -3  -8   1 7122.74  228.48
   3   8  -2   52.19   43.24
  -3  -8   2   31.06    7.30
   3   8  -2  155.89   34.56
  -3   8   2  -37.91   45.42
   3  -8  -2   64.78    9.47
   3   8  -3 6467.77  220.33
  -3   8   3 6118.83  223.25
  -3  -8   3 6318.86  203.94
   3   8  -3 6686.95  219.30
  -3  -8   3 6543.43  203.18
   3  -8  -3 6692.51  206.55
   3  -8  -3 6697.57  205.04
   3   8  -4  131.70   30.76
  -3  -8   4  204.09   16.32
  -3   8   4  147.86   52.19
  -3  -8   4  185.92   11.21
   3  -8  -4  237.19   11.42
   3  -8  -4  230.09   14.24
   3   8  -5 6245.75  217.89
  -3  -8   5 6285.96  204.02
   3  -8  -5 6517.09  197.66
   3   8  -5 6521.18  210.89
  -3   8   5 6270.96  222.64
  -3  -8   5 6370.63  202.88
   3   8  -6   21.57   24.20
  -3  -8   6  -37.27   10.53
   3   8  -6  -57.50   27.21
  -3  -8   6   -3.75   16.44
   3  -8  -6   11.58   10.62
  -3   8   7 3694.70  150.63
  -3  -8   7 4229.91  135.65
   3  -8  -7 4177.74  132.38
   3   8  -7 4261.26  139.78
   3   8  -8   70.22   24.49
   3  -8  -8   22.06   11.44
  -3  -8   8  -52.25   14.29
   3   8  -9 2857.34  106.71
  -3   8   9 2940.97  126.22
   3  -8  -9 2869.55   95.77
  -3  -8   9 3174.41  102.23
   3   8 -10   93.16   30.46
  -3  -8  10   31.83   16.62
  -3   8  10   18.75   59.94
   3  -8 -10   24.33   14.27
   3   8 -11 1941.91   76.94
  -3   8  11 2345.41   96.30
  -3  -8  11 1844.76   70.98
   3  -8 -11 1835.08   66.55
   3   9  -1 -161.75   61.65
   3  -9  -1   34.41   11.76
  -3   9   1  -53.96   52.16
   3   9  -1  186.62   46.34
   3  -9  -1   23.67   12.89
  -3  -9   2 7279.22  221.39
   3  -9  -2 7730.48  220.30
   3   9  -2 6404.02  239.71
   3  -9  -2 7226.75  223.74
   3   9  -2 6909.28  238.28
  -3   9   2 6518.71  241.39
   3  -9  -3   22.54   14.16
   3   9  -3   24.39   43.26
   3   9  -3  209.09   49.06
  -3  -9   3   19.44   12.66
   3   9  -4 4964.62  191.03
  -3   9   4 5172.48  197.23
   3  -9  -4 5990.51  173.86
   3   9  -4 5981.91  193.26
  -3  -9   4 5608.75  182.09
   3   9  -5  -18.89   38.29
  -3  -9   5   14.24   15.38
   3   9  -5  113.09   39.28
  -3   9   5  221.54   63.70
   3   9  -6 3554.98  134.47
  -3  -9   6 3823.25  128.29
  -3   9   6 3793.96  149.03
   3  -9  -6 4004.93  121.81
   3   9  -7    6.97   35.90
   3  -9  -7   79.81   13.42
  -3   9   7  -34.31   67.72
  -3  -9   7  118.01   17.77
   3   9  -8 2700.90  108.87
  -3   9   8 3070.42  123.76
  -3  -9   8 2666.68   95.47
   3  -9  -8 2753.92   89.78
   3   9  -9  -39.61   33.66
  -3   9   9  -94.46   61.47
  -3  -9   9    3.89   17.31
   3  -9  -9   -9.25   12.99
  -3  -9  10 2123.05   76.49
   3  10  -1 2668.77  134.94
   3 -10  -1 3513.66  106.91
   3  10  -1 2729.42  149.13
  -3  10   1 3073.51  128.88
  -3 -10   1 3333.42  108.02
   3 -10  -1 3357.68  108.01
   3  10  -2  261.87   65.55
   3 -10  -2   83.97   15.84
   3 -10  -2  157.33   13.17
   3  10  -2  248.14   58.66
  -3 -10   2  178.36   17.69
   3  10  -3 2925.59  135.01
   3  10  -3 3291.22  137.15
  -3  10   3 2822.19  132.48
   3 -10  -3 3361.14  105.58
  -3 -10   3 3473.23  109.67
   3  10  -4 -120.94   51.84
   3 -10  -4   16.79   11.78
   3 -10  -5 2144.37   70.57
   3  10  -5 1844.21   93.51
  -3 -10   5 2232.28   75.33
   3  10  -5 2221.28   96.30
  -3  10   5 1873.09  104.40
  -3  10   6  -26.62   59.30
   3  10  -6  203.71   43.00
   3 -10  -6  199.60   15.37
  -3 -10   6  184.47   19.52
  -3 -10   7 1801.06   67.09
   3  10  -7 1671.72   81.80
   3 -10  -7 1668.33   60.55
  -3  10   7 1998.39   99.72
   3  10  -8   -6.20   37.74
   3 -10  -8    9.73   14.37
  -3 -10   8   44.86   19.07
   3  11  -1  -11.31   70.33
   3  11  -1  139.99   77.71
  -3  11   1  202.74   54.92
   3 -11  -1   26.49   13.92
  -3 -11   1  -24.04   10.77
   3 -11  -1    1.90   13.64
   3  11  -2 1687.96  106.63
  -3 -11   2 1732.64   63.99
   3  11  -2 1905.21  128.74
  -3  11   2 1758.01   97.15
   3 -11  -2 1932.14   64.18
   3  11  -3  -41.54   65.20
  -3  11   3  155.82   66.92
   3 -11  -3   41.69   13.40
   3  11  -3  -24.61   62.40
  -3 -11   3   37.71   14.31
  -3 -11   4 1822.52   60.82
   3  11  -4 1269.99  105.77
   3  11  -4 1679.61   96.23
  -3  11   4 1726.40   96.77
   3 -11  -4 1629.07   58.61
   3 -11  -5  -23.30   13.58
  -3  11   5 -140.97   69.64
   3  11  -5  -83.51   57.57
  -3 -11   5    6.00   15.42
   2   0  -1    2.45    1.53
  -2   0   1   -2.53    3.97
   2   0  -2 8365.70  252.69
   2   0  -2 8680.07  255.69
  -2   0   2 7820.74  262.43
  -2   0   2 8437.22  260.28
  -2   0   3   39.96    9.65
  -2   0   3   10.81    7.82
   2   0  -433998.52 1021.05
   2   0  -433527.30 1035.71
  -2   0   432727.49 1042.80
  -2   0   435053.01 1053.53
   2   0  -5   15.42    6.95
  -2   0   5   29.77   11.86
   2   0  -613792.59  418.83
   2   0  -613540.06  426.60
  -2   0   613671.66  436.55
  -2   0   614271.66  432.48
   2   0  -7   24.47    6.53
   2   0  -7   26.47    6.43
  -2   0   7   87.53   22.28
   2   0  -817042.50  518.34
   2   0  -816673.97  532.89
  -2   0   817391.78  538.08
  -2   0   817567.56  549.77
   2   0  -9   -8.88    8.27
   2   0  -9   18.54   10.50
  -2   0   9   27.76   12.21
   2   0 -10 8179.25  241.82
   2   0 -10 7768.21  250.54
  -2   0  10 7787.30  253.92
  -2   0  10 7832.12  271.48
   2   0 -11   25.47   12.08
   2   0 -11  -11.78   13.60
  -2   0  11   45.36   43.46
   2   0 -12 5008.01  157.96
   2   0 -12 5092.11  165.00
  -2   0  12 4959.16  177.07
   2   0 -13    8.25   13.13
   2   0 -13   26.51   17.79
  -2   0  13 -142.73   39.18
   2   0 -14 2570.87   84.00
  -2   0  14 2170.07  107.93
   2   0 -15   13.07   15.38
  -2   0  15  -26.55   44.63
   2   1  -121836.63  696.78
   2   1  -121429.87  700.68
  -2   1   121552.24  705.44
  -2   1   123617.71  709.72
  -2  -1   124248.47  698.47
  -2  -1   123574.63  708.88
  -2  -1   122935.80  709.61
   2  -1  -122989.81  699.87
   2  -1  -124577.03  704.04
   2   1  -2  148.17    5.53
  -2   1   2  167.97   12.65
  -2   1   2  189.91    9.09
  -2  -1   2  173.51    8.00
  -2  -1   2  147.11    8.59
  -2  -1   330705.86  929.01
  -2  -1   332728.38  933.31
   2   1  -329248.23  926.53
   2   1  -329938.50  926.54
  -2   1   329630.23  936.81
  -2   1   329060.70  918.63
  -2   1   331004.07  931.90
   2  -1  -331559.26  909.72
   2  -1  -328620.47  923.57
   2   1  -4  230.32    8.05
   2   1  -4  267.02   10.00
  -2   1   4  314.83   17.90
  -2   1   4  219.49    8.01
  -2   1   4  266.44   16.46
  -2  -1   4  248.63   12.59
  -2  -1   4  245.96   16.00
   2  -1  -4  219.67    9.46
   2   1  -528207.38  857.40
  -2   1   528074.36  869.89
  -2   1   529194.09  875.79
  -2  -1   527919.03  867.02
  -2  -1   528010.61  856.19
   2  -1  -528297.46  842.85
   2  -1  -526589.08  863.60
   2   1  -6   22.69    6.80
   2   1  -6   22.29   10.33
  -2   1   6   43.47   13.45
  -2   1   6   42.31   19.04
  -2  -1   6   59.80   12.06
  -2  -1   6   17.37   18.55
   2  -1  -6   14.62    5.96
   2  -1  -6   12.86    4.52
   2   1  -715112.64  459.54
   2   1  -715016.55  467.24
  -2   1   715410.07  480.05
  -2   1   715378.64  488.43
  -2  -1   715192.77  471.72
  -2  -1   714998.38  469.48
   2  -1  -715055.19  454.19
   2  -1  -714839.28  469.37
   2   1  -8   43.19    9.05
   2   1  -8   90.72   13.00
  -2   1   8   54.13   18.14
  -2   1   8   82.81   28.38
  -2  -1   8   63.30   10.85
  -2  -1   8  124.54   24.60
   2  -1  -8  109.62    9.18
   2  -1  -8   60.86    8.03
   2   1  -915244.98  459.98
   2   1  -915244.62  469.00
  -2   1   915273.74  479.63
  -2   1   914864.03  483.59
  -2  -1   915610.68  472.71
  -2  -1   915231.59  471.70
   2  -1  -914793.81  455.95
   2  -1  -914523.30  469.74
   2   1 -10  135.13   18.91
  -2   1  10  126.86   20.36
  -2  -1  10   68.68   14.50
  -2  -1  10  118.81   33.64
   2  -1 -10   95.04   10.38
   2  -1 -10  113.91   11.18
   2   1 -11 7670.48  217.97
   2   1 -11 7245.45  223.74
  -2   1  11 6941.01  231.08
  -2   1  11 6574.58  234.46
  -2  -1  11 6844.31  228.42
   2  -1 -11 6850.02  216.04
   2  -1 -11 6373.81  220.46
   2   1 -12   25.46   13.15
   2   1 -12  -17.60   18.65
  -2   1  12   96.97   45.15
  -2  -1  12   59.12   38.43
   2  -1 -12   67.87   12.71
   2  -1 -12    8.91   13.84
   2   1 -13 4916.04  152.59
   2   1 -13 4582.10  156.61
  -2   1  13 4450.79  173.42
  -2  -1  13 4976.54  175.37
   2  -1 -13 4866.65  150.29
   2  -1 -13 4437.21  155.87
   2   1 -14   16.37   15.06
  -2   1  14  -47.01   46.19
  -2  -1  14  -72.06   40.62
   2  -1 -14  -14.36   13.14
   2   1 -15 2436.20   80.91
  -2   1  15 1941.94   98.74
  -2  -1  15 2267.19  108.68
   2  -1 -15 2346.67   78.89
   2   2  -1 2684.27   80.62
   2   2  -1 2748.22   82.46
  -2   2   1 2510.62   84.35
  -2   2   1 2641.95   82.38
  -2  -2   1 2635.41   82.30
  -2  -2   1 2703.15   82.65
   2  -2  -1 2452.56   82.67
   2  -2  -1 2700.81   81.97
   2  -2  -1 2384.56   80.99
   2   2  -246155.00 1427.45
   2   2  -246600.28 1424.56
  -2   2   245903.42 1434.39
  -2   2   244931.21 1418.70
  -2   2   248748.54 1424.59
  -2  -2   248890.73 1426.09
  -2  -2   246813.43 1440.09
   2  -2  -247900.30 1435.27
   2  -2  -245514.02 1437.91
   2   2  -3 1121.41   35.86
   2   2  -3 1117.14   36.53
  -2   2   3 1184.33   43.50
  -2   2   3 1112.87   36.15
  -2  -2   3 1262.13   38.91
  -2  -2   3 1103.79   38.08
   2  -2  -3 1132.12   36.20
   2  -2  -3 1086.08   35.05
   2   2  -439640.82 1225.12
   2   2  -439823.53 1235.55
  -2   2   440709.41 1243.87
  -2   2   441947.28 1243.77
  -2  -2   441208.84 1240.72
  -2  -2   439923.60 1241.22
   2  -2  -441094.76 1211.64
   2  -2  -438058.90 1232.78
   2   2  -5  404.34   13.49
   2   2  -5  430.22   16.35
  -2   2   5  477.61   29.78
  -2   2   5  375.12   23.44
  -2  -2   5  489.92   19.59
  -2  -2   5  408.97   24.05
   2  -2  -5  445.58   15.35
   2  -2  -5  387.37   14.37
   2   2  -622280.62  696.42
  -2   2   623876.80  713.87
  -2   2   623957.33  723.91
  -2  -2   622356.82  706.66
  -2  -2   622237.61  704.24
   2  -2  -623427.60  682.32
   2  -2  -621825.32  704.15
   2   2  -622435.63  695.09
   2   2  -7  443.65   13.41
   2   2  -7  423.45   16.80
  -2   2   7  536.41   32.68
   2  -2  -7  365.22   14.88
  -2   2   7  398.36   29.62
  -2  -2   7  426.16   27.48
   2  -2  -7  356.43   15.51
   2   2  -818201.27  559.79
   2   2  -818186.91  563.60
  -2   2   818761.97  590.99
  -2   2   817771.60  596.98
  -2  -2   817915.72  578.39
  -2  -2   818735.42  571.98
   2  -2  -819157.12  556.07
   2  -2  -818572.23  573.68
  -2   2   9   -3.44   23.91
  -2  -2   9    9.23   27.69
   2  -2  -9   32.27    7.28
   2   2  -9   35.75    2.66
   2   2  -9   71.46   10.89
   2   2 -1011181.47  337.25
  -2   2  1011444.49  361.71
  -2   2  1010193.51  355.42
  -2  -2  1010940.10  351.15
   2  -2 -1011185.25  332.43
   2  -2 -1010767.62  346.58
  -2   2  11  123.49   26.55
  -2   2  11  -20.86   42.67
  -2  -2  11  -81.07   32.88
   2  -2 -11   34.32   10.91
   2   2 -12 8225.71  246.21
  -2   2  12 8608.19  264.03
  -2   2  12 7048.18  268.48
  -2  -2  12 7748.73  257.08
   2  -2 -12 8137.61  247.65
   2  -2 -12 7830.47  253.36
   2   2 -13   -5.53   14.19
  -2   2  13   99.38   44.82
  -2  -2  13  -89.34   37.67
   2   2 -14 3534.22  111.03
  -2   2  14 3058.52  131.54
  -2  -2  14 2910.23  119.83
  -2  -2  14 3557.11  126.59
   2  -2 -14 3430.47  110.24
  -2   2  15   48.47   49.07
   2  -2 -15  -26.58   14.02
   2   3  -148996.32 1508.17
   2   3  -148018.36 1501.32
  -2   3   150228.28 1503.20
  -2   3   154368.70 1509.06
  -2  -3   148542.75 1488.00
  -2  -3   147782.61 1512.59
   2  -3  -148870.19 1517.83
   2  -3  -146827.52 1496.58
   2  -3  -148675.69 1484.43
   2   3  -2   10.30    4.25
   2   3  -2   40.94    9.29
  -2  -3   2   35.41    6.98
  -2  -3   2   18.61    5.21
  -2   3   2   83.07   22.49
  -2   3   2   35.95    5.37
   2   3  -330521.80  929.70
   2   3  -329433.11  919.14
  -2   3   330794.81  932.95
  -2   3   331385.33  921.42
  -2  -3   331061.04  925.48
  -2  -3   329589.40  925.49
   2  -3  -329142.49  924.01
   2  -3  -329328.97  923.28
   2   3  -4  131.66    9.50
  -2   3   4   84.94   25.94
  -2   3   4   76.46   14.58
  -2  -3   4   69.95    9.91
  -2  -3   4   95.37   10.70
   2  -3  -4   73.56    6.32
   2  -3  -4   81.97    5.09
   2   3  -4   96.21    4.39
   2   3  -526930.25  817.96
   2   3  -526129.67  817.65
  -2   3   528015.63  835.71
  -2   3   525775.93  843.25
  -2  -3   527006.12  826.78
  -2  -3   527083.35  825.76
   2  -3  -526573.40  805.46
   2  -3  -526101.59  812.57
   2   3  -6   30.35    8.90
  -2  -3   6   25.00   10.54
  -2  -3   6    5.82   14.32
   2  -3  -6  -10.61    5.64
   2  -3  -6    0.00    4.23
   2   3  -715697.27  495.63
   2   3  -715922.62  496.36
  -2   3   717284.48  517.86
  -2   3   716642.46  524.01
  -2  -3   715691.15  507.51
  -2  -3   716027.52  504.95
   2  -3  -716622.34  489.39
   2  -3  -715928.46  502.01
   2   3  -8   47.36    3.31
   2   3  -8   37.14   10.99
  -2   3   8   80.12   30.91
  -2   3   8   66.70   30.56
  -2  -3   8   36.15   21.83
   2  -3  -8   20.81    7.67
   2   3  -910646.16  332.68
   2   3  -910812.10  339.64
  -2   3   911624.67  365.29
  -2   3   910087.77  363.27
  -2  -3   910082.74  347.85
  -2  -3   911352.32  346.65
   2  -3  -911816.10  335.04
   2  -3  -911207.44  345.21
   2   3 -10   60.37   13.66
  -2   3  10  -14.44   37.56
  -2  -3  10   43.86   22.74
  -2  -3  10   -5.10   30.12
   2  -3 -10    5.22    9.80
   2  -3 -10   26.93    8.72
   2   3 -11 6742.96  213.90
  -2   3  11 7301.24  241.79
  -2   3  11 6654.26  241.23
  -2  -3  11 6451.06  226.08
  -2  -3  11 7442.21  225.43
   2  -3 -11 7000.75  212.15
   2  -3 -11 6648.23  219.91
   2   3 -12   13.75   14.91
  -2   3  12   87.78   29.95
  -2   3  12  -61.10   47.86
  -2  -3  12   78.46   24.03
  -2  -3  12   22.02   32.40
   2  -3 -12   42.42   12.12
   2   3 -13 3770.70  127.71
  -2   3  13 3827.91  154.71
  -2  -3  13 3825.01  140.55
  -2  -3  13 4238.89  137.71
   2  -3 -13 3906.43  125.81
   2   3 -14   69.18   20.10
  -2   3  14   40.50   48.37
  -2  -3  14   27.59   38.60
   2  -3 -14   17.73   13.66
   2   4  -1   46.58    8.95
  -2   4   1  170.01   24.26
  -2   4   1   28.16   47.81
  -2  -4   1   62.50    6.80
  -2  -4   1   57.18    5.92
   2  -4  -1   59.57    6.80
  -2   4   224454.26  694.00
  -2  -4   221295.51  698.40
   2   4  -222848.23  699.59
   2   4  -222216.67  693.67
  -2   4   222284.38  695.75
  -2  -4   222911.85  695.00
   2  -4  -223021.46  702.54
   2  -4  -222411.54  699.02
   2   4  -3  189.31   13.47
   2   4  -3  231.28   10.32
  -2   4   3  141.60   27.77
  -2  -4   3  184.44   11.24
  -2  -4   3  230.45   11.69
   2  -4  -3  245.98    8.83
   2   4  -416797.50  526.51
   2   4  -416726.25  516.74
  -2   4   416063.33  520.88
  -2   4   417855.43  530.75
  -2  -4   416877.35  519.19
  -2  -4   416760.84  526.17
   2  -4  -417044.13  516.75
   2  -4  -416835.96  516.53
   2   4  -5    3.78    3.96
   2   4  -5   31.24   11.14
  -2   4   5  -64.65   28.24
  -2   4   5   60.86   15.68
  -2  -4   5    5.56   10.53
  -2  -4   5  -12.54   10.99
   2  -4  -5   23.92    6.35
   2  -4  -5   52.65   11.50
   2   4  -615338.19  469.54
   2   4  -614169.21  457.60
  -2   4   614807.91  471.61
  -2   4   615032.13  482.93
  -2  -4   615229.28  465.47
  -2  -4   615226.33  464.20
   2  -4  -614704.17  452.30
   2  -4  -614575.37  454.11
   2   4  -7  115.13    6.67
   2   4  -7  114.73   13.68
  -2   4   7   54.89   30.43
  -2   4   7  191.40   31.04
  -2  -4   7  130.46   16.75
  -2  -4   7   84.09   16.26
   2  -4  -7  135.80    7.48
   2   4  -8 7610.02  239.87
  -2   4   8 7841.46  253.73
  -2   4   8 7085.81  255.60
  -2  -4   8 7780.59  245.08
  -2  -4   8 7800.87  245.24
   2  -4  -8 7728.78  233.75
   2  -4  -8 7642.82  237.88
   2   4  -8 7548.48  237.25
   2  -4  -9  154.24    9.94
   2  -4  -9  165.26   11.03
   2   4  -9  176.79   15.77
  -2   4   9  163.26   42.32
  -2   4   9  170.49   37.88
  -2  -4   9  132.90   20.33
  -2  -4   9  180.15   23.35
  -2  -4  10 6287.24  198.56
   2   4 -10 6174.06  194.00
  -2   4  10 6034.77  207.20
  -2   4  10 5701.79  210.66
  -2  -4  10 5973.78  197.50
   2  -4 -10 5923.28  184.31
   2  -4 -10 5767.72  193.08
   2   4 -11   -0.18   16.31
  -2   4  11   78.98   46.76
  -2   4  11   18.06   43.00
  -2  -4  11    8.24   22.34
   2  -4 -11   -0.50   10.97
  -2   4  12 3795.42  142.50
   2   4 -12 3913.40  122.22
  -2   4  12 3652.23  139.48
  -2  -4  12 3404.32  132.90
  -2  -4  12 3656.85  128.30
   2  -4 -12 3443.28  117.03
   2  -4 -13  132.93   14.28
   2   4 -13   78.36   20.39
  -2   4  13   36.55   32.02
  -2   4  13  172.11   45.32
  -2  -4  13   99.59   31.64
  -2  -4  13   24.21   39.08
   2   4 -14 1990.92   72.81
  -2   4  14 1986.03   95.39
  -2  -4  14 1928.24   80.88
  -2  -4  14 2276.64   89.25
   2  -4 -14 1770.43   66.59
   2   5  -117806.06  544.21
   2   5  -117878.48  547.36
  -2   5   118381.97  553.08
  -2   5   118211.74  563.20
  -2  -5   117377.89  540.58
  -2  -5   117467.92  547.67
   2  -5  -116624.96  544.81
   2   5  -2   -0.29    9.38
  -2   5   2   36.39   29.75
  -2  -5   2   10.19    7.16
   2  -5  -2   11.11    6.19
   2   5  -318108.29  559.04
   2   5  -317529.32  549.61
  -2   5   317895.26  556.67
  -2   5   319050.34  549.58
  -2  -5   317912.52  552.28
  -2  -5   317247.72  553.45
   2  -5  -318143.42  549.63
   2  -5  -317031.85  552.73
   2   5  -4   93.81   10.44
   2   5  -4    2.16   15.47
  -2  -5   4   55.31   11.68
  -2  -5   4   83.61    9.28
   2  -5  -4   62.49    8.76
   2  -5  -4   85.10    5.79
  -2  -5   516200.04  534.19
  -2  -5   517334.38  532.86
   2  -5  -517069.08  527.21
   2   5  -517418.79  542.47
   2   5  -517334.47  536.00
  -2   5   516592.00  534.93
  -2   5   518722.95  548.56
   2  -5  -517213.70  525.07
   2   5  -6   16.53    7.99
  -2   5   6   98.73   33.95
  -2   5   6   60.68   18.78
  -2  -5   6   65.40   12.94
   2  -5  -6   60.64    8.64
   2  -5  -6   30.91    5.73
  -2  -5   7 7885.02  245.53
   2   5  -7 7377.70  243.64
   2   5  -7 7703.93  241.43
  -2   5   7 7346.68  247.47
  -2   5   7 7937.77  264.40
  -2  -5   7 7644.02  244.76
   2  -5  -7 7680.13  235.73
   2  -5  -7 7709.55  235.38
   2   5  -8  -13.54   14.05
  -2   5   8  123.62   42.52
  -2   5   8   50.81   30.61
  -2  -5   8   15.47   18.13
  -2  -5   8   -1.60   16.39
   2  -5  -8   20.68   10.00
   2   5  -9 7815.32  241.77
  -2   5   9 7502.15  260.75
  -2   5   9 7710.73  267.33
  -2  -5   9 7710.29  245.24
  -2  -5   9 7715.84  248.63
   2  -5  -9 7610.42  234.49
   2  -5  -9 7340.56  238.48
   2  -5 -10   -2.73   10.19
   2   5 -10   -8.86   17.61
  -2  -5  10  -28.22   18.55
  -2  -5  10   58.09   21.87
   2   5 -11 5074.94  162.49
  -2   5  11 5296.09  182.58
  -2   5  11 5056.59  177.82
  -2  -5  11 4928.09  167.70
  -2  -5  11 4894.00  169.86
   2  -5 -11 4597.97  154.77
   2   5 -12   36.14   18.83
  -2   5  12   39.44   52.53
  -2  -5  12   74.92   27.00
  -2  -5  12  -19.83   26.77
   2  -5 -12   43.33   13.37
  -2  -5  13 2969.22  113.53
   2   5 -13 3234.63  106.25
  -2   5  13 3213.56  130.47
  -2   5  13 3028.86  120.35
  -2  -5  13 3401.98  113.00
   2  -5 -13 2688.71   98.83
   2   6  -1   26.74   23.22
   2   6  -1  -22.15   27.33
  -2   6   1   60.02   32.94
  -2   6   1  243.32   55.41
  -2  -6   1   14.98    5.24
   2  -6  -1   40.69    7.90
   2   6  -221254.51  650.35
  -2  -6   221346.76  642.83
  -2  -6   220425.44  646.92
   2  -6  -220602.96  647.89
  -2   6   220075.59  655.23
   2  -6  -221054.43  638.21
   2   6  -221207.23  645.82
   2   6  -3   20.99   21.06
  -2   6   3   71.67   37.59
   2  -6  -3   16.52    6.14
   2   6  -3   55.86   17.52
   2  -6  -3   -3.68    8.40
   2   6  -414834.35  469.43
   2   6  -414880.50  463.09
  -2   6   414583.37  474.33
  -2   6   415896.69  469.71
  -2  -6   414960.31  461.48
  -2  -6   414969.11  463.70
   2  -6  -414684.74  463.91
   2  -6  -415162.67  462.54
   2   6  -5  531.60   26.00
   2   6  -5  535.78   26.89
  -2   6   5  584.05   54.85
  -2   6   5  486.83   25.36
  -2  -6   5  497.01   23.81
  -2  -6   5  472.69   21.18
   2  -6  -5  594.67   20.92
   2  -6  -5  540.29   18.85
   2   6  -610582.42  334.58
   2   6  -611040.52  332.61
  -2   6   6 9945.05  340.30
  -2   6   610989.91  344.11
  -2  -6   610794.65  329.37
  -2  -6   610486.29  331.33
   2  -6  -610272.14  327.34
   2  -6  -610363.01  322.47
   2   6  -7   44.33   13.20
   2   6  -7    1.15   21.41
  -2   6   7   -4.25   43.50
  -2   6   7  -37.97   25.72
  -2  -6   7   75.02   13.97
  -2  -6   7   86.04   15.60
   2  -6  -7   97.79    9.47
   2  -6  -7   81.77    7.19
   2   6  -8 6837.18  228.99
  -2   6   8 6760.64  237.92
  -2   6   8 7218.77  251.49
  -2  -6   8 7360.82  228.49
  -2  -6   8 6992.99  229.24
   2  -6  -8 7266.81  219.13
   2  -6  -8 7337.20  220.26
  -2   6   9   31.73   47.33
  -2   6   9  -53.79   34.11
  -2  -6   9   -1.68   20.53
  -2  -6   9   20.67   20.67
   2  -6  -9   -0.54    8.08
   2   6 -10 7349.51  230.92
   2  -6 -10 6882.09  219.68
  -2  -6  10 6901.79  228.81
  -2   6  10 6949.28  248.73
  -2   6  10 7255.58  247.40
  -2  -6  10 6935.43  231.81
  -2   6  11  112.36   43.43
   2   6 -11   -8.43   22.66
  -2   6  11    2.35   41.48
  -2  -6  11  -18.77   20.20
   2  -6 -11   20.13   11.09
   2   6 -12 3464.43  117.58
  -2   6  12 3487.48  139.80
  -2  -6  12 3128.97  117.29
  -2  -6  12 3253.92  119.67
   2  -6 -12 3224.32  105.88
  -2  -6  13    3.30   27.31
   2   6 -13  106.76   21.10
  -2   6  13   26.29   41.52
  -2  -6  13   37.62   24.67
   2  -6 -13   31.41   13.37
   2   7  -114557.21  441.51
  -2   7   113112.04  445.57
  -2   7   114239.03  454.78
  -2  -7   113820.35  430.94
  -2  -7   113457.32  425.61
   2  -7  -114221.43  431.95
   2   7  -2  -52.16   31.40
   2   7  -2  104.00   35.78
   2  -7  -2   31.68    8.76
   2  -7  -2   28.89    6.72
  -2   7   2  -25.82   44.67
  -2  -7   2   14.06   10.57
  -2  -7   2   42.49    5.97
   2  -7  -3 9248.69  285.35
   2   7  -3 9681.38  298.84
   2   7  -3 9411.32  292.85
  -2   7   3 8291.40  300.91
  -2  -7   3 9222.68  289.77
  -2  -7   3 9158.15  288.71
   2  -7  -3 9425.62  288.69
   2  -7  -4   39.31    8.45
   2   7  -4  -58.19   22.83
   2   7  -4  -22.27   22.02
  -2  -7   4   57.53    8.51
   2  -7  -4   26.18    8.92
  -2  -7   5 8705.45  270.06
  -2  -7   5 8560.92  269.49
   2   7  -5 8435.44  283.16
   2   7  -5 8570.64  272.09
  -2   7   5 8218.88  279.38
   2  -7  -5 8401.14  263.83
   2  -7  -5 8698.39  266.15
   2   7  -6  204.26   25.39
   2   7  -6  289.07   28.43
  -2   7   6  194.85   51.91
   2  -7  -6  217.19   13.55
   2  -7  -6  187.83   10.92
   2   7  -7 6340.45  201.97
  -2   7   7 6034.27  219.03
  -2  -7   7 6008.37  201.27
  -2  -7   7 6133.90  202.96
   2  -7  -7 6327.53  192.35
   2  -7  -7 6102.93  190.63
   2   7  -8   18.02   25.58
  -2   7   8  -62.30   46.11
   2  -7  -8   77.31   11.14
   2  -7  -8   62.77    9.03
   2   7  -9 6514.73  204.86
  -2   7   9 5897.15  213.21
  -2  -7   9 6180.76  200.08
  -2  -7   9 6047.27  199.86
   2  -7  -9 6087.71  191.93
   2   7 -10   -3.54   26.99
  -2   7  10  -38.45   52.88
  -2  -7  10   51.93   21.37
   2  -7 -10   24.65   13.07
   2   7 -11 3306.46  110.88
  -2   7  11 2863.85  131.64
  -2  -7  11 2909.84  106.56
  -2  -7  11 3130.04  103.22
   2  -7 -11 2654.49   95.67
  -2   7  12  -44.39   51.78
  -2  -7  12    9.56   25.04
  -2  -7  12  -15.42   20.86
   2  -7 -12  -15.12   14.13
  -2   8   1   60.04   75.29
  -2  -8   1   23.43   10.44
  -2   8   1 -102.34   44.64
   2  -8  -1  -15.23    9.75
   2   8  -2 6566.23  229.08
   2   8  -2 7260.24  235.37
  -2   8   2 6233.44  232.18
  -2  -8   2 7044.04  215.44
   2  -8  -2 7442.61  215.53
   2  -8  -2 6696.98  215.74
   2   8  -3  126.74   41.22
   2   8  -3  180.04   41.11
  -2   8   3   83.91   54.16
   2  -8  -3   34.65   11.79
   2  -8  -3   75.50    9.50
   2   8  -4 5034.56  182.22
   2   8  -4 5252.08  174.61
  -2   8   4 5024.22  188.42
  -2  -8   4 5465.58  171.10
   2  -8  -4 5445.15  167.87
   2  -8  -4 5426.45  169.33
   2   8  -5  -33.79   30.60
   2   8  -5  -40.75   34.01
  -2  -8   5  -26.86   15.82
   2  -8  -5  -21.05   10.08
   2  -8  -5  -10.76    7.54
   2  -8  -6 6549.35  202.17
   2   8  -6 6121.27  215.43
  -2   8   6 6314.68  220.33
  -2  -8   6 6558.80  208.72
   2  -8  -6 6597.35  202.32
   2   8  -7  166.73   33.74
   2  -8  -7   76.55   13.00
  -2   8   7  171.07   62.18
  -2  -8   7   63.09   20.39
   2  -8  -7   64.01    9.70
   2  -8  -8 4842.07  151.22
   2   8  -8 4838.74  165.28
  -2   8   8 4766.61  173.40
  -2  -8   8 4702.11  156.46
  -2   8   9   40.41   54.24
   2   8  -9  -22.94   30.28
  -2  -8   9   51.03   22.48
   2  -8  -9   82.01   12.16
   2   8 -10 2928.24  110.14
  -2   8  10 3209.83  132.31
  -2  -8  10 3169.10  107.12
   2  -8 -10 2873.60   98.47
  -2   8  11  -29.34   51.09
  -2  -8  11   10.97   22.76
   2  -8 -11   70.07   13.62
   2   9  -1 6006.41  230.04
   2   9  -1 6337.27  220.58
  -2   9   1 5373.22  212.81
  -2   9   1 6210.79  232.44
  -2  -9   1 6088.38  191.83
   2  -9  -1 6249.32  195.38
   2   9  -2  156.83   57.72
   2   9  -2  245.15   54.49
  -2   9   2   18.95   58.35
  -2  -9   2   50.75   14.47
   2  -9  -2   33.11   12.17
   2  -9  -2    6.98   11.03
   2   9  -3 4913.37  196.58
   2   9  -3 5112.43  186.59
  -2   9   3 4984.16  197.62
  -2  -9   3 5042.54  164.78
   2  -9  -3 5266.35  163.29
   2  -9  -3 5480.31  166.98
   2   9  -4   28.80   45.32
   2  -9  -4   26.19   10.18
   2  -9  -4  -19.22   11.65
  -2   9   5 5276.49  198.98
   2  -9  -5 5528.90  169.39
   2  -9  -5 5326.22  169.79
   2   9  -5 5500.92  185.35
  -2  -9   5 5172.34  172.53
  -2  -9   6    4.70   17.94
   2   9  -6  -48.13   38.05
  -2   9   6   41.32   61.37
   2  -9  -6    0.14   11.34
   2  -9  -6  -11.87    9.15
   2   9  -7 3633.97  139.27
  -2   9   7 4068.29  153.26
  -2  -9   7 3966.20  133.95
   2  -9  -7 3804.01  124.86
   2   9  -8  -28.40   42.99
  -2   9   8    4.69   57.92
  -2  -9   8  -13.70   17.93
   2  -9  -8   32.13   11.56
   2   9  -9 2553.60  106.86
  -2   9   9 2925.64  132.44
  -2  -9   9 2850.22   95.85
   2  -9  -9 2559.22   87.95
   2   9 -10   90.32   36.76
  -2   9  10   71.75   62.57
  -2  -9  10   23.63   24.80
   2  -9 -10  -19.43   12.28
   2  10  -1   22.18   66.25
  -2 -10   1   36.89   11.10
   2  10  -1   91.47   77.06
   2 -10  -1   48.18   13.15
   2  10  -2 4004.98  165.68
   2  10  -2 3802.42  157.01
  -2  10   2 3927.64  153.50
  -2 -10   2 3972.47  130.61
   2 -10  -2 4245.18  130.63
   2 -10  -2 3981.42  130.10
   2  10  -3   83.02   57.34
  -2  10   3   19.31   57.53
  -2 -10   3   11.65   15.04
   2 -10  -3  152.67   33.70
   2 -10  -3   34.70   11.39
   2  10  -4 3083.83  135.70
   2  10  -4 3272.17  137.42
  -2  10   4 3104.01  136.89
  -2 -10   4 3452.60  111.01
   2 -10  -4 3547.16  109.87
   2 -10  -4 3412.99  110.57
   2  10  -5  301.66   58.14
  -2  10   5  239.25   62.84
  -2 -10   5   -3.13   16.91
   2 -10  -5   29.80   13.22
   2  10  -6 2136.38  107.33
  -2  10   6 2717.47  114.11
  -2 -10   6 2550.61   84.11
   2 -10  -6 2379.19   80.54
   2  10  -7  104.76   46.82
  -2  10   7   77.36   65.15
  -2 -10   7   61.70   23.20
   2 -10  -7   54.55   12.89
   2  10  -8 1964.37   88.91
  -2  10   8 2223.44  102.82
  -2 -10   8 1906.12   71.72
   2 -10  -8 1755.22   64.86
   2  11  -1 2327.60  135.62
   2  11  -1 2310.32  153.14
  -2 -11   1 2880.67   93.20
   2 -11  -1 2695.42   89.05
   2 -11  -1 2790.19   91.78
  -2  11   1 2392.81  117.70
   2  11  -2  -54.76   77.04
  -2  11   2 -135.58   55.36
   2 -11  -2   16.70   14.31
   2 -11  -2    1.19   12.05
   2  11  -2  -54.27   77.52
   2  11  -3 1919.12  125.49
   2  11  -3 2256.92  114.01
  -2  11   3 2137.19  110.19
  -2 -11   3 2245.21   77.37
   2 -11  -3 2266.79   75.76
   2 -11  -3 2305.80   77.48
   2  11  -4  -35.63   61.13
  -2  11   4  104.43   61.65
  -2 -11   4    3.26   15.83
   2 -11  -4   24.97   13.86
   2 -11  -4   11.61   11.35
   2  11  -5 1806.56  100.72
  -2  11   5 1929.10  104.69
  -2 -11   5 1922.47   69.29
   2 -11  -5 1992.72   66.12
  -2  11   6  -99.06   63.06
  -2 -11   6   14.76   18.69
   2 -11  -6  -13.90   12.99
   2  12  -1   53.77   96.86
   2  12  -1  -73.91   78.13
  -2  12   1   69.00   59.45
   2 -12  -1  -25.66   12.26
   2  12  -2 1222.04  105.96
   2  12  -2 1470.97  110.06
  -2  12   2 1282.26   83.32
   1   0  -196442.12 2982.10
   1   0  -199098.05 2977.84
  -1   0   195574.13 2991.72
  -1   0   199999.00 2970.33
   1   0  -2    9.25    3.45
  -1   0   2   -9.14    9.68
  -1   0   339471.80 1276.50
  -1   0   345127.61 1279.32
   1   0  -341809.79 1251.68
   1   0  -339368.89 1270.87
   1   0  -4   10.74    4.38
   1   0  -4   -0.87    4.47
  -1   0   4   31.39   16.85
   1   0  -544236.12 1331.72
   1   0  -542172.28 1354.81
  -1   0   543507.64 1369.99
  -1   0   546545.16 1370.58
   1   0  -6   17.76    5.45
   1   0  -6   -5.38    6.11
  -1   0   6  -13.62   13.04
  -1   0   6   23.44   23.51
   1   0  -720162.91  618.02
   1   0  -719680.52  631.31
  -1   0   720304.25  638.30
  -1   0   721502.60  643.47
  -1   0   8  -16.98   12.47
   1   0  -8    7.90    7.12
   1   0  -8   19.53    7.49
  -1   0   8   -0.86   30.50
   1   0  -917204.73  516.87
   1   0  -917293.50  530.81
  -1   0   916881.65  534.95
  -1   0   916835.97  537.95
   1   0 -10  -13.62    9.96
   1   0 -10  -12.59   10.59
  -1   0  10  -18.44   14.72
  -1   0  10   13.90   38.06
   1   0 -11 6889.68  208.69
   1   0 -11 6735.97  216.96
  -1   0  11 6377.73  225.41
   1   0 -12   18.95   14.80
  -1   0  12  -21.61   43.54
   1   0 -13 5126.75  163.61
   1   0 -13 5300.36  167.23
  -1   0  13 4773.40  181.57
   1   0 -14    1.92   12.76
   1   0 -14   42.13   19.94
  -1   0  14 -126.70   49.10
   1   0 -15 2376.93   83.24
   1   0 -15 2277.54   86.30
  -1   0  15 2529.69  109.15
   1   1  -1   22.21    2.55
  -1   1   1   10.84    9.68
  -1   1   1   20.47    2.80
  -1   1   1   34.78    4.40
  -1  -1   1   20.06    3.75
  -1  -1   1    2.91    4.33
   1  -1  -1   21.11    2.73
   1  -1  -1   18.60    2.07
   1   1  -1   10.96    4.50
   1   1  -227081.90  844.21
   1   1  -227294.23  850.83
   1   1  -227550.84  844.80
  -1   1   227837.66  852.14
  -1   1   227397.74  845.74
  -1   1   227360.21  851.05
  -1  -1   227532.98  849.07
   1  -1  -226804.52  833.24
  -1  -1   228569.83  856.07
   1  -1  -228351.54  832.74
   1   1  -3 6200.89  201.09
   1   1  -3 6343.50  202.45
  -1   1   3 6660.09  209.25
  -1   1   3 6421.12  197.56
  -1   1   3 6731.92  208.25
  -1  -1   3 6695.55  208.55
   1  -1  -3 6898.52  199.35
   1  -1  -3 6232.63  200.59
  -1   1   456565.79 1648.79
  -1  -1   451156.64 1625.35
  -1  -1   455442.98 1619.76
   1  -1  -454140.63 1584.47
   1  -1  -450018.04 1615.89
   1   1  -450474.62 1614.21
   1   1  -450883.20 1615.99
  -1   1   453658.81 1634.02
   1   1  -5  427.68   15.66
   1   1  -5  414.51   16.86
  -1   1   5  431.80   31.21
  -1  -1   5  422.28   16.83
  -1  -1   5  486.83   28.78
   1  -1  -5  440.93   15.37
   1  -1  -5  462.67   15.61
   1   1  -618030.63  584.99
  -1   1   619839.82  596.56
  -1  -1   618422.99  584.83
  -1  -1   619989.94  592.90
   1  -1  -619407.28  570.80
   1  -1  -618399.74  583.96
  -1   1   619837.59  599.33
   1   1  -618043.09  578.03
   1   1  -7  574.70   19.75
   1   1  -7  548.61   21.41
  -1   1   7  602.00   30.75
  -1   1   7  601.83   39.15
  -1  -1   7  560.14   21.31
  -1  -1   7  532.50   36.85
   1  -1  -7  545.92   19.68
   1   1  -820256.73  620.10
   1   1  -819661.87  632.61
  -1   1   820092.39  642.51
  -1  -1   820995.98  629.73
  -1  -1   820711.01  628.15
   1  -1  -820647.65  614.06
   1  -1  -820056.39  630.77
  -1   1   821006.51  660.02
   1  -1  -9   58.90    9.17
   1   1  -9   78.40    9.90
  -1  -1   9   85.21   10.69
  -1  -1   9  233.57   38.79
   1  -1  -9   60.61    8.87
   1   1 -10 8301.02  242.87
   1   1 -10 7923.08  250.81
  -1   1  10 7156.81  256.79
  -1  -1  10 7849.46  259.38
   1  -1 -10 8000.32  244.41
   1  -1 -10 7745.32  250.01
  -1   1  11  128.53   54.05
  -1  -1  11  172.60   38.66
   1  -1 -11   21.46   11.18
   1   1 -11  100.08   13.00
   1   1 -11   95.08   16.29
  -1   1  11   56.89   20.38
   1  -1 -11   31.95   12.24
   1   1 -12 7939.40  237.91
  -1  -1  12 7213.01  252.25
   1   1 -12 7996.29  247.42
  -1   1  12 7290.89  257.30
   1  -1 -12 7386.33  234.95
   1  -1 -12 7391.60  242.31
   1  -1 -13   71.55   15.89
  -1  -1  13   23.85   47.92
   1   1 -13   78.81   13.82
   1   1 -13   69.95   21.66
  -1   1  13   50.74   48.23
   1   1 -14 3333.45  114.70
  -1   1  14 2955.76  129.03
   1  -1 -14 3099.66  110.33
  -1  -1  14 3327.10  126.71
   1  -1 -14 3171.27  105.10
   1   1 -14 3364.02  107.03
   1   1 -15   87.03   16.21
   1   1 -15   72.46   26.35
  -1   1  15  108.66   51.16
  -1  -1  15  -22.08   51.10
   1  -1 -15   35.63   14.60
   1  -1 -15   39.46   17.42
   1   2  -154962.63 1702.58
   1   2  -153496.13 1675.99
  -1   2   157963.02 1668.10
  -1   2   154828.40 1666.04
  -1   2   156446.16 1664.51
  -1  -2   154061.73 1670.15
  -1  -2   155432.09 1694.53
   1  -2  -152746.79 1704.45
   1  -2  -151919.41 1678.09
   1  -2  -156997.29 1686.77
   1   2  -2 2209.21   71.75
   1   2  -2 2004.04   70.71
  -1   2   2 2432.41   76.12
  -1   2   2 2542.95   76.86
  -1  -2   2 2250.38   72.66
  -1  -2   2 2181.77   73.26
   1  -2  -2 2370.03   72.26
   1  -2  -2 2255.81   70.74
   1   2  -336853.15 1141.59
   1   2  -336028.04 1137.49
  -1   2   338930.88 1136.96
  -1   2   340041.04 1162.42
  -1  -2   336364.32 1140.19
  -1  -2   336334.95 1139.42
   1  -2  -336638.40 1126.34
   1  -2  -336000.05 1123.56
   1   2  -4  154.14    5.66
   1   2  -4  148.55    8.18
  -1   2   4  190.23   23.89
  -1   2   4  253.93   25.22
  -1  -2   4  161.75   11.73
  -1  -2   4  151.08   18.08
   1  -2  -4  169.32    6.91
   1   2  -525996.83  813.40
   1   2  -525988.01  821.72
  -1   2   525986.18  833.30
  -1   2   527666.71  859.37
  -1  -2   527272.56  829.51
   1  -2  -527312.42  806.70
  -1  -2   6  176.97   21.11
   1  -2  -6  176.56    7.79
  -1   2   6  160.55   22.73
  -1   2   6  265.81   32.05
   1  -2  -6  183.24    8.77
   1   2  -717699.20  534.14
   1   2  -717360.74  540.03
   1   2  -717027.58  545.00
  -1   2   718919.93  563.81
  -1   2   717256.92  579.35
  -1  -2   718165.64  549.41
   1  -2  -717463.45  529.34
   1  -2  -716616.62  539.91
   1   2  -8   11.46   14.20
   1  -2  -8    8.71    7.04
   1   2  -8   -1.08    1.90
   1   2  -8    7.46    8.75
  -1   2   8  130.94   27.58
  -1   2   8   42.30   40.35
   1  -2  -8   -3.66    7.22
  -1   2   913510.13  434.87
   1   2  -913109.49  398.99
   1   2  -912734.52  409.13
  -1   2   912427.00  426.69
  -1  -2   913200.64  412.42
   1  -2  -913194.02  394.26
   1  -2  -912834.94  402.84
   1   2 -10   54.65   10.61
   1   2 -10    1.30   16.48
  -1   2  10   64.46   40.11
   1  -2 -10   59.13    9.82
   1   2 -11 7138.66  220.74
  -1   2  11 6917.73  236.52
   1   2 -11 6868.63  228.23
  -1  -2  11 6857.31  236.35
   1  -2 -11 6831.19  218.08
   1  -2 -11 7101.73  225.08
  -1   2  11 7546.59  243.18
   1   2 -12   19.52   13.92
  -1   2  12  240.65   48.90
  -1  -2  12   44.04   45.67
   1  -2 -12   60.33   12.05
   1  -2 -12   47.87   12.97
  -1  -2  13 5651.75  197.87
   1  -2 -13 5710.64  189.30
   1   2 -13 5820.36  183.02
   1   2 -13 5637.57  191.28
  -1   2  13 5853.82  201.44
   1  -2 -13 5859.49  184.16
   1   2 -14   -8.50   17.69
  -1  -2  14   20.76   43.12
   1   2 -14   78.64   28.22
   1  -2 -14   22.17   12.50
   1  -2 -14   60.34   13.78
   1   2 -15 2279.02   80.04
   1   2 -15 2093.44   87.94
   1  -2 -15 2369.96   77.75
   1   3  -1   11.91    7.39
   1   3  -1   17.73   11.97
  -1   3   1   -1.26   24.10
  -1   3   1    2.96   35.93
  -1  -3   1   -3.21    6.20
   1  -3  -1    4.57    5.08
   1   3  -256085.85 1723.45
   1   3  -255814.41 1700.62
  -1   3   255151.48 1705.59
  -1   3   261450.73 1720.96
  -1  -3   256328.11 1697.93
  -1  -3   252893.64 1696.05
   1  -3  -254332.82 1716.86
   1  -3  -254077.83 1713.33
   1  -3  -254712.40 1682.64
   1   3  -3   10.89    4.16
   1   3  -3   21.21    9.08
  -1   3   3   33.87   29.33
  -1   3   3   41.42   15.98
  -1  -3   3   34.46    9.36
  -1  -3   3    6.80    8.93
   1  -3  -3    7.77    4.79
   1   3  -424740.15  765.84
   1   3  -423712.02  747.72
  -1   3   424545.64  753.62
  -1   3   426615.98  784.98
  -1  -3   423768.11  748.61
  -1  -3   424046.23  754.65
   1  -3  -424712.68  743.60
   1  -3  -423524.77  737.46
   1   3  -5 2704.52   81.91
   1   3  -5 2581.15   82.07
  -1   3   5 2585.01   94.73
  -1   3   5 2594.73   96.55
  -1  -3   5 2544.40   83.61
  -1  -3   5 2571.09   84.97
   1  -3  -5 2489.19   78.90
   1  -3  -5 2340.22   78.54
   1   3  -618220.85  547.57
   1   3  -617695.80  544.94
  -1   3   618425.69  551.74
  -1   3   617215.44  571.45
  -1  -3   617285.86  546.60
  -1  -3   617948.74  553.96
   1  -3  -617679.04  532.67
   1  -3  -616474.81  535.41
   1   3  -7   51.50    3.21
  -1   3   7    8.67   27.43
  -1  -3   7   88.73   17.00
  -1  -3   7  114.88   21.90
   1  -3  -7   41.57    6.73
   1  -3  -7   53.59    6.30
   1   3  -818056.02  551.96
   1   3  -817952.26  556.10
  -1   3   818110.53  568.04
  -1   3   817137.67  584.93
  -1  -3   818651.72  568.45
  -1  -3   818783.39  565.11
   1  -3  -817689.88  543.00
   1  -3  -817273.79  552.19
   1   3  -9  536.77   23.53
  -1   3   9  632.30   40.22
  -1   3   9  497.37   54.52
  -1  -3   9  460.47   37.13
   1  -3  -9  550.47   20.45
   1  -3  -9  510.65   19.78
   1   3 -10 7806.83  243.25
  -1   3  10 8089.22  269.52
  -1   3  10 7183.12  262.52
  -1  -3  10 7652.59  250.60
   1  -3 -10 7911.51  238.88
   1  -3 -10 7962.23  246.85
   1   3 -11   33.44   15.92
  -1   3  11   48.66   37.38
  -1   3  11  112.84   46.54
  -1  -3  11    0.71   33.47
   1  -3 -11   11.15   10.19
   1  -3 -11   79.07   11.61
   1   3 -12 6526.93  215.85
  -1   3  12 6920.52  236.47
  -1   3  12 6537.92  232.19
  -1  -3  12 6674.94  228.45
   1  -3 -12 7035.00  212.04
   1  -3 -12 6906.96  219.56
   1  -3 -13   47.10   11.70
   1   3 -13  105.49   17.48
  -1   3  13  320.43   63.61
  -1  -3  13  -17.93   29.58
  -1  -3  13   78.65   40.94
   1  -3 -13   45.19   13.33
   1   3 -14 2462.23   88.56
  -1   3  14 2649.47  108.99
  -1  -3  14 2351.16  100.42
  -1  -3  14 2730.15  111.36
   1  -3 -14 2402.84   84.11
   1  -3 -14 2393.09   88.07
   1   4  -142728.99 1263.25
   1   4  -140733.86 1252.83
  -1   4   142451.18 1277.02
  -1   4   142478.74 1276.77
  -1  -4   140418.84 1255.05
  -1  -4   140825.86 1275.00
   1  -4  -138673.91 1256.53
  -1   4   2   85.58   39.74
  -1  -4   2   78.41    9.24
  -1  -4   2   66.21    6.41
   1  -4  -2   62.58    6.75
   1  -4  -2   43.00    4.86
   1  -4  -2   49.65    4.11
   1   4  -315537.28  468.84
   1   4  -314899.15  463.83
  -1   4   314603.48  469.72
  -1   4   315972.40  478.88
  -1  -4   314958.72  463.75
  -1  -4   314566.13  463.80
   1  -4  -314961.55  463.56
   1  -4  -314779.96  463.69
   1   4  -4  588.81   24.28
   1   4  -4  603.64   26.86
  -1   4   4  854.34   47.69
  -1   4   4  757.68   36.06
  -1  -4   4  649.61   27.28
  -1  -4   4  606.39   26.43
   1  -4  -4  747.32   23.03
   1  -4  -4  742.96   22.74
   1   4  -515015.55  489.07
   1   4  -514997.54  476.60
  -1   4   515372.66  490.98
  -1   4   516803.65  502.72
  -1  -4   514995.43  477.61
  -1  -4   515102.04  481.93
   1  -4  -515924.86  471.41
   1  -4  -515158.09  468.38
   1   4  -6   91.41    7.55
   1   4  -6   65.11   11.76
  -1   4   6  -40.89   36.97
  -1   4   6   30.47   25.01
  -1  -4   6   53.00   12.71
  -1  -4   6   81.03   20.99
   1  -4  -6   74.43    7.60
   1  -4  -6   88.45    6.99
   1   4  -714410.09  454.84
   1   4  -714822.48  453.37
  -1   4   715037.91  463.34
  -1   4   714156.95  481.42
  -1  -4   714563.58  458.84
  -1  -4   714802.18  455.73
   1  -4  -714631.31  443.84
   1  -4  -713844.15  444.87
  -1   4   8   49.65   35.44
  -1   4   8    4.17   45.23
  -1  -4   8  -53.64   18.34
   1  -4  -8   13.97    7.27
   1  -4  -8  -20.85    6.05
   1   4  -910655.92  325.12
  -1   4   9 9383.92  340.37
  -1   4   910279.49  339.41
  -1  -4   910786.90  336.58
  -1  -4   910855.18  334.07
   1  -4  -910554.26  317.64
   1  -4  -910114.11  323.74
   1   4 -10   -4.89   13.43
  -1   4  10   54.29   37.20
  -1   4  10   37.37   48.60
  -1  -4  10  -52.77   22.62
  -1  -4  10   95.80   30.73
   1  -4 -10    7.33    8.94
   1  -4 -10   21.66    8.53
   1   4 -11 6126.15  195.75
  -1   4  11 6078.07  218.74
  -1   4  11 6296.60  215.53
  -1  -4  11 6167.28  204.04
  -1  -4  11 6325.60  205.17
   1  -4 -11 5892.23  190.59
   1  -4 -11 5924.54  196.18
  -1   4  12   90.90   44.04
  -1   4  12  176.66   56.12
  -1  -4  12   -5.63   27.29
  -1  -4  12   82.62   37.83
   1  -4 -12    0.18   13.68
   1  -4 -12   -9.30   10.35
   1   4 -13 3876.17  122.04
  -1   4  13 3272.05  136.44
  -1  -4  13 3559.65  131.31
   1  -4 -13 3470.20  115.76
   1  -4 -13 3596.85  119.33
  -1  -4  13 3785.00  128.37
  -1   4  14  162.83   54.59
  -1  -4  14   13.71   27.61
  -1  -4  14   99.25   38.45
   1  -4 -14   53.64   13.22
   1   4 -14    6.57   18.46
  -1  -5   1    8.21    7.49
  -1  -5   1   14.02    3.82
   1  -5  -1   -7.82    6.19
   1   5  -216752.34  482.98
   1   5  -216067.23  471.87
  -1   5   214835.71  486.36
  -1   5   213780.11  468.03
  -1  -5   215920.95  472.96
  -1  -5   215634.90  474.45
   1  -5  -214264.46  472.12
  -1   5   3   69.07   47.45
  -1   5   3   21.01   14.84
  -1  -5   3   67.58   11.59
  -1  -5   3   29.75    7.31
   1  -5  -3   20.93    6.28
   1   5  -413065.52  425.95
   1   5  -413493.36  413.02
  -1   5   413166.15  421.71
  -1   5   413325.26  429.56
  -1  -5   413157.38  415.25
  -1  -5   412965.75  413.30
   1  -5  -414059.22  411.49
   1  -5  -413524.96  411.41
   1   5  -5   82.70   13.85
   1   5  -5  192.60   17.62
  -1   5   5  257.73   45.59
  -1   5   5  176.66   28.92
  -1  -5   5  112.77   15.85
  -1  -5   5  122.55   12.85
   1  -5  -5  118.80    7.48
   1   5  -613767.74  466.44
   1   5  -614872.25  459.68
  -1   5   614522.14  463.50
  -1   5   615888.17  493.75
  -1  -5   614329.02  456.22
  -1  -5   614582.59  458.36
   1  -5  -614939.25  447.27
   1  -5  -614147.46  445.12
   1   5  -7  724.21   29.60
   1   5  -7  741.61   30.09
  -1   5   7  662.14   50.48
  -1  -5   7  702.61   31.88
  -1  -5   7  699.88   32.42
   1  -5  -7  690.14   24.42
   1  -5  -7  640.13   23.90
   1   5  -810298.80  325.79
  -1   5   810259.17  343.25
  -1   5   810126.44  346.27
  -1  -5   810305.57  331.88
  -1  -5   810600.78  329.05
   1  -5  -810612.20  318.52
   1  -5  -8 9961.29  318.91
  -1   5   9 -124.40   43.90
  -1   5   9   16.63   33.80
  -1  -5   9   23.23   19.71
  -1  -5   9  135.14   32.28
   1  -5  -9    8.62    9.58
   1  -5  -9    6.04    7.34
   1   5 -10 7325.67  231.66
  -1   5  10 7300.34  251.96
  -1   5  10 7133.38  248.76
  -1  -5  10 7144.91  237.45
  -1  -5  10 7623.66  235.06
   1  -5 -10 6891.96  220.71
   1  -5 -10 6810.61  224.54
   1   5 -11  181.10   21.06
  -1   5  11  132.65   49.77
  -1   5  11  186.52   45.75
  -1  -5  11  172.96   26.81
  -1  -5  11  121.03   32.32
   1  -5 -11  197.77   14.02
   1  -5 -11  209.40   13.53
   1   5 -12 4391.51  147.88
  -1   5  12 4257.86  166.10
  -1  -5  12 4404.25  154.26
  -1  -5  12 4436.18  151.44
   1  -5 -12 4243.67  137.32
   1  -5 -12 4149.80  142.33
   1   5 -13    7.52   22.53
  -1   5  13  -17.38   54.59
  -1  -5  13  -15.88   29.29
  -1  -5  13   -6.98   38.82
   1  -5 -13   29.45   12.11
   1   6  -125168.68  744.87
   1   6  -124480.96  736.30
  -1   6   122629.48  749.76
  -1   6   125454.18  747.93
  -1  -6   122659.43  727.30
  -1  -6   123342.25  722.95
   1  -6  -122117.15  726.33
   1   6  -2   38.80   26.97
  -1  -6   2   27.29    9.26
  -1  -6   2    1.68    4.67
   1  -6  -2    7.22    7.07
   1   6  -316800.58  498.95
   1   6  -315409.62  487.10
  -1   6   314821.32  499.67
  -1  -6   315335.52  484.99
  -1  -6   315627.53  486.59
   1  -6  -316224.15  484.33
   1  -6  -315722.50  489.65
   1  -6  -4   -4.94    6.89
   1   6  -4   65.37   23.37
   1   6  -4  -50.26   19.95
  -1   6   4   79.66   20.23
  -1  -6   4   28.05   11.60
  -1  -6   4   -4.42    7.98
   1  -6  -4   -5.42    6.30
  -1  -6   517140.30  522.10
   1  -6  -516609.40  515.52
   1   6  -517055.30  537.73
   1   6  -516375.27  518.77
  -1   6   517406.04  533.55
  -1   6   516922.07  542.43
  -1  -6   516377.87  522.23
   1  -6  -516734.09  516.58
  -1   6   6  -41.60   51.49
   1   6  -6   37.24   21.62
   1   6  -6   66.19   20.01
  -1   6   6  173.70   30.50
  -1  -6   6   80.60   16.01
   1  -6  -6   97.11    8.45
   1  -6  -6   49.34    7.94
   1   6  -7 9536.29  299.72
  -1   6   7 8925.99  306.56
  -1   6   7 8933.64  314.34
  -1  -6   7 9785.93  300.89
  -1  -6   7 9253.91  304.53
   1  -6  -7 9633.99  289.58
   1  -6  -7 9473.34  288.15
  -1   6   8  107.06   55.06
  -1   6   8   -6.85   36.73
  -1  -6   8  -43.90   19.58
  -1  -6   8   65.85   19.74
   1  -6  -8   36.63    9.29
   1  -6  -8    5.03    7.58
   1   6  -9 8522.66  266.31
  -1   6   9 8338.84  267.13
  -1   6   9 7722.70  276.21
  -1  -6   9 8021.16  264.97
  -1  -6   9 7725.37  261.19
   1  -6  -9 8173.63  252.22
   1  -6  -9 8127.99  251.97
   1   6 -10  -16.43   20.45
  -1  -6  10   17.88   24.23
  -1  -6  10  -20.74   23.56
   1  -6 -10   10.34   11.47
   1  -6 -10   22.86    9.01
   1   6 -11 4558.33  152.70
  -1   6  11 4725.34  169.61
  -1   6  11 4246.14  167.67
  -1  -6  11 4334.70  150.10
  -1  -6  11 4380.27  149.81
   1  -6 -11 4389.73  139.77
   1  -6 -11 4424.43  140.23
   1   6 -12   56.34   22.36
  -1   6  12  -28.49   50.73
  -1  -6  12  -26.17   24.70
  -1  -6  12  -17.00   28.22
   1  -6 -12   11.87   14.56
   1   6 -13 2732.36   95.56
  -1   6  13 2494.20  111.37
  -1   6  13 2320.71  112.77
  -1  -6  13 2651.98   97.17
  -1  -6  13 2453.75   99.75
   1   7  -1   45.93   40.80
  -1   7   1  132.23   49.23
  -1   7   1   35.14   59.68
  -1  -7   1   11.85    8.48
   1  -7  -1   32.67    8.45
   1   7  -216170.11  510.58
  -1  -7   214992.78  479.19
   1  -7  -215225.61  483.93
   1   7  -216098.79  490.16
  -1   7   215480.26  497.20
  -1  -7   215332.52  478.24
   1   7  -3  -12.41   37.38
  -1   7   3  -62.69   59.09
  -1  -7   3   19.50   13.81
  -1  -7   3   27.62    5.76
   1  -7  -3   30.67    8.51
   1  -7  -3   43.94    8.24
   1   7  -411075.96  367.20
   1   7  -410423.92  343.51
  -1   7   411271.65  364.30
  -1  -7   410575.67  340.13
  -1  -7   410336.55  340.20
   1  -7  -411474.24  339.01
   1  -7  -411268.41  342.79
   1   7  -5   36.76   34.63
   1   7  -5  107.97   29.41
  -1  -7   5   18.43   14.27
  -1  -7   5   72.58   10.06
   1  -7  -5   23.01    7.56
   1   7  -6 8456.27  264.51
  -1   7   6 8025.35  278.48
  -1  -7   6 8265.04  266.18
  -1  -7   6 8146.33  263.12
   1  -7  -6 8150.80  257.27
   1  -7  -6 8533.76  257.86
   1   7  -7  -32.35   22.59
  -1  -7   7  -30.69   20.85
  -1  -7   7   22.88   14.95
   1  -7  -7   26.22    9.53
   1  -7  -7   24.60    7.45
   1   7  -8 6113.39  203.61
  -1   7   8 6146.41  216.84
  -1  -7   8 6002.95  201.62
  -1  -7   8 5920.78  200.48
   1  -7  -8 6148.23  190.12
   1  -7  -8 6193.46  191.60
   1   7  -9   21.51   28.90
  -1   7   9   20.71   59.18
  -1  -7   9  -13.83   21.47
  -1  -7   9   56.75   22.67
   1   7 -10 4237.67  145.39
  -1   7  10 3854.00  162.69
  -1  -7  10 4313.62  137.99
  -1  -7  10 4207.47  142.29
   1  -7 -10 3942.52  130.62
   1  -7 -10 4017.29  130.56
   1   7 -11   40.70   28.19
  -1   7  11  112.93   55.29
  -1  -7  11  -22.12   20.66
   1  -7 -11   21.70   13.28
  -1  -7  11   68.99   28.35
   1   7 -12 2086.39   78.25
  -1   7  12 2129.65  105.36
  -1  -7  12 2070.88   78.55
   1  -7 -12 1786.56   65.86
   1   8  -1 9149.74  290.33
   1   8  -1 9197.48  284.54
  -1   8   1 7783.68  288.03
  -1   8   1 8615.60  297.81
  -1  -8   1 8352.18  264.14
   1  -8  -1 7865.48  265.87
   1   8  -2  137.88   53.50
   1   8  -2  144.81   49.46
  -1   8   2  166.89   63.75
   1  -8  -2  111.42   11.04
   1   8  -3 6576.51  227.53
   1   8  -3 6596.71  220.88
  -1   8   3 6617.94  230.60
  -1  -8   3 6129.11  206.00
   1  -8  -3 6388.14  207.69
   1  -8  -3 6707.94  205.25
   1   8  -4  154.85   49.05
  -1   8   4   56.19   64.61
  -1  -8   4   53.71   15.10
   1  -8  -4   26.91    8.51
   1   8  -5 6422.13  239.24
   1   8  -5 6898.00  228.89
  -1   8   5 7084.93  240.10
  -1  -8   5 6931.60  221.17
   1  -8  -5 7277.77  217.64
   1  -8  -5 7269.19  220.31
   1   8  -6   11.12   33.33
  -1   8   6   -8.61   62.69
   1  -8  -6   91.24   10.30
   1  -8  -6   77.71   10.21
   1   8  -7 5071.39  180.09
  -1   8   7 4986.92  187.00
  -1  -8   7 5432.81  172.44
   1  -8  -7 5229.10  166.52
   1  -8  -7 5459.42  166.57
  -1   8   8   67.28   62.20
  -1  -8   8    1.29   22.01
   1  -8  -8   17.66    9.10
   1   8  -9 4239.95  146.04
  -1   8   9 4448.93  169.35
  -1  -8   9 4157.63  138.61
   1  -8  -9 3783.29  129.51
   1  -8  -9 3965.01  129.69
   1   8 -10   -9.59   29.81
  -1   8  10   15.10   53.77
   1  -8 -10   19.45   11.61
   1  -8 -10   45.16   10.42
  -1  -8  10  -36.58   21.75
   1   8 -11 2023.81   79.75
  -1   8  11 1768.22   96.59
  -1  -8  11 1825.42   69.50
   1  -8 -11 1531.20   58.16
   1   9  -1  -49.09   64.98
   1   9  -1   94.32   62.46
  -1   9   1  -27.55   71.51
  -1   9   1   -1.51   83.88
  -1  -9   1   36.63   11.95
   1  -9  -1   35.19   10.40
   1   9  -2 6085.14  218.63
   1   9  -2 6292.88  216.60
   1  -9  -2 6141.14  194.13
   1  -9  -2 5939.14  198.09
  -1  -9   2 6223.18  196.44
  -1   9   2 6358.12  222.36
   1   9  -3   43.80   62.56
  -1   9   3  312.32   64.89
  -1  -9   3   48.26   12.60
   1  -9  -3   73.64   12.65
   1  -9  -3   33.26   10.57
   1   9  -4 7449.64  271.79
   1   9  -4 7070.08  250.75
  -1   9   4 6856.96  247.86
  -1  -9   4 6815.95  221.47
   1  -9  -4 6969.18  220.72
   1  -9  -4 7047.75  222.65
  -1   9   5    4.14   82.52
  -1  -9   5   22.29   14.14
   1  -9  -5   45.85   10.20
   1  -9  -5   16.43    9.78
   1   9  -6 5878.16  195.34
  -1   9   6 5430.43  210.95
  -1  -9   6 5563.51  179.79
   1  -9  -6 5381.48  174.36
   1  -9  -6 5491.55  178.99
   1   9  -7 -102.98   40.39
  -1   9   7  102.31   68.93
   1  -9  -7  -25.08   10.08
   1  -9  -7    6.78   10.42
  -1  -9   8 3578.42  125.47
   1   9  -8 3578.43  133.85
  -1   9   8 3917.49  149.74
   1  -9  -8 3594.25  118.37
   1  -9  -8 3856.58  119.75
   1   9  -9   15.69   35.61
  -1   9   9  157.97   66.87
  -1  -9   9   37.85   23.20
   1  -9  -9   23.99   10.73
   1  -9  -9   60.83   11.37
   1   9 -10 2022.46   82.57
  -1   9  10 1904.37  105.91
  -1  -9  10 2057.06   73.80
   1  -9 -10 1634.72   63.40
  -1  10   1 5793.74  206.46
  -1  10   1 5613.63  230.30
  -1 -10   1 5504.61  174.03
   1  10  -1 4541.83  206.35
   1  10  -1 5473.19  207.59
   1 -10  -1 5627.59  174.39
   1  10  -2 -146.06   74.74
   1  10  -2   89.57   57.98
  -1 -10   2   72.29   15.44
   1 -10  -2   36.42   13.06
   1 -10  -2    0.32   11.29
  -1 -10   3 4404.79  142.94
   1  10  -3 3994.21  177.59
   1  10  -3 4442.88  173.48
  -1  10   3 4336.75  178.46
   1 -10  -3 4691.31  143.12
   1 -10  -3 4514.24  145.97
   1  10  -4   99.21   62.35
  -1  10   4  -37.50   70.44
  -1 -10   4   14.52   17.14
   1 -10  -4  -15.89   12.36
   1 -10  -4  -24.68   10.77
   1  10  -5 4677.73  169.01
  -1  10   5 4367.32  177.42
  -1 -10   5 4319.45  148.70
   1 -10  -5 4449.90  143.34
   1 -10  -5 4510.32  144.58
  -1  10   6  140.95   70.88
  -1 -10   6    6.64   16.05
   1 -10  -6   18.79   12.15
   1 -10  -6   -8.37   11.35
   1  10  -7 2003.60   99.10
  -1  10   7 2197.61  113.34
  -1 -10   7 2352.26   82.04
   1 -10  -7 2114.06   73.49
   1 -10  -7 2250.69   74.08
  -1  10   8   25.77   85.90
  -1 -10   8  -16.30   17.37
   1 -10  -8  -21.69   11.07
   1  11  -1   -0.07   86.68
   1  11  -1   74.75   75.54
  -1  11   1 -159.32   70.96
  -1 -11   1  -40.23   14.38
   1 -11  -1   -5.38   12.76
   1  11  -2 2058.92  129.49
  -1  11   2 1999.21  119.54
  -1 -11   2 2006.86   75.03
   1 -11  -2 2124.32   73.42
   1 -11  -2 2368.67   76.55
   1  11  -3    5.31   72.42
  -1  11   3  115.58   83.13
  -1 -11   3   38.43   13.47
   1 -11  -3   15.37   15.09
   1 -11  -3    8.61   12.42
   1  11  -4 2671.83  114.59
  -1  11   4 2708.03  130.36
  -1 -11   4 2310.15   85.19
   1 -11  -4 2320.82   83.14
   1 -11  -4 2533.22   82.71
  -1  11   5   -4.24   73.75
  -1 -11   5   16.32   14.16
   1 -11  -5   26.20   12.69
   1 -11  -5   29.35   10.71
   1  11  -6 1533.44   91.97
  -1 -11   6 1580.01   55.29
   1 -11  -6 1235.25   48.53
   1 -11  -6 1319.35   50.05
   1  12  -1 1644.74  104.31
   1  12  -1 1339.95  129.36
  -1  12   1 1421.68  100.53
  -1 -12   1 1761.41   60.48
   1 -12  -1 1627.89   59.62
   1 -12  -1 1748.78   61.77
   1  12  -2   -6.20   86.14
  -1  12   2  149.49   70.62
  -1 -12   2   32.64   14.82
   1 -12  -2   36.31   15.35
   1 -12  -2   17.84   14.29
   1  12  -3 1543.87  113.55
  -1  12   3 1237.39  102.11
   1 -12  -3 1520.99   54.76
   1 -12  -3 1613.56   56.04
   0   0  -1    2.72    1.18
   0   0   1   -3.98    5.64
   0   0  -1    1.44    1.19
   0   0  -251464.68 1583.17
   0   0   250968.63 1596.10
   0   0  -248417.11 1589.60
   0   0   254997.36 1588.89
   0   0   252812.05 1621.14
   0   0  -252978.46 1580.92
   0   0   3   46.54   10.90
   0   0   3   18.81   16.50
   0   0  -3  -22.26   11.99
   0   0  -480560.48 2624.06
   0   0  -487662.28 2611.37
   0   0   483994.72 2670.63
   0   0   492866.27 2674.42
   0   0   626710.62  790.61
   0   0   625812.72  805.12
   0   0  -625705.96  774.24
   0   0  -623923.39  779.55
   0   0  -7   11.14    6.87
   0   0   7   56.85   31.49
   0   0  -7   22.13    6.13
   0   0   825227.17  793.83
   0   0   825378.22  792.80
   0   0  -825245.80  761.65
   0   0  -824503.64  770.47
   0   0   9   10.80   14.78
   0   0   9  -30.10   47.57
   0   0  -9    3.77    8.89
   0   0  -9  -31.76    8.65
   0   0  1011990.83  391.46
   0   0 -1012332.81  375.62
   0   0 -1012065.20  380.51
   0   0 -11    5.34   10.85
   0   0 -11   18.12   12.80
   0   0  12 9705.33  340.58
   0   0 -1210708.40  328.95
   0   0 -1210749.37  333.13
   0   0  13  -45.74   55.39
   0   0 -13   21.17   16.47
   0   0  14 2800.02  127.38
   0   0 -14 2664.32   92.60
   0   0 -14 2929.95   99.88
   0   0 -15    4.92   14.84
   0   0 -15   33.19   16.58
   0   1   0   36.07    6.58
   0   1   0   14.94    2.31
   0  -1   0   14.49    5.23
   0  -1   0    6.32    2.78
   0   1   160009.67 1939.43
   0   1   163289.52 1905.93
   0   1  -169528.94 1924.15
   0   1  -162640.95 1915.52
   0  -1  -159537.13 1921.43
   0  -1  -162983.16 1930.18
   0  -1  -159975.67 1923.98
   0  -1   162759.50 1918.99
   0  -1   165135.78 1906.44
   0  -1   158789.12 1902.59
   0  -1   166237.13 1892.15
   0  -1  -160441.72 1908.98
   0   1   2 6805.06  217.65
   0   1  -2 6651.25  213.09
   0   1  -2 7043.61  212.72
   0  -1  -2 6685.20  206.89
   0  -1  -2 6407.20  206.43
   0  -1   2 7427.90  225.00
   0   1  -2 6857.17  210.31
   0   1   2 6730.55  223.33
   0   1   2 6797.39  207.60
   0   1  -318894.99  638.78
   0   1  -319918.55  646.90
   0  -1  -322328.05  631.20
   0  -1  -320722.87  635.20
   0   1   322511.75  661.06
   0   1   4   71.20   22.14
   0   1   4   61.60   19.75
   0   1  -4   30.52    5.01
   0  -1  -4   29.38    4.53
   0  -1   4   50.70    5.21
   0  -1   4  -56.65   20.48
   0   1   533795.78 1054.21
   0   1   534298.94 1053.03
   0   1  -531812.27 1009.18
   0   1  -533186.34 1028.13
   0   1  -531775.76 1018.01
   0  -1  -533578.36  997.61
   0  -1  -531351.99 1013.37
   0  -1   535795.40 1035.16
   0   1   6   -8.22   26.55
   0   1   6   98.28   32.64
   0   1  -6   45.66   14.37
   0   1  -6    4.41    6.51
   0   1  -6   19.81    7.53
   0  -1  -6   -0.36    5.37
   0  -1   6    4.96   32.50
   0   1   718139.49  556.03
   0   1   718952.37  546.21
   0   1  -716587.05  532.26
   0   1  -716053.93  534.07
   0  -1  -718506.83  525.47
   0  -1  -717401.74  531.80
   0  -1   715557.83  530.93
   0  -1   717319.37  538.02
   0   1   8  256.94   28.24
   0   1  -8  173.49   11.78
   0   1   8  222.77   46.14
   0   1  -8  204.95   10.92
   0  -1  -8  147.05   10.11
   0  -1  -8  173.48    9.98
   0  -1   8  191.25   10.80
   0  -1   8  262.63   37.88
   0  -1  -913718.95  412.08
   0  -1   912840.56  427.21
   0   1   914235.26  441.81
   0   1   913151.14  432.47
   0   1  -912770.39  410.10
   0   1  -912496.08  414.77
   0  -1  -913948.56  409.14
   0   1  10  140.68   26.06
   0   1  10  205.28   51.28
   0   1 -10   77.20   12.40
   0   1 -10   54.69   14.69
   0  -1 -10  120.20   10.11
   0  -1 -10  101.85   11.93
   0  -1  10  -55.87   41.95
   0   1 -11 8689.92  271.74
   0  -1 -11 9214.07  279.72
   0  -1  11 8100.95  291.36
   0   1  11 8473.35  288.11
   0   1 -11 8738.74  278.87
   0  -1 -11 8866.47  272.52
   0   1  12   66.11   62.84
   0   1 -12   61.06   12.32
   0  -1 -12   39.42   13.41
   0   1  13 4309.31  174.56
   0   1 -13 4854.67  152.14
   0  -1 -13 4431.26  151.66
   0  -1 -13 4979.01  154.89
   0  -1  13 4429.10  168.31
   0   1 -13 5026.46  156.63
   0   1 -14   13.86   19.55
   0  -1 -14   13.24   11.95
   0  -1 -14   -7.15   16.43
   0  -1  14   79.71   55.90
   0   1  14  140.40   52.69
   0   1 -14   18.87   15.72
   0   2   032884.25  965.86
   0  -2   031076.03  978.23
   0   2   030702.53  981.22
   0  -2   031283.79  966.21
   0   2   033801.63 1000.82
   0   2   1 7256.55  227.22
   0   2   1 7559.34  229.25
   0   2   1 7368.02  219.37
   0   2   1 7174.28  213.60
   0   2  -1 7087.11  221.04
   0   2  -1 6727.86  217.63
   0   2  -1 6936.32  218.01
   0  -2  -1 7053.48  218.38
   0  -2   1 6536.92  212.86
   0  -2   1 6689.20  218.31
   0  -2   1 6621.59  218.21
   0   2   2 1562.06   61.66
   0   2   2 1526.90   53.11
   0   2  -2 1667.68   52.56
   0   2  -2 1594.03   49.41
   0  -2  -2 1446.07   49.39
   0  -2  -2 1467.72   49.17
   0  -2   2 1561.48   50.12
   0  -2   2 1576.44   50.41
   0  -2   2 1593.17   53.62
   0   2   3  -22.54   15.52
   0   2  -3   10.98    3.14
   0   2  -3   18.06    6.85
   0   2  -3   19.57    9.86
   0  -2  -3    5.03    3.48
   0   2   434607.57 1073.61
   0   2   436822.73 1088.39
   0   2  -434728.77 1068.85
   0   2  -432586.55 1058.75
   0  -2  -434994.89 1046.93
   0  -2  -432418.58 1044.30
   0  -2   435830.55 1078.91
   0   2   5  276.66   27.15
   0   2  -5  294.62   13.02
   0   2  -5  267.59   15.11
   0  -2  -5  270.87   10.42
   0  -2  -5  221.48   10.17
   0  -2   5  290.73   24.75
   0   2   611943.40  382.92
   0   2   612320.41  392.60
   0   2  -610940.48  362.55
   0   2  -612476.03  371.10
   0   2  -611823.20  369.34
   0  -2  -611840.87  360.72
   0  -2  -611226.90  363.90
   0  -2   612499.92  383.63
   0   2   7  -11.77   32.72
   0   2  -7    6.23    9.99
   0   2  -7    3.22    8.01
   0   2  -7   31.01   11.46
   0  -2  -7   -7.56    5.91
   0  -2   7    4.23   29.73
   0  -2  -816100.66  482.72
   0   2   816277.37  510.86
   0   2   815782.54  509.12
   0   2  -815665.05  491.54
   0   2  -815559.09  494.78
   0  -2  -815197.87  488.31
   0  -2   816670.48  507.12
   0  -2  -9    0.90    8.11
   0   2   9  112.02   31.90
   0   2   9  -21.33   51.72
   0   2  -9   35.41   10.78
   0   2  -9   48.28   15.35
   0  -2   9   35.40   30.14
   0   2  10 6144.60  210.84
   0   2 -10 5874.15  189.45
   0   2 -10 6074.69  194.00
   0  -2 -10 6026.32  187.37
   0  -2 -10 6018.68  189.24
   0  -2  10 5782.61  206.03
   0   2 -11   24.48   19.00
   0  -2 -11   49.87   10.42
   0  -2 -11  -19.40   11.25
   0  -2  11  -74.23   44.28
   0   2  12 7077.83  251.98
   0   2 -12 7202.39  225.10
   0   2 -12 7529.45  231.38
   0  -2 -12 6740.61  221.70
   0  -2 -12 6782.85  224.13
   0  -2  12 6755.65  243.75
   0  -2  13  -68.21   49.34
   0   2  13   57.56   57.84
   0   2 -13    3.95   15.76
   0   2 -13   -0.58   22.51
   0  -2 -13  -20.83   11.75
   0  -2 -13   23.39   15.02
   0   2 -14 2268.00   87.13
   0   2 -14 2377.04   89.41
   0   2  14 2859.28  124.40
   0  -2 -14 2303.20   80.81
   0  -2 -14 2600.95   86.81
   0  -2  14 2536.75  129.59
   0   3   0   18.14   19.82
   0   3   0   -8.83   17.30
   0   3   0   18.08    3.10
   0  -3   0   -1.26    5.60
   0   3  -150378.50 1510.35
   0   3  -148843.80 1516.79
   0  -3  -147347.38 1525.38
   0  -3   146986.98 1515.30
   0  -3   149992.89 1524.29
   0   3   151749.30 1564.31
   0   3   152588.59 1541.07
   0   3   148277.86 1519.11
   0   3   147665.68 1493.82
   0   3  -153998.65 1563.31
   0   3   2   28.41   10.76
   0   3  -2   29.69   13.89
   0   3  -2   21.20    9.34
   0  -3  -2   17.62    5.27
   0  -3  -2   17.37    4.34
   0  -3   2   34.22    9.69
   0  -3   2   17.49    7.31
   0   3   344638.50 1343.57
   0   3   347830.71 1340.17
   0   3  -344363.97 1364.75
   0   3  -342090.23 1334.95
   0  -3  -342460.02 1330.73
   0  -3  -341469.86 1327.91
   0  -3   341845.37 1332.26
   0  -3   343331.11 1328.92
   0   3   4  126.40   36.00
   0   3   4   41.56   18.85
   0   3  -4   72.18   12.12
   0  -3   4   79.29    2.99
   0  -3   4  102.87   12.91
   0  -3   4  134.27   19.05
   0   3   529500.38  884.29
   0   3   530729.38  904.17
   0   3  -529075.28  893.99
   0  -3  -528086.30  874.06
   0  -3  -526213.70  871.68
   0  -3   527861.19  889.15
   0  -3   530053.05  897.05
   0  -3  -6   92.79    6.48
   0   3   6  118.70   28.24
   0   3  -6   78.01   10.81
   0  -3  -6   78.60    6.90
   0   3  -6  114.42   12.91
   0   3   719987.74  644.82
   0   3   721183.17  658.58
   0   3  -720854.01  641.32
   0   3  -720456.09  633.25
   0  -3  -720282.17  620.93
   0  -3  -719021.50  626.42
   0  -3   721198.32  639.41
   0   3   8  -38.18   32.38
   0   3   8   62.07   42.95
   0   3  -8   19.81   11.01
   0  -3  -8   -1.78    7.49
   0  -3   8   39.68   29.43
   0  -3  -911955.72  374.99
   0   3   912415.24  402.61
   0  -3  -911381.78  376.40
   0   3   913099.56  401.35
   0   3  -912500.27  385.51
   0   3  -912577.28  391.44
   0  -3   911742.46  392.42
   0   3  10  -54.46   37.02
   0   3  10   82.15   44.48
   0   3 -10   20.07   13.34
   0   3 -10   39.99   20.35
   0  -3 -10  -10.46    9.07
   0  -3  10   17.31   36.01
   0   3  11 8152.18  278.34
   0   3  11 8052.63  274.26
   0   3 -11 7824.39  249.83
   0   3 -11 7546.98  254.73
   0  -3 -11 7436.39  242.10
   0  -3 -11 7809.83  244.00
   0  -3  11 7602.07  259.62
   0   3  12  -31.51   50.36
   0   3 -12  -19.70   24.76
   0  -3 -12   -8.29   11.82
   0  -3  12  -64.73   38.58
   0   3  13 4343.89  180.91
   0   3 -13 4840.41  150.06
   0   3 -13 4580.00  154.75
   0  -3 -13 4015.99  146.69
   0  -3 -13 4621.81  146.71
   0  -3  13 4656.32  161.90
   0   3  14  171.54   69.80
   0   3 -14  -10.02   26.45
   0  -3 -14   14.56   14.23
   0  -3 -14  -37.71   11.76
   0  -3  14  -24.22   50.48
   0   4   054275.70 1589.39
   0   4   053573.75 1553.53
   0   4   047436.82 1543.24
   0  -4   049541.86 1555.41
   0  -4   049311.67 1528.99
   0   4   1  352.20   39.27
   0   4   1  393.63   40.78
   0   4   1  208.42    7.90
   0   4   1  237.96    9.18
   0   4  -1  328.13   27.97
   0   4  -1  303.87   24.65
   0   4  -1  209.67   12.04
   0  -4  -1  230.38   10.27
   0  -4   1  223.69   12.85
   0  -4   1  200.27    8.06
   0   4   228557.57  845.61
   0   4   228198.39  814.39
   0   4  -227844.90  862.00
   0   4  -226956.52  818.72
   0  -4  -225937.04  823.40
   0  -4   225972.95  819.99
   0  -4   223791.94  815.61
   0   4   3   27.31   37.37
   0   4  -3   88.11   21.07
   0   4  -3   71.52   14.77
   0  -4  -3   74.82    6.67
   0  -4  -3   77.41    5.76
   0  -4   3   97.26   14.01
   0  -4   3   53.84   10.79
   0   4   432998.81 1006.51
   0   4   435228.09  998.80
   0   4  -433603.46 1034.83
   0   4  -431669.89  985.80
   0  -4  -431584.22  979.45
   0  -4  -430992.59  978.53
   0  -4   429999.88  982.99
   0  -4   430689.67  984.81
   0   4   5   89.29   26.44
   0   4  -5   58.51   16.39
   0   4  -5   78.67   13.81
   0  -4  -5   84.69    6.87
   0  -4  -5  119.34    6.84
   0  -4   5  117.79   16.17
   0  -4   5   93.63   20.40
   0   4   622028.00  644.92
   0   4   622693.57  667.61
   0   4  -620471.94  647.47
   0  -4  -620921.38  630.59
   0  -4  -619560.57  629.52
   0  -4   619077.15  642.45
   0  -4   620006.55  643.90
   0   4   7  539.85   48.85
   0   4   7  568.09   47.05
   0   4  -7  482.83   22.98
   0  -4  -7  471.89   17.84
   0  -4  -7  440.96   17.32
   0  -4   7  444.40   28.43
   0  -4   7  360.83   32.19
   0   4   816285.03  537.55
   0   4   817955.27  544.02
   0   4  -816494.91  527.80
   0  -4  -817151.63  509.00
   0  -4  -815919.15  511.00
   0  -4   816490.01  525.32
   0  -4   816127.66  527.70
   0   4   9  127.22   51.27
   0   4  -9    4.95   15.44
   0  -4   9  -48.92   22.45
   0   4  10 7879.95  253.34
   0   4  10 7705.91  257.82
   0   4 -10 7196.47  235.59
   0  -4 -10 7240.69  230.18
   0  -4 -10 7229.79  231.05
   0  -4  10 7286.46  241.00
   0  -4  10 7310.33  244.30
   0   4  11  148.01   54.61
   0   4  11  258.68   59.94
   0   4 -11  186.69   20.26
   0  -4 -11  142.02   12.56
   0  -4 -11  112.40   11.06
   0  -4  11  164.97   28.73
   0  -4  11  221.98   45.05
   0  -4 -12 5697.51  194.20
   0   4  12 6068.09  221.69
   0   4 -12 6406.06  201.17
   0  -4 -12 5964.03  199.85
   0  -4  12 6357.10  214.79
   0  -4  12 6704.47  216.60
   0   4 -13    9.03   20.82
   0  -4 -13   28.32   12.31
   0  -4  13   10.57   29.47
   0  -4  13  -70.30   41.60
   0   4  14 2365.40  118.85
   0   4 -14 2056.51   76.42
   0  -4 -14 1783.96   67.58
   0  -4 -14 2121.54   69.94
   0  -4  14 2014.79   87.35
   0  -4  14 1994.47   96.00
   0   5   0   99.41   38.00
   0   5   0   70.54   31.30
   0  -5   0  -10.17    7.47
   0   5   116274.69  499.99
   0   5   116854.94  503.70
   0   5   113758.25  482.40
   0   5   115905.12  472.85
   0   5  -117574.25  506.58
   0   5  -116502.30  491.05
   0   5  -115309.79  489.86
   0  -5  -115011.13  486.90
   0  -5   115709.41  484.67
   0  -5   114626.25  482.67
   0   5   2  -41.21   38.71
   0   5   2  103.03   55.01
   0   5   2   61.25   12.88
   0   5  -2  186.40   31.60
   0   5  -2   65.58   23.15
   0  -5  -2   61.86    6.75
   0  -5   2   98.89   12.47
   0  -5   2   47.74    4.22
   0   5   314371.78  423.58
   0   5   314808.06  417.07
   0   5  -313771.19  435.84
   0   5  -313025.38  410.51
   0  -5  -313039.66  411.93
   0  -5   312495.90  409.49
   0  -5   311705.35  407.13
   0  -5  -313165.99  411.07
   0  -5  -4   23.40    6.09
   0   5   4  106.50   42.50
   0   5  -4    2.91   28.20
   0   5  -4   27.75   16.43
   0  -5   4   24.20   11.34
   0  -5   4    7.12   12.70
   0   5   4   65.81   21.05
   0   5   520503.63  596.78
   0   5  -518631.26  609.90
   0   5  -519161.73  587.52
   0  -5  -518116.67  577.29
   0  -5  -518214.04  574.73
   0  -5   519252.09  583.93
   0  -5   518403.63  586.08
   0   5   6  308.94   54.74
   0   5   6  280.08   36.97
   0   5  -6  231.85   27.22
   0   5  -6  237.36   21.99
   0  -5  -6  308.01   12.36
   0  -5  -6  295.88   12.68
   0  -5   6  239.31   20.30
   0  -5   6  266.66   24.83
   0   5   713862.94  430.69
   0   5   714343.62  446.00
   0   5  -713748.59  433.29
   0  -5  -713685.43  414.96
   0  -5  -713536.54  416.11
   0  -5   713261.45  431.18
   0  -5   712393.54  430.63
   0   5   8  116.05   46.65
   0  -5  -8   -2.43    8.96
   0  -5  -8   -3.67    7.22
   0  -5   8   21.84   20.66
   0  -5   8  -45.35   28.28
   0   5   9 6792.65  243.90
   0   5   9 7004.42  243.31
   0   5  -9 7148.69  228.28
   0  -5  -9 6806.00  216.06
   0  -5  -9 6760.60  218.55
   0  -5   9 7109.08  235.99
   0  -5   9 7053.09  229.95
   0  -5  10   54.91   34.34
   0  -5  10   55.88   36.49
   0   5  10  177.89   54.23
   0  -5 -10   20.46   11.30
   0  -5 -10   30.50    8.81
   0   5  11 5890.12  196.99
   0   5  11 5329.55  197.47
   0   5 -11 5624.70  185.16
   0  -5 -11 5040.73  170.64
   0  -5 -11 5636.77  173.28
   0  -5  11 5136.08  184.79
   0  -5  11 5493.77  187.12
   0   5  12  -61.67   47.74
   0   5  12   75.35   60.93
   0   5 -12  116.32   23.51
   0  -5 -12   26.26   11.90
   0  -5 -12   -1.19   10.85
   0  -5  12   53.71   30.59
   0  -5  12   55.94   43.07
   0   5  13 2872.59  136.48
   0   5 -13 2801.34  107.28
   0  -5 -13 2623.22   93.00
   0  -5  13 3001.54  109.15
   0  -5  13 2739.79  112.04
   0   6   023771.11  711.70
   0   6   021853.59  702.44
   0  -6   021760.93  689.37
   0   6   1   38.59   53.58
   0   6   1    2.13   54.34
   0   6   1   27.84    3.03
   0   6  -1   61.94   45.39
   0   6  -1   18.99    9.42
   0  -6  -1   65.84    7.33
   0  -6   1   73.67   10.40
   0   6   215866.24  477.24
   0   6   215211.84  485.32
   0   6   215912.21  467.22
   0   6  -215186.90  488.79
   0   6  -215461.29  469.55
   0  -6  -214762.62  466.35
   0  -6   214412.20  461.65
   0  -6   213820.73  465.09
   0   6   3  188.83   54.17
   0   6   3  342.99   22.44
   0   6  -3  324.17   29.13
   0  -6  -3  277.23   12.54
   0  -6   3  222.16   14.94
   0   6  -3  194.16   39.22
   0  -6  -3  279.70   13.73
   0   6   420125.82  590.35
   0   6   420662.07  599.75
   0   6  -418337.53  607.93
   0   6  -418921.20  584.17
   0  -6  -418284.41  576.93
   0  -6  -418392.73  577.78
   0  -6   418542.93  583.42
   0  -6   416899.91  574.96
   0   6   5  195.95   29.71
   0   6  -5  184.15   37.12
   0  -6  -5  157.03    9.79
   0  -6  -5  160.95    9.79
   0  -6   5  130.95   14.11
   0   6   613511.99  417.88
   0   6   612772.80  424.37
   0   6  -613048.17  411.53
   0  -6  -612572.39  399.12
   0  -6  -612513.80  396.18
   0  -6   613038.75  407.19
   0  -6   613030.14  409.51
   0   6   7  146.74   56.84
   0   6   7   66.96   38.07
   0   6  -7  124.93   20.87
   0  -6  -7  103.56    9.28
   0  -6  -7   89.96    9.40
   0  -6   7   52.26   20.80
   0   6   8 7049.87  255.49
   0   6   8 7610.92  256.11
   0   6  -8 7534.54  242.54
   0  -6  -8 7131.46  228.47
   0  -6  -8 7504.34  228.44
   0  -6   8 7730.53  240.50
   0  -6   8 7017.58  244.43
   0   6   9  179.82   54.46
   0   6   9  294.47   49.00
   0   6  -9  114.37   24.95
   0  -6  -9  140.23   12.83
   0  -6  -9  186.81   11.40
   0  -6   9  269.25   24.47
   0  -6   9  315.27   33.57
   0   6  10 5157.84  190.10
   0   6  10 5146.78  181.57
   0   6 -10 5102.25  167.47
   0  -6 -10 4639.12  154.59
   0  -6 -10 5037.87  161.45
   0  -6  10 4825.57  170.02
   0  -6  10 4882.31  171.52
   0   6  11  -29.25   56.15
   0   6  11  -33.73   56.07
   0   6 -11  -23.56   27.75
   0  -6 -11   39.26   12.03
   0  -6  11   17.77   32.71
   0   6  12 3687.53  144.07
   0   6  12 3510.78  153.62
   0   6 -12 3425.07  122.30
   0  -6 -12 3612.32  115.56
   0  -6  12 3477.38  129.12
   0  -6  12 3400.01  128.16
   0   6  13   87.92   62.46
   0   6 -13  -29.87   27.86
   0  -6  13   61.52   29.75
   0  -6  13   47.80   32.69
   0   7   0   96.15   42.57
   0  -7   0   -2.16    7.95
   0   7  -116611.96  539.61
   0   7   116859.71  538.73
   0   7   116930.76  534.48
   0   7  -116981.03  523.69
   0  -7  -115775.06  509.88
   0  -7   116302.62  509.43
   0   7   2   62.01   62.04
   0   7   2  264.36   69.96
   0   7  -2 -170.33   47.91
   0   7  -2   46.79   37.51
   0  -7  -2    6.84    8.37
   0  -7   2   46.48   10.93
   0   7   314839.18  443.51
   0   7  -312942.33  443.29
   0   7  -313288.82  425.34
   0  -7  -313730.62  417.18
   0  -7  -313436.38  424.30
   0  -7   312672.42  414.03
   0   7   4  -34.12   58.85
   0   7  -4   60.22   47.87
   0   7  -4  121.66   34.96
   0  -7  -4  159.95   10.66
   0  -7  -4  122.09   10.61
   0  -7   4  137.99   16.46
   0  -7   4  105.70    9.14
   0   7   5 9986.21  330.39
   0   7   5 9418.00  324.29
   0   7  -5 8997.52  327.38
   0   7  -510540.49  318.06
   0  -7  -510078.71  305.46
   0  -7  -5 9979.06  307.53
   0  -7   510476.79  316.71
   0  -7   5 9571.86  308.98
   0   7   6   76.95   63.13
   0   7  -6   37.59   31.11
   0  -7  -6   -1.94    7.69
   0  -7  -6    2.70    8.23
   0  -7   6  -23.86   15.84
   0  -7   6   -6.28   14.22
   0   7   7 6241.10  207.05
   0   7   7 5935.46  197.75
   0   7  -7 5999.65  192.51
   0  -7  -7 5664.19  179.57
   0  -7  -7 5852.25  179.04
   0  -7   7 5189.43  185.30
   0  -7   7 5202.49  189.27
   0   7   8    0.31   63.21
   0   7   8  175.75   52.07
   0   7  -8  107.40   29.13
   0  -7  -8  122.23   12.54
   0  -7  -8  156.48   10.97
   0  -7   8  192.23   26.53
   0   7   9 4756.84  178.13
   0   7  -9 4682.15  164.61
   0  -7  -9 4550.15  149.46
   0  -7  -9 4938.41  149.86
   0  -7   9 4685.25  158.31
   0   7  10  222.79   76.88
   0   7 -10   82.92   27.94
   0  -7 -10   41.34   11.67
   0  -7 -10  111.27   12.03
   0  -7  10   58.81   24.42
   0   7  11 3652.71  142.22
   0   7 -11 3507.60  124.37
   0  -7 -11 2869.16  104.75
   0  -7 -11 3287.69  109.84
   0  -7  11 3575.63  122.72
   0   7  12   -6.94   64.75
   0   7 -12  -29.75   29.90
   0  -7 -12   27.12   12.54
   0  -7 -12   -8.89    9.75
   0  -7  12  -55.94   26.65
   0   8   0 9365.03  320.74
   0   8   0 9898.82  325.79
   0  -8   0 8713.00  289.51
   0   8   1  -74.33   60.22
   0   8  -1  251.22   66.92
   0   8   2 6868.83  247.67
   0   8   2 7213.64  261.16
   0   8  -2 7507.65  256.89
   0   8  -2 6672.31  233.68
   0  -8  -2 6959.50  226.11
   0  -8   2 7362.25  225.47
   0   8   3  149.60   82.54
   0   8  -3    7.66   55.31
   0  -8  -3   43.26   10.57
   0  -8  -3  -11.75    7.24
   0  -8   3   17.33   15.26
   0   8   4 7265.41  233.44
   0   8  -4 5976.97  235.27
   0   8  -4 6557.14  221.36
   0  -8  -4 7026.26  209.85
   0  -8  -4 6823.67  211.52
   0  -8   4 6299.96  212.20
   0  -8  -5   23.41    8.96
   0  -8   5   68.57   15.08
   0   8   6 4437.16  172.73
   0   8  -6 4559.12  150.61
   0  -8  -6 3983.44  134.22
   0  -8  -6 4160.15  135.83
   0  -8   6 4233.66  142.65
   0   8   7  -79.77   73.86
   0   8  -7   54.73   32.06
   0  -8  -7   32.44    9.92
   0  -8  -7   -0.68    9.24
   0   8   8 4356.08  198.16
   0   8  -8 4678.15  162.82
   0  -8  -8 4540.92  145.74
   0  -8  -8 4771.79  151.72
   0  -8   8 4641.55  156.78
   0   8   9  126.78   78.83
   0   8  -9   91.23   38.56
   0  -8  -9  131.79   12.71
   0  -8  -9  172.83   13.48
   0  -8   9  136.43   23.87
   0   8  10 3295.79  141.08
   0   8 -10 3241.27  119.66
   0  -8 -10 2797.77  100.31
   0  -8 -10 3258.97  103.42
   0  -8  10 3356.79  114.25
   0   8  11    9.61   77.55
   0   8 -11  164.30   37.07
   0  -8 -11   51.73   11.05
   0  -8 -11   83.10   11.26
   0  -8  11   60.56   28.43
   0   9   0  248.12   72.62
   0   9   0   11.22   72.53
   0  -9   0  -17.52   10.46
   0   9   1 7365.15  263.29
   0   9   1 7030.57  274.00
   0   9  -1 7656.04  260.54
   0   9  -1 7623.27  263.36
   0  -9  -1 7338.21  234.04
   0  -9   1 7286.16  231.14
   0   9   2  162.15   68.38
   0   9  -2   43.93   71.70
   0   9  -2   98.55   58.65
   0  -9  -2  -14.81   11.55
   0  -9   2   12.70   13.55
   0   9   3 7459.32  249.29
   0   9  -3 6032.12  241.15
   0   9  -3 6800.30  234.23
   0  -9  -3 6596.70  210.33
   0  -9  -3 6670.72  214.57
   0  -9   3 6637.34  215.18
   0   9   4  -70.32   78.29
   0   9  -4  -85.14   52.42
   0  -9   4    2.24   14.93
   0   9   5 6789.77  224.43
   0   9  -5 5797.62  211.88
   0  -9  -5 5633.15  187.75
   0  -9  -5 6059.01  191.56
   0  -9   5 5728.64  193.73
   0   9   6  -65.93   83.94
   0   9  -6  185.53   43.51
   0  -9  -6    3.47   10.70
   0   9   7 4455.63  187.52
   0   9  -7 5006.16  176.65
   0  -9  -7 4464.19  152.23
   0  -9  -7 4970.36  153.97
   0  -9   7 4989.34  159.20
   0   9   8  -21.67   79.89
   0  -9  -8   24.93   10.52
   0  -9  -8    3.99   11.23
   0  -9   8   18.91   24.05
   0   9   9 4050.65  160.15
   0   9  -9 3892.11  136.62
   0  -9  -9 3325.19  117.03
   0  -9  -9 3793.07  119.14
   0  -9   9 3597.07  128.80
   0   9  10    2.78   60.87
   0   9 -10   95.05   41.18
   0  -9 -10    5.98   11.58
   0  -9 -10   39.79   11.59
   0  -9  10  -35.24   22.51
   0  10   0 6573.94  247.69
   0  10   0 7982.44  278.43
   0 -10   0 6757.79  221.71
   0  10   1   12.19   71.43
   0  10   1  133.05   98.00
   0  10  -1  133.21   61.51
   0 -10  -1  -11.28   13.69
   0 -10   1  -16.81   12.61
   0  10   2 4927.38  196.26
   0  10  -2 4869.93  193.41
   0  10  -2 5812.53  207.31
   0 -10  -2 5063.05  166.56
   0 -10  -2 5140.48  168.39
   0 -10   2 5426.41  167.43
   0  10   3 -107.41   71.66
   0  10  -3   12.30   65.98
   0 -10  -3    0.11   12.21
   0 -10  -3    0.61   12.50
   0 -10   3   43.03   15.76
   0  10   4 5403.49  221.18
   0  10  -4 5041.02  195.32
   0 -10  -4 5359.82  172.91
   0 -10  -4 5626.44  175.77
   0 -10   4 5581.84  176.75
   0  10   5  -37.81   89.74
   0 -10  -5   28.27   11.01
   0 -10  -5   32.38   11.62
   0 -10   5   14.48   19.95
   0  10   6 3373.82  148.45
   0  10  -6 2890.17  132.23
   0 -10  -6 3070.16  102.55
   0 -10  -6 3373.50  108.34
   0 -10   6 3137.97  110.39
   0  10   7 -167.82   85.85
   0  10  -7  103.21   54.00
   0 -10  -7   -8.38   11.41
   0 -10  -7    9.92   12.88
   0 -10   7  -18.36   19.86
   0  10   8 2803.24  139.09
   0  10  -8 2567.09  116.75
   0 -10  -8 2357.61   87.79
   0 -10  -8 2906.71   92.13
   0 -10   8 3002.87   98.73
   0  11   0   70.85   69.77
   0  11   0 -122.78   98.57
   0 -11   0    5.71   12.56
   0  11   1 2067.51  127.78
   0  11   1 1752.68  138.40
   0  11  -1 2356.50  125.23
   0  11  -1 2623.13  128.29
   0 -11  -1 2423.73   79.53
   0 -11   1 2322.95   80.40
   0  11   2   53.99   76.69
   0  11  -2  237.42   70.31
   0 -11  -2   10.56   12.39
   0 -11   2   80.91   15.58
   0  11   3 2587.93  137.02
   0 -11  -3 2232.42   77.07
   0 -11  -3 2279.28   78.40
   0 -11   3 2202.93   79.06
   0 -11  -4    8.79   11.43
   0 -11  -4   46.30   12.18
   0 -11   4   65.84   17.70
   0  11   5 1846.69  123.01
   0  11  -5 1837.19  100.27
   0 -11  -5 1603.88   60.69
   0 -11  -5 1836.13   64.22
   0 -11   5 1909.48   68.16
   0  11   6   22.31   94.41
   0  11  -6  -58.57   69.27
   0 -11  -6   32.30   11.21
   0 -11  -6    6.89   12.39
   0 -11   6  -12.55   20.36
   0  12   0 1077.26   97.10
   0  12   0  967.14  119.66
   0  12   1  267.06   76.65
   0  12  -1 -103.77   68.18
   0  12  -1  -16.70   89.34
   0 -12  -1   43.64   14.42
   0 -12   1   11.01   15.24
   0  12   2 1447.39  107.55
   0  12  -2 1061.91  107.79
   0 -12  -2 1188.57   45.35
   0 -12  -2 1154.19   46.79
   0 -12   2 1202.11   47.58
   0  12   3   89.94   88.35
   0  12  -3   39.59   87.34
   0 -12  -3   14.61   15.89
   0 -12  -3   14.05   13.62
   0 -12   3   13.68   13.64
   1   0   0    1.79    0.88
  -1   0   0    4.89    0.66
  -1   0   0    9.52    1.65
  -1   0   0    1.89    2.48
  -1   0  -157079.84 1796.16
  -1   0  -158181.64 1801.50
   1   0   161827.45 1800.60
   1   0   2   11.30    2.39
   1   0   2    6.13    3.01
   1   0   2  -14.94    5.96
  -1   0  -2    1.69    3.10
   1   0   377886.65 2357.48
   1   0   376434.48 2398.97
  -1   0  -383719.38 2441.82
  -1   0  -375426.88 2381.63
  -1   0  -4    1.67    3.13
  -1   0  -4    6.09    4.01
  -1   0  -4   -1.69    5.08
   1   0   536387.96 1107.87
   1   0   536968.48 1113.48
  -1   0  -535835.77 1097.84
  -1   0  -533664.99 1082.61
   1   0   6   40.92   20.10
   1   0   6  115.70   29.35
  -1   0  -6   10.79    5.70
  -1   0  -6    9.90    6.19
   1   0   728372.01  863.85
   1   0   727677.67  854.13
  -1   0  -727585.07  835.52
  -1   0  -725558.53  827.90
   1   0   8   11.43   33.66
  -1   0  -8    9.54    8.86
  -1   0  -8   48.51    8.24
   1   0   913978.42  458.49
  -1   0  -914671.57  448.84
  -1   0  -914365.66  445.65
   1   0  10   77.60   53.62
   1   0  1110481.63  362.42
  -1   0 -1110770.56  336.70
  -1   0 -1110813.16  335.66
  -1   0 -12    8.19   11.59
  -1   0 -12   58.25   13.88
   1   0  13 3780.83  156.64
  -1   0 -13 3769.85  129.82
  -1   0 -13 4378.06  134.10
  -1   0 -14    6.01   15.74
   1   1   047189.95 1521.53
   1   1   047790.66 1507.64
  -1   1   047707.54 1521.92
  -1   1   051364.59 1537.39
  -1   1   050367.59 1510.19
  -1   1   051156.95 1500.26
  -1  -1   046492.59 1509.31
  -1  -1   049364.05 1525.67
  -1  -1   048967.39 1510.45
   1  -1   050502.73 1527.21
   1  -1   051201.84 1522.05
   1  -1   050347.96 1510.27
   1  -1   053302.25 1510.64
   1   1   1 4627.80  147.36
  -1   1  -1 4695.07  145.24
  -1   1  -1 4474.25  146.42
  -1  -1  -1 4615.60  148.79
  -1  -1  -1 4757.18  146.33
   1  -1   1 4795.90  149.44
   1  -1   1 4824.42  146.66
   1  -1   1 5243.07  146.80
  -1  -1  -1 4769.31  146.10
   1  -1   1 4547.48  148.14
   1   1   2 8131.13  232.52
   1   1   2 7751.41  231.39
  -1   1  -2 7640.37  233.08
  -1   1  -2 7037.16  231.40
   1  -1   2 7539.74  230.79
   1  -1   2 6664.27  230.77
   1  -1   2 7054.08  236.55
  -1  -1  -2 8202.38  228.62
   1   1   3 1024.01   36.50
   1   1   3  931.57   34.74
  -1   1  -3 1013.07   31.79
  -1   1  -3  990.33   32.16
  -1  -1  -3 1036.27   30.67
  -1  -1  -3  914.17   30.57
   1  -1   3  909.02   30.07
   1  -1   3  962.65   39.87
   1   1   447408.20 1411.61
   1   1   448645.08 1414.52
  -1   1  -445494.02 1423.47
  -1   1  -443113.19 1396.52
  -1  -1  -446916.93 1377.01
  -1  -1  -443169.73 1388.25
   1  -1   444711.10 1407.74
   1  -1   446987.96 1442.37
   1   1   5  420.19   29.72
   1   1   5  393.87   25.50
  -1   1  -5  307.00   14.08
  -1  -1  -5  358.93   12.58
  -1  -1  -5  341.89   13.21
   1  -1   5  365.24   14.77
   1  -1   5  341.27   25.42
   1   1   616458.03  486.33
   1   1   616262.70  480.52
  -1   1  -615068.07  474.20
  -1   1  -614398.25  469.31
  -1  -1  -615954.33  464.22
  -1  -1  -614644.81  462.91
   1  -1   613884.69  474.56
   1  -1   615512.26  486.78
  -1   1  -7   97.44    8.62
  -1   1  -7   81.55    8.91
  -1  -1  -7   74.41    7.14
  -1  -1  -7   60.81    6.39
   1  -1   7   94.35    7.82
   1  -1   7  148.25   34.23
   1   1   7   56.47   30.96
   1   1   819283.85  621.62
   1   1   820895.64  614.06
  -1   1  -818860.17  601.44
  -1   1  -818651.86  596.62
  -1  -1  -819366.44  591.58
  -1  -1  -819740.51  594.89
   1  -1   818956.06  617.09
  -1   1  -9   -2.66   10.31
  -1   1  -9    5.98   11.27
  -1  -1  -9    7.44    7.37
  -1  -1  -9   25.31    8.57
   1  -1   9 -112.47   42.77
   1   1   9   46.41   27.66
   1   1  10 8558.76  271.42
  -1   1 -10 7825.75  251.57
  -1   1 -10 7942.69  253.04
  -1  -1 -10 8106.27  250.51
  -1  -1 -10 8268.35  249.06
   1  -1  10 7121.07  266.37
   1   1  11 -193.38   52.85
  -1   1 -11    4.64   12.03
  -1   1 -11    1.65   12.25
  -1  -1 -11   -2.84   10.92
  -1  -1 -11    8.13   11.50
   1  -1  11 -117.25   52.60
   1   1  12 6066.77  224.66
  -1   1 -12 6097.76  206.61
  -1   1 -12 6949.04  208.76
  -1  -1 -12 6139.16  207.35
  -1  -1 -12 6762.23  209.44
   1  -1  12 6405.30  231.06
  -1   1 -13   48.30   15.37
  -1  -1 -13   17.01   14.00
   1  -1  13  192.73   63.82
   1   1  14 2668.26  121.51
  -1   1 -14 2181.63   87.70
  -1   1 -14 2623.55   91.02
  -1  -1 -14 2690.09   88.03
   1  -1  14 2650.48  124.48
   1   2   0  259.06   10.64
  -1   2   0  282.23   18.46
  -1   2   0  240.60   25.76
  -1  -2   0  249.34    9.65
  -1  -2   0  277.00    9.28
   1  -2   0  226.36   10.58
   1  -2   0  223.52    8.29
   1   2   1 2495.69   83.37
   1   2   1 2537.68   88.05
  -1   2  -1 2971.94   89.67
  -1  -2  -1 2457.00   82.50
  -1  -2  -1 2507.79   81.93
  -1  -2  -1 2490.78   80.01
   1  -2   1 2787.94   83.81
   1  -2   1 2679.48   82.67
   1   2   2  855.25   31.06
   1   2   2  774.72   26.23
  -1   2  -2  833.24   26.76
  -1   2  -2  752.08   27.94
  -1   2  -2  711.10   27.88
  -1  -2  -2  815.47   25.75
  -1  -2  -2  761.38   25.52
   1  -2   2  859.28   30.19
   1  -2   2  753.46   34.79
   1   2   338952.43 1201.94
   1   2   337476.58 1188.25
  -1   2  -339812.21 1212.40
  -1   2  -337835.26 1205.00
  -1  -2  -339816.77 1191.21
  -1  -2  -337005.46 1188.42
   1  -2   342159.77 1188.78
   1  -2   340580.86 1236.04
   1   2   4 1184.39   47.35
   1   2   4 1084.33   39.95
  -1   2  -4 1261.70   38.85
  -1  -2  -4 1038.88   34.96
  -1  -2  -4 1011.94   35.17
   1   2   518437.10  561.53
   1   2   518207.22  550.44
  -1   2  -518132.46  552.25
  -1   2  -516744.99  544.18
  -1  -2  -517644.48  534.76
  -1  -2  -515722.71  534.65
   1  -2   519006.54  561.27
   1   2   6  186.49   43.72
   1   2   6   83.72   23.30
  -1   2  -6    5.19    9.74
  -1  -2  -6   -6.14    5.15
   1  -2   6    9.48   28.05
   1   2   717153.96  557.89
   1   2   718750.81  548.38
  -1   2  -717720.63  553.55
  -1   2  -717034.14  546.11
  -1  -2  -717371.84  536.20
  -1  -2  -716507.77  535.64
   1  -2   718883.51  568.96
   1   2   8   90.97   44.14
   1   2   8  -17.46   37.01
  -1   2  -8  -16.39   11.10
  -1  -2  -8   18.41    7.52
   1  -2   8  -22.43   34.91
   1   2   910513.87  346.14
  -1   2  -910691.23  328.32
  -1   2  -910302.43  323.60
  -1  -2  -910010.32  319.05
  -1  -2  -9 9718.34  318.84
   1  -2   910521.67  335.03
   1   2  10   88.93   38.14
   1   2  10  -89.51   45.64
  -1   2 -10   28.16   11.75
  -1   2 -10   34.92   16.72
  -1  -2 -10   10.83    8.67
  -1  -2 -10   40.90   10.38
   1  -2  10   59.19   57.04
   1   2  11 7242.22  251.42
  -1   2 -11 7258.37  233.26
  -1   2 -11 7441.90  232.00
  -1  -2 -11 6591.54  225.40
  -1  -2 -11 7301.21  223.93
   1  -2  11 7182.99  243.85
   1   2  12  101.02   55.65
  -1   2 -12   30.97   16.00
  -1   2 -12  -13.58   19.96
  -1  -2 -12    3.33   11.18
  -1  -2 -12   23.93   12.99
   1  -2  12  270.82   60.95
   1   2  13 3163.59  149.26
  -1   2 -13 3365.80  113.97
  -1   2 -13 3401.40  116.78
  -1  -2 -13 3383.73  111.06
   1  -2  13 3307.18  134.95
   1   2  14   15.67   63.45
  -1   2 -14  -19.46   19.24
  -1   2 -14    2.25   20.02
  -1  -2 -14    1.39   17.27
   1  -2  14  -15.81   57.55
   1   3   062821.20 1993.92
   1   3   061949.89 1980.89
  -1   3   066182.66 2010.21
  -1   3   064383.82 1990.59
  -1  -3   059769.24 1992.06
  -1  -3   062098.05 1990.45
   1  -3   063032.55 1998.08
   1  -3   081484.69 1996.96
  -1   3  -1   82.46   18.32
  -1  -3  -1   12.72    4.73
  -1  -3  -1    9.07    3.71
   1  -3   1   13.63    8.27
   1  -3   1   10.23    2.85
   1  -3   1   17.92    7.91
   1   3   250055.35 1501.00
   1   3   249672.66 1481.90
  -1   3  -250092.74 1484.13
  -1   3  -247006.26 1489.20
  -1  -3  -248884.69 1516.13
  -1  -3  -249392.04 1501.45
   1  -3   245104.28 1493.97
   1  -3   249936.49 1503.99
   1   3   3 9308.35  280.63
   1   3   3 8476.68  261.88
  -1   3  -3 8692.91  267.71
  -1   3  -3 8518.42  267.79
  -1  -3  -3 8435.78  263.93
  -1  -3  -3 8117.43  263.07
   1  -3   3 8242.70  261.62
   1  -3   3 8184.54  269.09
   1  -3   3 8751.46  278.36
   1   3   466461.53 1963.64
   1   3   464030.16 1921.13
  -1   3  -465327.79 1960.25
  -1   3  -462908.97 1948.48
  -1  -3  -461863.94 1930.13
  -1  -3  -457828.31 1926.12
   1  -3   466752.88 1986.22
   1   3   5  245.15   40.82
   1   3   5  213.20   20.63
  -1   3  -5  242.17   14.19
  -1   3  -5  233.55   15.25
  -1  -3  -5  197.08    8.60
  -1  -3  -5  194.20    9.75
   1  -3   5  231.77   28.54
   1   3   618239.62  535.24
  -1   3  -616118.14  517.66
  -1   3  -614967.08  511.25
  -1  -3  -617457.06  504.23
  -1  -3  -615450.46  501.38
   1  -3   617106.83  524.88
   1   3   7  339.91   51.55
   1   3   7  257.61   37.98
  -1   3  -7  450.71   33.92
  -1   3  -7  309.00   20.26
  -1  -3  -7  326.56   12.49
  -1  -3  -7  304.24   12.95
   1  -3   7  301.13   33.03
   1   3   821211.17  636.70
   1   3   820575.16  632.58
  -1   3  -819923.15  620.23
  -1   3  -819382.69  609.33
  -1  -3  -819069.29  602.67
  -1  -3  -818153.11  599.42
   1  -3   819588.39  631.16
   1   3   9 -118.34   40.18
  -1   3  -9   -2.25   13.90
  -1  -3  -9   16.96    8.34
  -1  -3  -9   34.78    9.38
   1  -3   9  -80.74   42.25
   1   3  10 8399.41  296.16
   1   3  10 9214.75  295.80
  -1   3 -10 8750.84  281.07
  -1   3 -10 9094.11  280.80
  -1  -3 -10 8385.70  273.48
  -1  -3 -10 8616.81  272.32
   1  -3  10 8993.15  298.83
   1   3  11   73.40   59.54
  -1   3 -11  -26.33   15.32
  -1  -3 -11  -10.28    9.99
  -1  -3 -11   27.68   10.69
   1  -3  11   36.08   46.16
   1   3  12 7322.70  255.60
  -1   3 -12 6875.64  223.37
  -1   3 -12 7224.17  227.17
  -1  -3 -12 6281.73  220.30
  -1  -3 -12 7157.02  218.86
   1  -3  12 6856.89  245.96
   1   3  13   22.74   69.03
  -1   3 -13   57.57   18.72
  -1  -3 -13   -8.11   13.40
   1  -3  13   80.96   50.02
   1   3  14 3304.12  147.61
  -1   3 -14 2697.05  103.63
  -1   3 -14 3155.11  111.45
  -1  -3 -14 3248.56  103.82
   1  -3  14 2801.29  130.35
   1   4   0  102.16   19.24
   1   4   0   22.71   27.49
  -1   4   0  141.01   32.42
  -1   4   0   52.18   34.26
  -1  -4   0   31.62    7.26
   1  -4   0   65.90    7.86
   1   4   127885.74  859.97
   1   4   128534.30  865.85
  -1   4  -128261.87  872.36
  -1   4  -127231.19  851.70
  -1  -4  -126060.48  853.36
  -1  -4  -126901.99  840.48
   1  -4   126542.36  853.98
   1  -4   130319.70  840.78
   1   4   2 1151.49   48.86
   1   4   2 1070.31   59.72
   1   4   2 1045.56   34.47
  -1   4  -2  973.77   48.06
  -1  -4  -2 1073.57   35.37
   1   4   350388.13 1485.22
   1   4   347798.04 1444.23
  -1   4  -350694.79 1460.38
  -1   4  -346469.00 1463.26
  -1  -4  -348630.82 1474.93
  -1  -4  -346049.29 1460.30
   1  -4   345133.51 1467.50
   1  -4   345698.04 1459.15
   1   4   4   63.34   71.03
   1   4   4   19.40   14.29
  -1  -4  -4    4.73    4.91
  -1  -4  -4   15.90    5.59
   1  -4   4   57.14   14.34
   1  -4   4   31.99   20.12
   1   4   514418.48  436.88
   1   4   513874.70  423.59
  -1   4  -514868.43  416.66
  -1   4  -513581.62  428.36
  -1  -4  -513395.00  415.67
  -1  -4  -512969.06  414.90
   1  -4   513732.71  416.41
   1  -4   512470.00  423.00
   1  -4   513006.20  434.34
   1   4   6   63.01   51.95
   1   4   6  217.07   28.79
  -1   4  -6   79.89   16.48
  -1  -4  -6   76.36    6.50
  -1  -4  -6   87.16    8.01
   1  -4   6   89.08   16.27
   1  -4   6   59.59   26.29
   1   4   714902.16  479.26
  -1   4  -713847.88  456.41
  -1   4  -713200.74  446.60
  -1  -4  -715149.87  440.06
  -1  -4  -714701.55  439.64
   1  -4   714393.44  455.90
   1   4   8  -13.15   47.06
   1   4   8  137.51   39.56
  -1   4  -8   97.48   17.63
  -1  -4  -8  108.82    9.15
  -1  -4  -8   93.70    9.66
   1  -4   8   21.71   38.09
   1   4   9 8263.28  287.34
   1   4   9 8869.71  294.22
  -1   4  -9 8647.65  275.40
  -1   4  -9 8125.33  267.50
  -1  -4  -9 8168.35  260.94
  -1  -4  -9 8119.12  258.26
   1  -4   9 8476.00  285.02
   1   4  10   56.59   57.65
   1   4  10    4.92   52.22
  -1   4 -10   73.72   18.20
  -1   4 -10   75.80   23.52
  -1  -4 -10   -0.29    9.90
  -1  -4 -10   12.68    9.35
   1  -4  10   37.71   41.79
   1   4  11 7130.44  251.30
   1   4  11 7129.47  249.54
  -1   4 -11 6957.61  229.36
  -1   4 -11 6646.51  231.82
  -1  -4 -11 6806.60  219.15
  -1  -4 -11 7116.41  220.42
   1  -4  11 7065.67  238.07
   1   4  12  284.90   69.68
  -1   4 -12   93.03   19.13
  -1   4 -12   67.36   23.88
  -1  -4 -12   60.14   11.79
   1  -4  12  -72.39   44.78
   1   4  13 3614.44  142.34
  -1   4 -13 2808.28  109.01
  -1  -4 -13 3264.77  104.93
   1  -4  13 2858.55  129.39
   1   5   016586.64  507.83
   1   5   016505.99  514.05
  -1   5   015875.86  525.59
  -1   5   017745.07  521.21
  -1  -5   015976.16  494.19
   1  -5   016143.20  502.28
  -1  -5   015374.80  501.94
   1   5   1  211.56   31.84
  -1   5  -1  146.19   34.02
  -1   5  -1  201.25   34.21
  -1  -5  -1  140.94    9.94
   1  -5   1  175.21   12.08
   1   5   214801.39  427.14
   1   5   214052.21  435.64
   1   5   213145.26  406.63
  -1   5  -213270.67  430.02
  -1   5  -213153.19  416.37
  -1  -5  -213553.52  412.54
   1  -5   212772.49  413.84
   1  -5   211778.93  407.33
   1   5   3   10.84   39.49
   1   5   3   58.13   11.69
  -1   5  -3   36.16   22.78
  -1  -5  -3   32.30    6.16
  -1  -5  -3   38.27    6.52
   1  -5   3   31.17   12.39
   1  -5   3    6.61   11.37
   1   5   411608.60  364.93
  -1   5  -412226.44  355.57
  -1   5  -411530.85  354.08
  -1  -5  -410646.32  346.61
  -1  -5  -410244.03  347.35
   1  -5   410876.84  353.84
   1  -5   411045.26  354.18
   1   5   411359.37  344.40
   1   5   5 1571.56   80.94
   1   5   5 1203.32   49.79
  -1   5  -5 1468.31   48.86
  -1   5  -5 1419.72   54.29
  -1  -5  -5 1265.06   43.11
  -1  -5  -5 1233.97   43.33
   1  -5   5 1328.51   50.39
   1  -5   5 1381.22   54.76
   1   5   6 7242.67  249.32
  -1   5  -6 6831.35  229.27
  -1  -5  -6 7262.84  217.29
  -1  -5  -6 7067.69  218.73
   1  -5   6 6996.90  226.45
   1  -5   6 6874.80  235.58
   1   5   7  -29.54   58.41
   1   5   7  170.93   33.23
  -1   5  -7   46.67   21.34
  -1  -5  -7   30.79    8.13
  -1  -5  -7   27.46    8.58
   1  -5   7   25.86   18.16
   1  -5   7   79.88   32.30
   1   5   8 8073.77  278.04
   1   5   8 8529.74  277.72
  -1   5  -8 8198.47  267.93
  -1  -5  -8 8026.15  251.29
  -1  -5  -8 8073.16  250.80
   1  -5   8 8161.22  267.49
   1  -5   8 7848.16  271.04
   1   5   9  -23.98   42.96
  -1   5  -9   28.08   21.72
  -1  -5  -9   19.23    8.29
  -1  -5  -9   26.33    9.79
   1  -5   9   80.37   27.30
   1  -5   9   -5.54   33.40
   1   5  10 4594.59  173.21
   1   5  10 4900.50  171.03
  -1   5 -10 4414.77  157.51
  -1  -5 -10 4458.99  144.20
  -1  -5 -10 4604.76  145.87
   1  -5  10 4461.65  155.00
   1  -5  10 4618.31  160.59
   1   5  11  -46.40   60.74
   1   5  11   72.15   55.69
  -1   5 -11   33.35   24.11
  -1  -5 -11   32.40    9.76
  -1  -5 -11   -7.58   10.23
   1  -5  11    8.86   30.11
   1  -5  11  167.35   49.90
   1   5  12 3556.66  153.25
  -1   5 -12 3802.92  131.80
  -1  -5 -12 3793.68  122.48
   1  -5  12 3811.43  135.34
   1  -5  12 3602.99  144.35
   1   5  13   -5.46   55.75
  -1   5 -13  -14.11   24.64
  -1  -5 -13   -3.07   12.84
   1  -5  13    4.65   34.28
   1   6   0   -5.36   37.31
   1   6   0  -10.48   36.30
  -1   6   0  117.13   38.06
  -1   6   0  -44.81   51.10
  -1  -6   0    2.82    7.91
  -1  -6   0    6.91    3.58
   1  -6   0  -10.38    7.36
   1   6   116626.59  505.16
   1   6   115823.66  510.00
  -1   6  -114422.08  506.82
  -1   6  -116596.09  497.17
  -1  -6  -115359.69  487.02
  -1  -6  -115692.01  480.49
   1  -6   115849.02  487.03
   1   6   2   10.19   42.29
   1   6   2  -63.96   55.59
   1   6   2   36.30    9.06
  -1   6  -2  -17.56   37.85
  -1   6  -2  -33.06   34.81
   1  -6   2   -0.18    9.40
   1   6   319336.43  586.06
  -1   6  -319261.66  614.83
  -1  -6  -318908.71  593.92
   1  -6   318669.46  598.28
   1  -6   317518.47  588.22
  -1   6  -320201.36  600.92
  -1  -6  -319222.05  593.40
   1   6   320467.12  610.36
   1   6   4  228.43   57.18
   1   6   4   54.78   19.09
  -1  -6  -4   71.78    8.52
   1  -6   4   18.12   16.39
   1   6   511835.96  380.29
   1   6   511810.75  372.16
  -1   6  -512284.36  371.97
  -1  -6  -510796.03  357.89
  -1  -6  -511304.16  359.22
   1  -6   512161.92  369.40
   1  -6   510984.92  371.45
   1   6   6  -63.41   62.77
  -1   6  -6  -40.18   25.56
  -1  -6  -6   15.14    8.22
   1  -6   6   61.03   21.59
   1   6   712733.36  416.88
   1   6   712927.11  402.37
  -1   6  -712629.18  399.33
  -1  -6  -712047.00  378.57
  -1  -6  -711959.36  382.58
   1  -6   712529.67  394.62
   1  -6   711392.63  396.06
   1   6   8    8.53   45.37
  -1  -6  -8   22.40    8.99
  -1  -6  -8   14.34   10.00
   1  -6   8    0.79   22.37
   1  -6   8   18.69   28.20
   1   6   8  110.89   71.82
   1   6   9 5305.94  206.75
  -1  -6  -9 5322.96  179.46
  -1  -6  -9 5850.29  181.96
   1  -6   9 6134.91  196.07
   1  -6   9 5841.23  199.52
   1   6   9 5914.00  222.92
  -1   6  -9 6022.26  195.63
   1   6  10   31.27   69.88
   1   6  10   93.39   55.24
  -1  -6 -10   17.32   10.35
   1  -6  10   26.09   25.77
   1  -6  10  -93.92   37.13
   1   6  11 5288.94  203.83
   1   6  11 4896.58  209.54
  -1   6 -11 5439.02  186.73
  -1  -6 -11 5493.95  175.21
   1  -6  11 5959.91  189.04
   1  -6  11 5553.07  198.67
   1   6  12  107.12   62.65
   1   6  12   58.42   54.82
  -1   6 -12   32.17   26.42
  -1  -6 -12   -8.06   13.70
   1  -6  12   47.39   29.83
   1  -6  12  -65.66   39.65
   1   7   016297.92  492.29
   1   7   015841.73  490.62
  -1   7   014527.91  492.34
  -1   7   016178.98  495.34
  -1  -7   014923.63  473.62
  -1  -7   015126.41  465.74
   1  -7   014319.35  469.38
   1   7   1  178.37   50.85
   1   7   1   42.89   49.56
   1   7   1   14.51    7.34
  -1   7  -1   -3.17   48.29
  -1  -7  -1   40.07    8.37
   1  -7   1   51.82   12.70
   1   7   216048.43  481.58
   1   7   215806.70  495.03
   1   7   215137.19  454.27
  -1   7  -213127.77  482.47
  -1   7  -215121.30  477.19
  -1  -7  -214882.17  462.02
   1  -7   214434.73  461.57
   1   7   3  211.56   62.29
   1   7   3   57.84   16.42
  -1   7  -3   39.90   42.69
  -1   7  -3  155.41   44.24
  -1  -7  -3   63.20    8.76
  -1  -7  -3   52.27    9.21
   1   7   415401.85  487.73
   1   7   415627.38  469.77
  -1   7  -414128.96  483.21
  -1   7  -415342.20  473.39
  -1  -7  -414762.26  465.57
  -1  -7  -414838.06  464.52
   1  -7   414906.62  472.61
   1   7   5   18.42   29.32
  -1   7  -5  -28.28   29.78
  -1  -7  -5    9.81    7.83
  -1  -7  -5    0.11    8.06
   1  -7   5   25.44   16.23
   1   7   6 9624.08  335.09
   1   7   6 9204.71  310.28
  -1   7  -6 9151.29  311.46
  -1  -7  -6 9907.76  298.23
  -1  -7  -6 9783.19  296.29
   1  -7   6 9657.14  309.60
   1   7   7   -1.20   73.83
   1   7   7   84.27   40.88
  -1   7  -7   34.92   34.45
  -1  -7  -7   46.52    8.91
  -1  -7  -7   20.41   11.35
   1  -7   7   59.28   25.05
   1   7   8 7016.70  251.46
   1   7   8 6689.00  244.25
  -1   7  -8 7268.00  240.62
  -1  -7  -8 7181.09  220.75
   1  -7   8 7084.10  232.73
  -1  -7  -8 6752.44  217.13
   1   7   9  140.38   70.32
   1   7   9  122.63   54.89
  -1   7  -9   38.10   32.78
  -1  -7  -9   71.78   11.00
  -1  -7  -9   58.68   11.02
   1  -7   9   83.97   27.87
   1   7  10 4571.85  190.66
  -1   7 -10 4689.85  165.47
  -1  -7 -10 4890.80  150.71
   1  -7  10 4864.05  164.12
   1   7  10 4277.05  176.17
   1   7  11   46.69   64.28
   1   7  11  128.41   59.93
  -1   7 -11   87.34   35.12
  -1  -7 -11   40.98   12.71
   1  -7  11   38.51   27.08
   1   7  12 2401.32  135.53
  -1   7 -12 2358.42  101.80
  -1  -7 -12 2869.34   87.72
   1   8   0   37.58   67.18
  -1   8   0   70.75   73.39
  -1  -8   0   50.06    9.94
   1   8   1 5298.92  198.25
   1   8   1 5697.80  205.02
  -1   8  -1 5472.41  193.85
  -1  -8  -1 5556.52  169.44
   1  -8   1 5109.23  170.63
  -1   8  -1 5235.00  190.97
   1   8   2  156.47   63.90
   1   8   2  426.18   69.04
  -1   8  -2  162.90   52.09
  -1   8  -2  119.45   47.75
  -1  -8  -2  201.87   13.10
   1  -8   2  118.22   17.43
   1   8   3 7697.00  264.92
  -1  -8  -3 7152.44  232.02
  -1  -8  -3 7573.07  234.41
   1  -8   3 7239.19  234.32
   1   8   4   -5.39   80.09
  -1  -8  -4    4.23    7.85
   1   8   5 4709.47  193.68
  -1   8  -5 4925.54  170.52
  -1  -8  -5 4643.82  150.08
  -1  -8  -5 4797.75  157.08
   1  -8   5 4722.73  157.91
   1   8   6  -71.51   70.13
  -1  -8  -6   10.74    8.44
  -1  -8  -6   28.43   10.00
   1  -8   6   23.94   20.45
  -1   8  -7 4548.79  166.44
  -1  -8  -7 5108.27  151.28
   1  -8   7 4816.67  159.19
   1   8   7 4298.19  192.15
  -1  -8  -7 4659.77  148.52
   1   8   8  231.47   79.63
  -1  -8  -8   72.27   10.26
  -1  -8  -8   72.51   11.55
   1  -8   8   65.22   23.43
   1   8   9 3510.33  157.65
  -1   8  -9 3521.79  127.66
  -1  -8  -9 3035.41  109.74
  -1  -8  -9 3770.74  112.42
   1  -8   9 3452.05  121.72
   1   8  10  308.22   82.64
  -1   8 -10  185.17   40.05
  -1  -8 -10  202.93   15.54
   1  -8  10  195.14   35.42
   1   8  11 2428.51  117.63
  -1   8 -11 2106.57   91.14
  -1  -8 -11 2195.69   77.07
   1  -9   0 6172.44  192.82
   1   9   0 5937.01  216.38
   1   9   0 6713.21  230.92
  -1   9   0 5790.58  224.01
  -1   9   0 6435.35  230.27
  -1  -9   0 5641.14  192.27
   1   9   1   70.97   67.51
   1   9   1  113.78   75.13
  -1   9  -1 -123.06   58.53
  -1   9  -1  -13.93   75.97
   1  -9   1   18.61   13.76
   1   9   2 5301.03  196.29
   1   9   2 4603.23  197.11
  -1   9  -2 4684.80  180.15
  -1  -9  -2 5051.57  158.36
   1  -9   2 4972.36  160.16
   1   9   3   64.91   83.37
  -1   9  -3  -75.41   50.53
  -1   9  -3  158.77   63.03
  -1  -9  -3   50.07   10.75
  -1  -9  -3   19.52    9.73
   1  -9   3   65.28   15.35
   1   9   4 5256.74  211.00
  -1  -9  -4 5112.12  167.21
  -1  -9  -4 5347.64  169.03
   1  -9   4 5218.31  170.72
   1   9   5 -161.62   77.23
  -1   9  -5  244.48   57.70
  -1  -9  -5   15.83   11.26
  -1  -9  -5   -6.79   10.07
   1  -9   5   -1.79   20.12
   1   9   6 3956.55  183.55
  -1   9  -6 4237.04  165.84
  -1  -9  -6 3866.74  132.61
  -1  -9  -6 4397.77  137.85
   1  -9   6 4357.89  141.24
   1   9   7  188.99   95.34
  -1   9  -7   99.61   50.57
  -1  -9  -7    6.15   10.65
  -1  -9  -7   35.24   12.22
   1  -9   7   89.70   20.66
   1   9   8 4450.98  194.92
  -1   9  -8 4321.29  163.97
  -1  -9  -8 4218.58  140.96
   1  -9   8 4502.45  153.39
   1   9   9  115.90   77.23
  -1   9  -9   66.70   44.61
  -1  -9  -9   36.14   13.08
   1  -9   9   -5.55   27.62
   1  10   0  303.38   87.20
   1  10   0  201.83  100.12
  -1  10   0   79.27   57.08
  -1  10   0  211.04   94.71
  -1 -10   0   88.59   14.44
   1 -10   0  124.74   15.41
   1  10   1 5550.01  218.58
   1  10   1 5267.25  226.09
  -1  10  -1 4708.40  206.81
  -1  10  -1 5575.34  220.85
  -1 -10  -1 5643.99  177.21
   1 -10   1 6001.30  178.72
   1  10   2   87.38   85.74
  -1  10  -2 -101.28   56.68
  -1  10  -2   56.29   71.51
  -1 -10  -2   37.57   13.18
   1 -10   2   31.47   16.77
   1  10   3 5134.02  217.82
  -1  10  -3 5029.28  199.64
  -1 -10  -3 5165.00  166.46
  -1 -10  -3 5284.03  165.80
   1 -10   3 5143.38  167.52
   1  10   4 -166.42   82.48
  -1  10  -4  105.25   64.68
  -1 -10  -4    0.47   11.62
  -1 -10  -4    4.24   10.54
   1 -10   4    9.81   17.04
   1  10   5 3944.26  179.76
  -1  10  -5 4198.42  167.95
  -1 -10  -5 3770.96  132.58
  -1 -10  -5 4496.89  136.94
   1 -10   5 4334.59  140.04
   1  10   6  245.72   81.75
  -1  10  -6  103.19   63.96
  -1 -10  -6   27.59   10.74
  -1 -10  -6    9.55   12.45
   1 -10   6   -7.03   17.87
   1  10   7 3558.15  177.42
  -1  10  -7 3975.23  152.89
  -1 -10  -7 3786.04  123.53
   1 -10   7 3582.52  129.23
   1  10   8  124.77   96.40
  -1  10  -8 -136.03   61.83
  -1 -10  -8   28.35   12.79
   1 -10   8   10.91   22.42
   1  11   0 3025.91  156.22
   1  11   0 3387.17  158.37
  -1  11   0 2847.32  137.47
  -1  11   0 3491.74  175.14
  -1 -11   0 3148.91  105.28
   1 -11   0 3266.45  105.15
   1  11   1 -222.81   98.17
  -1  11  -1  -33.76   62.82
  -1  11  -1  110.54   84.79
  -1 -11  -1  -26.77   12.56
   1 -11   1   16.53   15.28
   1  11   2 2019.04  124.75
  -1  11  -2 2699.58  142.15
  -1 -11  -2 2243.61   79.35
  -1 -11  -2 2534.95   82.71
   1 -11   2 2273.19   82.59
   1  11   3 -112.76   97.46
  -1  11  -3  -11.34   82.22
  -1 -11  -3    6.69   12.12
  -1 -11  -3   48.58   11.69
   1 -11   3   -8.75   14.26
   1  11   4 2200.45  149.09
  -1  11  -4 2163.82  166.33
  -1 -11  -4 2120.61   73.77
   1 -11   4 2226.87   80.23
   1  11   5  -10.67   85.19
  -1  11  -5  139.68   72.78
  -1 -11  -5    7.04    9.94
  -1 -11  -5  -11.54   11.68
   1 -11   5    5.41   17.90
  -1  11  -6 1400.04   96.63
  -1 -11  -6 1393.97   51.24
   1 -11   6 1558.76   59.76
   1  12   0   41.50   90.18
   1  12   0   23.36   99.35
  -1  12   0   23.35   74.35
  -1  12   0  294.04  109.88
  -1 -12   0   15.83   14.62
   1 -12   0   59.39   17.99
   1  12   1 1111.46  114.78
  -1  12  -1 1486.23  132.81
  -1 -12  -1 1705.29   59.24
   1 -12   1 1555.84   59.47
   1  12   2   59.96   79.03
  -1  12  -2 -239.37   96.72
  -1 -12  -2    6.83   14.34
  -1 -12  -2   14.76   13.05
   1 -12   2   32.12   17.93
   2   0   030572.12  996.75
   2   0   033245.06  977.49
   2   0   033929.81  985.66
  -2   0   031634.22  997.35
  -2   0   031827.01  978.96
  -2   0   033040.67  994.83
  -2   0  -1    5.07    3.59
  -2   0  -282959.57 2605.62
  -2   0  -288604.20 2630.93
   2   0   3    2.18    3.16
   2   0   3   -3.90    2.93
   2   0   3   -0.76    7.05
  -2   0  -3   15.58    5.04
   2   0   434024.70 1035.52
   2   0   433939.42 1057.97
  -2   0  -435564.64 1062.66
  -2   0  -433329.32 1035.29
   2   0   5  -13.44   13.90
   2   0   5  -25.09   16.70
  -2   0  -5  -20.28    5.55
  -2   0  -5   -1.97    5.17
   2   0   625183.30  763.53
   2   0   625625.60  778.38
  -2   0  -625179.38  774.73
  -2   0  -623709.15  754.58
   2   0   7   19.39   23.16
   2   0   7   86.63   31.38
   2   0   815092.52  492.05
   2   0   816099.20  487.50
  -2   0  -815524.24  480.04
  -2   0  -815019.64  469.63
   2   0   9   86.33   47.11
  -2   0  -9    4.63   10.57
  -2   0  -9   16.35   10.87
   2   0  10 8557.15  281.19
  -2   0 -10 8016.34  267.82
  -2   0 -10 8714.51  265.19
   2   0  11   13.70   50.98
  -2   0 -11  -32.38   11.23
  -2   0 -11   56.06   14.42
   2   0  12 7968.66  313.71
  -2   0 -12 7653.52  247.33
   2   0  13   16.40   64.12
  -2   0 -13   40.70   17.61
   2   0  14 3566.32  148.54
  -2   0 -14 3558.92  120.49
   2   1   0 7213.56  229.44
   2   1   0 7396.62  229.99
  -2   1   0 7337.53  236.79
  -2   1   0 7712.78  231.25
  -2   1   0 7629.47  231.49
  -2  -1   0 7552.59  227.62
  -2  -1   0 7538.79  234.42
  -2  -1   0 7563.56  230.84
   2  -1   0 7538.49  237.10
   2  -1   0 7839.86  233.58
   2   1   144058.94 1321.95
  -2   1  -143418.17 1326.14
  -2   1  -141262.84 1314.42
  -2   1  -144090.55 1325.09
  -2  -1  -142056.59 1302.53
  -2  -1  -143857.36 1308.99
   2   1   2  261.27    9.67
  -2   1  -2  257.81   13.84
  -2   1  -2  226.00   10.03
  -2  -1  -2  231.55    9.38
  -2  -1  -2  247.78    9.93
   2  -1   2  251.70    8.03
   2   1   340135.54 1211.31
   2   1   340346.43 1204.96
  -2   1  -340726.69 1219.12
  -2   1  -337878.48 1207.43
  -2  -1  -342816.64 1232.93
  -2  -1  -339581.75 1197.13
   2  -1   338627.78 1214.17
   2  -1   337874.32 1225.90
   2   1   4  279.01   15.64
   2   1   4  324.33   16.08
  -2   1  -4  380.08   14.39
  -2   1  -4  325.20   13.10
  -2  -1  -4  324.56   11.42
  -2  -1  -4  326.95   12.45
   2  -1   4  317.70   10.82
   2  -1   4  308.81   20.55
   2   1   514610.72  435.33
   2   1   514744.97  442.02
  -2   1  -514173.19  439.70
  -2   1  -513199.70  430.97
  -2  -1  -514955.80  437.59
  -2  -1  -513632.72  427.46
   2  -1   513304.82  427.90
   2  -1   514071.11  448.69
   2   1   6  147.98   29.17
   2   1   6  159.18   24.02
  -2   1  -6   93.72    8.51
  -2   1  -6   70.31    8.75
  -2  -1  -6   94.11    6.36
  -2  -1  -6   98.90    7.99
   2  -1   6   62.11   17.96
   2  -1   6   33.49   26.60
   2   1   721012.98  658.92
   2   1   723129.32  670.59
  -2   1  -721492.90  658.76
  -2   1  -720208.13  645.06
  -2  -1  -721905.56  653.13
  -2  -1  -720543.31  637.20
   2  -1   719692.07  657.32
   2  -1   720947.15  669.69
   2   1   8  109.73   34.58
   2   1   8  129.08   37.54
  -2   1  -8   75.34   10.21
  -2   1  -8   17.53   10.16
  -2  -1  -8   34.36    8.65
  -2  -1  -8   41.07    8.18
   2  -1   8  145.62   41.16
  -2   1  -9 7174.87  235.11
  -2   1  -9 7252.36  230.65
  -2  -1  -9 7364.39  234.67
  -2  -1  -9 7373.13  226.27
   2  -1   9 7517.60  253.51
   2   1  10  167.69   48.20
  -2   1 -10   40.52   13.32
  -2   1 -10   56.37   13.90
  -2  -1 -10    7.06    8.72
  -2  -1 -10   -0.86   10.37
   2  -1  10 -134.30   55.54
   2   1  11 8000.55  270.82
  -2   1 -11 7048.97  248.14
  -2   1 -11 7927.34  244.90
  -2  -1 -11 7634.72  248.73
  -2  -1 -11 8473.06  241.37
   2  -1  11 6934.88  272.01
   2   1  12  111.34   62.83
  -2   1 -12   41.31   14.96
  -2   1 -12   20.30   17.16
  -2  -1 -12   19.61   16.12
   2  -1  12   55.91   57.13
   2   1  13 3361.38  148.19
  -2   1 -13 3528.62  121.04
  -2  -1 -13 3882.39  120.18
   2  -1  13 3262.83  144.63
  -2   1 -14   19.60   19.60
  -2  -1 -14   24.11   18.18
   2  -1  14 -233.67   65.48
   2   2   041194.24 1273.51
   2   2   040457.93 1264.43
  -2   2   041750.13 1277.25
  -2   2   042248.06 1303.45
  -2   2   044970.99 1262.06
  -2  -2   041484.44 1272.01
  -2  -2   042171.73 1278.66
  -2  -2   042059.61 1269.98
   2  -2   038857.20 1268.74
   2   2   1 1018.91   33.29
   2   2   1 1082.29   38.47
  -2   2  -1  969.91   35.07
  -2   2  -1  961.81   40.48
  -2   2  -1  912.58   34.33
  -2   2  -1 1101.00   33.58
  -2  -2  -1  987.54   33.70
  -2  -2  -1 1080.60   33.46
   2   2   229474.63  927.76
  -2   2  -230180.25  933.93
  -2   2  -231848.55  920.16
  -2   2  -229122.38  927.37
  -2  -2  -228781.90  913.09
  -2  -2  -232411.00  920.18
  -2  -2  -229644.28  917.77
  -2  -2  -230548.64  917.45
   2  -2   229830.04  941.28
   2   2   3   29.05   11.23
  -2   2  -3   17.00   14.60
  -2  -2  -3    6.20    3.14
  -2  -2  -3   17.38    5.39
   2  -2   3    4.76    9.48
   2  -2   3    3.66    0.95
   2  -2   3    5.69    9.94
   2   2   418128.94  579.44
   2   2   418088.59  564.93
  -2   2  -419464.77  573.63
  -2   2  -418219.93  567.54
  -2  -2  -419189.99  559.06
  -2  -2  -417075.14  560.03
   2  -2   418042.10  566.96
   2  -2   419782.82  588.46
   2   2   5   88.56   23.14
   2   2   5   -3.10   14.48
  -2   2  -5    6.26   10.12
  -2   2  -5    9.73    8.93
  -2  -2  -5    7.21    3.98
  -2  -2  -5    0.65    4.95
   2  -2   5  -20.78   21.30
   2   2   618341.09  561.19
   2   2   618142.01  537.37
  -2   2  -618033.93  548.84
  -2   2  -616268.83  538.08
  -2  -2  -617498.26  533.27
  -2  -2  -616494.74  529.59
   2  -2   617483.58  558.16
   2   2   7   -2.96   42.80
   2   2   7  -23.44   27.47
  -2   2  -7   88.74   11.93
  -2   2  -7   53.68   10.76
  -2  -2  -7   42.44    6.47
  -2  -2  -7   33.44    7.87
   2  -2   7  122.70   34.64
   2   2   813012.41  434.49
  -2   2  -813691.48  423.95
  -2   2  -813786.94  414.60
  -2  -2  -812668.28  414.48
  -2  -2  -812376.33  405.86
   2  -2   814524.30  439.51
   2   2   9  -97.83   42.68
   2   2   9  -54.76   42.59
  -2   2  -9   61.84   14.81
  -2  -2  -9   11.09    8.52
   2  -2   9  -31.85   50.24
   2   2  10 7600.35  260.94
  -2   2 -10 7351.06  238.79
  -2   2 -10 7503.64  234.98
  -2  -2 -10 7369.61  235.94
  -2  -2 -10 7866.50  231.14
   2  -2  10 6700.63  257.60
   2   2  11  130.62   68.36
  -2   2 -11   53.28   15.39
  -2   2 -11   27.57   16.31
   2  -2  11   34.27   61.27
   2   2  12 5071.16  184.48
  -2   2 -12 4320.80  155.96
  -2   2 -12 5130.51  159.08
  -2  -2 -12 4751.50  149.42
   2  -2  12 4374.36  177.76
   2   2  13  -55.28   63.38
  -2   2 -13  -14.80   17.11
  -2  -2 -13   20.89   14.78
   2  -2  13  -18.47   61.82
   2   3   0  214.46    9.62
   2   3   0  207.76   16.03
  -2   3   0  173.98   20.62
  -2   3   0  279.29   37.35
  -2   3   0  200.26    7.83
  -2  -3   0  201.37    8.98
  -2  -3   0  219.03    8.66
   2  -3   0  193.59   10.77
   2  -3   0  205.65    8.10
   2   3   130035.52  913.40
   2   3   131677.27  920.04
  -2   3  -130253.88  920.37
  -2   3  -130105.82  913.84
  -2  -3  -129940.12  915.01
  -2  -3  -130759.52  904.61
   2  -3   128661.15  918.57
   2  -3   127415.26  928.97
   2   3   2   40.51   12.13
  -2   3  -2   29.46    9.80
  -2   3  -2    8.85   21.40
  -2  -3  -2   26.51    3.63
  -2  -3  -2   30.21    6.28
  -2  -3  -2   41.83    6.22
   2   3   343825.86 1301.39
   2   3   342506.35 1280.98
  -2   3  -342461.88 1296.16
  -2   3  -342312.66 1293.83
  -2   3  -342359.07 1300.51
  -2  -3  -341947.82 1289.79
  -2  -3  -339921.75 1287.56
   2  -3   344181.16 1330.91
   2   3   4   57.61   23.57
   2   3   4   70.01   11.24
  -2   3  -4    7.09   13.67
  -2   3  -4   22.80   11.74
  -2  -3  -4   58.88    4.40
  -2  -3  -4   43.11    6.55
   2   3   520177.71  614.29
   2   3   519007.84  587.66
  -2   3  -519621.16  596.29
  -2   3  -518625.37  592.87
  -2  -3  -519388.32  585.79
  -2  -3  -518487.44  584.11
   2  -3   519258.90  621.02
   2   3   6   22.53   24.27
  -2   3  -6   50.05   12.70
  -2   3  -6   66.46   13.90
  -2  -3  -6   65.98    5.59
  -2  -3  -6   54.38    6.75
   2  -3   6  -17.23   25.69
   2   3   723982.11  746.77
   2   3   724834.30  741.48
  -2   3  -724554.05  750.26
  -2   3  -722868.71  733.54
  -2  -3  -723948.38  729.85
  -2  -3  -722780.78  725.53
   2  -3   723726.32  764.80
  -2   3  -8  -14.37   13.93
  -2   3  -8  -31.24   17.14
  -2  -3  -8    7.39    6.92
  -2  -3  -8   19.40    8.41
   2   3   9 8737.45  325.24
   2   3   910343.21  326.87
  -2   3  -910231.42  323.70
  -2   3  -910386.75  313.69
  -2  -3  -9 9690.63  307.95
  -2  -3  -9 9513.29  301.81
   2  -3   9 9938.78  329.41
   2   3  10  -31.11   60.66
  -2   3 -10   46.32   18.71
   2  -3  10   23.55   52.76
   2   3  11 8112.99  294.48
  -2   3 -11 8185.86  278.76
  -2   3 -11 9111.78  275.83
  -2  -3 -11 8711.26  270.68
   2  -3  11 8589.64  299.93
   2   3  12 -155.81   59.45
  -2   3 -12   35.51   20.67
  -2   3 -12   32.51   23.11
  -2  -3 -12   -1.85   12.09
   2   3  13 3534.19  154.98
  -2   3 -13 3806.30  128.75
  -2  -3 -13 3676.19  120.12
   2  -3  13 3509.21  152.88
   2   4   016791.92  538.80
   2   4   017471.07  543.53
  -2   4   018108.66  548.96
  -2   4   017808.94  552.05
  -2  -4   016836.59  539.80
  -2  -4   017124.00  537.65
   2  -4   017387.51  543.66
   2  -4   018707.95  538.68
   2   4   1  318.03   19.94
   2   4   1  343.40   36.06
  -2   4  -1  449.46   24.46
  -2   4  -1  382.32   39.21
  -2  -4  -1  353.05   14.43
  -2  -4  -1  387.42   13.32
   2  -4   1  312.59   16.28
   2  -4   1  322.84   15.60
   2   4   225992.23  769.84
   2   4   227235.56  796.80
  -2   4  -224908.74  770.16
  -2   4  -224120.76  766.42
  -2  -4  -224879.78  764.78
  -2  -4  -225655.35  754.89
   2  -4   223481.07  773.45
   2  -4   223636.27  783.41
   2   4   3   38.89   19.77
   2   4   3    2.32    6.81
  -2   4  -3   61.23   20.70
  -2  -4  -3   -2.69    4.07
  -2  -4  -3   14.05    6.46
   2  -4   3   41.87   13.21
   2  -4   3  -13.33   15.26
   2   4   415647.64  479.45
   2   4   414307.78  462.00
  -2   4  -416197.04  466.58
  -2   4  -415373.99  472.45
  -2  -4  -415349.97  461.81
  -2  -4  -414023.98  459.45
   2  -4   414418.71  472.61
   2  -4   415315.94  483.46
   2   4   5  574.24   49.11
   2   4   5  505.26   27.37
  -2   4  -5  614.39   26.99
  -2  -4  -5  470.09   21.16
   2  -4   5  507.43   16.13
   2  -4   5  547.09   37.47
   2   4   613908.47  453.21
   2   4   615183.74  421.40
  -2   4  -612981.06  427.33
  -2   4  -612471.84  423.44
  -2  -4  -614115.14  415.58
  -2  -4  -613677.25  412.29
   2  -4   612088.02  456.05
   2   4   7 -200.63   60.19
   2   4   7  -75.95   28.84
  -2   4  -7   -7.55   18.84
  -2   4  -7   18.21   16.64
  -2  -4  -7    6.53    8.33
   2   4   810908.71  364.56
   2   4   811771.65  357.37
  -2   4  -810743.29  349.42
  -2   4  -810564.48  343.05
  -2  -4  -811095.11  340.22
  -2  -4  -810900.03  337.37
   2  -4   810190.77  362.23
   2   4   9  -10.08   61.24
   2   4   9   53.92   42.99
  -2   4  -9   11.41   19.98
  -2   4  -9    9.50   21.60
  -2  -4  -9   25.27    9.67
   2   4  10 6520.57  226.02
   2   4  10 6999.94  232.98
  -2   4 -10 6002.04  207.78
  -2   4 -10 6020.62  204.97
  -2  -4 -10 6635.40  198.26
   2  -4  10 5773.33  219.78
   2   4  11  -36.93   60.94
  -2   4 -11   -0.94   21.01
  -2   4 -11   47.16   26.63
   2  -4  11   71.62   47.46
   2   4  12 3994.50  165.25
  -2   4 -12 3717.08  133.98
  -2   4 -12 4198.68  139.89
  -2  -4 -12 4147.87  128.75
   2  -4  12 3321.70  156.18
   2   4  13   74.21   63.82
  -2   4 -13  105.54   30.29
  -2  -4 -13   27.28   14.53
   2   5   0   43.66   17.75
  -2   5   0  -14.18   22.80
  -2  -5   0   61.43    7.00
  -2  -5   0   46.10    6.18
   2  -5   0   88.42   10.15
   2   5   111187.97  349.61
   2   5   111478.13  359.77
  -2   5  -110814.49  347.84
  -2   5  -110986.33  353.21
  -2  -5  -110567.55  341.07
  -2  -5  -111079.18  337.58
   2  -5   110885.20  345.91
   2  -5   111417.35  342.45
   2   5   2   33.52   24.91
  -2   5  -2   66.05   24.25
  -2   5  -2  178.58   33.87
  -2  -5  -2   46.05    7.05
  -2  -5  -2   50.61    6.33
   2  -5   2   29.35   12.42
   2   5   314555.00  428.64
   2   5   313050.56  413.90
  -2   5  -314395.01  421.65
  -2   5  -314234.83  431.09
  -2  -5  -313659.90  420.78
  -2  -5  -313003.21  413.30
   2  -5   313352.96  427.47
   2  -5   311787.38  424.72
   2   5   4  167.02   37.40
   2   5   4  244.55   15.86
  -2  -5  -4  249.53   10.29
  -2  -5  -4  250.18   12.25
   2  -5   4  174.60   18.68
   2  -5   4  300.17   26.12
   2   5   5 5093.94  165.21
   2   5   5 4504.46  143.15
  -2   5  -5 4668.35  147.77
  -2  -5  -5 4383.61  137.22
  -2  -5  -5 4103.20  138.50
   2  -5   5 4354.40  147.17
   2  -5   5 4134.37  156.45
   2   5   6    6.32   23.96
  -2   5  -6   78.18   26.48
  -2  -5  -6   77.52    7.68
  -2  -5  -6   73.80    8.19
   2  -5   6  -27.46   28.54
   2   5   711880.20  386.41
   2   5   712452.71  382.20
  -2   5  -711831.49  377.30
  -2  -5  -711631.57  362.75
  -2  -5  -711463.35  362.42
   2  -5   712015.39  379.29
   2  -5   711139.11  387.44
   2   5   8  118.44   71.03
   2   5   8  -57.32   43.68
  -2   5  -8  121.25   24.94
  -2  -5  -8   -8.15    7.36
  -2  -5  -8    6.71    9.33
   2  -5   8   26.73   26.30
   2  -5   8   34.03   37.13
   2   5   9 4581.08  187.07
   2   5   9 4396.83  166.75
  -2   5  -9 4811.02  156.04
  -2  -5  -9 4533.23  147.65
   2  -5   9 4651.32  157.78
   2  -5   9 4256.69  165.92
   2   5  10  160.44   63.49
   2   5  10  106.14   61.15
  -2   5 -10   26.55   26.51
  -2  -5 -10  -14.20   11.34
   2  -5  10    4.62   29.89
   2  -5  10  -59.07   50.27
   2   5  11 3796.75  164.46
   2   5  11 3991.66  173.56
  -2   5 -11 3997.58  143.13
  -2  -5 -11 4358.88  132.48
   2  -5  11 4671.47  152.98
   2  -5  11 3942.31  164.93
   2   5  12   10.54   57.28
  -2   5 -12   -1.69   24.53
  -2  -5 -12   37.74   11.79
   2  -5  12   58.76   33.72
   2  -5  12   97.59   48.42
   2   6   015708.20  503.63
   2   6   016176.10  511.51
  -2   6   016758.21  511.81
  -2   6   016982.86  517.78
  -2  -6   015750.25  495.60
  -2  -6   015823.52  491.91
   2  -6   015654.34  499.02
   2   6   1  119.08   45.01
  -2   6  -1  165.55   28.62
  -2   6  -1  -58.95   44.66
  -2  -6  -1  105.16    9.11
   2  -6   1   76.42   11.04
   2   6   220380.75  630.81
   2   6   220234.39  653.78
  -2   6  -220203.65  626.07
  -2   6  -219887.42  636.98
  -2  -6  -219645.70  618.94
  -2  -6  -219916.30  612.81
   2  -6   220039.57  627.97
   2   6   3  107.03   39.42
   2   6   3   41.91   11.35
  -2   6  -3   91.11   37.93
  -2  -6  -3   26.83    6.24
  -2  -6  -3   30.82    8.03
   2  -6   3   45.84   15.61
   2  -6   3   65.26   14.29
   2   6   411048.11  381.34
   2   6   411669.95  355.46
  -2   6  -412259.98  360.33
  -2   6  -411906.62  373.85
  -2  -6  -411198.08  353.67
  -2  -6  -411180.94  355.08
   2  -6   411979.36  365.89
   2  -6   410163.46  361.64
   2   6   5  372.38   56.52
   2   6   5  319.11   27.07
  -2  -6  -5  361.74   13.35
  -2  -6  -5  337.28   14.63
   2  -6   5  272.92   26.09
   2   6   615069.32  491.64
   2   6   615647.29  466.24
  -2   6  -614703.34  475.40
  -2  -6  -614426.01  456.65
  -2  -6  -614689.08  460.04
   2  -6   615044.66  476.13
   2   6   7  909.71   92.27
   2   6   7  711.37   53.63
  -2  -6  -7  749.75   27.39
  -2  -6  -7  859.97   28.73
   2  -6   7  784.08   41.12
   2  -6   7  707.50   42.90
   2   6   8 8326.14  317.03
   2   6   8 8156.87  294.82
  -2   6  -8 9757.82  299.79
  -2  -6  -8 9153.27  278.95
   2  -6   8 9517.58  292.04
   2  -6   8 8461.62  301.54
   2   6   9 -215.11   73.76
   2   6   9   84.74   50.94
  -2  -6  -9   28.71   11.35
   2  -6   9   45.11   37.39
   2   6  10 5540.49  204.73
   2   6  10 4869.10  193.70
  -2   6 -10 5246.48  189.47
  -2  -6 -10 5463.67  173.90
   2  -6  10 5682.51  186.70
   2  -6  10 5192.01  188.22
   2   6  11   65.20   68.55
   2   6  11  -81.92   66.89
  -2   6 -11  177.97   35.99
  -2  -6 -11   31.04   11.74
   2  -6  11  119.15   30.60
   2   6  12 2332.17  134.07
  -2   6 -12 2772.50  109.10
  -2  -6 -12 3025.98   97.65
   2  -6  12 3194.30  116.32
   2   7   0   90.23   33.78
  -2   7   0   88.75   41.85
  -2   7   0  195.70   60.48
  -2  -7   0   14.44    8.38
  -2  -7   0   -9.39    5.20
   2  -7   0   15.35    9.47
   2   7   112482.81  404.50
   2   7   113002.92  422.79
  -2   7  -112537.95  402.65
  -2   7  -112930.54  413.34
  -2  -7  -112408.76  386.63
  -2  -7  -112142.52  383.09
   2  -7   112259.79  389.69
   2   7   2    4.31   54.41
   2   7   2  309.52   62.37
   2   7   2   29.22   11.14
  -2   7  -2  -25.90   32.08
  -2   7  -2  128.30   51.66
  -2  -7  -2   46.05   10.32
   2   7   315377.78  509.58
   2   7   315021.67  480.24
  -2   7  -316400.94  499.15
  -2   7  -316309.50  502.87
  -2  -7  -315366.55  488.53
  -2  -7  -315241.64  485.26
   2  -7   316177.34  496.72
   2   7   4   44.14   61.55
   2   7   4    6.99   16.23
  -2   7  -4  -51.35   41.42
  -2  -7  -4   17.76    7.32
   2   7   511809.33  366.74
   2   7   510910.57  338.25
  -2   7  -510060.58  350.31
  -2  -7  -510438.63  333.77
  -2  -7  -511220.89  335.11
   2  -7   510374.44  344.32
   2   7   6  853.91   79.92
   2   7   6  608.28   42.58
  -2   7  -6  416.59   47.40
  -2  -7  -6  544.75   20.11
  -2  -7  -6  471.00   21.12
   2  -7   6  453.18   30.54
   2   7   710144.03  342.28
   2   7   710002.42  328.12
  -2   7  -710121.84  333.55
  -2  -7  -7 9364.17  305.88
  -2  -7  -710298.60  315.90
   2  -7   7 9868.42  321.25
   2   7   8  147.74   87.71
   2   7   8  -28.01   42.90
  -2   7  -8   40.57   35.37
  -2  -7  -8    6.47   11.80
   2  -7   8    1.75   26.86
   2   7   9 3451.11  167.96
   2   7   9 3719.27  146.63
  -2   7  -9 3455.81  135.51
  -2  -7  -9 3888.57  119.43
   2  -7   9 3883.89  133.43
   2   7  10  165.56   72.61
   2   7  10   -8.09   49.06
  -2   7 -10   10.36   33.62
  -2  -7 -10    5.25   11.75
   2  -7  10   -8.04   30.11
   2   7  11 3112.27  156.94
   2   7  11 3052.72  149.79
  -2   7 -11 3005.62  125.20
   2  -7  11 3680.19  123.25
   2   8   0 6017.24  213.10
   2   8   0 6170.93  217.70
  -2   8   0 5866.84  213.47
  -2   8   0 6295.69  230.16
  -2  -8   0 6426.97  193.70
   2  -8   0 6259.22  195.34
   2   8   1   64.48   49.28
   2   8   1  197.99   76.21
  -2   8  -1  181.50   43.60
  -2   8  -1  213.41   63.98
  -2  -8  -1    7.01   11.38
   2  -8   1   28.83   12.07
   2   8   2 7363.84  255.89
   2   8   2 7281.88  258.92
  -2   8  -2 7146.68  237.92
  -2   8  -2 7297.38  262.03
  -2  -8  -2 7431.72  232.90
   2  -8   2 7174.31  233.59
   2   8   3 -115.87   58.87
  -2   8  -3   47.35   33.40
  -2   8  -3   -5.74   53.69
  -2  -8  -3   41.55   10.41
  -2  -8  -3   24.22   10.29
   2  -8   3   39.94   17.06
   2   8   4 5635.20  212.35
  -2   8  -4 5568.27  193.69
  -2  -8  -4 5363.89  176.23
  -2  -8  -4 5661.36  176.18
   2  -8   4 5755.07  185.12
   2   8   5  183.86   74.45
  -2   8  -5  -51.26   50.12
  -2  -8  -5   12.38    8.32
   2  -8   5   13.06   18.82
   2   8   6 4532.91  195.45
  -2   8  -6 4336.03  166.73
  -2  -8  -6 4198.73  139.08
  -2  -8  -6 4571.18  140.98
   2  -8   6 4498.62  153.26
  -2   8  -7  -19.80   46.40
   2  -8   7   39.19   22.31
   2   8   8 2134.81  136.59
  -2   8  -8 2049.23   93.70
  -2  -8  -8 2260.20   74.40
   2  -8   8 2234.07   83.67
   2   8   9  -39.57   74.13
  -2   8  -9   44.29   45.86
  -2  -8  -9   34.96   12.02
   2  -8   9   56.13   31.95
   2   8  10 1960.98  136.96
  -2   8 -10 1943.00   95.90
  -2  -8 -10 2311.38   75.07
   2  -8  10 2311.29   86.90
   2   9   0   63.82   62.59
   2   9   0  266.22   67.17
  -2   9   0   28.13   53.25
  -2   9   0  279.69   92.98
  -2  -9   0   42.74   12.21
   2  -9   0   17.19   11.21
   2   9   1 5217.68  193.17
   2   9   1 5182.66  197.83
  -2   9  -1 4756.60  176.29
  -2   9  -1 4971.68  195.38
  -2  -9  -1 5369.65  162.12
   2  -9   1 4803.69  162.47
   2   9   2  107.32   79.45
  -2   9  -2  115.61   41.91
  -2   9  -2  267.95   81.32
  -2  -9  -2   80.16   11.10
   2  -9   2   88.91   17.66
   2   9   3 5333.37  211.89
  -2   9  -3 5483.89  204.65
  -2  -9  -3 5045.67  174.05
  -2  -9  -3 5494.24  172.50
   2  -9   3 6086.61  182.39
  -2   9  -4   73.52   67.00
  -2  -9  -4  -13.44    9.40
  -2  -9  -4    3.76   10.47
  -2  -9  -5 3590.78  116.84
   2  -9   5 3392.37  116.87
   2   9   5 3572.29  163.71
  -2   9  -5 4012.95  151.04
  -2  -9  -5 3078.22  110.43
   2   9   6  163.91   95.74
  -2   9  -6   88.68   59.76
  -2  -9  -6   85.89   13.95
   2  -9   6   -8.96   22.90
   2   9   7 2506.54  158.30
  -2   9  -7 2855.06  130.08
  -2  -9  -7 3162.12  101.08
   2  -9   7 3339.50  111.72
   2   9   8 -146.89   84.18
  -2   9  -8  133.89   56.02
  -2  -9  -8    8.51   12.64
   2  -9   8    4.09   25.87
   2   9   9 2036.84  122.38
  -2   9  -9 2010.84   95.32
  -2  -9  -9 2161.87   72.16
   2  -9   9 2029.51   84.38
   2  10   0 4729.74  186.07
   2  10   0 4946.01  191.50
  -2  10   0 4059.30  166.31
  -2  10   0 4560.39  195.70
  -2 -10   0 4602.93  148.15
   2 -10   0 4527.58  149.86
   2  10   1  222.85   87.90
   2  10   1  498.61   91.99
  -2  10  -1  -40.22   48.48
  -2  10  -1  -89.68   91.81
  -2 -10  -1  102.70   12.69
   2 -10   1  111.86   15.45
   2  10   2 5086.35  200.62
  -2  10  -2 4404.96  189.19
  -2 -10  -2 4393.92  154.40
  -2 -10  -2 5046.45  158.61
   2 -10   2 5134.61  159.04
   2  10   3 -139.85   83.04
  -2  10  -3 -106.53   76.83
  -2 -10  -3   18.69   10.34
  -2 -10  -3   10.54   11.55
   2 -10   3   80.84   19.19
   2  10   4 3787.80  190.12
  -2  10  -4 3808.63  174.36
  -2 -10  -4 3710.81  130.78
  -2 -10  -4 4478.34  133.89
   2 -10   4 4327.08  138.11
   2  10   5  155.93  107.12
  -2  10  -5  -16.81   68.18
  -2 -10  -5   34.54   13.10
   2 -10   5    2.36   20.87
   2  10   6 3043.79  167.97
  -2  10  -6 3363.41  139.49
  -2 -10  -6 3577.02  114.76
   2 -10   6 3582.45  120.85
   2  10   7  -12.34   88.76
  -2 -10  -7   27.71   13.52
   2 -10   7   41.72   24.83
   2  11   0   39.56   92.46
   2  11   0 -150.96   97.35
  -2  11   0  140.81   58.91
  -2 -11   0  -15.66   13.41
   2 -11   0   21.33   15.57
   2  11   1 2117.67  134.27
   2  11   1 1938.99  144.89
  -2  11  -1 2506.12  144.14
  -2 -11  -1 2418.95   82.77
   2 -11   1 2436.45   84.21
   2  11   2   66.59   88.03
  -2  11  -2  319.88   92.57
  -2 -11  -2   12.63   11.05
   2 -11   2  -26.67   16.71
   2  11   3 1808.73  141.49
  -2  11  -3 2268.23  145.17
  -2 -11  -3 2128.62   78.06
  -2 -11  -3 2621.57   81.23
   2 -11   3 2506.36   86.79
   2  11   4 -164.04  105.15
  -2  11  -4  179.97   89.93
   2 -11   4   47.92   19.17
   2  11   5 2291.31  142.91
  -2  11  -5 1842.72  108.86
  -2 -11  -5 1840.46   68.66
   2 -11   5 1894.19   73.61
   2  12   0 1513.91  115.44
   2  12   0 1387.35  124.79
   2 -12   0 1909.86   62.13
   2  12   1   91.56   91.20
   2 -12   1   42.08   15.08
   3   0   0    3.61    2.00
  -3   0   0   15.12    3.72
   3   0   142377.51 1381.01
   3   0   148682.31 1370.30
   3   0   144182.91 1365.19
  -3   0  -144411.15 1362.19
  -3   0  -145114.98 1371.88
   3   0   2    8.08    2.29
  -3   0  -2   -1.93    4.94
  -3   0  -2   18.33    5.76
   3   0   327334.80  854.86
   3   0   330197.32  850.23
  -3   0  -326447.94  845.24
  -3   0  -327540.53  847.99
   3   0   4   21.35   10.53
  -3   0  -4    9.91    7.55
  -3   0  -4   13.28    6.05
   3   0   525956.71  800.74
   3   0   525434.87  816.20
  -3   0  -527946.18  810.76
  -3   0  -525871.84  801.22
   3   0   6  -17.20   21.61
  -3   0  -6    2.47    7.60
  -3   0  -6    5.65    7.08
   3   0   718187.96  598.28
   3   0   720383.72  601.47
  -3   0  -718775.44  599.52
  -3   0  -719511.40  585.98
   3   0   8  178.41   38.34
   3   0   911087.86  363.59
  -3   0  -910453.08  332.69
  -3   0 -10   19.25   11.89
   3   0  11 8499.53  293.63
  -3   0 -11 9178.43  280.61
  -3   0 -12   19.19   18.73
   3   0  13 3786.35  175.86
  -3   0 -13 4182.74  134.71
   3   1   041881.03 1300.35
  -3   1   041380.96 1295.47
  -3   1   044296.22 1309.48
  -3  -1   042076.47 1287.97
  -3  -1   042573.61 1297.16
   3  -1   044052.00 1333.54
   3   1   1  618.81   19.20
  -3   1  -1  577.60   19.93
  -3   1  -1  575.43   20.13
  -3  -1  -1  610.36   19.49
  -3  -1  -1  635.46   20.59
   3  -1   1  545.15   19.02
   3  -1   1  582.15   20.38
   3   1   226530.54  815.37
  -3   1  -228594.35  838.87
  -3   1  -225710.78  810.94
  -3   1  -226506.34  813.83
  -3  -1  -226424.21  799.33
  -3  -1  -226885.63  810.60
   3  -1   225907.40  820.69
   3   1   3   16.74    5.33
  -3   1  -3   26.83   14.90
  -3   1  -3   15.32    6.01
  -3  -1  -3   22.68    5.75
  -3  -1  -3    4.05    6.85
   3  -1   3    0.95    1.60
   3  -1   3   14.45    7.73
   3   1   416109.67  481.67
   3   1   415581.51  477.47
  -3   1  -415754.24  475.75
  -3   1  -414984.69  474.69
  -3  -1  -415608.13  471.12
   3  -1   415248.00  479.98
   3  -1   415311.15  481.57
   3   1   5  -28.17   11.52
   3   1   5    1.90   13.00
  -3   1  -5    3.56    7.18
  -3  -1  -5   17.08    5.62
  -3  -1  -5   14.00    6.75
   3  -1   5   24.32   16.49
   3   1   619591.17  594.73
   3   1   620408.72  604.60
  -3   1  -618730.76  590.70
  -3   1  -618085.69  584.94
  -3  -1  -619712.77  596.00
  -3  -1  -618649.77  577.51
   3  -1   617966.84  576.32
   3  -1   619339.76  606.26
   3   1   7  117.43   30.54
  -3   1  -7   16.87   11.18
  -3   1  -7   -4.59   10.14
  -3  -1  -7   -2.67    7.20
   3  -1   7  138.45   32.84
   3   1   8 8188.66  290.27
   3   1   8 9750.66  299.39
  -3   1  -8 8667.64  284.24
  -3   1  -8 8988.89  277.60
  -3  -1  -8 8652.72  281.31
  -3  -1  -8 9185.96  274.45
   3  -1   8 9100.73  307.44
   3   1   9  -53.70   43.26
  -3   1  -9   10.08   10.68
  -3  -1  -9   44.21    9.82
   3  -1   9   65.35   41.68
   3   1  10 8467.14  294.20
  -3   1 -10 8810.29  270.32
  -3  -1 -10 9106.04  267.07
   3  -1  10 7897.24  288.33
   3   1  11  -94.16   53.86
  -3  -1 -11   23.46   13.13
   3  -1  11   31.33   60.70
   3   1  12 4125.21  173.25
  -3   1 -12 4414.72  143.13
  -3  -1 -12 4803.76  141.16
   3  -1  12 3550.37  175.30
  -3   1 -13   -1.88   19.51
  -3  -1 -13   41.55   17.41
   3  -1  13 -100.55   77.63
   3   2   0   44.40    3.93
   3   2   0   41.34    6.42
  -3   2   0   74.01    8.73
  -3   2   0   37.39    5.53
  -3  -2   0   51.44    3.58
  -3  -2   0   54.21    5.41
  -3  -2   0   60.75    6.03
   3   2   129546.23  907.49
  -3   2  -129471.87  914.01
  -3   2  -130831.59  946.03
  -3   2  -129354.34  910.66
  -3   2  -130680.08  907.15
  -3  -2  -128757.99  905.30
  -3  -2  -129750.13  900.52
   3   2   2  347.22   14.21
  -3   2  -2  448.11   15.50
  -3   2  -2  423.77   15.52
  -3  -2  -2  341.37   13.81
  -3  -2  -2  353.28   14.46
   3  -2   2  418.19   13.17
   3   2   311315.40  356.42
  -3   2  -311606.38  361.88
  -3   2  -311256.08  356.70
  -3  -2  -312752.59  359.88
  -3  -2  -311283.43  350.76
  -3  -2  -311347.27  349.57
   3  -2   311510.66  356.48
   3  -2   311328.25  362.51
   3   2   4   -9.71   11.25
   3   2   4  -18.51    8.34
  -3   2  -4   29.31    8.28
  -3  -2  -4   14.34    5.38
   3  -2   4    3.86    1.49
   3  -2   4    6.23   12.80
   3   2   515851.47  495.91
   3   2   515309.48  476.25
  -3   2  -515746.32  483.62
  -3   2  -515443.58  481.07
  -3  -2  -516310.61  487.99
  -3  -2  -515279.59  474.58
   3  -2   514933.86  476.75
   3  -2   516221.10  502.13
   3   2   6  279.82   31.56
   3   2   6  167.61   20.95
  -3   2  -6  262.64   17.64
  -3   2  -6  216.91   14.11
  -3  -2  -6  176.27    8.65
   3  -2   6  232.58   28.17
   3   2   710574.70  360.22
   3   2   711374.22  345.00
  -3   2  -710845.39  342.56
  -3   2  -711034.54  337.94
  -3  -2  -710395.27  342.05
  -3  -2  -710464.14  330.69
   3  -2   711611.06  373.78
   3   2   8   69.61   47.51
   3   2   8  164.06   37.13
  -3   2  -8   45.76   15.35
  -3   2  -8   55.12   12.27
  -3  -2  -8   51.82    8.85
   3   2   9 6640.82  222.25
  -3   2  -9 6222.66  209.74
  -3   2  -9 6292.88  205.29
  -3  -2  -9 6874.76  206.64
   3  -2   9 6284.29  232.20
   3   2  10   51.27   51.05
  -3   2 -10  102.15   16.54
  -3  -2 -10   57.52   11.84
   3   2  11 5949.28  221.22
  -3   2 -11 6546.43  199.21
  -3  -2 -11 6239.07  190.49
   3  -2  11 5373.93  222.40
   3   2  12  -52.06   58.56
  -3   2 -12   -8.20   16.37
  -3  -2 -12   39.59   15.21
   3  -2  12  -35.38   56.70
   3   2  13 2102.10  122.09
  -3   2 -13 2529.54   87.19
  -3  -2 -13 2347.16   79.46
   3  -2  13 2058.87  118.13
   3   3   025057.17  760.33
   3   3   024963.16  761.81
  -3   3   024623.48  769.10
  -3   3   024271.92  791.14
  -3   3   026719.17  761.62
  -3  -3   024867.64  767.88
  -3  -3   025264.63  766.74
   3  -3   024150.96  770.52
   3   3   1 1922.41   62.78
   3   3   1 2107.67   68.91
  -3   3  -1 1952.65   69.95
  -3   3  -1 2013.18   79.50
  -3   3  -1 2063.03   63.48
  -3  -3  -1 1877.51   63.26
  -3  -3  -1 1907.07   62.30
   3   3   217846.46  558.91
  -3   3  -218584.76  564.49
  -3   3  -219075.39  568.63
  -3   3  -218798.74  566.75
  -3  -3  -219315.27  561.24
  -3  -3  -217725.29  558.14
  -3  -3  -218029.66  558.78
   3  -3   217182.58  570.64
   3   3   3  144.51   14.19
  -3   3  -3  159.12   13.20
  -3  -3  -3  192.57    6.76
  -3  -3  -3  174.49    8.86
  -3  -3  -3  168.33    9.40
   3  -3   3  160.56   13.06
   3   3   420104.62  624.97
   3   3   419800.52  612.52
  -3   3  -420270.12  627.23
  -3   3  -420085.51  625.45
  -3  -3  -421089.79  616.31
  -3  -3  -419552.06  616.12
   3  -3   420189.66  622.77
   3  -3   420789.63  645.94
   3   3   5  126.42   28.32
   3   3   5  215.75   17.45
  -3   3  -5  216.41   21.13
  -3   3  -5  146.36   14.31
  -3  -3  -5  220.24    8.35
  -3  -3  -5  214.61   11.17
   3  -3   5  131.32   25.97
   3   3   622022.61  675.18
   3   3   621845.84  655.35
  -3   3  -621518.48  662.58
  -3   3  -621045.62  658.98
  -3  -3  -621622.58  663.84
  -3  -3  -620072.18  650.31
   3  -3   621463.92  700.71
   3   3   7   33.97   44.58
   3   3   7   32.96   26.79
  -3   3  -7   75.48   17.97
  -3   3  -7  110.24   15.50
  -3  -3  -7   39.94    8.68
   3  -3   7   16.56   34.14
   3   3   8 7453.87  274.17
   3   3   8 8866.42  266.61
  -3   3  -8 7745.02  258.93
  -3   3  -8 8401.88  259.71
  -3  -3  -8 8115.28  249.78
   3  -3   8 7877.83  279.90
   3   3   9  150.30   64.09
   3   3   9   80.46   46.92
  -3   3  -9   71.49   20.64
  -3  -3  -9    3.96   11.53
   3  -3   9 -147.69   47.88
   3   3  10 8282.61  276.23
  -3   3 -10 7863.14  269.19
  -3   3 -10 8535.29  264.08
  -3  -3 -10 8418.83  259.62
   3   3  11  -16.24   63.91
  -3   3 -11   42.29   19.72
  -3  -3 -11   12.83   12.97
   3  -3  11  145.65   60.41
  -3   3 -12 3982.50  131.98
  -3  -3 -12 3733.39  122.15
   3  -3  12 3594.33  163.52
  -3  -3 -13  -10.69   12.18
   3  -3  13   15.15   59.65
   3   4   0   58.31    7.57
   3   4   0   56.49   17.28
  -3   4   0   14.25   14.79
  -3   4   0  -37.91   46.91
  -3   4   0   57.02    5.00
  -3  -4   0   39.70    6.61
  -3  -4   0   43.37    5.60
   3  -4   0   23.18    8.46
   3   4   116473.41  505.85
   3   4   117276.28  517.76
  -3   4  -116582.61  509.33
  -3   4  -117590.18  522.61
  -3  -4  -116077.52  504.78
  -3  -4  -116502.91  503.82
   3  -4   116065.40  515.23
   3  -4   115546.91  515.28
   3   4   2  120.27   13.16
  -3   4  -2  196.15   14.23
  -3   4  -2  278.33   34.89
  -3  -4  -2  163.73    7.07
  -3  -4  -2  169.85    8.55
  -3  -4  -2  159.43   10.50
   3  -4   2  202.27   15.26
   3  -4   2  159.30   12.06
   3   4   320816.95  652.95
  -3   4  -321144.53  649.00
  -3   4  -321289.17  659.10
  -3  -4  -321737.69  644.32
  -3  -4  -320441.82  644.66
  -3  -4  -321635.05  643.65
   3  -4   321571.25  662.83
   3  -4   320530.65  665.59
   3   4   4  293.12   30.91
   3   4   4  404.90   18.65
  -3   4  -4  362.74   34.71
  -3   4  -4  343.18   19.55
  -3  -4  -4  378.55   12.84
  -3  -4  -4  371.42   15.25
   3   4   519493.51  599.16
   3   4   518725.76  574.59
  -3   4  -518944.02  587.23
  -3   4  -518832.22  590.07
  -3  -4  -519354.69  578.24
  -3  -4  -518710.75  576.28
   3  -4   517713.39  615.29
   3   4   6  103.36   41.19
   3   4   6  -22.25   19.84
  -3   4  -6   45.63   15.32
  -3  -4  -6   55.33    8.56
   3   4   711063.84  369.38
   3   4   712148.85  349.09
  -3   4  -710201.10  347.18
  -3   4  -711080.27  349.14
  -3  -4  -710931.09  336.93
   3  -4   710190.75  361.45
   3   4   8  187.85   58.48
  -3   4  -8   26.91   25.12
  -3   4  -8  -13.35   18.81
   3  -4   8  118.06   42.87
   3   4   9 5073.21  203.86
  -3   4  -9 5587.38  189.93
  -3   4  -9 5434.43  181.63
  -3  -4  -9 6194.16  177.30
   3  -4   9 5482.91  208.13
   3   4  10  108.63   48.27
  -3   4 -10  -18.67   22.48
  -3   4 -10  -48.80   20.18
   3   4  11 4721.69  184.46
  -3   4 -11 5100.11  165.72
  -3  -4 -11 5154.06  156.65
   3  -4  11 4281.85  178.32
   3   4  12   21.31   62.64
  -3  -4 -12   35.30   13.60
   3  -4  12    4.50   56.30
   3   5   015079.72  462.92
   3   5   015621.12  478.47
  -3   5   014896.64  465.93
  -3   5   014583.67  482.66
  -3  -5   015025.47  462.77
  -3  -5   015118.99  465.07
   3   5   1   42.47   14.97
   3   5   1   52.53   27.68
  -3   5  -1  165.94   50.90
  -3  -5  -1   52.20    7.71
  -3  -5  -1   29.71    6.39
   3  -5   1  -10.97   11.23
   3  -5   1   25.52    8.36
   3   5   219444.50  582.12
   3   5   219568.82  608.62
  -3   5  -219579.13  582.78
  -3   5  -218328.33  592.80
  -3  -5  -218532.67  575.86
  -3  -5  -218830.42  572.45
   3  -5   217621.45  592.46
   3  -5   218357.49  584.95
   3   5   3  856.11   41.87
  -3   5  -3  717.33   31.12
  -3  -5  -3  810.01   26.21
  -3  -5  -3  764.68   27.38
  -3  -5  -3  772.59   27.97
   3  -5   3  801.95   32.82
   3  -5   3  750.88   35.44
   3   5   412535.91  384.68
   3   5   412434.11  369.63
  -3   5  -412200.18  372.46
  -3   5  -411735.17  381.65
  -3  -5  -411796.47  367.59
  -3  -5  -411584.65  369.35
   3  -5   411646.23  382.90
   3   5   5  144.15   42.78
   3   5   5   19.41   15.76
  -3  -5  -5   72.73    5.93
  -3  -5  -5   62.37    9.80
   3  -5   5   88.63   20.86
   3  -5   5   13.12   30.82
   3   5   6 9905.81  346.92
   3   5   610166.96  318.23
  -3   5  -610578.54  326.23
  -3  -5  -610152.86  317.20
   3  -5   610915.13  330.41
   3  -5   6 9326.63  345.91
   3   5   7  -29.56   28.78
  -3  -5  -7   21.40    9.51
   3   5   8 4881.12  181.84
   3   5   8 4434.33  160.36
  -3   5  -8 4387.78  156.27
  -3  -5  -8 4907.67  147.04
   3  -5   8 4361.83  170.28
   3   5   9   63.39   76.08
   3   5   9   59.93   47.19
  -3   5  -9   14.07   27.86
  -3  -5  -9   24.31   11.89
   3   5  10 3999.23  180.20
   3   5  10 4533.24  170.21
  -3   5 -10 4229.16  153.30
  -3  -5 -10 4818.86  141.81
   3  -5  10 4244.50  165.73
   3   5  11   17.86   62.50
  -3  -5 -11   -9.98   13.08
   3  -5  11   69.32   45.23
   3   5  12 1493.06  104.73
   3  -5  12 1844.45   86.32
   3   6   0   63.98   21.25
  -3   6   0  263.17   65.31
  -3  -6   0   42.01    9.17
  -3  -6   0   24.12    7.05
   3  -6   0   49.42   11.64
   3   6   114383.33  446.00
   3   6   114799.07  468.46
  -3   6  -114638.12  445.77
  -3   6  -113668.57  462.13
  -3  -6  -113831.90  441.52
  -3  -6  -114360.57  443.84
   3  -6   114299.84  451.70
   3   6   2  278.43   35.42
   3   6   2  444.32   55.12
  -3   6  -2  245.01   26.27
  -3   6  -2  373.33   57.59
  -3  -6  -2  339.92   14.74
  -3  -6  -2  355.99   14.81
   3  -6   2  239.61   20.82
   3   6   313093.27  424.44
  -3   6  -313328.36  412.43
  -3   6  -313418.40  420.74
  -3  -6  -312870.83  408.35
  -3  -6  -312972.83  406.99
   3  -6   313201.69  418.44
   3   6   4  173.44   48.66
   3   6   4   68.06   15.63
  -3  -6  -4  108.01    7.42
  -3  -6  -4  118.95   11.05
   3  -6   4  200.25   22.59
   3   6   5 8967.11  301.61
   3   6   5 9324.56  283.03
  -3   6  -5 8435.39  288.88
  -3  -6  -5 8705.77  273.36
   3  -6   5 8808.87  290.23
   3   6   6    3.52   68.75
   3   6   6  103.55   25.46
  -3   6  -6   68.68   37.28
  -3  -6  -6   98.47    9.66
   3  -6   6   81.35   22.34
   3   6   7 7794.12  290.39
   3   6   7 8342.29  267.56
  -3   6  -7 7875.64  276.27
  -3  -6  -7 8329.62  258.47
   3  -6   7 8836.84  272.57
   3   6   8  253.89   74.76
   3   6   8  131.59   53.66
  -3  -6  -8   48.49   12.28
   3  -6   8  115.77   28.28
   3   6   9 4439.81  185.49
   3   6   9 4696.16  172.63
  -3   6  -9 4393.42  160.23
  -3  -6  -9 4903.57  151.88
   3  -6   9 4902.33  166.29
   3   6  10  295.27   79.89
   3   6  10   78.67   56.95
  -3   6 -10  141.08   35.49
  -3  -6 -10  160.20   14.33
   3  -6  10  -14.37   37.45
   3   6  11 3394.67  149.76
  -3  -6 -11 3620.20  116.32
   3  -6  11 3658.09  135.71
   3   7   0 8082.13  258.14
   3   7   0 7951.72  264.19
  -3   7   0 7638.97  257.03
  -3   7   0 8144.17  280.38
  -3  -7   0 7939.06  249.13
  -3  -7   0 8308.86  245.47
   3  -7   0 7353.91  249.61
   3   7   1   54.27   32.16
   3   7   1   37.79   51.30
  -3   7  -1  137.78   73.19
  -3  -7  -1    3.92    8.26
  -3  -7  -1  -12.19    7.32
   3  -7   1   58.29   13.56
   3   7   2 9544.01  309.63
   3   7   2 9368.76  333.51
  -3   7  -2 9628.84  306.48
  -3   7  -2 9846.91  319.78
  -3  -7  -2 9600.05  294.93
  -3  -7  -2 9327.02  296.31
   3  -7   2 9697.58  308.43
   3   7   3   -5.34   52.14
  -3   7  -3  -19.14   55.20
  -3  -7  -3    1.35    7.36
  -3  -7  -3   25.22   10.54
   3  -7   3  -27.55   16.44
   3   7   4 6101.89  221.31
   3   7   4 6465.20  197.09
  -3   7  -4 5918.98  215.66
  -3  -7  -4 6099.71  193.86
  -3  -7  -4 6507.07  196.99
   3  -7   4 6091.68  204.48
   3   7   5   91.56   59.78
   3   7   5   -3.13   21.60
  -3   7  -5  140.27   49.79
  -3  -7  -5  -18.24   10.47
   3   7   6 8119.78  287.25
   3   7   6 7726.25  251.03
  -3   7  -6 7358.50  265.35
  -3  -7  -6 8438.00  246.03
   3  -7   6 7665.57  258.96
   3   7   7  -43.83   72.71
   3   7   7   82.43   38.07
  -3   7  -7   93.46   46.64
  -3  -7  -7   45.92   11.70
   3  -7   7   43.67   23.67
   3   7   8 3444.70  156.04
   3   7   8 3380.55  142.25
  -3   7  -8 3189.55  132.76
  -3  -7  -8 4051.39  118.52
   3  -7   8 3893.63  132.12
   3   7   9   96.39   93.57
  -3   7  -9    9.05   44.15
  -3  -7  -9  -15.38   11.56
   3  -7   9   73.46   30.43
   3   7  10 2857.25  156.27
   3   7  10 2824.61  130.76
  -3   7 -10 2945.07  124.41
  -3  -7 -10 3619.79  112.47
   3  -7  10 3553.19  123.43
   3   8   0   93.30   37.28
   3   8   0  -40.44   52.19
  -3   8   0  -18.57   35.11
  -3   8   0  -22.97   78.58
  -3  -8   0   18.43   11.63
  -3  -8   0    3.48    6.81
   3  -8   0   -6.64   10.63
   3   8   1 6818.21  219.95
   3   8   1 7239.35  243.21
  -3   8  -1 6852.90  217.33
  -3   8  -1 6224.75  238.68
  -3  -8  -1 6555.65  209.41
  -3  -8  -1 5984.51  201.54
   3  -8   1 6234.19  208.54
   3   8   2   56.59   44.57
   3   8   2    6.93   67.51
  -3   8  -2  -47.51   66.69
   3  -8   2  -10.93   15.23
   3   8   3 4896.95  179.98
   3   8   3 4821.24  156.00
  -3   8  -3 5338.52  190.88
  -3  -8  -3 4543.66  154.83
  -3  -8  -3 4763.56  154.82
   3  -8   3 5187.33  166.82
   3   8   4   41.97   60.34
   3   8   4   -7.02   16.53
  -3   8  -4   46.52   59.81
   3   8   5 3837.44  167.22
   3   8   5 3762.00  132.23
  -3   8  -5 3790.31  156.59
  -3  -8  -5 4398.91  129.21
   3  -8   5 4247.46  143.76
   3   8   6   12.47   32.99
  -3  -8  -6    6.54   10.62
   3  -8   6  -36.34   24.91
   3   8   7 2709.83  159.57
   3   8   7 2598.82  119.32
  -3   8  -7 3318.17  126.94
  -3  -8  -7 3092.76  103.32
   3  -8   7 3337.53  112.86
   3   8   8   68.57   82.74
  -3   8  -8   80.77   49.55
  -3  -8  -8   36.60   11.74
   3  -8   8   71.87   30.16
   3   8   9 1859.85  141.77
  -3   8  -9 1586.88   94.86
  -3  -8  -9 2170.80   68.15
   3  -8   9 2030.20   82.75
   3   9   0 6088.16  219.89
   3   9   0 6464.84  227.52
  -3   9   0 5680.51  209.95
  -3   9   0 6325.72  239.93
  -3  -9   0 6376.41  199.02
   3  -9   0 6106.55  195.90
   3   9   1   40.63   76.57
  -3   9  -1    1.81   37.67
  -3  -9  -1    7.04   12.57
   3  -9   1   53.39   13.47
   3   9   2 5720.10  231.14
  -3   9  -2 5761.69  226.37
  -3  -9  -2 6305.41  193.95
   3  -9   2 6197.16  197.11
   3   9   3  167.46   65.44
  -3   9  -3   15.22   74.90
  -3  -9  -3   53.96   10.60
   3   9   4 3639.84  164.43
  -3   9  -4 3795.70  162.13
  -3  -9  -4 4055.25  130.63
   3  -9   4 3995.96  136.31
   3   9   5   47.75   82.06
  -3   9  -5   94.18   66.49
  -3  -9  -5  121.70   14.53
   3   9   6 3738.37  183.44
  -3   9  -6 3349.66  149.23
  -3  -9  -6 3677.23  119.78
   3  -9   6 3789.40  131.38
   3   9   7  -85.08   92.02
  -3   9  -7  -25.50   59.12
  -3  -9  -7   21.28   12.63
   3  -9   7   -2.85   22.68
  -3   9  -8 2197.09  105.42
  -3  -9  -8 2442.17   81.05
   3  -9   8 2316.15   90.51
   3  10   0  117.69   83.25
   3  10   0  258.81   80.86
  -3  10   0  192.08   50.19
  -3  10   0  256.84   84.58
   3  10   1 3142.49  154.25
   3  10   1 3103.32  158.75
  -3  10  -1 3377.04  162.32
  -3 -10  -1 3769.03  110.67
   3 -10   1 3332.34  113.19
   3  10   2   93.79   92.63
   3 -10   2    8.04   14.57
   3  10   3 3124.91  161.73
  -3  10  -3 3302.31  165.94
  -3 -10  -3 3815.19  115.64
   3 -10   3 3478.48  122.96
   3  10   4 -198.73   88.90
  -3  10  -4  203.45   89.19
  -3 -10  -4   40.37   12.58
   3 -10   4   55.47   21.76
   3  10   5 2557.67  149.77
  -3  10  -5 2689.14  136.51
  -3 -10  -5 3011.15   93.67
   3 -10   5 2636.59   98.74
   3  10   6  -40.11   93.58
  -3  10  -6  139.31   64.77
  -3 -10  -6   31.73   14.27
   3 -10   6   49.62   23.29
   3  11   0 1362.54  114.98
   3  11   0 1758.22  115.32
  -3  11   0 1350.74   75.13
  -3 -11   0 1594.54   59.71
   3 -11   0 1633.69   58.88
   3 -11   0 1644.79   58.40
   3  11   1  280.69   87.45
  -3  11  -1  166.31  109.01
  -3 -11  -1   35.25   11.07
   3  11   2 1720.16  120.89
  -3  11  -2 1600.40  137.09
  -3 -11  -2 1904.30   67.40
   3 -11   2 2066.64   70.01
   3  11   3  -42.74   82.85
  -3  11  -3  132.35   99.42
  -3 -11  -3    9.42   12.19
   3 -11   3   11.24   17.40
  -3  11  -4 1512.02  116.52
   3 -11   4 1520.17   60.16
   4   0   013740.19  431.22
   4   0   014098.49  424.04
  -4   0   014013.24  423.51
  -4   0   014058.54  431.71
  -4   0  -1   -5.07    4.17
   4   0   214807.68  459.72
   4   0   214215.80  447.56
  -4   0  -214931.29  451.19
  -4   0  -215318.76  455.49
   4   0   3    9.96    3.17
  -4   0  -3    3.99    5.21
  -4   0  -3   40.01    7.89
   4   0   427069.56  813.40
   4   0   426131.36  817.35
  -4   0  -426108.77  801.29
   4   0   5    3.02    6.43
   4   0   5   13.04   13.90
  -4   0  -5    0.07    7.98
   4   0   614864.31  465.95
   4   0   615954.83  492.58
  -4   0  -614806.22  466.78
   4   0   7    4.35   28.39
  -4   0  -7   -2.88    9.35
   4   0   812712.33  392.62
  -4   0  -811450.10  371.59
  -4   0  -9   -6.67   11.22
   4   0  10 6943.62  246.39
  -4   0 -10 7394.28  227.73
   4   0  12 2924.34  139.60
  -4   0 -12 3644.56  113.40
  -4   1   0  148.43    6.08
  -4   1   0  104.05    6.96
  -4  -1   0   62.98    3.97
  -4  -1   0  109.75    7.01
   4  -1   0  125.87    4.61
   4  -1   0  129.85    5.89
   4   1   117512.42  556.08
  -4   1  -117988.45  554.87
  -4   1  -118992.38  554.61
  -4  -1  -117530.80  544.09
  -4  -1  -118049.18  551.72
   4  -1   117985.05  557.57
   4  -1   119035.24  571.12
   4   1   2  397.77   13.68
  -4   1  -2  385.63   14.38
  -4   1  -2  375.54   14.79
  -4  -1  -2  398.28   14.13
  -4  -1  -2  362.65   15.16
   4  -1   2  374.44   12.82
   4   1   319974.09  604.52
  -4   1  -319678.12  621.99
  -4   1  -319049.52  596.72
  -4   1  -319508.80  601.09
  -4  -1  -319794.43  587.17
  -4  -1  -319357.89  592.92
   4  -1   319537.29  605.25
   4   1   4   73.57    7.61
  -4   1  -4   18.42    7.42
   4  -1   4   44.80    3.65
   4  -1   4   38.92   13.73
   4   1   517292.93  529.81
   4   1   518033.68  525.47
  -4   1  -516299.01  522.40
  -4   1  -517233.81  527.22
  -4  -1  -516768.77  521.05
   4  -1   517117.38  528.08
   4  -1   516887.18  539.96
   4   1   6   47.55   17.72
   4   1   6   -7.89   19.56
  -4   1  -6   -5.33    9.72
  -4  -1  -6   46.92    9.11
   4  -1   6   24.39    8.13
   4  -1   6  -18.15   25.98
   4   1   7 8482.47  286.13
   4   1   7 9398.92  287.37
  -4   1  -7 8504.17  277.45
  -4  -1  -7 8823.07  274.40
   4  -1   7 8796.33  285.92
   4   1   8  157.12   38.13
  -4   1  -8   56.85   14.94
  -4  -1  -8   64.92    9.34
   4  -1   8  158.84   42.07
   4   1   9 8855.30  301.43
  -4   1  -9 9061.13  277.53
  -4  -1  -9 8878.17  273.41
   4  -1   9 8481.01  296.45
  -4   1 -10   53.67   16.66
  -4  -1 -10   74.46   11.66
   4  -1  10  -67.68   53.90
   4   1  11 3244.81  146.77
  -4   1 -11 3964.56  124.69
  -4  -1 -11 4009.70  121.80
   4  -1  11 3450.77  151.28
   4   1  12 -119.18   57.98
  -4   1 -12   75.60   18.32
  -4  -1 -12   46.21   17.79
   4  -1  12   27.75   72.92
   4   2   025112.10  791.00
   4   2   025119.37  793.42
  -4   2   025759.06  806.87
  -4   2   026486.04  796.64
  -4   2   027011.45  793.37
  -4  -2   025722.17  791.96
  -4  -2   026248.92  789.13
   4  -2   026895.41  812.40
  -4   2  -1    0.40    5.49
   4  -2   1   13.79    2.03
   4  -2   1   19.91    4.38
   4   2   217916.90  542.52
  -4   2  -217596.67  577.34
  -4   2  -217546.41  544.95
  -4   2  -217928.93  543.50
  -4  -2  -218011.64  535.24
  -4  -2  -217992.72  538.27
   4  -2   217138.72  541.29
   4   2   3  101.67    8.99
  -4  -2  -3  108.33    8.93
   4  -2   3   91.76    4.02
   4  -2   3  105.54    9.85
   4   2   416225.51  503.99
  -4   2  -415631.82  501.39
  -4   2  -415936.88  500.44
  -4  -2  -415849.14  492.37
   4  -2   416537.99  500.55
   4  -2   416654.79  505.39
   4   2   5   14.73   14.05
  -4   2  -5  -64.52   22.61
  -4   2  -5   21.19   10.92
  -4  -2  -5    1.32    7.69
   4  -2   5    8.75    3.38
   4  -2   5   72.18   18.12
   4   2   6 8393.68  283.27
   4   2   6 8835.73  275.88
  -4   2  -6 8242.78  273.48
  -4   2  -6 8793.18  276.26
  -4  -2  -6 8763.45  268.86
   4  -2   6 9201.15  289.81
   4   2   7   77.44   28.89
   4   2   7  -10.90   27.76
  -4   2  -7    7.59   11.57
  -4  -2  -7   12.16    8.42
   4   2   8 7046.22  234.07
  -4   2  -8 7372.75  227.73
  -4  -2  -8 6895.45  221.94
   4  -2   8 7274.19  258.59
   4   2   9   20.35   43.64
  -4   2  -9   -1.64   15.55
  -4  -2  -9   -4.02    9.21
   4  -2   9  -96.11   47.56
   4   2  10 5576.53  209.26
  -4   2 -10 6134.03  190.84
  -4  -2 -10 5989.89  185.05
   4  -2  10 5642.63  210.21
  -4   2 -11  -13.44   18.80
  -4  -2 -11   44.13   14.43
   4  -2  11  146.26   50.40
   4   2  12 2461.35  130.95
  -4   2 -12 2875.34   97.84
  -4  -2 -12 2694.60   89.60
   4   3   0   55.99    5.70
   4   3   0  104.08   10.11
  -4   3   0   49.61   12.31
  -4   3   0   80.21    5.78
  -4  -3   0   68.35    6.31
  -4  -3   0   46.67    7.17
   4  -3   0  100.87   10.32
   4   3   117536.26  550.17
   4   3   117393.64  559.70
  -4   3  -118228.28  556.04
  -4   3  -118735.17  560.62
  -4   3  -119064.26  552.14
  -4  -3  -117527.94  551.89
  -4  -3  -118058.45  549.03
  -4   3  -2   15.75   40.30
  -4   3  -2   62.47   10.61
  -4   3  -2   69.25    6.93
  -4  -3  -2   37.07    7.66
   4   3   315563.38  466.85
  -4   3  -314774.17  484.64
  -4   3  -314861.30  471.34
  -4  -3  -315822.25  467.55
  -4  -3  -315574.05  469.54
   4  -3   314942.16  464.96
   4  -3   314740.88  475.60
   4   3   4   25.94   16.04
  -4   3  -4   68.53   12.29
  -4  -3  -4   19.64    7.89
   4  -3   4   49.65    3.01
   4  -3   4   28.71   13.47
   4   3   514588.69  456.85
   4   3   514921.11  444.95
  -4   3  -513968.81  456.39
  -4   3  -514606.83  458.32
  -4  -3  -514125.55  447.95
   4  -3   514981.18  472.30
   4   3   6   -7.60   31.86
   4   3   6   16.47   18.06
  -4   3  -6   -3.30   14.16
  -4  -3  -6   19.72    9.95
   4  -3   6  -19.49   23.31
   4   3   7 7854.25  263.92
   4   3   7 8429.75  252.68
  -4   3  -7 7121.08  252.00
  -4   3  -7 7785.36  247.13
  -4  -3  -7 7924.27  245.08
   4  -3   7 8246.58  289.38
   4   3   8  134.74   52.10
   4   3   8  145.27   38.17
  -4   3  -8   74.28   18.48
   4   3   9 8537.62  286.25
  -4   3  -9 8532.36  275.30
  -4  -3  -9 8522.16  269.28
   4   3  10  -39.15   61.48
  -4   3 -10   48.77   22.70
  -4  -3 -10   42.47   13.03
   4  -3  10  120.80   53.02
   4   3  11 3865.98  160.15
  -4   3 -11 4292.57  144.45
  -4  -3 -11 4542.31  134.72
   4  -3  11 3440.87  160.47
   4   3  12  -44.53   63.09
  -4   3 -12   47.89   26.01
   4  -3  12  -66.04   65.93
   4   4   016859.32  512.96
   4   4   016912.96  520.71
  -4   4   016441.34  524.97
  -4   4   017887.67  514.81
  -4  -4   016129.59  516.94
  -4  -4   016680.47  519.55
   4  -4   017117.05  521.48
   4  -4   016643.50  524.42
   4   4   1  215.49   11.60
  -4   4  -1  149.32   16.21
  -4   4  -1   77.73   42.62
  -4   4  -1  173.59    8.98
  -4  -4  -1  231.49   11.29
  -4  -4  -1  210.52   11.70
   4  -4   1  139.88   14.52
   4   4   213279.81  407.01
  -4   4  -213585.00  410.34
  -4   4  -212614.86  425.33
  -4  -4  -213548.61  403.17
  -4  -4  -213030.48  404.28
  -4  -4  -213307.79  405.97
   4  -4   213366.00  418.19
   4  -4   212734.99  411.87
   4   4   3  445.03   21.03
  -4  -4  -3  362.78   16.05
  -4  -4  -3  358.47   16.15
   4  -4   3  396.93   20.68
   4   4   415302.92  467.17
   4   4   416151.28  458.66
  -4   4  -414065.94  469.18
  -4   4  -415330.87  471.50
  -4  -4  -414546.74  458.22
   4  -4   414778.98  455.82
   4  -4   414054.50  471.24
   4   4   5  104.48   29.87
   4   4   5   76.06   16.60
  -4   4  -5   30.83   33.83
  -4   4  -5   26.28   18.94
  -4  -4  -5   45.86    9.63
   4  -4   5   80.02   27.12
   4   4   6 8736.39  286.14
   4   4   6 9019.79  269.98
  -4   4  -6 7907.35  276.82
  -4   4  -6 8533.88  274.50
  -4  -4  -6 8586.46  264.21
   4  -4   6 8329.09  299.19
   4   4   7   77.04   47.44
   4   4   7  -22.12   28.72
  -4   4  -7   23.41   30.12
  -4   4  -7   41.46   19.14
  -4  -4  -7   26.14    9.96
   4  -4   7  163.15   42.29
   4   4   8 5466.52  216.68
   4   4   8 6755.81  202.32
  -4   4  -8 5585.48  196.11
  -4   4  -8 6417.96  197.56
   4  -4   8 5457.55  210.07
   4   4   9  112.99   42.93
  -4  -4  -9   43.41   13.53
   4  -4   9  -48.70   44.56
   4   4  10 5445.58  212.20
  -4   4 -10 5548.35  188.83
  -4  -4 -10 5723.97  178.88
   4   4  11  -14.57   58.77
  -4   4 -11   -3.68   24.25
  -4  -4 -11    3.99   14.20
   4  -4  11  -63.29   61.11
   4   5   0   69.44   29.02
  -4   5   0   50.22   17.36
  -4  -5   0   19.27    7.23
  -4  -5   0   34.10    8.43
   4  -5   0   51.30    9.07
   4  -5   0   46.39    9.43
   4   5   112387.16  386.97
   4   5   112118.75  404.03
  -4   5  -112903.44  395.30
  -4   5  -113128.76  418.65
  -4  -5  -112217.55  384.58
  -4  -5  -112944.27  390.57
   4  -5   113115.27  399.20
   4  -5   111899.64  390.44
   4   5   2  113.93   17.51
  -4   5  -2   93.45   16.94
  -4   5  -2  173.12   59.30
  -4  -5  -2  147.02   10.00
  -4  -5  -2  140.54   10.64
   4  -5   2  110.66   16.60
   4  -5   2   89.37   11.88
   4   5   313618.75  403.56
  -4   5  -313472.71  402.75
  -4   5  -312929.39  423.07
  -4  -5  -313025.58  399.37
  -4  -5  -313097.31  400.39
   4  -5   312849.31  412.40
   4  -5   311641.54  404.89
   4   5   4   49.84   24.51
   4   5   4   31.93   12.78
  -4   5  -4   45.20   44.39
  -4  -5  -4   28.49    9.74
   4  -5   4   43.80   18.85
   4  -5   4   72.61   19.72
   4   5   5 7918.09  268.15
   4   5   5 8269.16  247.44
  -4   5  -5 7467.58  260.36
  -4  -5  -5 7764.76  246.75
   4  -5   5 8146.89  262.40
   4   5   6   25.80   47.19
   4   5   6   62.55   21.05
  -4   5  -6   23.54   38.31
  -4  -5  -6    5.35    9.88
   4  -5   6   33.39   33.94
   4   5   7 4285.86  175.89
   4   5   7 4485.01  143.56
  -4   5  -7 4161.65  151.46
  -4   5  -7 4180.30  149.49
  -4  -5  -7 4357.76  137.39
   4   5   8   -6.50   39.07
  -4   5  -8   23.56   35.83
  -4   5  -8    5.58   20.97
  -4  -5  -8   57.86   10.55
   4  -5   8   50.00   45.87
   4   5   9 4201.89  193.60
   4   5   9 5113.22  177.06
  -4   5  -9 5178.89  178.40
  -4  -5  -9 5333.12  163.62
   4   5  10  -49.96   61.77
  -4   5 -10    3.22   24.90
  -4  -5 -10    5.36   12.85
   4  -5  10  -77.16   53.90
  -4   5 -11 2339.08   99.11
  -4  -5 -11 2563.79   84.14
   4   6   010132.26  304.06
   4   6   0 9670.17  314.20
  -4   6   0 9596.88  318.40
  -4  -6   0 9972.17  307.74
  -4  -6   0 9977.87  302.65
   4  -6   0 9614.65  307.26
   4  -6   0 9562.69  310.60
   4   6   1   16.24   22.10
   4   6   1   62.77   44.59
  -4   6  -1   15.27   20.52
  -4  -6  -1   24.70    9.69
  -4  -6  -1    4.89   10.49
   4  -6   1   50.88   13.65
   4   6   2 9856.07  314.52
  -4   6  -210052.17  318.31
  -4   6  -2 9852.24  335.65
  -4  -6  -2 9740.21  309.70
  -4  -6  -210136.52  310.97
   4  -6   210000.91  320.47
  -4   6  -3   50.56   17.50
  -4   6  -3  252.30   53.62
  -4  -6  -3    6.43    9.97
   4   6   4 7354.30  241.11
   4   6   4 7594.67  230.33
  -4   6  -4 6605.96  246.62
  -4  -6  -4 7434.58  228.39
   4  -6   4 7484.08  244.65
   4   6   5   29.76   47.82
   4   6   5  150.47   21.19
  -4   6  -5  357.56   50.50
  -4  -6  -5  217.09   13.17
   4  -6   5  161.30   25.89
   4   6   6 4794.63  199.30
   4   6   6 5321.44  175.88
  -4   6  -6 5118.66  180.93
  -4  -6  -6 5348.39  168.03
   4  -6   6 5582.45  180.91
   4   6   7  -94.93   64.05
   4   6   7   38.36   29.79
  -4   6  -7  179.55   45.56
  -4  -6  -7   35.77   12.63
   4  -6   7   63.77   30.89
   4   6   8 4083.31  180.49
   4   6   8 4582.96  162.39
  -4   6  -8 4229.00  163.51
  -4  -6  -8 4899.74  148.39
   4  -6   8 5060.34  167.07
   4   6   9  145.34   89.83
   4   6   9  125.78   49.48
  -4  -6  -9  154.04   14.58
   4  -6   9   76.32   32.04
  -4  -6 -10 3827.14  126.61
   4  -6  10 3899.55  143.36
   4   7   0  -54.31   27.57
   4   7   0  139.79   40.82
  -4   7   0  -38.85   28.56
  -4  -7   0   -8.08    7.80
   4   7   1 6335.69  190.34
   4   7   1 5548.73  202.63
  -4   7  -1 5553.47  187.63
  -4   7  -1 5461.96  210.91
  -4  -7  -1 5853.78  180.95
  -4  -7  -1 5552.78  181.01
   4  -7   1 5608.48  185.25
   4   7   2  201.48   45.66
  -4   7  -2  163.70   21.17
  -4  -7  -2  142.71   12.53
  -4  -7  -2  127.73   11.16
   4  -7   2   81.33   17.19
   4   7   3 5687.51  192.62
  -4   7  -3 5089.36  198.28
  -4  -7  -3 5663.30  175.28
   4  -7   3 5774.88  185.60
   4   7   4   27.89   15.44
  -4   7  -4   55.80   58.55
  -4  -7  -4   56.36   12.00
   4   7   5 5111.09  202.92
   4   7   5 5433.96  172.46
  -4   7  -5 4770.11  188.69
  -4  -7  -5 5409.52  166.24
   4  -7   5 5461.97  177.59
   4   7   6  181.67   77.99
   4   7   6   10.74   24.43
  -4   7  -6  188.62   51.95
  -4  -7  -6   34.76   12.58
   4  -7   6  -13.14   23.42
   4   7   7 4489.39  190.25
   4   7   7 4543.25  159.95
  -4   7  -7 4327.58  167.07
   4  -7   7 4804.41  163.91
   4   7   8  271.58   90.65
  -4   7  -8  131.57   53.79
  -4  -7  -8  141.67   15.78
   4  -7   8  161.94   31.48
   4   7   9 2891.58  130.90
  -4   7  -9 2841.98  124.51
   4  -7   9 3313.95  118.17
   4   8   0 5444.65  185.93
   4   8   0 4919.36  204.32
  -4   8   0 5776.73  185.24
  -4  -8   0 5604.08  177.66
  -4  -8   0 5506.08  175.40
   4  -8   0 5861.82  181.02
   4  -8   0 5523.48  181.11
   4   8   1  194.08   42.96
  -4   8  -1  125.63   28.03
  -4   8  -1  222.68   80.67
  -4  -8  -1  133.46   12.60
  -4  -8  -1   83.24   10.47
   4  -8   1  118.69   16.64
   4   8   2 5684.34  190.67
  -4   8  -2 5162.87  211.62
  -4  -8  -2 5645.64  176.32
  -4  -8  -2 5195.33  174.09
   4  -8   2 5700.94  182.79
   4   8   3  178.87   58.09
   4   8   3  132.43   17.51
  -4   8  -3  122.76   75.79
   4  -8   3  146.88   23.04
   4   8   4 4352.38  171.93
   4   8   4 4314.34  141.10
  -4   8  -4 3734.88  175.43
  -4  -8  -4 4485.42  139.64
   4  -8   4 4673.23  151.70
   4   8   5  129.64   69.15
   4   8   5   88.69   20.45
  -4   8  -5   60.24   62.95
  -4  -8  -5  129.47   13.94
   4  -8   5  103.04   26.40
   4   8   6 3782.10  188.22
   4   8   6 4442.43  156.80
  -4   8  -6 4162.30  172.97
  -4  -8  -6 5031.46  150.06
   4  -8   6 4990.33  160.53
   4   8   7   78.45   72.06
   4   8   7  103.89   41.47
  -4   8  -7   98.62   50.22
  -4  -8  -7  145.68   15.98
   4  -8   7   66.14   31.06
   4   8   8 1909.56  134.99
   4   8   8 1744.09   89.51
  -4   8  -8 2066.99  100.61
   4   9   0  185.94   52.93
  -4   9   0    9.50   37.00
  -4  -9   0   13.60   11.92
   4  -9   0   24.42   12.78
   4   9   1 4493.79  179.34
  -4   9  -1 5393.29  214.97
  -4  -9  -1 4970.03  158.42
   4  -9   1 5003.16  164.93
   4   9   2  254.30   62.92
  -4   9  -2 -133.98   86.41
  -4  -9  -2  109.26   15.21
   4  -9   2   65.07   18.45
   4   9   3 3873.20  176.29
  -4   9  -3 3758.93  176.47
  -4  -9  -3 4261.43  137.95
   4  -9   3 4303.57  141.74
   4   9   4  -10.37   72.69
  -4   9  -4 -121.70   78.29
  -4  -9  -4   54.21   11.09
   4  -9   4   -4.90   20.88
   4   9   5 3424.89  180.63
  -4   9  -5 3060.02  158.35
  -4  -9  -5 4078.09  123.47
   4  -9   5 3896.99  133.05
   4   9   6  254.65   86.84
  -4   9  -6   30.64   70.36
  -4  -9  -6  125.82   13.80
   4  -9   6   83.92   25.62
   4   9   7 1994.33  131.99
  -4   9  -7 2098.29  116.65
  -4  -9  -7 2357.76   80.95
   4  -9   7 2495.70   95.52
   4  10   0 1882.12  109.00
  -4  10   0 2312.94   91.33
  -4 -10   0 2329.25   75.14
   4 -10   0 2214.12   78.47
   4  10   1   25.48   72.32
  -4 -10  -1   72.42   11.69
   4  10   2 2483.69  123.28
  -4  10  -2 2060.79  136.62
  -4 -10  -2 2564.47   82.86
   4 -10   2 2410.26   89.91
   4  10   3  291.55   81.30
  -4  10  -3 -143.14   89.94
  -4 -10  -3   10.33   10.30
   4 -10   3   10.30   17.16
   4  10   4 2229.23  126.35
  -4  10  -4 1765.82  134.76
  -4 -10  -4 2295.92   75.40
   4 -10   4 2023.13   77.50
  -4  10  -5   -2.94   80.70
   4 -10   5   48.37   22.43
   4  11   0   46.55   79.37
  -4 -11   0   12.95   14.69
   4 -11   0   46.59   15.63
   4  11   1 1155.88  109.65
   4 -11   1 1638.23   57.30
   5   0   0   12.10    3.27
   5   0   0   19.46    2.67
  -5   0   0   23.59    4.87
   5   0   112243.18  371.40
   5   0   111622.21  361.62
  -5   0  -112139.60  366.00
  -5   0  -112043.32  370.89
   5   0   2   13.22    3.65
  -5   0  -2    4.97    6.53
   5   0   314936.16  457.66
  -5   0  -314683.16  449.28
  -5   0  -314591.32  451.13
   5   0   4   21.26    5.46
   5   0   4    8.69   12.64
   5   0   5 8717.21  273.50
   5   0   5 8846.43  276.23
  -5   0  -5 8760.29  270.50
   5   0   6   45.15   11.50
   5   0   6   -6.55   20.61
  -5   0  -6   43.83   10.23
   5   0   7 8888.68  291.20
  -5   0  -7 8993.11  279.38
   5   0   8   70.18   39.82
  -5   0  -8   35.86   11.32
   5   0   9 5782.74  216.97
  -5   0  -9 6249.60  193.66
   5   0  10  -88.76   49.04
  -5   0 -10   26.31   15.29
   5   0  11 2646.92  135.03
  -5   0 -11 3361.29  107.25
   5   1   016062.38  504.32
   5   1   015687.81  503.36
  -5   1   016911.56  503.05
  -5   1   016211.95  503.41
  -5  -1   016429.57  494.31
  -5  -1   016404.82  505.11
   5  -1   016349.71  504.37
   5  -1   017587.51  507.37
   5   1   1   99.39    5.71
  -5  -1  -1  106.84    6.81
  -5  -1  -1   99.34    9.19
   5   1   217349.61  539.47
  -5   1  -217358.92  535.63
  -5   1  -217589.11  536.96
  -5  -1  -217520.71  523.94
  -5  -1  -217062.18  537.68
   5  -1   217537.14  536.16
   5  -1   217990.74  543.52
   5   1   3  127.17    7.93
  -5   1  -3  115.73    9.63
  -5   1  -3  128.91    9.82
  -5  -1  -3  158.75    9.02
  -5  -1  -3  178.09   11.10
   5  -1   3  118.73    6.25
   5   1   412783.43  409.06
  -5   1  -413538.23  405.74
  -5  -1  -412832.60  401.82
   5  -1   413603.65  412.61
   5  -1   413379.41  417.85
   5   1   5   63.63   10.11
   5   1   5   37.65   15.89
  -5  -1  -5   35.11    8.15
   5  -1   5    9.86    5.29
   5  -1   5   65.19   19.93
   5   1   6 6882.43  226.24
   5   1   6 7281.53  230.92
  -5   1  -6 7237.73  224.77
  -5  -1  -6 7346.44  223.62
   5  -1   6 6837.19  245.34
   5   1   7   72.02   28.43
  -5   1  -7   61.43   12.96
  -5  -1  -7   11.54   10.34
   5  -1   7   20.06   28.13
   5   1   8 8692.85  278.29
  -5   1  -8 8325.82  269.40
  -5  -1  -8 8192.38  263.85
   5  -1   8 8733.46  283.45
  -5  -1  -9   10.44   12.35
   5   1  10 2964.20  136.79
  -5   1 -10 3455.84  108.51
  -5  -1 -10 3192.67  106.61
   5   1  11   17.22   54.95
  -5   1 -11   16.26   15.91
  -5  -1 -11   44.27   16.82
   5  -1  11   46.55   51.98
  -5   2   0   41.64    7.66
  -5   2   0   60.65    6.75
   5  -2   0   60.95    3.77
   5  -2   0   53.00    4.79
   5   2   121040.46  653.89
  -5   2  -121416.12  654.91
  -5   2  -122051.58  658.29
  -5  -2  -121344.70  643.85
  -5  -2  -120881.61  651.88
   5  -2   120887.03  647.75
   5  -2   121851.02  671.18
   5   2   2   11.25    6.70
  -5   2  -2   17.28    6.69
  -5  -2  -2   19.38    6.29
   5   2   317431.08  523.67
  -5   2  -317110.83  519.68
  -5  -2  -316975.35  515.42
  -5  -2  -316830.32  517.50
   5  -2   317896.82  519.42
   5  -2   315597.23  528.88
   5   2   4   63.51   10.79
  -5  -2  -4   83.64   11.50
   5  -2   4  126.74   16.08
   5   2   5 7975.21  264.73
   5   2   5 8602.11  262.17
  -5   2  -5 8615.79  263.82
  -5  -2  -5 8041.78  256.59
   5  -2   5 8441.39  273.80
   5   2   6  -11.97   19.43
   5   2   6    2.13   19.42
  -5   2  -6   28.91   12.86
  -5  -2  -6   43.89    9.30
   5  -2   6   43.77   23.50
   5   2   7 7458.70  275.75
   5   2   7 8681.12  275.78
  -5   2  -7 8641.77  265.58
  -5  -2  -7 8579.40  262.42
   5  -2   7 8427.91  283.77
  -5   2  -8   43.60   12.31
  -5  -2  -8    3.20   10.95
   5  -2   8  -42.76   38.91
   5   2   9 4980.93  174.59
  -5   2  -9 5505.86  166.06
  -5  -2  -9 5010.05  159.48
   5  -2   9 4390.80  185.51
   5   2  10    9.58   51.98
  -5   2 -10   77.83   18.54
  -5  -2 -10   39.54   14.08
   5  -2  10  -79.42   53.51
  -5   2 -11 3132.24  103.10
  -5  -2 -11 3047.64   98.71
   5  -2  11 2392.78  143.14
   5   3   014004.58  440.94
  -5   3   014190.66  450.74
  -5   3   014941.10  437.91
  -5  -3   014409.36  442.42
  -5  -3   014266.61  442.17
   5  -3   014765.11  451.99
   5   3   1  273.89   11.44
  -5   3  -1  223.31   14.89
  -5   3  -1  196.67   11.80
  -5  -3  -1  264.03   13.57
   5  -3   1  229.88    8.70
   5  -3   1  209.59   10.48
   5   3   212362.84  374.08
  -5   3  -211952.71  376.24
  -5   3  -211833.99  371.48
  -5  -3  -212560.24  371.90
  -5  -3  -212152.29  370.65
   5  -3   212137.57  366.82
   5  -3   211534.36  376.57
   5   3   3  204.04   11.70
  -5   3  -3  150.39   14.17
  -5  -3  -3  181.23   11.27
  -5  -3  -3  165.43   12.66
   5   3   4 8862.26  282.36
  -5   3  -4 8033.28  293.81
  -5   3  -4 8918.49  285.36
  -5  -3  -4 9128.58  276.43
  -5  -3  -4 8863.32  276.33
   5  -3   4 9689.40  276.61
   5  -3   4 9146.47  288.11
   5   3   5   20.08   19.22
   5   3   5   -8.68   15.44
  -5   3  -5   41.24   16.77
  -5  -3  -5   63.81   11.08
   5  -3   5   46.56   20.23
   5   3   6 7832.71  267.22
   5   3   6 8358.58  258.13
  -5   3  -6 8435.05  258.20
  -5  -3  -6 8536.09  256.95
   5  -3   6 7947.61  269.94
   5   3   7   63.22   37.85
   5   3   7    1.48   25.62
  -5   3  -7   57.75   16.96
  -5  -3  -7   91.44   12.04
   5  -3   7    7.91   32.55
   5   3   8 8050.50  264.93
  -5   3  -8 8340.66  262.39
  -5  -3  -8 8418.08  255.26
   5  -3   8 7483.11  294.24
   5   3   9   62.04   39.85
  -5   3  -9   -1.99   18.18
  -5  -3  -9  -16.98   12.27
   5  -3   9   92.55   50.23
   5   3  10 3516.33  153.70
  -5   3 -10 3711.92  124.36
  -5  -3 -10 3519.30  119.22
  -5   3 -11   91.14   23.81
   5  -3  11    1.16   55.10
   5   4   0  844.82   27.36
  -5   4   0  691.93   32.01
  -5   4   0  714.48   26.91
  -5  -4   0  871.36   27.48
  -5  -4   0  829.34   27.18
   5  -4   0  743.48   27.20
   5  -4   0  654.70   29.48
   5   4   1 7696.52  242.24
  -5   4  -1 8087.36  249.40
  -5   4  -1 8102.10  243.99
  -5  -4  -1 7736.24  244.20
  -5  -4  -1 7951.36  246.64
   5  -4   1 7971.76  244.56
   5  -4   1 7559.82  251.01
   5   4   2    1.33   11.08
  -5  -4  -2    3.44    9.01
  -5  -4  -2  -23.46   10.45
   5  -4   2    3.21    2.38
   5  -4   2    8.55    8.84
   5   4   3 7730.27  237.75
  -5   4  -3 7488.89  243.60
  -5  -4  -3 7602.66  234.93
  -5  -4  -3 7409.12  231.71
   5  -4   3 7855.68  229.29
   5  -4   3 6849.23  236.91
   5   4   4   26.20   19.26
  -5   4  -4   52.84   49.24
  -5   4  -4   63.46   19.41
  -5  -4  -4   22.65    9.10
  -5  -4  -4   41.59   10.76
   5  -4   4   15.31   17.67
   5   4   5 6692.00  218.88
   5   4   5 7229.06  210.95
  -5   4  -5 5756.83  232.05
  -5   4  -5 7093.26  219.12
  -5  -4  -5 6567.48  209.29
   5  -4   5 6616.96  222.17
   5   4   6  215.02   39.62
   5   4   6  186.45   24.40
  -5   4  -6  152.64   20.43
  -5  -4  -6  249.66   13.44
   5  -4   6  151.41   36.22
   5   4   7 6462.17  230.10
   5   4   7 7004.30  228.11
  -5   4  -7 7129.16  226.32
  -5  -4  -7 7524.33  221.36
   5  -4   7 6328.44  244.33
   5   4   8  -12.93   35.35
  -5   4  -8    0.57   21.23
  -5  -4  -8   25.22   10.83
   5  -4   8  114.54   43.62
   5   4   9 4249.60  163.23
  -5   4  -9 4602.17  153.10
  -5  -4  -9 4666.41  146.65
   5   4  10  -48.71   52.64
  -5   4 -10   -8.70   25.31
  -5  -4 -10   22.97   13.06
   5  -4  10    0.65   43.27
   5   5   0 8668.78  268.05
  -5   5   0 8429.23  280.26
  -5   5   0 9010.33  270.38
  -5  -5   0 8636.12  273.31
  -5  -5   0 8718.30  270.11
   5  -5   0 9032.24  270.39
   5  -5   0 8594.64  277.93
   5   5   1   51.08   14.66
  -5   5  -1   -0.94   16.44
  -5  -5  -1   13.60    9.50
  -5  -5  -1   10.69    8.42
   5  -5   1   18.99    9.15
   5  -5   1   55.44   13.53
   5  -5   1   15.58    9.04
   5   5   2 7522.34  235.30
  -5   5  -2 7833.11  238.15
  -5   5  -2 6743.68  264.71
  -5  -5  -2 7521.58  231.88
  -5  -5  -2 7509.51  234.26
   5  -5   2 8052.99  243.03
   5  -5   2 6934.21  233.53
   5   5   3   50.73   20.37
  -5   5  -3 -116.45   60.00
  -5  -5  -3  -10.72    9.68
   5  -5   3    7.44    2.62
   5  -5   3   -1.34   12.60
   5   5   4 7822.53  247.56
  -5   5  -4 6868.36  255.48
  -5  -5  -4 7988.45  239.99
   5  -5   4 8034.60  252.53
   5  -5   4 7090.64  244.15
   5   5   5  130.72   37.82
   5   5   5  168.30   23.06
  -5   5  -5  154.93   49.15
  -5  -5  -5  130.67   12.14
   5  -5   5   95.74   27.48
   5  -5   5   65.29   29.25
   5   5   6 5090.20  196.40
   5   5   6 5934.42  182.17
  -5  -5  -6 5645.25  176.60
   5   5   7   -9.17   29.64
  -5   5  -7  -21.18   24.70
  -5  -5  -7   38.45   11.07
   5  -5   7   20.96   36.93
   5   5   8 4191.24  150.06
  -5   5  -8 4088.91  151.27
  -5  -5  -8 4452.40  141.93
   5   5   9  -31.79   43.26
  -5   5  -9   28.98   27.60
  -5  -5  -9    3.97   13.77
   5   5  10 1887.16  103.67
  -5   5 -10 2150.50   87.44
   5   6   0   -2.28   16.48
  -5   6   0  -31.27   22.00
  -5  -6   0    0.97    8.36
   5  -6   0    5.81   11.44
   5   6   1 6698.36  208.68
  -5   6  -1 6623.73  223.31
  -5  -6  -1 6478.28  211.97
  -5  -6  -1 6659.62  210.16
   5  -6   1 6788.79  210.43
   5  -6   1 6594.91  215.17
   5   6   2   17.65   23.51
  -5   6  -2  -19.29   69.56
  -5  -6  -2  -10.84   10.81
   5  -6   2   -7.96   16.28
   5   6   3 8314.07  263.23
  -5   6  -3 7429.85  280.66
  -5  -6  -3 8333.93  259.25
  -5  -6  -3 8190.96  256.33
   5  -6   3 8597.39  273.12
   5   6   4   24.21   38.21
   5   6   4   28.63   14.83
  -5   6  -4  155.89   59.97
   5  -6   4   67.82   24.73
   5   6   5 5460.39  194.12
   5   6   5 5553.78  177.14
  -5  -6  -5 5468.61  174.62
   5  -6   5 5592.87  190.48
   5   6   6  -27.08   48.92
   5   6   6  -22.68   22.47
  -5   6  -6  225.25   57.45
  -5  -6  -6   13.63   10.48
   5  -6   6   75.74   28.89
   5   6   7 3767.04  171.19
   5   6   7 4358.73  152.91
  -5  -6  -7 4527.32  139.22
   5  -6   7 4611.68  156.51
   5   6   8    1.39   75.51
   5   6   8  103.36   43.13
  -5  -6  -8   66.70   13.40
   5  -6   8    7.86   35.79
   5   6   9 2776.27  126.50
  -5  -6  -9 3169.82  102.90
   5  -6   9 3175.94  121.32
   5   7   0 5503.68  174.53
  -5   7   0 5348.24  178.89
  -5  -7   0 5385.97  173.22
  -5  -7   0 5545.58  173.59
   5  -7   0 5267.10  172.99
   5   7   1  173.82   29.25
  -5   7  -1  228.06   23.26
  -5  -7  -1  245.66   16.03
  -5  -7  -1  211.80   13.61
   5  -7   1  203.64   14.43
   5   7   2 5466.70  200.91
  -5  -7  -2 6271.03  190.11
  -5  -7  -2 5916.89  188.57
   5  -7   2 6308.93  200.53
   5   7   3  282.21   44.46
  -5   7  -3  359.28   73.30
  -5  -7  -3  135.27   12.97
  -5  -7  -3   78.12   13.56
   5  -7   3  156.56   24.46
   5   7   4 4660.60  168.45
   5   7   4 4700.43  151.99
  -5   7  -4 3985.33  175.56
  -5  -7  -4 4792.14  150.24
   5  -7   4 4882.65  159.42
   5   7   5  164.47   54.68
   5   7   5  108.56   20.55
  -5   7  -5  191.67   68.14
  -5  -7  -5  155.61   13.14
   5  -7   5   91.90   25.24
   5   7   6 3709.49  156.38
   5   7   6 3595.64  131.06
  -5   7  -6 3220.85  148.39
  -5  -7  -6 3955.59  120.13
   5  -7   6 3999.46  138.56
   5   7   7  220.19   78.72
   5   7   7  149.69   35.69
  -5  -7  -7  115.16   13.04
   5  -7   7  133.26   30.69
   5   7   8 2614.79  147.71
   5   7   8 2716.14  117.28
  -5  -7  -8 3348.49  100.07
   5  -7   8 3106.41  120.21
  -5   8   0   32.12   21.91
  -5  -8   0   69.85   12.31
   5  -8   0   64.29   12.23
   5   8   1 4820.77  168.60
  -5  -8  -1 4753.22  153.02
  -5  -8  -1 4336.36  150.67
   5  -8   1 4970.14  153.84
   5   8   2   72.95   44.82
  -5   8  -2  245.01   89.35
  -5  -8  -2  101.32   13.56
  -5  -8  -2   77.19   13.00
   5   8   3 4416.54  162.79
   5   8   3 4458.54  146.83
  -5   8  -3 4394.18  181.37
  -5  -8  -3 4496.78  142.04
   5  -8   3 4682.29  156.29
   5   8   4   28.33   16.95
  -5   8  -4    0.68   70.35
  -5  -8  -4   47.93   14.37
   5  -8   4   52.88   25.00
   5   8   5 2584.56  146.10
   5   8   5 2712.08  100.75
  -5   8  -5 2670.98  131.03
  -5  -8  -5 2948.61   95.14
   5  -8   5 3109.56  108.04
   5   8   6  173.13   68.90
   5   8   6   95.75   31.62
  -5   8  -6   60.88   65.62
  -5  -8  -6  172.41   16.48
   5  -8   6  132.78   30.28
   5   8   7 1530.86  115.79
   5   8   7 1827.89   83.24
   5   9   0 2816.25  124.25
  -5   9   0 3023.18  105.88
  -5  -9   0 3085.18  101.17
   5   9   1  -40.11   54.55
  -5  -9  -1    4.77   13.01
   5  -9   1   -9.21   12.27
   5   9   2 3271.28  132.95
  -5  -9  -2 3478.04  117.00
   5   9   3   74.23   58.05
  -5   9  -3   56.69   97.88
  -5  -9  -3   35.99   13.85
   5   9   4 2498.28  125.11
  -5   9  -4 2113.66  135.96
  -5  -9  -4 2598.74   84.19
   5   9   5 -121.32   72.45
  -5   9  -5   81.75   76.51
  -5  -9  -5   -8.88   13.75
   5  -9   5   -3.47   21.94
   5  10   0  202.88   59.92
  -5 -10   0  121.70   14.38
   5 -10   0  126.15   18.83
   5  10   1 1519.28   93.66
  -5 -10  -1 1627.28   58.42
   5 -10   1 1674.53   60.93
   5  10   2  217.69   64.21
  -5 -10  -2   36.74   13.46
   5 -10   2   10.18   17.23
  -5  10  -3 1255.75  118.92
   6   0   014380.21  452.73
  -6   0   015322.86  452.64
  -6   0   014535.60  455.10
   6   0   1   -1.67    3.96
  -6   0  -1   10.31    6.59
  -6   0  -1   -4.62    8.99
   6   0   2 7169.74  217.44
  -6   0  -2 6924.90  216.70
  -6   0  -2 6849.70  217.44
   6   0   3  -16.61    4.93
  -6   0  -3  -10.71    9.48
   6   0   4 6819.52  215.41
  -6   0  -4 6683.93  206.72
   6   0   5   -1.79   17.61
  -6   0  -5   40.58   10.18
   6   0   6 7377.77  238.54
  -6   0  -6 7078.19  225.11
   6   0   7  -12.27   29.24
  -6   0  -7   27.69   11.33
   6   0   8 5197.51  182.96
  -6   0  -8 5382.27  169.88
   6   0   9  -81.89   44.26
   6   0  10 3485.32  146.97
  -6   0 -10 3496.91  118.48
   6   1   0    5.97    4.88
  -6   1   0   50.82    9.72
  -6  -1   0   -2.68    5.47
  -6  -1   0    1.37    8.54
   6   1   110183.97  324.30
  -6   1  -110774.74  324.38
  -6   1  -110560.34  326.21
  -6  -1  -110412.93  315.89
  -6  -1  -110321.56  324.17
   6  -1   110447.60  320.28
   6   1   2  -18.39    5.81
  -6   1  -2   10.83    8.75
  -6   1  -2   57.33    9.24
  -6  -1  -2   20.66    8.07
  -6  -1  -2   25.88   11.21
   6  -1   2    8.43    4.05
   6   1   3 8837.92  270.57
  -6   1  -3 8649.49  265.57
  -6   1  -3 8323.09  266.97
  -6  -1  -3 8452.64  261.30
  -6  -1  -3 8432.36  268.27
   6  -1   3 8707.62  266.58
   6   1   4  263.04   13.36
  -6   1  -4  220.75   13.98
  -6  -1  -4  293.44   13.00
  -6  -1  -4  242.61   14.90
   6  -1   4  222.77   10.60
   6  -1   4  238.46   18.75
   6   1   5 7665.36  246.48
   6   1   5 7556.91  246.75
  -6   1  -5 8128.63  246.81
  -6  -1  -5 7862.45  243.21
   6  -1   5 7676.30  250.68
   6   1   6  196.85   26.70
  -6   1  -6  239.88   17.27
  -6  -1  -6  183.46   13.63
   6  -1   6  222.93   24.58
   6   1   7 6838.46  232.97
  -6   1  -7 6899.69  220.77
  -6  -1  -7 7274.72  217.55
   6  -1   7 6651.49  235.78
   6   1   8   -0.04   33.69
  -6   1  -8   26.42   15.78
   6  -1   8   54.43   38.46
   6   1   9 3202.11  135.10
  -6   1  -9 3471.78  110.69
  -6  -1  -9 3409.30  107.55
   6  -1   9 2965.16  136.89
   6   1  10   30.83   50.96
  -6  -1 -10    9.66   16.32
   6  -1  10 -140.30   50.78
   6   2   010661.12  334.10
  -6   2   010865.81  336.31
  -6   2   011077.67  332.41
  -6  -2   011020.18  331.40
  -6  -2   010368.33  334.97
   6  -2   010684.13  329.80
   6  -2   011127.85  339.78
  -6   2  -1  254.88   13.52
  -6   2  -1  188.51   11.81
  -6  -2  -1  201.38   16.97
  -6  -2  -1  175.14   14.10
   6  -2   1  238.26    8.52
   6   2   211005.57  337.70
  -6   2  -211103.23  336.23
  -6   2  -210526.42  334.06
  -6  -2  -210755.38  331.86
  -6  -2  -210490.35  337.88
   6  -2   210927.34  329.22
   6   2   3   35.33   10.13
  -6   2  -3   -4.98    9.29
  -6   2  -3   17.65   11.13
  -6  -2  -3   38.57    8.39
  -6  -2  -3   70.33   11.62
   6   2   4 8645.34  277.10
  -6   2  -4 9268.86  279.08
  -6  -2  -4 8498.04  270.43
  -6  -2  -4 8716.83  279.17
   6  -2   4 9310.77  274.19
   6  -2   4 8511.13  283.36
   6   2   5   28.50   16.31
   6   2   5   33.33   18.68
  -6  -2  -5   35.97    9.52
   6  -2   5   22.38   17.60
   6   2   6 7293.24  236.93
   6   2   6 7619.66  240.19
  -6   2  -6 7355.63  234.55
  -6  -2  -6 7442.94  230.19
   6  -2   6 7218.13  245.93
   6   2   7   62.89   26.77
  -6   2  -7   81.32   16.73
  -6  -2  -7   -4.15   12.02
   6  -2   7   48.42   37.63
   6   2   8 4416.67  153.98
  -6   2  -8 4207.19  141.05
  -6  -2  -8 4494.46  140.41
   6  -2   8 3912.09  157.53
  -6   2  -9  -37.59   18.92
  -6  -2  -9   22.43   14.53
   6  -2   9    3.34   52.51
  -6   2 -10 2550.74   91.92
  -6  -2 -10 2667.43   87.43
   6   3   0   -2.33    7.37
  -6   3   0   45.90    9.14
  -6  -3   0   16.03    7.99
   6  -3   0    9.99    3.35
   6   3   1 8973.29  284.21
  -6   3  -1 9578.62  286.01
  -6   3  -1 9155.05  281.38
  -6  -3  -1 8915.64  282.34
  -6  -3  -1 8886.45  280.30
   6  -3   1 9500.68  278.78
   6  -3   1 9129.07  287.74
   6   3   2   -1.27    8.01
  -6   3  -2    8.58   13.10
  -6   3  -2    2.88    8.94
  -6  -3  -2   28.82    9.82
   6  -3   2   21.33    3.01
   6   3   3 7670.83  236.97
  -6   3  -3 7479.46  242.47
  -6  -3  -3 7731.82  235.50
  -6  -3  -3 7504.85  237.30
   6  -3   3 7931.37  231.66
   6  -3   3 7100.34  245.24
   6   3   4   38.86   14.68
  -6   3  -4   18.33   14.39
  -6  -3  -4  -23.64   10.24
  -6  -3  -4   30.60   13.56
   6  -3   4   37.12   13.99
   6   3   5 6018.74  198.68
   6   3   5 6282.27  201.96
  -6   3  -5 6305.19  200.83
  -6  -3  -5 6214.75  193.14
   6  -3   5 6082.47  208.88
   6   3   6   16.13   20.60
  -6   3  -6  -17.42   17.00
  -6  -3  -6   25.28   10.46
   6  -3   6    4.83   35.59
   6   3   7 5866.59  186.24
  -6   3  -7 5738.23  184.45
  -6  -3  -7 5709.33  176.97
   6  -3   7 4911.10  188.60
   6   3   8    0.78   37.91
  -6   3  -8   25.91   20.10
  -6  -3  -8    4.89   13.06
   6   3   9 2779.26  116.15
  -6   3  -9 2489.28   95.73
  -6  -3  -9 2606.46   88.79
   6   4   0 8744.62  267.78
  -6   4   0 8682.91  266.23
  -6  -4   0 8690.77  269.21
  -6  -4   0 8682.68  266.11
   6  -4   0 8469.93  270.91
   6   4   1   30.61   10.08
  -6   4  -1   30.51    8.28
  -6  -4  -1   -3.01    9.11
  -6  -4  -1   13.26    9.91
   6  -4   1   -3.31    3.71
   6  -4   1   13.20    5.89
   6   4   2 6893.56  217.35
  -6  -4  -2 6715.91  217.34
  -6  -4  -2 6835.98  218.89
   6  -4   2 7361.94  212.15
   6   4   3   77.93   15.53
  -6   4  -3  174.96   21.69
  -6  -4  -3   77.27   10.61
  -6  -4  -3   85.06   12.35
   6  -4   3   55.69   15.89
   6   4   4 5390.97  180.23
  -6   4  -4 5807.41  185.52
  -6  -4  -4 5647.90  175.99
  -6  -4  -4 5757.41  176.96
   6  -4   4 5197.45  188.60
   6   4   5   17.73   24.44
   6   4   5  102.80   19.82
  -6   4  -5   68.20   23.26
   6  -4   5   86.86   26.59
   6   4   6 5354.72  188.95
   6   4   6 5744.18  181.79
  -6   4  -6 5680.33  181.42
  -6  -4  -6 5971.49  179.02
   6  -4   6 4695.23  183.49
   6   4   7  109.19   43.11
   6   4   7    3.43   29.48
  -6   4  -7   34.76   21.94
  -6  -4  -7   29.11   12.25
   6  -4   7   43.20   42.51
   6   4   8 2977.38  112.06
  -6   4  -8 2907.26  102.25
  -6  -4  -8 2857.97   96.43
   6   4   9  -26.04   47.65
  -6   4  -9  -31.31   23.80
  -6  -4  -9    6.72   12.94
   6  -4   9   43.15   49.64
   6   5   0    8.23   12.62
  -6   5   0   34.85   20.85
  -6  -5   0   57.47   10.48
  -6  -5   0   47.88   10.55
   6  -5   0   24.72    7.77
   6   5   1 7042.75  216.67
  -6  -5  -1 6793.55  215.50
  -6  -5  -1 6889.22  218.54
   6  -5   1 6768.19  212.81
   6   5   2   20.98   20.77
  -6  -5  -2    7.40   11.26
  -6  -5  -2   17.24   11.23
   6  -5   2   22.31    4.38
   6   5   3 6691.54  215.96
  -6  -5  -3 6809.10  216.97
  -6  -5  -3 6991.85  217.96
   6  -5   3 6983.32  225.47
   6   5   4  221.42   33.46
  -6  -5  -4  249.65   15.74
   6  -5   4  210.76   28.12
   6   5   5 5792.56  205.58
   6   5   5 6659.37  200.89
  -6  -5  -5 5955.00  197.23
   6  -5   5 6369.51  212.79
   6   5   6  103.83   44.19
   6   5   6  -53.84   26.37
  -6  -5  -6   14.33   14.04
   6   5   7 3566.01  137.06
  -6   5  -7 3725.77  135.73
  -6  -5  -7 3843.13  121.93
   6   5   8   -3.98   37.38
  -6   5  -8   25.06   27.25
  -6  -5  -8   -0.11   10.61
   6   6   0 5685.77  179.49
  -6   6   0 5647.43  180.91
  -6  -6   0 5563.78  176.27
  -6  -6   0 5569.09  177.37
   6  -6   0 5399.01  177.92
  -6   6  -1   -1.08   16.77
  -6  -6  -1  -27.29   10.69
  -6  -6  -1   36.65   11.02
   6  -6   1   -6.49   11.13
   6   6   2 5867.59  182.07
  -6  -6  -2 5569.24  179.24
  -6  -6  -2 5855.37  178.20
   6  -6   2 5206.26  177.62
   6   6   3  119.01   29.06
  -6  -6  -3  149.19   15.55
  -6  -6  -3  217.10   17.20
   6   6   4 4924.17  177.59
   6   6   4 5705.75  168.24
  -6  -6  -4 4969.09  163.21
   6  -6   4 4876.95  174.03
   6   6   5   44.28   43.64
   6   6   5  114.54   22.12
  -6  -6  -5   55.09   13.61
   6  -6   5  108.43   30.35
   6   6   6 2915.23  134.31
   6   6   6 3779.77  124.99
  -6  -6  -6 3613.49  112.30
   6  -6   6 3304.49  124.85
   6   6   7 -113.32   58.39
   6   6   7  -14.02   38.48
  -6  -6  -7   25.14   13.30
   6  -6   7   44.20   29.23
   6   7   0  195.71   28.91
  -6   7   0  160.16   23.87
  -6  -7   0  148.42   15.98
  -6  -7   0  123.40   14.64
   6  -7   0  149.04   14.59
   6   7   1 4159.29  130.71
  -6  -7  -1 3654.72  119.42
  -6  -7  -1 3727.94  120.85
   6  -7   1 3441.41  118.50
   6   7   2  120.08   32.02
  -6  -7  -2  107.63   13.01
  -6  -7  -2   71.68   14.02
   6  -7   2   95.44   14.85
   6   7   3 3472.79  129.51
  -6  -7  -3 3507.00  112.28
  -6  -7  -3 3559.49  114.45
   6  -7   3 3032.55  110.44
   6   7   4   50.17   56.08
   6   7   4  113.00   20.32
  -6  -7  -4  131.34   13.95
   6   7   5 1930.84   98.47
   6   7   5 2196.99   81.27
  -6  -7  -5 2195.44   72.45
   6   7   6  -81.65   60.11
   6   7   6  -24.73   28.87
  -6  -7  -6   14.38   11.36
   6  -7   6  -32.78   26.11
   6   8   0 2907.34  103.36
  -6  -8   0 2728.88   92.88
  -6  -8   0 2629.19   93.29
   6  -8   0 2835.30   91.53
   6   8   1  -86.45   32.35
  -6  -8  -1   12.11   13.63
  -6  -8  -1   -0.61   12.22
   6  -8   1   44.76   14.40
   6   8   2 2821.72  110.92
  -6  -8  -2 2931.79   94.02
  -6  -8  -2 2828.21   94.71
   6  -8   2 2772.97   94.21
   6   8   3  -11.68   48.34
  -6  -8  -3   45.63   14.35
   6  -8   3   42.97   12.28
   6   8   4 1631.12   92.06
   6   8   4 1981.19   70.36
  -6  -8  -4 1824.06   64.95
   6   8   5   86.48   63.74
   6   8   5   13.29   19.74
  -6  -8  -5    8.66   10.45
   6   9   0   59.82   49.21
  -6  -9   0   -3.45   13.98
   6  -9   0   30.35   13.93
   6   9   1 2101.70   96.13
  -6  -9  -1 1955.52   73.20
   6  -9   1 2069.33   69.29
   6   9   2  155.32   59.66
  -6  -9  -2   17.72   13.31
   6  -9   2   14.01   12.46
  -6  -9  -3 1725.24   61.82
   6  -9   3 1751.63   62.31
   7   0   0   28.88    4.98
  -7   0   0  -12.63    9.11
   7   0   1 6918.54  215.43
  -7   0  -1 6880.05  213.52
  -7   0  -1 6978.73  218.22
   7   0   2   18.46    5.41
   7   0   3 7607.21  230.59
  -7   0  -3 7326.81  224.95
  -7   0  -3 7026.48  230.00
   7   0   4   12.68   18.71
   7   0   5 5712.07  188.44
  -7   0  -5 5567.07  176.70
   7   0   6   11.63   23.44
  -7   0  -6   15.34   12.75
   7   0   7 3313.82  136.34
  -7   0  -7 3664.63  116.34
   7   0   8   37.72   38.61
  -7   0  -8  -19.00   14.76
   7   1   0 6521.41  197.55
  -7   1   0 6062.81  197.34
  -7  -1   0 6431.38  198.73
   7  -1   0 6316.47  193.48
   7   1   1    6.95    5.28
  -7   1  -1   -7.84   11.16
  -7  -1  -1   38.37    7.49
   7  -1   1    5.60    4.38
   7   1   2 7072.47  212.04
  -7   1  -2 6712.00  213.39
  -7   1  -2 6405.85  209.63
  -7  -1  -2 6660.90  206.49
  -7  -1  -2 6699.84  211.17
   7  -1   2 6732.22  208.80
   7   1   3   51.73    8.84
  -7   1  -3   23.35    9.70
  -7   1  -3   20.00   11.62
   7  -1   3   23.17    5.97
   7   1   4 7249.46  234.36
  -7   1  -4 7402.00  235.54
  -7  -1  -4 7410.56  230.07
   7  -1   4 7584.14  245.27
   7   1   5   52.94   12.07
   7   1   5   24.02   19.94
  -7   1  -5   -0.32   12.13
  -7  -1  -5   38.89   11.22
   7  -1   5   46.68   20.71
   7   1   6 4620.51  154.71
  -7   1  -6 4632.42  148.87
  -7  -1  -6 4544.15  144.84
   7  -1   6 4566.07  157.33
   7   1   7   22.29   35.51
  -7   1  -7   13.75   16.83
   7  -1   7   78.47   30.59
   7   1   8 3048.97  114.95
  -7   1  -8 2926.45   99.60
  -7  -1  -8 3049.44   97.41
   7  -1   8 2754.72  113.25
   7   2   0    5.98    7.33
  -7  -2   0   -7.61    7.72
  -7  -2   0   42.49   10.34
   7  -2   0   -0.07    3.69
   7   2   1 4686.50  153.06
  -7   2  -1 4901.50  153.65
  -7  -2  -1 4862.14  151.24
  -7  -2  -1 4804.01  154.71
   7  -2   1 5020.84  148.84
   7   2   2   63.26    9.22
  -7   2  -2   54.61   10.87
  -7  -2  -2   53.31   11.12
   7  -2   2   78.92    5.66
   7   2   3 7615.71  233.99
  -7   2  -3 7241.77  235.20
  -7   2  -3 6974.81  232.35
  -7  -2  -3 7415.98  227.33
  -7  -2  -3 7685.49  233.95
   7  -2   3 7524.28  229.70
   7   2   4   12.04   12.65
  -7   2  -4   -6.13   18.40
  -7  -2  -4   15.80   10.82
  -7  -2  -4   74.19   16.64
   7  -2   4   11.25   17.59
   7   2   5 4726.07  171.21
   7   2   5 5649.46  175.28
  -7   2  -5 5180.00  169.27
  -7  -2  -5 5389.01  166.41
   7  -2   5 5237.08  173.73
   7   2   6   25.34   23.27
  -7   2  -6  -15.63   16.58
  -7  -2  -6  -15.62   11.24
   7  -2   6  -42.39   24.54
   7   2   7 3610.57  128.26
  -7   2  -7 3360.13  113.74
  -7  -2  -7 3628.12  113.76
   7  -2   7 3151.77  129.59
   7   2   8  -42.71   39.24
  -7   2  -8   46.68   19.01
   7  -2   8  106.92   44.09
   7   3   0 5537.12  179.89
  -7   3   0 6149.46  182.09
  -7  -3   0 5519.13  178.32
  -7  -3   0 5392.00  178.06
   7  -3   0 6033.48  176.53
   7   3   1  128.47   12.83
  -7   3  -1  152.50   12.70
  -7  -3  -1  144.39   11.16
  -7  -3  -1  138.77   14.52
   7  -3   1  108.90    6.72
   7   3   2 6055.00  199.19
  -7   3  -2 6501.73  197.32
  -7  -3  -2 6096.21  196.60
  -7  -3  -2 6228.97  199.13
   7  -3   2 6591.23  192.08
   7   3   3  233.96   17.57
  -7  -3  -3  253.54   14.03
  -7  -3  -3  268.62   16.21
   7   3   4 4517.74  148.75
  -7   3  -4 4277.26  148.01
  -7  -3  -4 4779.98  143.53
  -7  -3  -4 4703.02  144.79
   7  -3   4 4236.16  145.61
   7   3   5   41.52   22.24
   7   3   5   32.08   20.03
  -7   3  -5   80.03   19.76
  -7  -3  -5   44.68   11.12
   7  -3   5   89.44   22.94
   7   3   6 2688.79  107.28
   7   3   6 3385.42  105.47
  -7   3  -6 2974.36  103.30
  -7  -3  -6 3148.60   97.33
   7  -3   6 2615.83  107.15
   7   3   7   22.02   26.71
   7  -3   7    2.61   35.10
  -7   3  -8 2426.00   83.91
  -7  -3  -8 2358.21   78.82
   7  -3   8 1911.58   95.24
   7   4   0   65.29   11.00
  -7   4   0   64.39   10.37
  -7  -4   0   42.73   10.39
  -7  -4   0   49.23   10.79
   7  -4   0   31.96    4.89
   7   4   1 6442.21  202.24
  -7   4  -1 6207.45  198.84
  -7  -4  -1 6348.77  201.74
  -7  -4  -1 6379.74  203.19
   7  -4   1 6733.37  198.08
   7   4   2  378.36   20.57
  -7  -4  -2  363.67   16.30
  -7  -4  -2  314.03   17.93
   7  -4   2  286.61   12.26
   7   4   3 4811.61  153.58
  -7  -4  -3 4831.12  149.57
  -7  -4  -3 4989.63  149.55
   7  -4   3 4185.60  152.77
   7   4   4   15.59   22.41
  -7  -4  -4   10.25   11.73
  -7  -4  -4  -11.16   12.30
   7   4   5 2893.67  109.61
   7   4   5 3313.15  109.96
  -7  -4  -5 3160.54  101.90
   7   4   6    1.88   34.48
  -7   4  -6  123.04   22.49
  -7  -4  -6   57.14   11.98
   7  -4   6   30.44   33.83
   7   4   7 2543.35  102.59
  -7   4  -7 2595.18   92.58
  -7  -4  -7 2605.58   86.88
   7   5   0 5780.87  178.36
  -7  -5   0 5400.31  178.96
  -7  -5   0 5684.87  177.20
   7   5   1   19.21   17.09
  -7  -5  -1   16.96   11.42
  -7  -5  -1   38.87   11.73
   7  -5   1  -10.69    4.02
   7   5   2 4475.07  147.97
  -7  -5  -2 4339.70  142.50
  -7  -5  -2 4524.46  142.25
  -7  -5  -3    0.90   11.29
  -7  -5  -3    6.53   11.85
   7   5   4 3309.81  118.55
  -7  -5  -4 3449.56  109.52
   7   5   5  -73.42   36.27
  -7  -5  -5    8.12   11.37
   7   5   6 3406.16  119.49
  -7  -5  -6 3400.25  112.03
  -7   6   0   59.51   19.70
  -7  -6   0   20.59   11.07
  -7  -6   0   31.42   11.41
   7   6   1 3127.33  102.08
  -7  -6  -1 2842.94   96.50
  -7  -6  -1 2870.30   98.42
   7   6   2  -35.73   20.02
  -7  -6  -2  -26.16   10.86
   7   6   3 2585.61  104.62
  -7  -6  -3 2899.77   94.74
  -7  -6  -3 2957.31   94.16
   7   6   4  114.83   37.16
   7   6   4  -17.67   18.67
  -7  -6  -4   22.39   12.29
   7   6   5 2578.34  109.91
   7   6   5 2702.77   95.66
  -7  -6  -5 2613.75   88.35
   7   7   0 1959.80   79.47
  -7  -7   0 2108.49   70.66
  -7  -7   0 2313.25   74.12
   7  -7   0 2096.94   70.92
   7   7   1   48.92   27.42
  -7  -7  -1  -15.68   12.48
  -7  -7  -1   20.79   13.39
   7   7   2 2170.25   85.65
  -7  -7  -2 2141.91   74.24
  -7  -7  -2 2257.52   73.70
   7   7   3  199.26   45.20
  -7  -7  -3  115.32   13.07
  -7  -7  -3   76.84   16.71
   7   7   4 2027.45   87.88
   7   7   4 1797.88   70.07
  -7  -7  -4 1814.53   65.02
  -7  -8   0   33.37   13.71
  -7  -8   0  -15.70   12.64
   7  -8   0   22.37   12.73
   7   8   1 1788.23   77.67
  -7  -8  -1 1718.24   59.41
  -7  -8  -1 1779.54   61.96
   7   8   2   28.00   40.15
  -7  -8  -2   92.26   15.67
  -7  -8  -2   45.64   11.67
   8   0   0 6246.57  194.36
  -8   0   0 6259.02  196.21
   8   0   1    7.77    7.30
   8   0   2 6057.56  182.81
  -8   0  -2 5607.70  183.97
   8   0   3    3.68    9.02
  -8   0  -3   22.90   13.25
   8   0   4 3186.74  113.95
   8   0   5   14.32   21.79
   8   0   6 2252.53   85.06
  -8   0  -6 1991.00   72.56
   8   1   0   54.64    8.49
  -8   1   0    6.43   10.57
  -8  -1   0   82.74   13.05
   8  -1   0   60.57    6.11
   8   1   1 5934.72  178.50
  -8   1  -1 5524.97  180.90
  -8  -1  -1 5601.67  179.33
   8  -1   1 5654.12  176.47
   8   1   2    8.44    9.01
  -8  -1  -2   -8.70   13.55
   8  -1   2   29.71    6.60
   8   1   3 4355.71  135.07
  -8   1  -3 3934.13  133.59
  -8  -1  -3 4085.33  133.67
   8  -1   3 4180.49  130.64
   8   1   4    3.45   10.94
   8   1   4   -9.97   14.16
   8  -1   4   48.13   18.88
   8   1   5 2891.76   98.92
  -8  -1  -5 2745.87   88.93
   8  -1   5 2567.55   97.15
   8   1   6  -49.96   25.94
  -8  -1  -6   19.75   13.32
   8  -1   6   43.80   30.78
   8   2   0 4434.22  141.99
  -8   2   0 4394.32  144.71
  -8  -2   0 4377.20  141.82
   8  -2   0 4458.94  136.00
   8   2   1  -13.68    9.58
  -8   2  -1   21.53   12.97
  -8  -2  -1   12.42   12.81
   8  -2   1    7.55    6.01
   8   2   2 4412.58  138.07
  -8   2  -2 4433.00  137.82
  -8  -2  -2 4040.22  136.91
   8  -2   2 4374.24  135.60
   8   2   3   14.76   12.92
  -8  -2  -3   -1.34   10.57
  -8  -2  -3    2.62   13.88
   8   2   4 3339.35  111.31
  -8  -2  -4 3303.14  107.88
   8  -2   4 3238.17  112.53
   8   2   5    9.76   23.53
  -8  -2  -5   18.31   12.43
   8  -2   5   92.91   29.27
   8   2   6 2979.57  108.58
  -8  -2  -6 2698.58   91.36
   8  -2   6 2730.81  112.55
   8   3   0   15.65    9.44
  -8   3   0   28.51   11.77
  -8  -3   0   31.88   13.08
   8  -3   0    3.06    5.20
   8   3   1 3829.96  125.56
  -8   3  -1 3625.18  123.45
  -8  -3  -1 3790.68  127.90
   8  -3   1 4210.57  120.03
   8   3   2   22.64   13.09
  -8   3  -2   16.63   11.66
  -8  -3  -2   -0.47   14.05
   8   3   3 3511.64  121.53
  -8  -3  -3 3782.07  117.89
  -8  -3  -3 3838.39  119.56
   8  -3   3 3494.61  121.12
   8   3   4   62.85   17.28
  -8  -3  -4  -11.68   11.54
   8  -3   4    6.91   20.54
   8   3   5 2154.24   81.68
   8   3   5 2552.84   86.47
  -8  -3  -5 2329.86   74.52
   8  -3   5 1871.38   90.26
   8   4   0 3223.96  105.23
  -8  -4   0 3226.49  105.66
   8  -4   0 3192.95  101.95
  -8  -4  -1  106.49   12.68
   8  -4   1   62.67    6.90
   8   4   2 3909.42  126.09
  -8  -4  -2 3655.10  121.50
  -8  -4  -2 3771.59  121.20
   8   4   3   20.34   18.55
  -8  -4  -3   15.83   11.25
  -8  -4  -3   19.30   13.85
   8   4   4 2075.49   81.56
  -8  -4  -4 2331.14   74.00
   8   4   5   57.05   26.27
  -8  -4  -5   21.09   11.90
   8   5   0   19.07   15.33
  -8  -5   0   -6.77   11.82
   8  -5   0   18.12    4.72
   8   5   1 2603.33   89.35
  -8  -5  -1 2493.33   85.83
  -8  -5  -1 2731.16   88.75
   8   5   2   70.28   18.18
  -8  -5  -2   -8.38   12.69
  -8  -5  -2   47.02   14.53
   8   5   3 2241.46   80.89
  -8  -5  -3 2129.67   71.95
  -8  -5  -3 2119.72   73.45
   8   5   4   -0.78   26.16
   8   5   4   19.07   25.03
  -8  -5  -4  -21.51   10.63
   8   6   0 2209.73   76.03
  -8  -6   0 1905.29   71.30
   8   6   1   42.83   22.50
  -8  -6  -1   -6.29   11.89
  -8  -6  -1   52.53   14.82
   8   6   2 2091.18   76.31
  -8  -6  -2 1746.24   62.96
  -8  -6  -2 1920.17   64.79
  -8  -7   0   59.07   12.27
  -8  -7   0   58.57   13.54
  -9   0   0   11.33   12.04
   9   0   1 2585.45   81.01
  -9   0  -1 2408.29   82.58
   9   0   2  -11.67    8.52
  -9   0  -2   35.98   12.71
  -9   0  -3 1975.04   68.50
   9   1   0 3098.32  101.51
  -9   1   0 3024.08  101.95
  -9  -1   0 3112.69  103.74
   9  -1   0 3164.28   99.25
   9   1   1   14.87    8.87
  -9   1  -1    0.43   11.97
  -9  -1  -1   27.60   14.59
   9  -1   1   12.14    7.91
   9   1   2 2078.80   70.28
  -9   1  -2 1925.42   68.97
  -9  -1  -2 2093.96   70.80
   9  -1   2 2167.34   66.91
   9   1   3   21.16   13.21
  -9  -1  -3    5.40   13.79
   9   2   0   19.42    9.65
  -9   2   0    2.06   11.56
  -9  -2   0   -1.42   12.38
   9  -2   0    9.76    7.03
   9   2   1 2379.80   80.40
  -9   2  -1 2303.12   78.97
  -9  -2  -1 2354.40   81.50
   9  -2   1 2520.45   77.68
   9   2   2  -37.61   12.50
  -9   2  -2   -0.61   13.83
  -9  -2  -2  -37.86   15.19
   9   2   3 1909.13   64.88
   9  -2   3 1777.42   72.86
   9   3   0 2623.70   86.31
  -9   3   0 2453.52   84.03
  -9  -3   0 2478.40   88.59
   9  -3   0 2774.87   81.36
   9   3   1   -3.85   12.60
  -9   3  -1  -11.34   13.69
  -9  -3  -1   34.50   15.41
   9   3   2 2132.95   75.41
   9   4   0  -22.60   15.04
  -9  -4   0   15.99   15.03
   9  -4   0   -7.42    5.79
   9   4   1 2166.70   77.21

;
_shelx_hkl_checksum              4747
loop_
_space_group_symop_operation_xyz
'x, y, z'
'-x+1/2, y+1/2, -z+1/2'
'-x, -y, -z'
'x-1/2, -y-1/2, z-1/2'
loop_
_atom_site_label
_atom_site_type_symbol
_atom_site_fract_x
_atom_site_fract_y
_atom_site_fract_z
_atom_site_U_iso_or_equiv
_atom_site_adp_type
_atom_site_occupancy
_atom_site_site_symmetry_order
_atom_site_calc_flag
_atom_site_refinement_flags_posn
_atom_site_refinement_flags_adp
_atom_site_refinement_flags_occupancy
_atom_site_disorder_assembly
_atom_site_disorder_group
Eu1 Eu 0.0000 0.0000 0.0000 0.02362(6) Uani 1 2 d S . P . .
C1 C 0.3111(15) -0.0265(10) 0.1927(9) 0.041(2) Uani 0.578(11) 1 d . U P A 1
H1 H 0.4062 0.0404 0.2268 0.050 Uiso 0.578(11) 1 calc R U P A 1
C2 C 0.3695(13) -0.1056(12) 0.0989(9) 0.0315(19) Uani 0.578(11) 1 d . U P A 1
H2 H 0.4943 -0.0801 0.0926 0.038 Uiso 0.578(11) 1 calc R U P A 1
C3 C 0.3002(12) -0.2111(11) 0.0112(10) 0.0262(18) Uani 0.578(11) 1 d . U P A 1
H3 H 0.3910 -0.2323 -0.0381 0.031 Uiso 0.578(11) 1 calc R U P A 1
C4 C 0.1397(14) -0.2941(10) -0.0257(8) 0.0269(17) Uani 0.578(11) 1 d . U P A 1
H4 H 0.1539 -0.3530 -0.0935 0.032 Uiso 0.578(11) 1 calc R U P A 1
C5 C -0.0345(13) -0.3176(7) 0.0055(7) 0.0270(15) Uani 0.578(11) 1 d . U P A 1
H5 H -0.1013 -0.3873 -0.0484 0.032 Uiso 0.578(11) 1 calc R U P A 1
C6 C -0.1432(10) -0.2744(9) 0.0877(9) 0.0282(15) Uani 0.578(11) 1 d . U P A 1
H6 H -0.2591 -0.3255 0.0732 0.034 Uiso 0.578(11) 1 calc R U P A 1
C7 C -0.1384(11) -0.1794(11) 0.1861(8) 0.0297(16) Uani 0.578(11) 1 d . U P A 1
H7 H -0.2499 -0.1880 0.2193 0.036 Uiso 0.578(11) 1 calc R U P A 1
C8 C -0.0180(16) -0.0753(11) 0.2504(6) 0.0376(19) Uani 0.578(11) 1 d . U P A 1
H8 H -0.0747 -0.0330 0.3125 0.045 Uiso 0.578(11) 1 calc R U P A 1
C9 C 0.1580(18) -0.0143(9) 0.2521(6) 0.0409(19) Uani 0.578(11) 1 d . U P A 1
H9 H 0.1816 0.0591 0.3132 0.049 Uiso 0.578(11) 1 calc R U P A 1
C10 C 0.3555(13) -0.0351(12) 0.1596(11) 0.024(2) Uani 0.422(11) 1 d . U P A 2
H10 H 0.4729 0.0133 0.1772 0.029 Uiso 0.422(11) 1 calc R U P A 2
C11 C 0.3547(19) -0.1424(17) 0.0641(13) 0.033(3) Uani 0.422(11) 1 d . U P A 2
H11 H 0.4748 -0.1433 0.0412 0.039 Uiso 0.422(11) 1 calc R U P A 2
C12 C 0.244(2) -0.2428(16) -0.0050(12) 0.034(3) Uani 0.422(11) 1 d . U P A 2
H12 H 0.3098 -0.2841 -0.0634 0.040 Uiso 0.422(11) 1 calc R U P A 2
C13 C 0.071(2) -0.3020(14) -0.0166(12) 0.039(3) Uani 0.422(11) 1 d . U P A 2
H13 H 0.0491 -0.3671 -0.0837 0.047 Uiso 0.422(11) 1 calc R U P A 2
C14 C -0.082(2) -0.2959(13) 0.0400(13) 0.040(3) Uani 0.422(11) 1 d . U P A 2
H14 H -0.1731 -0.3651 0.0042 0.048 Uiso 0.422(11) 1 calc R U P A 2
C15 C -0.1464(12) -0.2229(14) 0.1310(13) 0.032(2) Uani 0.422(11) 1 d . U P A 2
H15 H -0.2654 -0.2608 0.1396 0.038 Uiso 0.422(11) 1 calc R U P A 2
C16 C -0.0949(15) -0.1098(16) 0.2165(11) 0.031(2) Uani 0.422(11) 1 d . U P A 2
H16 H -0.1936 -0.0926 0.2605 0.037 Uiso 0.422(11) 1 calc R U P A 2
C17 C 0.0536(18) -0.0152(14) 0.2574(6) 0.0274(19) Uani 0.422(11) 1 d . U P A 2
H17 H 0.0246 0.0453 0.3207 0.033 Uiso 0.422(11) 1 calc R U P A 2
C18 C 0.2318(15) 0.0183(12) 0.2341(8) 0.030(2) Uani 0.422(11) 1 d . U P A 2
H18 H 0.2846 0.0995 0.2815 0.036 Uiso 0.422(11) 1 calc R U P A 2
loop_
_atom_site_aniso_label
_atom_site_aniso_U_11
_atom_site_aniso_U_22
_atom_site_aniso_U_33
_atom_site_aniso_U_23
_atom_site_aniso_U_13
_atom_site_aniso_U_12
Eu1 0.02425(9) 0.02587(9) 0.01946(9) 0.00117(9) -0.00002(6) 0.00347(8)
C1 0.040(5) 0.049(4) 0.030(4) 0.004(3) -0.011(3) -0.005(3)
C2 0.024(3) 0.032(4) 0.034(5) 0.007(3) -0.008(3) -0.003(3)
C3 0.020(3) 0.025(4) 0.035(4) 0.006(3) 0.007(3) 0.003(3)
C4 0.033(4) 0.021(3) 0.030(3) 0.004(2) 0.014(3) 0.002(3)
C5 0.040(4) 0.018(2) 0.026(3) 0.001(2) 0.013(3) -0.005(2)
C6 0.031(3) 0.028(3) 0.027(4) 0.008(3) 0.008(3) -0.002(3)
C7 0.032(3) 0.038(4) 0.021(3) 0.007(3) 0.011(3) 0.009(3)
C8 0.048(5) 0.045(4) 0.019(3) 0.004(3) 0.005(3) 0.003(3)
C9 0.055(5) 0.044(4) 0.021(3) -0.003(3) -0.002(3) -0.007(4)
C10 0.016(3) 0.031(5) 0.026(5) 0.003(3) 0.003(3) 0.000(3)
C11 0.028(5) 0.035(6) 0.034(6) -0.001(4) 0.004(4) 0.007(4)
C12 0.043(7) 0.028(6) 0.029(4) -0.004(4) 0.002(5) 0.009(4)
C13 0.048(7) 0.036(5) 0.030(5) 0.000(4) -0.003(5) -0.002(5)
C14 0.044(6) 0.034(5) 0.040(7) 0.004(4) 0.001(4) -0.003(4)
C15 0.033(4) 0.030(5) 0.031(6) 0.009(4) 0.000(4) -0.004(4)
C16 0.025(4) 0.041(5) 0.027(5) 0.008(4) 0.002(3) 0.000(4)
C17 0.027(4) 0.040(5) 0.016(3) 0.000(3) 0.007(3) 0.003(4)
C18 0.022(4) 0.048(6) 0.019(4) 0.002(3) -0.001(3) 0.003(3)
loop_
_atom_type_symbol
_atom_type_description
_atom_type_scat_dispersion_real
_atom_type_scat_dispersion_imag
_atom_type_scat_source
Eu Eu -0.1578 3.6682 'International Tables Vol C Tables 4.2.6.8 and 6.1.1.4'
C C 0.0033 0.0016 'International Tables Vol C Tables 4.2.6.8 and 6.1.1.4'
H H 0.0000 0.0000 'International Tables Vol C Tables 4.2.6.8 and 6.1.1.4'
loop_
_geom_angle_atom_site_label_1
_geom_angle_atom_site_label_2
_geom_angle_atom_site_label_3
_geom_angle
_geom_angle_site_symmetry_1
_geom_angle_site_symmetry_3
C13 Eu1 C13 180.0 3 .
C13 Eu1 C14 151.6(3) 3 .
C13 Eu1 C14 28.4(3) . .
C13 Eu1 C14 28.4(3) 3 3
C13 Eu1 C14 151.6(3) . 3
C14 Eu1 C14 180.0 . 3
C13 Eu1 C15 54.8(4) 3 3
C13 Eu1 C15 125.2(4) . 3
C14 Eu1 C15 151.8(3) . 3
C14 Eu1 C15 28.2(3) 3 3
C13 Eu1 C15 125.2(4) 3 .
C13 Eu1 C15 54.8(4) . .
C14 Eu1 C15 28.2(3) . .
C14 Eu1 C15 151.8(3) 3 .
C15 Eu1 C15 180.0(4) 3 .
C13 Eu1 C16 77.8(4) 3 3
C13 Eu1 C16 102.2(4) . 3
C14 Eu1 C16 124.5(4) . 3
C14 Eu1 C16 55.5(4) 3 3
C15 Eu1 C16 29.0(3) 3 3
C15 Eu1 C16 151.0(3) . 3
C13 Eu1 C16 102.2(4) 3 .
C13 Eu1 C16 77.8(4) . .
C14 Eu1 C16 55.5(4) . .
C14 Eu1 C16 124.5(4) 3 .
C15 Eu1 C16 151.0(3) 3 .
C15 Eu1 C16 29.0(3) . .
C16 Eu1 C16 180.0 3 .
C13 Eu1 C12 27.8(3) 3 3
C13 Eu1 C12 152.2(3) . 3
C14 Eu1 C12 126.1(4) . 3
C14 Eu1 C12 53.9(4) 3 3
C15 Eu1 C12 75.3(4) 3 3
C15 Eu1 C12 104.7(4) . 3
C16 Eu1 C12 89.4(3) 3 3
C16 Eu1 C12 90.6(3) . 3
C13 Eu1 C12 152.2(3) 3 .
C13 Eu1 C12 27.8(3) . .
C14 Eu1 C12 53.9(4) . .
C14 Eu1 C12 126.1(4) 3 .
C15 Eu1 C12 104.7(4) 3 .
C15 Eu1 C12 75.3(4) . .
C16 Eu1 C12 90.6(3) 3 .
C16 Eu1 C12 89.4(3) . .
C12 Eu1 C12 180.0 3 .
C13 Eu1 C17 91.5(3) 3 3
C13 Eu1 C17 88.5(3) . 3
C14 Eu1 C17 102.3(3) . 3
C14 Eu1 C17 77.7(3) 3 3
C15 Eu1 C17 55.5(3) 3 3
C15 Eu1 C17 124.5(3) . 3
C16 Eu1 C17 28.4(3) 3 3
C16 Eu1 C17 151.6(3) . 3
C12 Eu1 C17 90.2(3) 3 3
C12 Eu1 C17 89.8(3) . 3
C13 Eu1 C17 88.5(3) 3 .
C13 Eu1 C17 91.5(3) . .
C14 Eu1 C17 77.7(3) . .
C14 Eu1 C17 102.3(3) 3 .
C15 Eu1 C17 124.5(3) 3 .
C15 Eu1 C17 55.5(3) . .
C16 Eu1 C17 151.6(3) 3 .
C16 Eu1 C17 28.4(3) . .
C12 Eu1 C17 89.8(3) 3 .
C12 Eu1 C17 90.2(3) . .
C17 Eu1 C17 180.00(4) 3 .
C9 C1 C2 140.3(8) . .
C9 C1 Eu1 76.5(4) . .
C2 C1 Eu1 76.9(5) . .
C9 C1 H1 109.8 . .
C2 C1 H1 109.8 . .
Eu1 C1 H1 132.8 . .
C1 C2 C3 139.5(8) . .
C1 C2 Eu1 75.0(5) . .
C3 C2 Eu1 75.8(5) . .
C1 C2 H2 110.3 . .
C3 C2 H2 110.3 . .
Eu1 C2 H2 136.7 . .
C4 C3 C2 139.5(8) . .
C4 C3 Eu1 75.9(4) . .
C2 C3 Eu1 76.0(5) . .
C4 C3 H3 110.2 . .
C2 C3 H3 110.2 . .
Eu1 C3 H3 134.6 . .
C5 C4 C3 139.7(8) . .
C5 C4 Eu1 76.4(4) . .
C3 C4 Eu1 76.2(5) . .
C5 C4 H4 110.2 . .
C3 C4 H4 110.2 . .
Eu1 C4 H4 133.4 . .
C6 C5 C4 141.5(8) . .
C6 C5 Eu1 78.0(4) . .
C4 C5 Eu1 75.9(4) . .
C6 C5 H5 109.3 . .
C4 C5 H5 109.3 . .
Eu1 C5 H5 133.2 . .
C5 C6 C7 140.3(7) . .
C5 C6 Eu1 74.7(4) . .
C7 C6 Eu1 77.4(4) . .
C5 C6 H6 109.8 . .
C7 C6 H6 109.8 . .
Eu1 C6 H6 135.2 . .
C6 C7 C8 138.8(6) . .
C6 C7 Eu1 75.1(4) . .
C8 C7 Eu1 74.8(4) . .
C6 C7 H7 110.6 . .
C8 C7 H7 110.6 . .
Eu1 C7 H7 137.5 . .
C9 C8 C7 140.1(6) . .
C9 C8 Eu1 74.3(4) . .
C7 C8 Eu1 77.6(4) . .
C9 C8 H8 109.9 . .
C7 C8 H8 109.9 . .
Eu1 C8 H8 135.3 . .
C8 C9 C1 140.1(7) . .
C8 C9 Eu1 77.9(4) . .
C1 C9 Eu1 75.4(4) . .
C8 C9 H9 110.0 . .
C1 C9 H9 110.0 . .
Eu1 C9 H9 132.4 . .
C18 C10 C11 138.3(10) . .
C18 C10 Eu1 75.0(5) . .
C11 C10 Eu1 73.9(6) . .
C18 C10 H10 110.8 . .
C11 C10 H10 110.8 . .
Eu1 C10 H10 138.8 . .
C12 C11 C10 142.9(12) . .
C12 C11 Eu1 74.9(7) . .
C10 C11 Eu1 77.0(6) . .
C12 C11 H11 108.5 . .
C10 C11 H11 108.5 . .
Eu1 C11 H11 139.8 . .
C13 C12 C11 140.0(12) . .
C13 C12 Eu1 74.6(7) . .
C11 C12 Eu1 77.4(7) . .
C13 C12 H12 110.0 . .
C11 C12 H12 110.0 . .
Eu1 C12 H12 135.0 . .
C12 C13 C14 138.7(11) . .
C12 C13 Eu1 77.6(7) . .
C14 C13 Eu1 75.9(7) . .
C12 C13 H13 110.6 . .
C14 C13 H13 110.6 . .
Eu1 C13 H13 130.7 . .
C15 C14 C13 140.7(10) . .
C15 C14 Eu1 76.5(6) . .
C13 C14 Eu1 75.7(7) . .
C15 C14 H14 109.7 . .
C13 C14 H14 109.7 . .
Eu1 C14 H14 135.7 . .
C14 C15 C16 141.1(9) . .
C14 C15 Eu1 75.4(6) . .
C16 C15 Eu1 75.9(5) . .
C14 C15 H15 109.5 . .
C16 C15 H15 109.5 . .
Eu1 C15 H15 138.1 . .
C17 C16 C15 140.5(9) . .
C17 C16 Eu1 77.3(5) . .
C15 C16 Eu1 75.0(5) . .
C17 C16 H16 109.7 . .
C15 C16 H16 109.7 . .
Eu1 C16 H16 135.1 . .
C16 C17 C18 139.7(9) . .
C16 C17 Eu1 74.3(5) . .
C18 C17 Eu1 76.8(5) . .
C16 C17 H17 110.2 . .
C18 C17 H17 110.2 . .
Eu1 C17 H17 136.2 . .
C17 C18 C10 137.6(10) . .
C17 C18 Eu1 75.0(5) . .
C10 C18 Eu1 76.7(6) . .
C17 C18 H18 111.2 . .
C10 C18 H18 111.2 . .
Eu1 C18 H18 132.5 . .
loop_
_geom_bond_atom_site_label_1
_geom_bond_atom_site_label_2
_geom_bond_distance
_geom_bond_site_symmetry_2
Eu1 C13 2.796(13) 3
Eu1 C13 2.796(13) .
Eu1 C14 2.798(11) .
Eu1 C14 2.798(11) 3
Eu1 C15 2.812(9) 3
Eu1 C15 2.812(9) .
Eu1 C16 2.823(8) 3
Eu1 C16 2.823(8) .
Eu1 C12 2.832(13) 3
Eu1 C12 2.832(13) .
Eu1 C17 2.860(7) 3
Eu1 C17 2.860(7) .
C1 C9 1.395(12) .
C1 C2 1.399(11) .
C1 H1 0.9500 .
C2 C3 1.405(10) .
C2 H2 0.9500 .
C3 C4 1.390(9) .
C3 H3 0.9500 .
C4 C5 1.385(8) .
C4 H4 0.9500 .
C5 C6 1.371(8) .
C5 H5 0.9500 .
C6 C7 1.398(9) .
C6 H6 0.9500 .
C7 C8 1.401(11) .
C7 H7 0.9500 .
C8 C9 1.390(12) .
C8 H8 0.9500 .
C9 H9 0.9500 .
C10 C18 1.414(11) .
C10 C11 1.448(13) .
C10 H10 0.9500 .
C11 C12 1.365(14) .
C11 H11 0.9500 .
C12 C13 1.353(15) .
C12 H12 0.9500 .
C13 C14 1.374(17) .
C13 H13 0.9500 .
C14 C15 1.365(15) .
C14 H14 0.9500 .
C15 C16 1.413(14) .
C15 H15 0.9500 .
C16 C17 1.394(13) .
C16 H16 0.9500 .
C17 C18 1.396(11) .
C17 H17 0.9500 .
C18 H18 0.9500 .
loop_
_geom_torsion_atom_site_label_1
_geom_torsion_atom_site_label_2
_geom_torsion_atom_site_label_3
_geom_torsion_atom_site_label_4
_geom_torsion
C9 C1 C2 C3 3.6(19)
Eu1 C1 C2 C3 -45.3(10)
C9 C1 C2 Eu1 48.9(10)
C1 C2 C3 C4 -2.2(18)
Eu1 C2 C3 C4 -47.2(10)
C1 C2 C3 Eu1 45.1(10)
C2 C3 C4 C5 -1.1(17)
Eu1 C3 C4 C5 -48.4(9)
C2 C3 C4 Eu1 47.3(10)
C3 C4 C5 C6 -0.3(17)
Eu1 C4 C5 C6 -48.7(9)
C3 C4 C5 Eu1 48.4(9)
C4 C5 C6 C7 1.2(16)
Eu1 C5 C6 C7 -46.9(9)
C4 C5 C6 Eu1 48.1(9)
C5 C6 C7 C8 1.8(15)
Eu1 C6 C7 C8 -44.4(8)
C5 C6 C7 Eu1 46.2(8)
C6 C7 C8 C9 -1.6(15)
Eu1 C7 C8 C9 -46.0(9)
C6 C7 C8 Eu1 44.5(8)
C7 C8 C9 C1 -2.1(17)
Eu1 C8 C9 C1 -49.0(9)
C7 C8 C9 Eu1 46.9(9)
C2 C1 C9 C8 0.7(18)
Eu1 C1 C9 C8 49.7(10)
C2 C1 C9 Eu1 -49.0(10)
C18 C10 C11 C12 2(3)
Eu1 C10 C11 C12 -41.5(17)
C18 C10 C11 Eu1 43.3(13)
C10 C11 C12 C13 -4(3)
Eu1 C11 C12 C13 -46.4(16)
C10 C11 C12 Eu1 42.0(17)
C11 C12 C13 C14 -4(3)
Eu1 C12 C13 C14 -51.0(15)
C11 C12 C13 Eu1 47.1(16)
C12 C13 C14 C15 5(3)
Eu1 C13 C14 C15 -46.2(14)
C12 C13 C14 Eu1 51.5(15)
C13 C14 C15 C16 2(2)
Eu1 C14 C15 C16 -43.7(13)
C13 C14 C15 Eu1 46.0(14)
C14 C15 C16 C17 -3(2)
Eu1 C15 C16 C17 -47.0(12)
C14 C15 C16 Eu1 43.6(13)
C15 C16 C17 C18 0(2)
Eu1 C16 C17 C18 -45.9(11)
C15 C16 C17 Eu1 46.4(12)
C16 C17 C18 C10 -4(2)
Eu1 C17 C18 C10 -49.7(11)
C16 C17 C18 Eu1 45.2(11)
C11 C10 C18 C17 6(2)
Eu1 C10 C18 C17 49.2(11)
C11 C10 C18 Eu1 -43.0(13)
