#------------------------------------------------------------------------------
#$Date: 2017-06-30 04:05:17 +0300 (Fri, 30 Jun 2017) $
#$Revision: 198270 $
#$URL: file:///home/coder/svn-repositories/cod/cif/7/12/03/7120353.cif $
#------------------------------------------------------------------------------
#
# This file is available in the Crystallography Open Database (COD),
# http://www.crystallography.net/
#
# All data on this site have been placed in the public domain by the
# contributors.
#
data_7120353
loop_
_publ_author_name
'Shao, Long'
'Hu, Xiang-Ping'
_publ_section_title
;
 Copper-catalyzed intermolecular asymmetric propargylic dearomatization of
 phenol derivatives
;
_journal_name_full               'Chem. Commun.'
_journal_paper_doi               10.1039/C7CC03034G
_journal_year                    2017
_chemical_absolute_configuration ad
_chemical_compound_source        3,4,5-trimethoxyphenol
_chemical_formula_moiety         C18H17BrO4
_chemical_formula_sum            'C18 H17 Br O4'
_chemical_formula_weight         377.23
_chemical_melting_point          163.0(10)
_chemical_name_common            (S)-3fa
_chemical_name_systematic
(S)-4-(1-(4-bromophenyl)prop-2-yn-1-yl)-3,4,5-trimethoxycyclohexa-2,5-dienone
_space_group_crystal_system      monoclinic
_space_group_IT_number           4
_space_group_name_Hall           'P 2yb'
_space_group_name_H-M_alt        'P 1 21 1'
_symmetry_space_group_name_Hall  'P 2yb'
_symmetry_space_group_name_H-M   'P 1 21 1'
_atom_sites_solution_hydrogens   geom
_audit_creation_method           SHELXL-2013
_audit_update_record
;
2017-03-13 deposited with the CCDC.
2017-06-29 downloaded from the CCDC.
;
_cell_angle_alpha                90
_cell_angle_beta                 98.474(4)
_cell_angle_gamma                90
_cell_formula_units_Z            2
_cell_length_a                   7.6645(15)
_cell_length_b                   13.511(3)
_cell_length_c                   8.2107(16)
_cell_measurement_reflns_used    1648
_cell_measurement_temperature    293(2)
_cell_measurement_theta_max      44.533
_cell_measurement_theta_min      5.016
_cell_volume                     841.0(3)
_computing_cell_refinement       'Bruker SMART'
_computing_data_collection       'Bruker SMART'
_computing_data_reduction        'Bruker SHELXTL'
_computing_molecular_graphics    'Bruker SHELXTL'
_computing_publication_material  'Bruker SHELXTL'
_computing_structure_refinement  'SHELXL-2013 (Sheldrick, 2013)'
_computing_structure_solution    'Bruker SHELXTL'
_diffrn_ambient_temperature      293(2)
_diffrn_measured_fraction_theta_full 1.000
_diffrn_measured_fraction_theta_max 0.998
_diffrn_measurement_device_type  'CCD area detector'
_diffrn_measurement_method       'phi and omega scans'
_diffrn_radiation_type           MoK\a
_diffrn_radiation_wavelength     0.71073
_diffrn_reflns_av_R_equivalents  0.0268
_diffrn_reflns_av_unetI/netI     0.0660
_diffrn_reflns_Laue_measured_fraction_full 1.000
_diffrn_reflns_Laue_measured_fraction_max 0.998
_diffrn_reflns_limit_h_max       8
_diffrn_reflns_limit_h_min       -9
_diffrn_reflns_limit_k_max       16
_diffrn_reflns_limit_k_min       -15
_diffrn_reflns_limit_l_max       10
_diffrn_reflns_limit_l_min       -9
_diffrn_reflns_number            5027
_diffrn_reflns_point_group_measured_fraction_full 0.941
_diffrn_reflns_point_group_measured_fraction_max 0.933
_diffrn_reflns_theta_full        25.242
_diffrn_reflns_theta_max         25.998
_diffrn_reflns_theta_min         2.508
_exptl_absorpt_coefficient_mu    2.461
_exptl_absorpt_correction_T_max  0.7456
_exptl_absorpt_correction_T_min  0.5857
_exptl_absorpt_correction_type   multi-scan
_exptl_absorpt_process_details   sadabs
_exptl_crystal_colour            colorless
_exptl_crystal_density_diffrn    1.490
_exptl_crystal_description       prismatic
_exptl_crystal_F_000             384
_exptl_crystal_size_max          0.210
_exptl_crystal_size_mid          0.160
_exptl_crystal_size_min          0.120
_refine_diff_density_max         0.623
_refine_diff_density_min         -0.187
_refine_diff_density_rms         0.049
_refine_ls_abs_structure_details
; 
 Flack x determined using 997 quotients [(I+)-(I-)]/[(I+)+(I-)] 
 (Parsons and Flack (2004), Acta Cryst. A60, s61). 
;
_refine_ls_abs_structure_Flack   0.007(9)
_refine_ls_extinction_method     none
_refine_ls_goodness_of_fit_ref   0.985
_refine_ls_hydrogen_treatment    constr
_refine_ls_matrix_type           full
_refine_ls_number_parameters     211
_refine_ls_number_reflns         3090
_refine_ls_number_restraints     1
_refine_ls_restrained_S_all      0.984
_refine_ls_R_factor_all          0.0453
_refine_ls_R_factor_gt           0.0365
_refine_ls_shift/su_max          0.000
_refine_ls_shift/su_mean         0.000
_refine_ls_structure_factor_coef Fsqd
_refine_ls_weighting_details
'w=1/[\s^2^(Fo^2^)+(0.0143P)^2^] where P=(Fo^2^+2Fc^2^)/3'
_refine_ls_weighting_scheme      calc
_refine_ls_wR_factor_gt          0.0770
_refine_ls_wR_factor_ref         0.0799
_reflns_Friedel_coverage         0.789
_reflns_Friedel_fraction_full    0.876
_reflns_Friedel_fraction_max     0.862
_reflns_number_gt                2629
_reflns_number_total             3090
_reflns_threshold_expression     'I > 2\s(I)'
_cod_data_source_file            c7cc03034g2.cif
_cod_data_source_block           cd16282
_cod_depositor_comments
;
The following automatic conversions were performed:

'_chemical_melting_point' value '162-164' was changed to '163.0(10)'
- the average value was taken and precision was estimated.

Automatic conversion script
Id: cif_fix_values 4973 2017-02-22 13:04:09Z antanas 
;
_cod_database_code               7120353
_shelx_space_group_comment
; 
The symmetry employed for this shelxl refinement is uniquely defined 
by the following loop, which should always be used as a source of 
symmetry information in preference to the above space-group names. 
They are only intended as comments. 
;
_shelx_estimated_absorpt_t_min   0.626
_shelx_estimated_absorpt_t_max   0.757
_shelxl_version_number           2013-4
_shelx_res_file
; 
TITL cd16282 in P2(1) 
CELL 0.71073   7.6645  13.5112   8.2107  90.000  98.474  90.000 
ZERR    2.00   0.0015   0.0027   0.0016   0.000   0.004   0.000 
LATT -1 
SYMM -X, 0.5+Y, -Z 
SFAC C  H  O  Br 
UNIT 36 34 8 2 
OMIT  -3.00  52.00 
L.S. 10 
ACTA 
BOND  $H 
FMAP 2 
PLAN 20 
conf 
htab 
mpla c1 > c6 
mpla c10 > c15 
size 0.21 0.16 0.12 
wpdb -1 
WGHT    0.014300 
FVAR       0.30709 
MOLE 1 
BR1   4    1.243436    0.549203    1.051455    11.00000    0.06976    0.07097 = 
         0.06232    0.02130    0.00024    0.02980 
O1    3    0.907500    0.530328    0.338592    11.00000    0.05928    0.04689 = 
         0.09587   -0.01523    0.02873    0.00642 
O2    3    0.429813    0.687657    0.533765    11.00000    0.03933    0.03116 = 
         0.05886   -0.00881    0.01616   -0.00733 
O3    3    0.889895    0.878128    0.378337    11.00000    0.05191    0.03927 = 
         0.06603    0.00317    0.02308   -0.01058 
O4    3    0.540991    0.853446    0.387952    11.00000    0.04349    0.03603 = 
         0.03860    0.00463   -0.00222    0.00626 
C1    1    0.586882    0.683504    0.480316    11.00000    0.03274    0.03618 = 
         0.03299   -0.00372    0.00426   -0.00364 
C2    1    0.667042    0.601929    0.440308    11.00000    0.04459    0.02869 = 
         0.04785   -0.00520    0.00541   -0.00672 
AFIX  43 
H2    2    0.615194    0.540793    0.453589    11.00000   -1.20000 
AFIX   0 
C3    1    0.834136    0.605702    0.376134    11.00000    0.04374    0.03948 = 
         0.05014   -0.00658    0.00951    0.00412 
C4    1    0.908579    0.702444    0.353368    11.00000    0.04129    0.04936 = 
         0.04387   -0.00785    0.01369   -0.00206 
AFIX  43 
H4    2    1.012812    0.706493    0.308347    11.00000   -1.20000 
AFIX   0 
C5    1    0.833411    0.785441    0.394431    11.00000    0.03880    0.03817 = 
         0.03453    0.00326    0.00326   -0.00492 
C6    1    0.663981    0.786443    0.472274    11.00000    0.03181    0.02711 = 
         0.03212    0.00205    0.00172   -0.00196 
C7    1    0.712842    0.833070    0.651282    11.00000    0.03311    0.02157 = 
         0.03453   -0.00049    0.00232   -0.00201 
AFIX  13 
H7    2    0.777201    0.894487    0.637754    11.00000   -1.20000 
AFIX   0 
C8    1    0.557535    0.860732    0.722742    11.00000    0.04296    0.02566 = 
         0.03688   -0.00214   -0.00043   -0.00217 
C9    1    0.439130    0.892006    0.783925    11.00000    0.04358    0.03865 = 
         0.04659   -0.00235    0.00892    0.00138 
AFIX 163 
H9    2    0.345692    0.916686    0.832206    11.00000   -1.20000 
AFIX   0 
C10   1    0.839077    0.766126    0.761772    11.00000    0.03728    0.02663 = 
         0.03172   -0.00194    0.00341    0.00003 
C11   1    0.782667    0.688768    0.851131    11.00000    0.03896    0.04318 = 
         0.03953    0.00374    0.00330    0.00060 
AFIX  43 
H11   2    0.662419    0.679357    0.850817    11.00000   -1.20000 
AFIX   0 
C12   1    0.900314    0.625548    0.940310    11.00000    0.05671    0.03722 = 
         0.03598    0.00911    0.00884    0.00582 
AFIX  43 
H12   2    0.860677    0.573675    0.999694    11.00000   -1.20000 
AFIX   0 
C13   1    1.078177    0.640322    0.940266    11.00000    0.05070    0.04007 = 
         0.03774    0.00552   -0.00064    0.01717 
C14   1    1.138755    0.717002    0.858353    11.00000    0.03812    0.04900 = 
         0.04631    0.00600   -0.00113    0.00469 
AFIX  43 
H14   2    1.259297    0.727003    0.861822    11.00000   -1.20000 
AFIX   0 
C15   1    1.018510    0.780258    0.769396    11.00000    0.04116    0.03928 = 
         0.04922    0.00496    0.00396   -0.00619 
AFIX  43 
H15   2    1.059383    0.833359    0.713621    11.00000   -1.20000 
AFIX   0 
C16   1    0.339709    0.595797    0.547603    11.00000    0.05252    0.04324 = 
         0.06939   -0.00589    0.02139   -0.01402 
AFIX 137 
H16A  2    0.324805    0.562279    0.443382    11.00000   -1.50000 
H16B  2    0.226197    0.608505    0.579414    11.00000   -1.50000 
H16C  2    0.407761    0.555066    0.629284    11.00000   -1.50000 
AFIX   0 
C17   1    1.053598    0.890591    0.314550    11.00000    0.06607    0.05803 = 
         0.08444    0.00804    0.03697   -0.01853 
AFIX 137 
H17A  2    1.147250    0.859826    0.387689    11.00000   -1.50000 
H17B  2    1.078151    0.959890    0.305586    11.00000   -1.50000 
H17C  2    1.044608    0.860372    0.207820    11.00000   -1.50000 
AFIX   0 
C18   1    0.490620    0.831773    0.218239    11.00000    0.07080    0.07614 = 
         0.03821    0.00963   -0.00804    0.00937 
AFIX 137 
H18A  2    0.590809    0.839092    0.161532    11.00000   -1.50000 
H18B  2    0.399248    0.876567    0.172200    11.00000   -1.50000 
H18C  2    0.447764    0.765015    0.206293    11.00000   -1.50000 
AFIX   0 
HKLF 4 
  
REM  cd16282 in P2(1) 
REM R1 =  0.0365 for    2629 Fo > 4sig(Fo)  and  0.0453 for all    3090 data 
REM    211 parameters refined using      1 restraints 
  
END 
  
WGHT      0.0141      0.0000 
  
REM No hydrogen bonds found for HTAB generation 
  
REM Highest difference peak  0.623,  deepest hole -0.187,  1-sigma level  0.049 
Q1    1   1.1608  0.5028  1.0379  11.00000  0.05    0.33 
Q2    1   1.1597  0.6036  1.0142  11.00000  0.05    0.33 
Q3    1   1.1383  0.5604  0.9661  11.00000  0.05    0.32 
Q4    1   1.2027  0.4996  1.1332  11.00000  0.05    0.27 
Q5    1   1.2448  0.4851  1.1251  11.00000  0.05    0.27 
Q6    1   1.2103  0.5959  1.1189  11.00000  0.05    0.26 
Q7    1   1.3671  0.5467  1.1419  11.00000  0.05    0.21 
Q8    1   0.9670  0.7587  0.8461  11.00000  0.05    0.20 
Q9    1   0.6540  0.7391  0.5249  11.00000  0.05    0.17 
Q10   1   0.8751  0.5214  0.4228  11.00000  0.05    0.16 
Q11   1   0.5418  0.6851  0.4962  11.00000  0.05    0.16 
Q12   1   0.7619  0.7792  0.4654  11.00000  0.05    0.16 
Q13   1   0.5740  0.8050  0.3438  11.00000  0.05    0.15 
Q14   1   0.6138  0.7395  0.4681  11.00000  0.05    0.15 
Q15   1   0.5267  0.9370  0.7196  11.00000  0.05    0.15 
Q16   1   0.8679  0.4609  0.3824  11.00000  0.05    0.15 
Q17   1   0.1780  0.6273  0.5404  11.00000  0.05    0.14 
Q18   1   1.0277  0.7219  0.7514  11.00000  0.05    0.14 
Q19   1   0.6422  0.5485  0.4264  11.00000  0.05    0.14 
Q20   1   0.6027  0.8769  0.4971  11.00000  0.05    0.14 
;
_shelx_res_checksum              8612
_shelx_hkl_file
; 
   1   0   0   16.36    1.15 
   2   0   0   34.94    2.43 
   3   0   0   78.00    5.30 
   4   0   0    6.78    0.79 
   5   0   0    3.08    0.62 
   6   0   0   36.35    2.86 
  -7   0   0   -0.13    0.45 
   7   0   0    0.88    0.68 
  -8   0   0   -0.46    0.51 
   8   0   0    0.68    0.84 
  -9   0   0    4.19    1.07 
  -9   1   0    4.25    0.92 
  -8   1   0    1.01    0.82 
  -8   1   0    1.00    0.58 
  -7   1   0   10.26    1.29 
   6  -1   0    1.97    0.64 
   5  -1   0   82.62    5.77 
   4  -1   0   20.80    1.68 
   3  -1   0  252.23   16.60 
   2  -1   0   41.31    2.85 
  -1   1   0  375.23   24.49 
   0  -1   0   -0.15    0.03 
   0   1   0   -0.15    0.03 
  -1  -1   0  429.58   24.59 
   1   1   0  359.97   25.74 
   2   1   0   42.85    2.95 
   3   1   0  260.16   17.13 
   4   1   0   19.34    1.61 
   5   1   0   91.56    6.35 
  -6  -1   0    3.06    0.50 
   6   1   0    4.29    0.79 
  -7  -1   0   10.40    0.94 
   7   1   0   10.01    1.30 
  -8  -1   0    1.41    0.60 
  -8  -1   0    1.38    0.79 
  -9  -1   0    4.30    1.07 
 -10  -1   0    0.03    1.01 
  -9   2   0   -0.02    0.74 
  -8   2   0    6.71    1.17 
  -8   2   0    6.52    0.87 
  -7   2   0   10.02    1.22 
  -6   2   0   37.75    2.90 
  -5   2   0    3.84    0.70 
  -4   2   0   44.40    3.18 
  -3   2   0   13.62    1.13 
  -2   2   0  598.61   39.00 
  -1   2   0   69.54    4.64 
   0  -2   0  114.55    7.22 
  -1  -2   0   69.98    3.68 
  -1  -2   0   69.44    4.44 
   1   2   0   69.71    4.66 
  -2  -2   0  535.74   34.38 
  -2  -2   0  563.18   28.62 
   2   2   0  559.97   36.05 
  -3  -2   0   16.61    1.21 
  -3  -2   0   16.35    0.93 
   3   2   0   14.99    1.31 
  -4  -2   0   62.69    4.12 
  -4  -2   0   62.43    3.36 
  -5  -2   0    1.70    0.52 
  -5  -2   0    1.61    0.35 
   5   2   0    2.49    0.59 
  -6  -2   0   42.20    2.97 
  -6  -2   0   39.54    2.38 
   6   2   0   43.79    3.24 
  -7  -2   0   11.37    0.95 
  -7  -2   0   11.69    1.28 
   7   2   0   12.16    1.44 
  -8  -2   0    6.51    1.05 
  -9  -2   0   -0.39    0.91 
 -10  -2   0    0.21    1.14 
  -9   3   0    0.21    0.71 
  -8   3   0    0.63    0.81 
  -7   3   0    8.45    1.17 
  -6   3   0   35.70    2.79 
  -5   3   0   42.35    3.13 
  -4   3   0    1.88    0.50 
  -3   3   0  306.76   20.13 
  -2   3   0   18.80    1.44 
  -1   3   0  257.46   16.84 
   0  -3   0   -0.55    0.15 
   0   3   0   -0.44    0.13 
  -1  -3   0  222.68   14.91 
  -1  -3   0  233.14   12.41 
   1   3   0  261.05   15.65 
  -2  -3   0   19.65    1.02 
  -2  -3   0   19.92    1.36 
   2   3   0   16.74    1.41 
  -3  -3   0  309.20   15.85 
  -3  -3   0  305.54   19.12 
   3   3   0  301.24   20.07 
  -4  -3   0    1.92    0.48 
  -4  -3   0    1.58    0.27 
   4   3   0    1.74    0.48 
  -5  -3   0   38.22    2.72 
  -5  -3   0   37.81    2.15 
   5   3   0   39.61    2.95 
  -6  -3   0   36.97    2.64 
  -6  -3   0   34.35    2.06 
   6   3   0   36.77    2.89 
  -7  -3   0   12.42    1.28 
   7   3   0    8.95    1.34 
  -8  -3   0    0.18    0.78 
  -9  -3   0    1.40    0.99 
  -9   4   0    0.93    0.75 
  -8   4   0    9.31    1.39 
  -7   4   0    2.54    0.85 
  -6   4   0    1.96    0.70 
  -5   4   0   25.33    2.08 
  -4   4   0  100.81    6.87 
  -3   4   0    2.34    0.46 
  -2   4   0  318.11   20.84 
  -1   4   0   73.08    4.93 
   0  -4   0  484.84   32.46 
   0   4   0  559.03   34.03 
  -1  -4   0   73.79    4.67 
   1   4   0   71.40    4.90 
  -2  -4   0  362.78   21.53 
   2   4   0  326.05   22.54 
  -3  -4   0    3.83    0.51 
  -3  -4   0    3.56    0.29 
   3   4   0    2.83    0.50 
  -4  -4   0   94.03    6.18 
  -4  -4   0   97.20    5.02 
   4   4   0   94.32    6.54 
  -5  -4   0   26.05    1.98 
  -5  -4   0   26.63    1.49 
   5   4   0   23.85    2.14 
  -6  -4   0    0.15    0.60 
   6   4   0    1.02    0.64 
  -7  -4   0    1.62    0.77 
   7   4   0    2.69    0.90 
  -8  -4   0    8.11    1.26 
  -9  -4   0    0.55    0.99 
  -9   5   0    3.57    0.94 
  -8   5   0    1.69    0.96 
  -7   5   0   19.01    1.89 
  -6   5   0    0.69    0.64 
  -5   5   0   72.89    5.15 
  -4   5   0   28.27    2.20 
  -3   5   0  101.69    6.88 
  -2   5   0   13.83    1.18 
  -1   5   0  262.09   17.21 
   0  -5   0   -0.19    0.22 
   0   5   0    0.45    0.25 
  -1  -5   0  286.54   17.21 
   1   5   0  262.56   18.02 
  -2  -5   0   17.17    1.28 
   2   5   0   15.27    1.31 
  -3  -5   0  103.91    6.62 
   3   5   0  101.43    6.96 
  -4  -5   0   26.81    1.49 
  -4  -5   0   27.60    2.02 
   4   5   0   27.02    2.16 
  -5  -5   0   68.90    4.72 
   5   5   0   71.94    5.06 
  -6  -5   0    0.73    0.64 
   6   5   0    0.99    0.61 
  -7  -5   0   16.61    1.73 
   7   5   0   20.99    2.05 
  -8  -5   0    0.31    0.83 
  -9  -5   0    3.81    1.16 
  -9   6   0    3.78    0.95 
  -8   6   0    5.65    1.21 
  -7   6   0    0.73    0.76 
  -6   6   0   82.45    5.86 
  -5   6   0    1.42    0.65 
  -4   6   0   33.16    2.55 
  -3   6   0   53.24    3.78 
  -2   6   0   96.78    6.57 
  -1   6   0   37.58    2.71 
   0  -6   0  413.17   25.34 
   0   6   0  396.84   26.52 
  -1  -6   0   35.71    2.44 
   1   6   0   34.33    2.54 
  -2  -6   0   64.94    4.89 
   2   6   0   86.71    5.20 
  -3  -6   0   52.21    3.55 
   3   6   0   51.99    3.73 
  -4  -6   0   38.58    2.59 
   4   6   0   32.67    2.71 
  -5  -6   0    1.38    0.61 
   5   6   0    1.68    0.63 
  -6  -6   0   93.77    5.95 
   6   6   0   82.27    6.33 
  -7  -6   0    1.29    0.81 
   7   6   0    1.27    0.88 
  -8  -6   0    3.82    1.04 
  -9  -6   0    1.89    1.09 
  -9   7   0    3.04    0.95 
  -8   7   0    1.63    0.98 
  -7   7   0    6.51    1.16 
  -6   7   0    0.40    0.72 
  -5   7   0    1.65    0.68 
  -4   7   0   19.18    1.72 
  -3   7   0   82.29    5.69 
  -2   7   0   13.52    1.28 
  -1   7   0  107.09    7.25 
   0   7   0    0.06    0.32 
  -1  -7   0  104.14    7.02 
   1   7   0  113.71    7.39 
  -2  -7   0   12.57    1.19 
   2   7   0   13.48    1.22 
  -3  -7   0   71.11    5.02 
   3   7   0   82.28    5.36 
  -4  -7   0   19.41    1.67 
   4   7   0   19.45    1.75 
  -5  -7   0    5.78    0.95 
  -6  -7   0    0.25    0.66 
   6   7   0    0.39    0.70 
  -7  -7   0    5.38    1.14 
   7   7   0    7.51    1.31 
  -8  -7   0    0.74    0.98 
  -9  -7   0    2.75    1.21 
  -8   8   0    3.56    1.18 
  -7   8   0    2.32    1.02 
  -6   8   0   15.79    1.71 
  -5   8   0   17.30    1.76 
  -4   8   0   43.38    3.28 
  -3   8   0    4.76    0.81 
  -2   8   0   80.03    5.57 
  -1   8   0   66.39    4.68 
   0   8   0   48.55    3.53 
  -1  -8   0   67.11    4.40 
   1   8   0   62.83    4.57 
  -2  -8   0   72.05    5.02 
   2   8   0   78.73    5.29 
  -3  -8   0    6.15    0.82 
   3   8   0    4.61    0.78 
  -4  -8   0   40.82    3.20 
   4   8   0   51.22    3.50 
  -5  -8   0   14.75    1.55 
   5   8   0   16.62    1.69 
  -6  -8   0   18.07    1.80 
   6   8   0   17.47    1.91 
  -7  -8   0    2.88    1.05 
   7   8   0    3.32    1.17 
  -8  -8   0    4.69    1.29 
  -9  -8   0   -0.09    1.17 
  -8   9   0    1.12    1.09 
  -7   9   0    4.03    1.10 
  -6   9   0   11.88    1.48 
  -5   9   0   49.95    3.82 
  -4   9   0    1.24    0.72 
  -3   9   0   54.59    4.01 
  -2   9   0    8.86    1.07 
  -1   9   0   36.65    2.80 
   0   9   0   -0.29    0.39 
  -1  -9   0   34.94    2.68 
   1   9   0   38.41    2.83 
  -2  -9   0    9.72    1.08 
   2   9   0    9.71    1.13 
   3   9   0   41.65    3.18 
  -4  -9   0    1.49    0.75 
   4   9   0    0.89    0.63 
  -5  -9   0   44.40    3.34 
   5   9   0   48.21    3.65 
  -6  -9   0   15.21    1.68 
   6   9   0   16.90    1.89 
  -7  -9   0    4.88    1.21 
   7   9   0    3.43    1.26 
  -8  -9   0   -0.04    1.12 
  -8  10   0    2.59    1.21 
  -7  10   0    3.75    1.17 
  -6  10   0   11.34    1.55 
  -5  10   0    1.54    0.87 
  -4  10   0   31.50    2.65 
  -3  10   0    5.48    0.95 
  -2  10   0   13.01    1.41 
  -1  10   0    6.97    1.00 
   0  10   0   18.56    1.73 
  -1 -10   0    7.61    1.04 
   1  10   0    7.22    1.03 
  -2 -10   0   16.71    1.53 
   2  10   0   13.75    1.51 
  -3 -10   0    4.25    0.91 
   3  10   0    5.75    0.93 
  -4 -10   0   34.77    2.70 
   4  10   0   34.57    2.87 
  -5 -10   0    2.82    0.95 
   5  10   0    2.51    0.93 
  -6 -10   0   11.90    1.52 
   6  10   0   11.34    1.63 
  -7 -10   0    4.74    1.22 
  -8 -10   0    3.74    1.25 
  -7  11   0    3.15    1.23 
  -6  11   0    1.60    0.96 
  -5  11   0    5.35    1.18 
  -4  11   0   15.28    1.68 
  -3  11   0    7.38    1.16 
  -2  11   0    7.42    1.13 
  -1  11   0   71.25    5.19 
   0  11   0    0.03    0.54 
  -1 -11   0   67.48    4.84 
   1  11   0   71.30    5.07 
  -2 -11   0    5.18    0.97 
   2  11   0    7.91    1.15 
  -3 -11   0    6.69    1.09 
   3  11   0    7.61    1.13 
  -4 -11   0   18.73    1.84 
   4  11   0   17.46    1.87 
  -5 -11   0    6.79    1.23 
   5  11   0    5.56    1.23 
  -6 -11   0    0.72    1.02 
   6  11   0    0.55    0.94 
  -7 -11   0    2.88    1.29 
  -8 -11   0    1.52    1.27 
  -7  12   0    1.19    1.18 
  -6  12   0    8.98    1.50 
  -5  12   0    3.46    1.13 
  -4  12   0    5.72    1.18 
  -3  12   0    5.98    1.16 
  -2  12   0    7.50    1.20 
  -1  12   0   17.83    1.87 
   0  12   0   56.13    4.23 
   1  12   0   18.02    1.86 
  -2 -12   0    5.43    1.10 
   2  12   0   10.41    1.34 
  -3 -12   0    5.16    1.11 
   3  12   0    5.85    1.11 
  -4 -12   0    5.23    1.17 
   4  12   0    7.00    1.25 
  -5 -12   0    6.34    1.30 
   5  12   0    3.66    1.19 
  -6 -12   0   10.66    1.65 
   6  12   0   11.15    1.71 
  -7 -12   0    0.34    1.21 
  -6  13   0    1.63    1.22 
  -5  13   0    2.30    1.13 
  -4  13   0    2.76    1.09 
  -3  13   0   22.04    2.23 
  -2  13   0    0.78    0.88 
  -1  13   0    7.67    1.28 
   0  13   0   -0.70    0.63 
   1  13   0   10.35    1.47 
  -2 -13   0    0.79    0.81 
   2  13   0    0.71    0.81 
  -3 -13   0   19.77    2.00 
   3  13   0   17.30    1.97 
  -4 -13   0    2.23    1.06 
   4  13   0    1.73    0.97 
  -5 -13   0    2.66    1.20 
   5  13   0    2.59    1.17 
  -6 -13   0    2.03    1.27 
   6  13   0    1.93    1.18 
  -7 -13   0    5.14    1.50 
  -6  14   0    3.29    1.33 
  -5  14   0   -0.06    1.07 
  -4  14   0    7.30    1.45 
  -3  14   0    1.47    1.03 
  -2  14   0    4.50    1.27 
  -1  14   0    0.38    0.84 
   0  14   0   19.42    2.10 
   1  14   0   -0.09    0.81 
   2  14   0    5.90    1.30 
  -3 -14   0    0.97    1.04 
   3  14   0    0.97    0.91 
  -4 -14   0    6.32    1.43 
   4  14   0    7.96    1.49 
  -5 -14   0    2.57    1.16 
   5  14   0    2.96    1.25 
  -6 -14   0    3.62    1.40 
   6  14   0    5.06    1.52 
  -5  15   0    4.31    1.42 
  -4  15   0    1.23    1.15 
  -3  15   0    4.20    1.43 
  -2  15   0    2.75    1.23 
  -1  15   0    2.51    1.06 
   0  15   0   -1.30    0.81 
   1  15   0    3.52    1.19 
   2  15   0    3.39    1.18 
  -3 -15   0    7.69    1.48 
   3  15   0    5.19    1.33 
  -4 -15   0    0.92    1.19 
   4  15   0    1.69    1.17 
  -5 -15   0    4.63    1.47 
   5  15   0    3.91    1.42 
  -4  16   0    2.48    1.39 
  -3  16   0    0.86    1.32 
  -2  16   0    2.04    1.34 
  -1  16   0    4.08    1.29 
   0  16   0    1.72    1.10 
   1  16   0    3.53    1.29 
   2  16   0    1.86    1.13 
   3  16   0    1.21    1.07 
  -4 -16   0    1.74    1.34 
   4  16   0    1.39    1.24 
  -3  17   0    2.27    1.47 
  -2  17   0    0.91    1.25 
  -1  17   0    0.35    1.06 
   0  17   0   -0.51    1.02 
   1  17   0    2.10    1.16 
   2  17   0    1.49    1.10 
   3  17   0    0.40    1.11 
   3  17  -1    0.06    1.06 
   2  17  -1   -0.31    1.04 
   1  17  -1    7.84    1.70 
   0  17  -1   -0.28    1.04 
  -1  17  -1    4.06    1.34 
  -2  17  -1    6.59    1.57 
   4  16  -1    1.11    1.19 
  -4 -16   1    2.18    1.25 
   3  16  -1    2.30    1.15 
  -3 -16   1    1.64    1.16 
   2  16  -1    5.05    1.41 
   1  16  -1    2.77    1.27 
   0  16  -1    3.18    1.19 
  -1  16  -1    2.37    1.18 
  -2  16  -1    7.12    1.56 
  -3  16  -1    2.56    1.41 
  -4  16  -1    3.00    1.40 
   5  15  -1    1.21    1.21 
  -5 -15   1    0.90    1.21 
   4  15  -1    0.05    1.00 
  -4 -15   1    1.42    1.12 
   3  15  -1    7.16    1.40 
  -3 -15   1    8.19    1.48 
   2  15  -1    2.24    1.10 
   1  15  -1    0.14    0.90 
   0  15  -1    3.39    1.14 
  -1  15  -1    5.41    1.32 
  -2  15  -1   -0.88    0.86 
  -3  15  -1    2.41    1.14 
  -4  15  -1    3.80    1.39 
  -5  15  -1    2.11    1.29 
  -6 -14   1    2.56    1.41 
   5  14  -1    1.21    1.13 
  -5 -14   1    4.72    1.39 
   4  14  -1    3.68    1.19 
  -4 -14   1    5.07    1.24 
   3  14  -1    5.87    1.25 
  -3 -14   1    4.25    1.22 
   2  14  -1    3.77    1.15 
  -2 -14   1    2.76    1.06 
   1  14  -1   15.61    1.88 
   0  14  -1    9.64    1.43 
  -1  14  -1    2.41    1.04 
  -2  14  -1   16.07    1.85 
  -3  14  -1    3.14    1.18 
  -4  14  -1    1.99    1.14 
  -5  14  -1    2.28    1.29 
  -6  14  -1   -0.56    1.09 
  -7 -13   1    1.80    1.37 
  -6 -13   1    2.91    1.35 
   5  13  -1    5.41    1.29 
  -5 -13   1    4.20    1.30 
   4  13  -1    0.43    0.84 
  -4 -13   1   -0.11    0.85 
   3  13  -1    2.31    0.91 
  -3 -13   1    3.60    0.99 
   2  13  -1    5.54    1.13 
  -2 -13   1    3.39    0.98 
   1  13  -1   21.97    2.19 
   0  13  -1    0.87    0.79 
  -1  13  -1    6.47    1.21 
  -2  13  -1    6.51    1.19 
  -3  13  -1    5.68    1.22 
  -4  13  -1    3.60    1.15 
  -5  13  -1    3.28    1.18 
  -6  13  -1    3.99    1.30 
  -7 -12   1    1.66    1.35 
  -6 -12   1    3.04    1.25 
   5  12  -1    3.78    1.10 
  -5 -12   1    2.40    1.05 
   4  12  -1    7.85    1.27 
  -4 -12   1    6.76    1.27 
   3  12  -1    2.77    0.88 
  -3 -12   1    2.95    0.92 
   2  12  -1   19.87    2.00 
  -2 -12   1   20.29    1.95 
   1  12  -1    3.01    0.91 
  -1 -12   1    4.21    0.97 
   0  12  -1   60.03    4.55 
  -1  12  -1   11.86    1.43 
  -2  12  -1    2.56    0.87 
  -3  12  -1    3.16    0.98 
  -4  12  -1   13.22    1.66 
  -5  12  -1    2.57    1.08 
  -6  12  -1    6.24    1.42 
  -7  12  -1    0.09    1.10 
  -8 -11   1    2.01    1.24 
  -7 -11   1    3.91    1.28 
  -6 -11   1    3.10    1.15 
   5  11  -1    6.23    1.21 
  -5 -11   1    6.65    1.26 
   4  11  -1    8.23    1.22 
  -4 -11   1    6.42    1.19 
   3  11  -1   18.73    1.80 
  -3 -11   1   17.79    1.72 
   2  11  -1    6.99    1.12 
  -2 -11   1    7.62    1.10 
   1  11  -1   24.65    2.06 
  -1 -11   1   20.76    1.94 
   0  11  -1    3.48    0.86 
  -1  11  -1   25.19    2.23 
  -2  11  -1    2.97    0.82 
  -3  11  -1   21.07    2.03 
  -4  11  -1   11.45    1.51 
  -5  11  -1   30.83    2.81 
  -6  11  -1    3.23    1.10 
  -7  11  -1    3.52    1.27 
  -8 -10   1    0.96    1.24 
  -7 -10   1   -0.15    0.97 
   6  10  -1    7.51    1.33 
  -6 -10   1    8.43    1.35 
   5  10  -1    1.79    0.85 
  -5 -10   1    4.41    0.95 
   4  10  -1    5.36    0.93 
  -4 -10   1    1.52    0.84 
   3  10  -1    3.72    0.84 
  -3 -10   1    6.23    0.92 
   2  10  -1   35.33    2.75 
  -2 -10   1   33.43    2.62 
   1  10  -1   20.92    1.81 
  -1 -10   1   19.36    1.80 
  -1  10  -1   13.42    1.41 
  -2  10  -1   43.48    3.34 
  -3  10  -1    7.41    1.14 
  -4  10  -1   16.35    1.74 
  -5  10  -1    2.87    0.99 
  -6  10  -1    0.80    0.90 
  -7  10  -1    2.68    1.17 
  -8  10  -1   -0.73    1.10 
  -8  -9   1    4.69    1.40 
  -7  -9   1    5.68    1.31 
   6   9  -1    8.79    1.35 
  -6  -9   1    6.75    1.28 
   5   9  -1   19.12    2.01 
  -5  -9   1   25.60    2.08 
   4   9  -1    6.83    1.05 
  -4  -9   1    9.67    1.13 
   3   9  -1   30.69    2.37 
  -3  -9   1   28.70    2.32 
   2   9  -1   21.54    1.84 
  -2  -9   1   21.40    1.82 
   1   9  -1   23.85    2.06 
  -1  -9   1   27.46    2.03 
   0   9  -1    2.91    0.62 
  -1   9  -1   85.79    5.98 
  -2   9  -1   13.37    1.41 
  -3   9  -1   10.63    1.25 
  -4   9  -1    5.62    0.99 
  -5   9  -1    7.70    1.21 
  -6   9  -1    1.24    0.88 
  -7   9  -1    8.18    1.52 
  -8   9  -1    2.47    1.27 
  -9  -8   1    2.87    1.27 
  -8  -8   1    2.83    1.19 
  -7  -8   1    2.56    1.04 
   6   8  -1    3.12    0.93 
  -6  -8   1    3.52    1.00 
   5   8  -1    0.81    0.56 
  -5  -8   1   -0.10    0.71 
   4   8  -1   34.15    2.70 
  -4  -8   1   35.01    2.65 
   3   8  -1   20.91    1.64 
  -3  -8   1   18.73    1.59 
  -3  -8   1   18.07    1.10 
   2   8  -1   71.21    4.82 
  -2  -8   1   65.61    4.59 
  -2  -8   1   68.25    3.66 
   1   8  -1   25.52    1.96 
  -1  -8   1   22.82    1.84 
   0   8  -1   61.12    4.41 
   0  -8   1   64.04    4.25 
  -1   8  -1    8.72    0.98 
  -2   8  -1   92.90    6.43 
  -3   8  -1    6.39    0.92 
  -5   8  -1    9.94    1.30 
  -6   8  -1    5.93    1.15 
  -7   8  -1    2.63    1.04 
  -8   8  -1    8.81    1.61 
  -9  -7   1    1.58    1.14 
  -8  -7   1    0.60    0.98 
  -7  -7   1    8.38    1.23 
   6   7  -1    8.11    1.17 
  -6  -7   1    9.19    1.23 
   5   7  -1   44.47    3.36 
  -5  -7   1   43.77    3.22 
   4   7  -1    4.82    0.73 
  -4  -7   1    2.01    0.66 
   3   7  -1   25.37    1.91 
  -3  -7   1   22.28    1.83 
  -3  -7   1   23.49    1.33 
   2   7  -1    0.75    0.39 
  -2  -7   1    1.64    0.49 
  -2  -7   1    1.83    0.25 
   1   7  -1   64.39    4.76 
  -1  -7   1   72.79    3.72 
  -1  -7   1   69.00    4.57 
   0   7  -1   32.61    2.47 
   0  -7   1   34.20    2.39 
  -1   7  -1   88.35    6.06 
  -2   7  -1   14.77    1.36 
  -3   7  -1   60.19    4.31 
  -4   7  -1    6.79    0.97 
  -5   7  -1   24.91    2.20 
  -6   7  -1   10.96    1.41 
  -7   7  -1   16.10    1.83 
  -8   7  -1    1.18    1.02 
  -9   7  -1    1.88    1.27 
  -9  -6   1   -0.04    1.02 
  -8  -6   1    5.58    1.22 
  -7  -6   1    5.64    1.10 
   6   6  -1   36.15    2.62 
  -6  -6   1   25.61    2.40 
   5   6  -1   20.92    1.85 
  -5  -6   1   21.48    1.78 
   4   6  -1   58.74    4.14 
  -4  -6   1   58.70    3.14 
  -4  -6   1   56.38    3.95 
   3   6  -1   47.51    3.28 
  -3  -6   1   45.14    2.49 
  -3  -6   1   45.72    3.18 
   2   6  -1  454.23   30.73 
  -2  -6   1  486.17   24.36 
  -2  -6   1  468.67   29.35 
   1   6  -1   25.98    2.19 
  -1  -6   1   31.35    1.69 
  -1  -6   1   33.25    2.16 
   0   6  -1   54.75    3.65 
   0  -6   1   49.41    3.48 
  -1   6  -1   20.01    1.61 
  -2   6  -1  234.17   15.49 
  -3   6  -1   40.88    3.02 
  -4   6  -1   69.01    4.90 
  -5   6  -1    4.53    0.87 
  -6   6  -1   17.89    1.82 
  -7   6  -1   15.88    1.79 
  -8   6  -1    2.36    1.16 
  -9   6  -1    0.62    1.15 
  -9  -5   1    0.29    0.98 
  -8  -5   1    2.60    1.00 
  -7  -5   1    9.50    1.26 
  -5  -5   1   24.22    1.46 
  -5  -5   1   25.46    1.98 
   4   5  -1   13.13    1.05 
  -4  -5   1    8.48    0.65 
  -4  -5   1    7.95    0.97 
   3   5  -1  153.03   10.53 
  -3  -5   1  163.19   10.09 
  -3  -5   1  159.27    8.30 
   2   5  -1   80.29    5.38 
  -2  -5   1   79.45    5.17 
  -2  -5   1   79.05    4.21 
   1   5  -1  318.32   18.40 
  -1  -5   1  263.36   14.54 
  -1  -5   1  259.58   17.52 
   0   5  -1   11.06    1.02 
   0  -5   1   13.22    1.02 
   0  -5   1   13.61    0.81 
  -1   5  -1  207.51   13.68 
  -2   5  -1   89.56    6.08 
  -3   5  -1  137.26    9.23 
  -4   5  -1    4.42    0.77 
  -5   5  -1   19.95    1.83 
  -6   5  -1    2.49    0.87 
  -7   5  -1   13.99    1.66 
  -8   5  -1    1.87    1.04 
  -9   5  -1    2.99    1.28 
  -9  -4   1   -0.32    0.93 
  -8  -4   1    4.61    1.08 
  -7  -4   1    0.52    0.74 
   6   4  -1   65.93    5.61 
  -6  -4   1   89.74    5.48 
  -6  -4   1   86.27    4.37 
  -5  -4   1   21.60    1.81 
  -5  -4   1   22.81    1.34 
  -4  -4   1   46.05    2.59 
  -4  -4   1   50.22    3.29 
  -3  -4   1   39.11    2.62 
  -3  -4   1   37.34    2.07 
   2   4  -1   83.90    6.50 
  -2  -4   1  102.70    6.26 
  -2  -4   1  107.24    5.16 
  -1  -4   1    5.90    0.42 
  -1  -4   1    5.88    0.57 
   0   4  -1  128.09    9.70 
   0  -4   1  155.54    7.72 
   0  -4   1  158.32    9.29 
  -1   4  -1   54.00    3.70 
  -2   4  -1   31.96    2.34 
  -3   4  -1    4.86    0.68 
  -4   4  -1  117.23    7.99 
  -5   4  -1    9.47    1.14 
  -6   4  -1   30.30    2.57 
  -7   4  -1    5.50    1.13 
  -8   4  -1    1.96    0.95 
  -9   4  -1   -0.13    1.07 
 -10  -3   1    0.97    1.15 
  -9  -3   1    2.27    1.07 
  -8  -3   1    9.53    1.29 
  -7  -3   1   10.26    1.22 
  -7  -3   1    9.28    0.84 
   6   3  -1    0.31    0.45 
  -6  -3   1    1.07    0.38 
  -6  -3   1    0.51    0.60 
   5   3  -1   99.58    6.61 
  -5  -3   1   94.29    5.13 
  -5  -3   1   94.99    6.29 
   4   3  -1   31.28    2.27 
  -4  -3   1   30.25    1.71 
  -4  -3   1   29.05    2.15 
  -3  -3   1   36.56    1.96 
  -3  -3   1   35.36    2.46 
  -2  -3   1   16.84    0.98 
  -2  -3   1   17.63    1.26 
   1   3  -1  194.27   15.02 
  -1  -3   1  248.53   11.97 
  -1  -3   1  248.18   14.39 
   0   3  -1  276.41   18.41 
   0  -3   1  286.45   17.58 
   0  -3   1  283.19   14.65 
  -1   3  -1  809.54   52.74 
   1  -3   1  811.04   41.97 
  -2   3  -1   16.64    1.33 
  -3   3  -1  198.94   13.19 
  -4   3  -1   11.12    1.13 
  -5   3  -1   68.56    4.89 
  -6   3  -1    1.79    0.73 
  -7   3  -1   11.40    1.42 
  -8   3  -1    1.66    0.94 
  -9   3  -1    1.19    1.06 
 -10  -2   1    0.27    1.03 
  -9  -2   1    2.15    0.97 
  -8  -2   1    1.34    0.85 
   7   2  -1    4.47    0.79 
  -7  -2   1    3.24    0.58 
  -7  -2   1    2.70    0.81 
   6   2  -1   28.21    2.20 
  -6  -2   1   25.90    1.64 
   5   2  -1   24.12    2.07 
  -5  -2   1   29.23    1.60 
   4   2  -1   67.02    4.75 
  -4  -2   1   71.27    3.72 
   3   2  -1   82.73    5.28 
  -3  -2   1   74.62    4.15 
   2   2  -1  160.82    9.97 
  -2  -2   1  142.41    9.54 
  -2  -2   1  152.05    7.92 
   1   2  -1  113.34    7.90 
  -1  -2   1  123.74    6.31 
  -1  -2   1  124.47    7.58 
   0   2  -1  511.75   33.58 
   0  -2   1  520.45   26.73 
  -1   2  -1  174.59   12.19 
   1  -2   1  196.45    9.72 
   2  -2   1  169.91   11.26 
   3  -2   1    1.92    0.45 
   4  -2   1  109.71    7.53 
   5  -2   1   21.55    1.93 
   6  -2   1   37.46    3.04 
  -7   2  -1    0.05    0.75 
  -8   2  -1    8.41    1.33 
 -10  -1   1    0.76    1.06 
  -9  -1   1    1.61    0.96 
  -8  -1   1    0.10    0.56 
   7   1  -1   16.25    1.67 
  -7  -1   1   20.62    1.35 
   6   1  -1   23.01    1.96 
  -6  -1   1   25.38    1.54 
   5   1  -1   36.36    2.67 
  -5  -1   1   35.80    2.07 
   4   1  -1    5.96    0.66 
   3   1  -1  141.55    9.82 
  -3  -1   1  156.35    7.81 
   2   1  -1  159.24   10.69 
  -2  -1   1  167.06    8.52 
   1   1  -1  544.95   33.81 
  -1  -1   1  491.39   26.79 
   0   1  -1   45.99    3.18 
   0  -1   1   42.55    3.00 
   0  -1   1   51.46    2.55 
   1  -1   1  355.15   18.38 
   1  -1   1  352.68   23.13 
   2  -1   1   34.27    2.46 
   3  -1   1  130.55    8.78 
   4  -1   1    6.92    0.88 
   5  -1   1   54.31    4.03 
   6  -1   1    2.98    0.87 
   7  -1   1   10.44    1.49 
  -8   1  -1   -0.41    0.84 
 -10   0   1    0.37    1.05 
  -9   0   1    0.79    0.72 
  -8   0   1   18.16    1.40 
  -7   0   1    7.46    0.80 
   6   0  -1    8.66    1.03 
  -6   0   1   11.10    0.89 
   5   0  -1   29.70    2.24 
  -5   0   1   29.28    1.76 
   4   0  -1  162.46   10.90 
  -4   0   1  166.74    8.67 
   3   0  -1  359.61   23.36 
  -3   0   1  355.84   18.59 
   2   0  -1  458.51   29.74 
  -2   0   1  455.03   23.67 
  -1   0   1  182.44    9.49 
   0   0   1   58.24    3.82 
   0   0   1   56.53    3.04 
  -1   0  -1  143.70    9.11 
   1   0   1  150.33    7.62 
   1   0   1  142.05    9.63 
   2   0   1  145.21    9.65 
   3   0   1   91.06    6.22 
   4   0   1  208.71   13.94 
   5   0   1    2.05    0.62 
   6   0   1   47.22    3.66 
   7   0   1    2.10    0.89 
  -8   0  -1   11.35    1.36 
   8   0   1   13.47    1.75 
  -9   1   1    1.67    0.74 
  -8   1   1    0.19    0.59 
  -7   1   1   16.06    1.51 
  -7   1   1   17.26    1.28 
  -6   1   1   20.10    1.41 
  -6   1   1   21.62    1.75 
  -5   1   1   38.63    2.24 
  -5   1   1   38.44    2.79 
  -4   1   1    6.30    0.69 
  -4   1   1    7.58    0.59 
  -3   1   1  127.90    6.83 
  -3   1   1  131.54    8.56 
  -2   1   1  154.88   10.06 
  -2   1   1  152.09    8.04 
  -1   1   1  555.32   28.74 
   0   1   1   42.42    2.38 
   0   1   1   44.99    3.01 
  -1  -1  -1  375.92   23.71 
   1   1   1  401.57   24.91 
   1   1   1  367.26   19.76 
  -2  -1  -1   33.72    2.07 
   2   1   1   28.68    2.27 
  -3  -1  -1  128.40    8.07 
   3   1   1  127.33    8.62 
  -4  -1  -1    7.84    0.75 
   4   1   1    6.49    0.88 
  -5  -1  -1   50.86    3.21 
   5   1   1   42.03    3.50 
  -6  -1  -1    3.67    0.69 
   6   1   1    3.99    0.90 
  -7  -1  -1   10.93    1.26 
   7   1   1   14.70    1.64 
  -8  -1  -1    0.40    0.73 
   8   1   1    0.31    0.87 
 -10   2   1   -0.58    0.84 
  -9   2   1    2.37    0.80 
  -8   2   1    2.71    0.71 
  -7   2   1    4.80    0.86 
  -7   2   1    2.75    0.67 
  -6   2   1   28.40    2.26 
  -6   2   1   29.37    1.83 
  -5   2   1   23.81    1.86 
  -4   2   1   67.72    4.61 
  -3   2   1   83.36    5.57 
  -2   2   1  158.76   10.42 
  -1   2   1  150.93    7.76 
  -1   2   1  146.29    9.75 
   0   2   1  531.93   34.63 
  -1  -2  -1  205.69   12.03 
   1   2   1  189.92   10.00 
   1   2   1  180.67   12.65 
  -2  -2  -1  173.02   10.57 
   2   2   1  163.93   11.16 
  -3  -2  -1    1.91    0.36 
   3   2   1    1.74    0.46 
  -4  -2  -1  108.26    7.44 
   4   2   1  127.92    8.02 
  -5  -2  -1   21.08    1.63 
   5   2   1   21.93    1.94 
  -6  -2  -1   32.76    2.53 
   6   2   1   39.37    2.96 
  -7  -2  -1    0.26    0.64 
   7   2   1    0.79    0.78 
  -8  -2  -1    5.61    1.07 
   8   2   1    8.47    1.38 
 -10   3   1    1.24    0.88 
  -9   3   1    1.55    0.80 
  -8   3   1    8.78    1.05 
  -7   3   1   12.15    1.36 
  -7   3   1   13.42    1.15 
  -6   3   1    0.12    0.50 
  -6   3   1    0.42    0.46 
  -5   3   1   94.40    6.43 
  -4   3   1   32.60    2.41 
  -3   3   1   51.12    3.50 
  -2   3   1   22.65    1.64 
  -1   3   1  178.36   11.71 
   0   3   1  298.14   19.49 
  -1  -3  -1  796.98   48.41 
   1   3   1  780.89   50.75 
   1   3   1  759.94   40.40 
  -2  -3  -1   17.59    1.25 
   2   3   1   16.66    1.36 
  -3  -3  -1  208.59   12.76 
   3   3   1  197.17   13.48 
  -4  -3  -1    7.35    0.80 
   4   3   1   10.36    1.06 
  -5  -3  -1   62.91    4.36 
   5   3   1   69.47    4.79 
  -6  -3  -1    1.92    0.62 
   6   3   1    1.07    0.72 
  -7  -3  -1   14.39    1.41 
   7   3   1   12.23    1.64 
  -8  -3  -1    0.01    0.73 
   8   3   1    0.94    0.94 
  -9   4   1   -0.29    0.73 
  -8   4   1    4.75    0.88 
  -7   4   1    1.56    0.61 
  -7   4   1    1.10    0.69 
  -6   4   1   93.68    6.47 
  -5   4   1   27.86    2.17 
  -4   4   1   50.87    3.58 
  -3   4   1   36.53    2.60 
  -2   4   1   79.98    5.38 
  -1   4   1    9.67    0.82 
   0   4   1  129.43    6.76 
   0   4   1  129.49    8.60 
  -1  -4  -1   60.67    3.86 
   1   4   1   61.06    3.12 
   1   4   1   56.19    4.06 
  -2  -4  -1   41.78    2.40 
   2   4   1   28.70    2.52 
  -3  -4  -1    2.47    0.47 
   3   4   1    3.45    0.57 
  -4  -4  -1  122.96    7.83 
   4   4   1  121.47    8.35 
  -5  -4  -1    8.29    0.63 
  -5  -4  -1    8.40    0.95 
   5   4   1   10.26    1.20 
  -6  -4  -1   23.26    1.94 
   6   4   1   26.52    2.34 
  -7  -4  -1    6.94    1.05 
   7   4   1    7.15    1.30 
  -8  -4  -1    3.76    0.99 
   8   4   1    2.38    1.10 
  -9  -4  -1   -0.43    0.90 
  -9   5   1    0.54    0.80 
  -8   5   1    1.97    0.79 
  -7   5   1    6.50    0.89 
  -7   5   1    8.10    1.11 
  -6   5   1   30.06    2.44 
  -5   5   1   18.84    1.66 
  -4   5   1   11.36    1.14 
  -3   5   1  158.18   10.52 
  -2   5   1   76.00    5.16 
  -1   5   1  307.64   20.17 
   0   5   1   13.26    1.12 
  -1  -5  -1  249.91   14.68 
   1   5   1  209.91   15.36 
   1   5   1  239.90   12.10 
  -2  -5  -1   85.57    5.66 
   2   5   1   90.33    6.01 
  -3  -5  -1  109.81    7.69 
   3   5   1  132.96    8.21 
  -4  -5  -1    4.78    0.68 
  -4  -5  -1    4.03    0.33 
   4   5   1    4.10    0.76 
  -5  -5  -1   16.05    1.51 
   5   5   1   20.95    1.81 
  -6  -5  -1    4.93    0.86 
   6   5   1    3.40    0.95 
  -7  -5  -1   17.37    1.61 
   7   5   1   15.27    1.93 
  -8  -5  -1    0.42    0.89 
   8   5   1    1.03    1.02 
  -9  -5  -1    2.98    1.11 
  -9   6   1    0.98    0.86 
  -8   6   1    3.41    0.88 
  -7   6   1    1.95    0.83 
  -6   6   1   35.92    2.86 
  -5   6   1   21.01    1.81 
  -4   6   1   55.76    3.97 
  -3   6   1   46.64    3.35 
  -2   6   1  441.54   28.91 
  -1   6   1   24.34    1.88 
   0   6   1   56.58    3.95 
  -1  -6  -1   21.00    1.57 
   1   6   1   20.36    1.66 
   1   6   1   20.77    1.13 
  -2  -6  -1  236.13   14.69 
   2   6   1  229.62   15.43 
  -3  -6  -1   50.69    3.33 
   3   6   1   47.36    3.58 
  -4  -6  -1   63.94    4.36 
   4   6   1   66.03    4.69 
  -5  -6  -1    2.88    0.72 
   5   6   1    3.69    0.85 
  -6  -6  -1   14.64    1.55 
   6   6   1   20.75    1.95 
  -7  -6  -1   14.40    1.61 
   7   6   1   19.43    2.04 
  -8  -6  -1    4.32    1.07 
   8   6   1    4.20    1.35 
  -9  -6  -1    0.46    1.07 
  -9   7   1    1.13    0.93 
  -8   7   1    1.74    0.83 
  -7   7   1    5.93    1.07 
  -6   7   1    6.28    1.02 
  -5   7   1   43.14    3.26 
  -4   7   1    3.70    0.76 
  -3   7   1   25.36    2.02 
  -2   7   1    0.51    0.43 
  -1   7   1   58.39    4.12 
   0   7   1   33.83    2.52 
  -1  -7  -1   78.90    5.54 
   1   7   1   89.48    4.44 
   1   7   1   84.01    5.84 
  -2  -7  -1   11.23    1.14 
   2   7   1   13.77    1.22 
  -3  -7  -1   71.04    4.55 
   3   7   1   64.61    4.83 
  -4  -7  -1    7.55    0.87 
   4   7   1    5.25    0.91 
  -5  -7  -1   26.39    2.07 
   5   7   1   25.45    2.35 
  -6  -7  -1   12.28    1.41 
   6   7   1   13.21    1.65 
  -7  -7  -1   15.88    1.74 
   7   7   1   17.87    2.05 
  -8  -7  -1    2.13    1.15 
   8   7   1    1.38    1.21 
  -9  -7  -1    1.93    1.20 
  -9   8   1    3.26    1.05 
  -8   8   1    4.54    0.99 
  -7   8   1    3.83    1.02 
  -6   8   1    2.64    0.88 
  -5   8   1    0.03    0.63 
  -4   8   1   33.22    2.62 
  -3   8   1   24.20    2.01 
  -2   8   1   75.58    5.29 
  -1   8   1   28.77    2.29 
   0   8   1   59.56    4.24 
  -1  -8  -1   11.58    1.06 
   1   8   1    8.42    0.57 
   1   8   1    9.08    1.02 
  -2  -8  -1   79.76    5.49 
   2   8   1   86.80    5.82 
  -3  -8  -1    7.88    0.97 
   3   8   1    7.61    1.01 
  -4  -8  -1   55.94    3.83 
   4   8   1   53.17    4.09 
  -5  -8  -1   10.16    1.18 
   5   8   1   10.56    1.39 
  -6  -8  -1    8.03    1.13 
   6   8   1    6.30    1.28 
  -7  -8  -1    1.95    0.97 
   7   8   1    2.74    1.11 
  -8  -8  -1    5.46    1.30 
  -8   9   1    4.58    1.03 
  -7   9   1    6.33    1.29 
  -6   9   1    9.86    1.34 
  -5   9   1   20.23    1.95 
  -4   9   1    7.65    1.06 
  -3   9   1   30.15    2.46 
  -2   9   1   17.40    1.60 
  -1   9   1   27.78    2.28 
   0   9   1    3.06    0.69 
  -1  -9  -1   85.08    5.69 
   1   9   1   82.02    5.94 
   1   9   1   87.01    4.49 
  -2  -9  -1   15.10    1.42 
   2   9   1   13.53    1.42 
  -3  -9  -1    7.64    1.03 
   3   9   1   10.80    1.24 
  -4  -9  -1    3.67    0.88 
   4   9   1    5.68    1.05 
  -5  -9  -1   14.63    1.43 
   5   9   1    7.44    1.34 
  -6  -9  -1    2.42    0.93 
   6   9   1    2.29    1.03 
  -7  -9  -1    9.17    1.35 
   7   9   1    7.72    1.59 
  -8  -9  -1    0.63    1.04 
  -8  10   1    0.75    0.87 
  -7  10   1    2.25    1.02 
  -6  10   1    6.16    1.16 
  -5  10   1    2.49    0.90 
  -4  10   1    6.69    1.10 
  -3  10   1    4.27    0.91 
  -2  10   1   34.69    2.80 
  -1  10   1   18.96    1.79 
   0  10   1  101.53    7.08 
   1  10   1   11.63    1.32 
  -2 -10  -1   36.96    2.94 
   2  10   1   43.23    3.15 
  -3 -10  -1    9.35    1.10 
   3  10   1    6.76    1.12 
  -4 -10  -1    9.73    1.32 
   4  10   1   14.42    1.56 
  -5 -10  -1    2.38    0.92 
   5  10   1    2.81    1.01 
  -6 -10  -1    2.27    0.99 
   6  10   1    2.10    1.02 
  -7 -10  -1    0.50    1.07 
   7  10   1    1.37    1.16 
  -8 -10  -1    0.26    1.20 
  -8  11   1    0.29    0.86 
  -7  11   1    5.28    1.33 
  -6  11   1    1.88    1.03 
  -5  11   1    5.13    1.11 
  -4  11   1    8.27    1.27 
  -3  11   1   20.52    1.96 
  -2  11   1    6.18    1.08 
  -1  11   1   25.33    2.24 
   0  11   1    3.53    0.87 
   1  11   1   22.39    2.06 
  -2 -11  -1    2.85    0.87 
   2  11   1    2.94    0.83 
  -3 -11  -1   20.48    1.94 
   3  11   1   21.63    2.05 
  -4 -11  -1   12.55    1.47 
   4  11   1   12.06    1.60 
  -5 -11  -1   28.49    2.56 
   5  11   1   31.52    2.79 
  -6 -11  -1    3.57    1.16 
   6  11   1    4.73    1.32 
  -7 -11  -1    5.94    1.40 
   7  11   1    5.69    1.56 
  -7  12   1    1.73    1.14 
  -7  12   1    0.58    0.81 
  -6  12   1    3.61    1.19 
  -5  12   1    3.05    1.07 
  -4  12   1    6.91    1.26 
  -3  12   1    3.88    1.03 
  -2  12   1   17.06    1.85 
  -1  12   1    1.79    0.82 
   0  12   1   57.64    4.38 
   1  12   1    8.79    1.27 
  -2 -12  -1    3.30    0.95 
   2  12   1    2.51    0.86 
  -3 -12  -1    2.24    0.93 
   3  12   1    1.99    0.87 
  -4 -12  -1   18.88    1.86 
   4  12   1   14.81    1.89 
  -5 -12  -1    3.27    1.13 
   5  12   1    4.53    1.21 
  -6 -12  -1    8.46    1.50 
   6  12   1    8.73    1.65 
  -7 -12  -1    2.78    1.27 
   7  12   1    0.38    1.20 
  -7  13   1    0.76    1.19 
  -7  13   1    0.45    0.82 
  -6  13   1    2.82    1.23 
  -5  13   1    5.63    1.32 
  -4  13   1    0.51    0.97 
  -3  13   1    3.24    1.14 
  -2  13   1    5.17    1.19 
  -1  13   1   19.29    2.03 
   0  13   1    0.69    0.79 
   1  13   1    6.03    1.19 
   2  13   1    6.37    1.21 
  -3 -13  -1    6.92    1.30 
   3  13   1    7.81    1.34 
  -4 -13  -1    2.21    1.10 
   4  13   1    3.72    1.21 
  -5 -13  -1    2.45    1.13 
   5  13   1    2.51    1.20 
  -6 -13  -1    1.88    1.23 
   6  13   1    2.76    1.30 
  -6  14   1    3.00    1.39 
  -6  14   1    1.29    0.86 
  -5  14   1    2.83    1.22 
  -4  14   1    4.19    1.30 
  -3  14   1    3.50    1.24 
  -2  14   1    2.90    1.09 
  -1  14   1   12.18    1.70 
   0  14   1    8.89    1.48 
   1  14   1    1.70    0.98 
   2  14   1   14.42    1.79 
  -3 -14  -1    2.59    1.08 
   3  14   1    2.95    1.12 
  -4 -14  -1    1.79    1.17 
   4  14   1    2.59    1.15 
  -5 -14  -1    1.22    1.19 
   5  14   1    1.88    1.14 
  -6 -14  -1   -0.36    1.10 
   6  14   1   -0.74    1.06 
  -5  15   1    0.00    0.72 
  -5  15   1    2.35    1.39 
  -4  15   1    0.92    1.20 
  -3  15   1    9.01    1.70 
  -2  15   1    2.62    1.18 
  -1  15   1    1.27    1.13 
   0  15   1    2.82    1.15 
   1  15   1    4.48    1.28 
   2  15   1   -0.66    0.89 
   3  15   1    2.04    1.12 
  -4 -15  -1    3.69    1.28 
   4  15   1    5.46    1.45 
  -5 -15  -1    1.65    1.30 
   5  15   1    3.44    1.39 
  -4  16   1    1.37    1.40 
  -4  16   1    0.76    0.78 
  -3  16   1    2.22    1.26 
  -2  16   1    3.59    1.36 
  -1  16   1    2.62    1.32 
   0  16   1    2.84    1.17 
   1  16   1    2.09    1.18 
   2  16   1    7.12    1.51 
   3  16   1    2.17    1.18 
  -4 -16  -1    2.55    1.40 
   4  16   1    2.60    1.28 
  -3  17   1    0.78    1.26 
  -2  17   1   -1.44    1.10 
  -1  17   1    8.61    1.87 
   0  17   1    1.07    1.08 
   1  17   1    2.94    1.23 
   2  17   1    5.28    1.48 
  -3 -17   2    2.01    1.29 
   2  17  -2    1.83    1.29 
   1  17  -2    1.89    1.24 
   0  17  -2    0.91    1.08 
  -1  17  -2    0.27    1.11 
  -2  17  -2    0.41    1.17 
   4  16  -2    0.20    1.09 
  -4 -16   2    1.04    1.18 
   3  16  -2    0.65    1.08 
  -3 -16   2    0.14    0.95 
   2  16  -2    4.88    1.33 
   1  16  -2    3.39    1.29 
   0  16  -2    6.31    1.41 
  -1  16  -2    4.69    1.38 
  -2  16  -2    0.84    1.08 
  -3  16  -2    0.40    1.04 
  -5 -15   2    0.92    1.14 
   4  15  -2    1.41    1.07 
  -4 -15   2    1.03    1.00 
   3  15  -2    2.39    1.11 
  -3 -15   2    1.76    1.13 
   2  15  -2    1.71    1.05 
  -2 -15   2    0.47    0.98 
   1  15  -2    4.40    1.26 
   0  15  -2    3.52    1.18 
  -1  15  -2    2.58    1.17 
  -2  15  -2    1.62    0.99 
  -3  15  -2    6.69    1.47 
  -4  15  -2    2.69    1.35 
  -6 -14   2    4.87    1.48 
  -5 -14   2    2.45    1.17 
   4  14  -2   -0.33    0.85 
  -4 -14   2   -0.44    0.86 
   3  14  -2    1.35    0.97 
  -3 -14   2    0.74    0.95 
   2  14  -2    2.28    1.07 
  -2 -14   2    0.08    0.81 
   1  14  -2    1.17    0.86 
   0  14  -2    3.99    1.16 
  -1  14  -2    5.22    1.21 
  -2  14  -2    2.73    1.09 
  -3  14  -2    2.51    1.05 
  -4  14  -2    5.84    1.43 
  -5  14  -2    4.90    1.38 
  -7 -13   2    0.23    1.24 
  -6 -13   2    1.19    1.13 
  -5 -13   2    3.56    1.11 
   4  13  -2    9.51    1.39 
  -4 -13   2    7.10    1.32 
   3  13  -2    2.32    0.96 
  -3 -13   2    1.00    0.89 
   2  13  -2    1.88    0.91 
  -2 -13   2    2.19    0.90 
   1  13  -2    7.25    1.23 
  -1 -13   2    9.84    1.39 
   0  13  -2    0.17    0.78 
  -1  13  -2    6.83    1.21 
  -2  13  -2    6.48    1.21 
  -3  13  -2    0.78    0.83 
  -4  13  -2    4.94    1.29 
  -5  13  -2   10.94    1.72 
  -6  13  -2    2.10    1.31 
  -7 -12   2    3.76    1.41 
  -6 -12   2    0.58    1.13 
  -5 -12   2    0.34    0.91 
   4  12  -2    9.01    1.33 
  -4 -12   2    9.95    1.39 
   3  12  -2   14.39    1.63 
  -3 -12   2   14.79    1.65 
   2  12  -2    8.71    1.28 
  -2 -12   2    7.54    1.21 
   1  12  -2   12.35    1.50 
  -1 -12   2   12.91    1.50 
   0  12  -2    8.34    1.22 
  -1  12  -2   24.17    2.27 
  -2  12  -2   22.01    2.11 
  -3  12  -2    7.18    1.24 
  -4  12  -2    2.59    1.12 
  -5  12  -2    3.37    1.17 
  -6  12  -2    1.85    1.15 
  -8 -11   2    1.22    1.32 
  -7 -11   2    2.19    1.15 
  -6 -11   2    2.74    1.12 
   5  11  -2    6.37    1.21 
  -5 -11   2    5.87    1.16 
   4  11  -2    5.32    1.00 
  -4 -11   2    7.23    1.16 
   3  11  -2    5.76    1.04 
  -3 -11   2    6.61    1.08 
   2  11  -2   17.76    1.78 
  -2 -11   2   17.43    1.71 
   1  11  -2   11.51    1.39 
  -1 -11   2   12.80    1.43 
   0  11  -2   56.77    4.21 
  -1  11  -2   29.72    2.51 
  -2  11  -2   18.42    1.82 
  -3  11  -2   18.67    1.95 
  -4  11  -2   11.71    1.54 
  -5  11  -2    6.47    1.31 
  -6  11  -2    5.69    1.41 
  -7  11  -2    3.03    1.35 
  -8 -10   2    3.76    1.46 
  -7 -10   2    3.09    1.30 
  -6 -10   2    7.21    1.32 
   5  10  -2   16.51    1.75 
  -5 -10   2   16.49    1.74 
   4  10  -2    9.85    1.23 
  -4 -10   2   11.89    1.33 
   3  10  -2    7.03    1.05 
  -3 -10   2    8.21    1.10 
   2  10  -2   11.03    1.29 
  -2 -10   2   12.26    0.92 
  -2 -10   2   11.89    1.32 
   1  10  -2    8.49    1.12 
  -1 -10   2    9.73    1.16 
   0  10  -2    3.67    0.80 
  -1  10  -2   42.52    3.25 
  -2  10  -2    6.60    1.06 
  -3  10  -2    8.60    1.21 
  -4  10  -2   31.20    2.70 
  -5  10  -2    7.87    1.34 
  -6  10  -2   10.62    1.68 
  -7  10  -2    1.12    1.13 
  -8  -9   2    2.75    1.30 
  -7  -9   2    2.76    1.17 
  -6  -9   2   -0.08    0.90 
   5   9  -2    7.88    1.07 
  -5  -9   2    4.41    1.05 
   4   9  -2   16.42    1.55 
  -4  -9   2   17.10    1.66 
   3   9  -2   11.30    1.19 
  -3  -9   2   10.18    1.15 
   2   9  -2   44.01    3.35 
  -2  -9   2   46.71    3.24 
  -2  -9   2   45.37    2.55 
   1   9  -2   32.24    2.49 
  -1  -9   2   29.25    2.34 
  -1  -9   2   32.33    1.88 
   0   9  -2    8.37    0.97 
   0  -9   2    6.44    0.91 
  -1   9  -2   26.82    2.23 
  -2   9  -2    2.35    0.69 
  -3   9  -2   35.57    2.86 
  -4   9  -2    2.66    0.87 
  -5   9  -2   14.85    1.72 
  -6   9  -2    6.53    1.32 
  -7   9  -2    7.39    1.57 
  -8   9  -2    0.24    1.18 
  -9  -8   2    0.47    1.20 
  -8  -8   2    1.65    1.13 
  -7  -8   2    8.32    1.41 
  -6  -8   2    6.50    1.18 
   4   8  -2    3.84    0.73 
  -4  -8   2    6.13    0.90 
   3   8  -2   39.66    2.89 
  -3  -8   2   39.61    2.18 
  -3  -8   2   35.73    2.78 
   2   8  -2   19.40    1.56 
  -2  -8   2   17.16    1.14 
  -2  -8   2   17.87    1.56 
  -1  -8   2    8.30    0.67 
  -1  -8   2    6.78    0.85 
   0   8  -2   65.61    4.38 
   0  -8   2   62.56    4.19 
   0  -8   2   57.34    3.43 
  -1   8  -2   68.19    4.82 
  -2   8  -2   32.41    2.54 
  -3   8  -2    8.44    1.10 
  -4   8  -2   23.59    2.14 
  -5   8  -2    4.96    1.04 
  -6   8  -2   20.36    2.13 
  -7   8  -2    9.75    1.59 
  -8   8  -2    0.72    1.13 
  -9  -7   2    1.18    1.16 
  -8  -7   2    2.89    1.11 
  -7  -7   2    8.64    1.36 
  -6  -7   2    2.06    0.80 
   5   7  -2   23.62    2.09 
  -5  -7   2   27.98    2.16 
  -4  -7   2    6.15    0.90 
  -4  -7   2    7.72    0.65 
   3   7  -2   28.71    2.00 
  -3  -7   2   22.35    1.94 
  -3  -7   2   24.12    1.50 
   2   7  -2   19.64    1.70 
  -2  -7   2   23.80    1.71 
  -2  -7   2   22.42    1.33 
   1   7  -2   79.50    5.24 
  -1  -7   2   76.02    5.00 
  -1  -7   2   72.57    4.10 
   0   7  -2   68.87    4.94 
   0  -7   2   74.67    4.76 
   0  -7   2   71.17    3.91 
  -1   7  -2   95.07    6.50 
  -2   7  -2   68.84    4.84 
  -3   7  -2   17.40    1.64 
  -4   7  -2   14.20    1.50 
  -5   7  -2   29.80    2.66 
  -6   7  -2    3.07    1.04 
  -7   7  -2    1.14    1.02 
  -8   7  -2    1.93    1.23 
  -9  -6   2    0.86    1.09 
  -8  -6   2    3.14    1.07 
  -7  -6   2    5.73    1.12 
  -6  -6   2    6.09    1.06 
   5   6  -2  117.22    8.41 
  -5  -6   2  130.55    8.14 
  -5  -6   2  125.06    6.62 
   4   6  -2   74.54    4.82 
  -4  -6   2   60.89    4.62 
  -4  -6   2   71.17    3.78 
  -3  -6   2   11.07    0.80 
  -3  -6   2   10.13    1.05 
   2   6  -2   58.90    3.72 
  -2  -6   2   50.75    3.59 
  -2  -6   2   50.43    2.92 
   1   6  -2   25.33    1.86 
  -1  -6   2   23.39    1.46 
  -1  -6   2   25.30    1.82 
   0   6  -2   13.64    1.19 
   0  -6   2   12.30    1.09 
   0  -6   2   14.20    0.93 
  -1   6  -2   62.95    4.33 
   1  -6   2   61.14    3.45 
  -2   6  -2   76.80    5.32 
  -3   6  -2   48.80    3.60 
  -4   6  -2   39.22    3.07 
  -5   6  -2   10.42    1.36 
  -6   6  -2   13.26    1.68 
  -7   6  -2   11.12    1.63 
  -8   6  -2   12.39    1.87 
  -9   6  -2   -0.09    1.24 
  -9  -5   2   -0.36    1.02 
  -8  -5   2    3.75    1.09 
  -7  -5   2    2.81    0.87 
  -6  -5   2   16.79    1.17 
  -6  -5   2   17.67    1.67 
   5   5  -2   22.23    1.66 
  -5  -5   2   18.31    1.20 
  -5  -5   2   15.87    1.58 
   4   5  -2   27.33    2.07 
  -4  -5   2   26.59    2.05 
  -4  -5   2   28.15    1.64 
   3   5  -2   21.34    1.55 
  -3  -5   2   19.85    1.57 
  -3  -5   2   19.01    1.25 
  -2  -5   2   53.95    2.91 
  -2  -5   2   52.04    3.53 
   1   5  -2  116.68    8.37 
  -1  -5   2  128.37    6.67 
  -1  -5   2  133.98    8.03 
   0   5  -2  105.55    6.36 
   0  -5   2   87.93    5.04 
   0  -5   2   90.04    6.03 
  -1   5  -2   80.15    5.38 
   1  -5   2   77.78    4.29 
  -2   5  -2    0.71    0.41 
  -3   5  -2   84.98    5.90 
  -4   5  -2    6.46    0.97 
  -5   5  -2   18.64    1.83 
  -6   5  -2   19.84    2.02 
  -7   5  -2   19.81    2.14 
  -8   5  -2    6.94    1.46 
  -9   5  -2    3.31    1.41 
  -9  -4   2    4.53    1.24 
  -8  -4   2    2.21    0.97 
  -7  -4   2    8.07    1.16 
  -6  -4   2    0.87    0.64 
  -6  -4   2    0.93    0.40 
   5   4  -2   20.47    1.97 
  -5  -4   2   28.93    1.58 
  -5  -4   2   29.82    2.05 
   4   4  -2   42.11    3.13 
  -4  -4   2   42.89    3.08 
  -4  -4   2   48.77    2.49 
  -3  -4   2   24.85    1.84 
  -3  -4   2   25.17    1.49 
   2   4  -2  158.56   10.29 
  -2  -4   2  155.41    9.89 
  -2  -4   2  154.91    8.23 
   1   4  -2  206.24   12.57 
  -1  -4   2  179.92   12.00 
  -1  -4   2  187.29   10.02 
   0   4  -2   47.16    3.10 
   0  -4   2   43.64    2.48 
   0  -4   2   43.38    2.93 
  -1   4  -2   85.13    6.24 
   1  -4   2  100.51    4.99 
  -2   4  -2  326.02   21.07 
   2  -4   2  314.07   16.76 
  -3   4  -2   27.73    2.20 
  -4   4  -2   38.86    2.98 
  -5   4  -2    3.87    0.86 
  -6   4  -2   12.63    1.51 
  -7   4  -2    1.50    0.95 
  -8   4  -2    4.94    1.31 
  -9   4  -2    2.98    1.33 
 -10  -3   2    1.58    1.16 
  -9  -3   2    0.88    0.93 
  -8  -3   2    2.85    0.98 
  -7  -3   2    5.93    0.71 
  -7  -3   2    5.89    0.98 
  -6  -3   2    7.83    0.73 
  -6  -3   2    8.64    1.08 
   5   3  -2    2.39    0.46 
  -5  -3   2    1.74    0.39 
  -5  -3   2    1.83    0.57 
   4   3  -2   46.01    3.25 
  -4  -3   2   45.16    3.20 
  -4  -3   2   48.82    2.60 
   3   3  -2  126.79    8.25 
  -3  -3   2  122.70    6.58 
  -3  -3   2  125.09    7.97 
   2   3  -2  234.06   15.37 
  -2  -3   2  235.98   12.28 
  -2  -3   2  235.74   14.75 
  -1  -3   2  105.46    5.62 
  -1  -3   2  106.43    6.70 
   0   3  -2   56.34    4.18 
   0  -3   2   68.70    3.37 
  -1   3  -2  127.11    8.94 
   1  -3   2  142.48    7.14 
  -2   3  -2  208.13   13.62 
   2  -3   2  202.69   10.82 
  -3   3  -2   99.67    6.84 
   4  -3   2   45.79    3.47 
  -5   3  -2   40.21    3.19 
  -6   3  -2    0.76    0.78 
  -7   3  -2   11.28    1.52 
  -8   3  -2    2.40    1.05 
  -9   3  -2    0.88    1.12 
 -10  -2   2    0.48    1.03 
  -9  -2   2    1.88    1.04 
  -8  -2   2    4.79    0.77 
  -8  -2   2    4.23    1.02 
  -7  -2   2   10.45    0.93 
  -6  -2   2    5.07    0.62 
   5   2  -2   23.44    1.72 
  -5  -2   2   21.24    1.40 
   4   2  -2  124.36    8.35 
  -4  -2   2  127.87    6.68 
   3   2  -2   89.60    5.81 
  -3  -2   2   85.62    4.67 
   2   2  -2   58.77    4.08 
  -2  -2   2   65.56    3.32 
   1   2  -2  243.88   15.69 
  -1  -2   2  241.23   15.00 
  -1  -2   2  235.89   12.55 
   0   2  -2  986.88   63.20 
   0  -2   2  974.76   60.30 
   0  -2   2  954.02   50.31 
   1  -2   2  335.92   22.01 
   1  -2   2  335.41   17.48 
   2  -2   2  181.77   11.65 
   2  -2   2  167.76    9.19 
   3  -2   2   41.08    3.07 
   4  -2   2   42.28    3.25 
   5  -2   2    6.29    1.05 
   6  -2   2   17.94    1.95 
   7  -2   2    5.90    1.27 
  -8   2  -2    2.40    1.06 
  -9   2  -2    1.01    1.01 
 -10  -1   2    3.14    1.22 
  -9  -1   2   -0.02    0.91 
  -8  -1   2    5.73    0.85 
  -7  -1   2    7.61    0.85 
   6   1  -2   13.82    1.28 
  -6  -1   2   14.75    1.14 
   5   1  -2   20.42    1.61 
  -5  -1   2   22.10    1.36 
   4   1  -2  152.90    9.57 
  -4  -1   2  136.90    7.66 
   3   1  -2  150.79    9.30 
  -3  -1   2  132.31    7.46 
  -2  -1   2   85.01    4.51 
   1   1  -2  704.96   44.34 
  -1  -1   2  657.69   35.28 
   0  -1   2  349.10   23.08 
   0  -1   2  345.48   18.38 
   0  -1   2  365.78   21.98 
   1  -1   2  182.84   12.12 
   1  -1   2  183.56    9.60 
   2  -1   2   12.27    0.83 
   2  -1   2   12.70    1.15 
   3  -1   2   67.39    4.77 
   4  -1   2   38.67    2.99 
   5  -1   2   64.50    4.76 
   6  -1   2    4.43    1.04 
   7  -1   2    5.78    1.24 
   8  -1   2    0.89    0.99 
  -9   1  -2    2.50    1.25 
  -9   0   2    3.56    0.90 
  -8   0   2    1.68    0.66 
  -7   0   2   12.81    1.08 
  -6   0   2   20.93    1.60 
  -6   0   2   19.08    1.35 
  -5   0   2    9.56    0.79 
  -5   0   2    9.10    0.84 
  -4   0   2    5.33    0.53 
  -4   0   2    4.54    0.50 
  -3   0   2   20.98    1.47 
  -3   0   2   22.32    1.29 
  -2   0   2  164.89    8.63 
  -1   0   2  280.48   14.60 
  -1   0   2  281.02   18.32 
   0   0   2  137.58    7.50 
   0   0   2  148.64    9.43 
   1   0   2  790.25   50.83 
   1   0   2  769.90   40.39 
  -2   0  -2  494.07   30.06 
   2   0   2  469.49   25.12 
   2   0   2  488.37   31.70 
  -3   0  -2   16.22    1.14 
   3   0   2   15.98    1.46 
  -4   0  -2   30.86    2.15 
   4   0   2   33.38    2.57 
  -5   0  -2    5.35    0.65 
   5   0   2    5.31    0.98 
  -6   0  -2   23.20    1.78 
   6   0   2   23.19    2.21 
  -7   0  -2   -0.34    0.56 
   7   0   2   -0.05    0.78 
   8   0   2   12.31    1.80 
   9   0   2    0.10    1.15 
  -9   1   2    1.36    0.75 
  -8   1   2    4.92    0.82 
  -7   1   2    7.48    0.85 
  -6   1   2   14.23    1.23 
  -6   1   2   12.37    1.05 
  -5   1   2   19.87    1.34 
  -5   1   2   21.24    1.59 
  -4   1   2  161.46   10.34 
  -4   1   2  152.47    8.31 
  -3   1   2  154.83    8.10 
  -3   1   2  152.87   10.07 
  -2   1   2  101.95    6.74 
  -2   1   2  103.56    5.43 
  -1   1   2  694.64   36.30 
  -1   1   2  707.82   45.61 
   0   1   2  293.43   19.25 
   0   1   2  295.53   15.31 
  -1  -1  -2  177.28    9.70 
   1   1   2  144.06    8.13 
   1   1   2  142.47   10.28 
  -2  -1  -2   14.44    0.99 
   2   1   2   14.05    0.88 
   2   1   2   14.32    1.24 
  -3  -1  -2   64.02    3.85 
   3   1   2   53.83    4.25 
  -4  -1  -2   38.43    2.64 
   4   1   2   41.44    3.07 
  -5  -1  -2   68.24    4.55 
   5   1   2   71.91    5.12 
  -6  -1  -2    4.12    0.73 
   6   1   2    6.66    1.13 
  -7  -1  -2    4.60    0.82 
   7   1   2    4.03    1.11 
   8   1   2    0.50    0.99 
   9   1   2    3.44    1.40 
 -10   2   2   -0.34    0.87 
  -9   2   2    0.98    0.81 
  -8   2   2    4.20    0.81 
  -7   2   2    8.34    0.92 
  -6   2   2    6.60    0.75 
  -6   2   2    6.44    0.81 
  -5   2   2   23.11    1.49 
  -5   2   2   22.89    1.76 
  -4   2   2  120.04    7.88 
  -4   2   2  117.63    6.35 
  -3   2   2   87.19    5.76 
  -3   2   2   86.20    4.65 
  -2   2   2   56.46    3.75 
  -2   2   2   55.39    3.02 
  -1   2   2  247.70   12.90 
  -1   2   2  247.93   16.20 
   0   2   2 1000.00   64.09 
   0   2   2  970.69   50.95 
  -1  -2  -2  332.21   21.96 
   1   2   2  375.31   23.15 
  -2  -2  -2  168.68    9.39 
   2   2   2  141.63    7.83 
   2   2   2  136.85    9.97 
  -3  -2  -2   41.33    2.85 
   3   2   2   47.21    3.24 
  -4  -2  -2   40.23    2.60 
   4   2   2   35.62    2.96 
  -5  -2  -2    5.94    0.75 
   5   2   2    8.06    1.12 
  -6  -2  -2   16.30    1.51 
   6   2   2   25.68    2.10 
  -7  -2  -2    6.03    0.93 
   7   2   2    6.56    1.34 
   8   2   2    2.82    1.18 
   9   2   2    1.46    1.24 
 -10   3   2    1.98    0.93 
  -9   3   2    2.52    0.86 
  -8   3   2    6.59    0.96 
  -7   3   2    5.83    0.83 
  -6   3   2    8.77    0.90 
  -6   3   2   10.12    1.02 
  -5   3   2    2.02    0.49 
  -5   3   2    1.99    0.50 
  -4   3   2   41.19    2.38 
  -4   3   2   41.51    2.89 
  -3   3   2  120.53    7.89 
  -3   3   2  117.67    6.33 
  -2   3   2  233.73   14.82 
  -2   3   2  218.23   11.81 
  -1   3   2  125.13    8.21 
  -1   3   2  122.81    6.51 
   0   3   2   44.09    2.59 
   0   3   2   54.37    3.36 
  -1  -3  -2  133.48    8.29 
   1   3   2  129.49    6.89 
   1   3   2  131.71    8.78 
  -2  -3  -2  203.62   12.59 
   2   3   2  199.30   13.34 
   2   3   2  199.55   10.46 
  -3  -3  -2   89.25    5.62 
   3   3   2   85.87    6.08 
  -4  -3  -2   48.03    3.18 
   4   3   2   46.53    3.56 
  -5  -3  -2   34.65    2.57 
   5   3   2   41.75    3.08 
  -6  -3  -2    3.87    0.72 
   6   3   2    1.49    0.85 
  -7  -3  -2   14.25    1.38 
   7   3   2   12.00    1.72 
   8   3   2    1.21    1.00 
   9   3   2    1.33    1.16 
  -9   4   2    6.19    1.06 
  -8   4   2    2.20    0.78 
  -7   4   2    8.70    1.00 
  -6   4   2    1.71    0.61 
  -6   4   2    1.41    0.57 
  -5   4   2   23.13    1.44 
  -5   4   2   19.44    1.68 
  -4   4   2   38.27    2.33 
  -4   4   2   41.82    2.88 
  -3   4   2   13.15    0.93 
  -3   4   2   14.09    1.13 
  -2   4   2  162.88    8.62 
  -2   4   2  164.98   10.83 
  -1   4   2  214.31   11.13 
  -1   4   2  212.46   14.04 
   0   4   2   49.20    3.42 
  -1  -4  -2  103.08    6.12 
   1   4   2   93.16    6.47 
   1   4   2   90.92    5.02 
  -2  -4  -2  300.59   19.58 
   2   4   2  329.08   16.26 
   2   4   2  309.58   20.65 
  -3  -4  -2   28.03    1.93 
   3   4   2   26.92    2.20 
  -4  -4  -2   44.00    2.98 
   4   4   2   42.99    3.34 
   5   4   2    4.49    0.93 
  -6  -4  -2   19.81    1.55 
   6   4   2   13.76    1.81 
  -7  -4  -2    1.95    0.79 
   7   4   2    1.76    0.99 
   8   4   2    5.95    1.45 
   9   4   2    3.52    1.49 
  -9   5   2   -0.50    0.77 
  -8   5   2    2.18    0.81 
  -7   5   2    2.56    0.74 
  -6   5   2   23.29    2.00 
  -6   5   2   24.84    1.70 
  -5   5   2   22.42    1.86 
  -5   5   2   21.98    1.53 
  -4   5   2   25.27    2.00 
  -4   5   2   26.86    1.65 
  -3   5   2   19.84    1.58 
  -3   5   2   20.44    1.28 
  -2   5   2   49.30    2.78 
  -2   5   2   51.73    3.53 
  -1   5   2  118.96    6.12 
  -1   5   2  112.85    7.76 
   0   5   2  107.83    7.37 
   0   5   2  111.14    5.76 
  -1  -5  -2   80.66    5.49 
   1   5   2   85.57    5.82 
   1   5   2   88.39    4.48 
  -2  -5  -2    0.95    0.39 
   2   5   2    0.88    0.15 
   2   5   2    0.92    0.42 
  -3  -5  -2   78.17    5.08 
   3   5   2   77.58    5.48 
  -4  -5  -2    9.21    0.92 
   4   5   2    8.02    1.08 
  -5  -5  -2   22.85    1.76 
   5   5   2   20.44    2.07 
  -6  -5  -2   17.82    1.65 
   6   5   2   19.91    2.00 
  -7  -5  -2   16.79    1.66 
   7   5   2   19.99    2.21 
   8   5   2    6.90    1.55 
   9   5   2    3.89    1.62 
  -9   6   2    1.03    0.90 
  -8   6   2    5.35    1.01 
  -7   6   2    8.14    1.05 
  -6   6   2    4.79    0.87 
  -6   6   2    4.08    0.78 
  -5   6   2  114.67    7.81 
  -5   6   2  114.34    6.26 
  -4   6   2   68.11    4.64 
  -4   6   2   64.44    3.71 
  -3   6   2   15.04    1.01 
  -3   6   2   13.61    1.27 
  -2   6   2   61.02    4.23 
  -2   6   2   60.12    3.32 
  -1   6   2   25.29    1.92 
  -1   6   2   24.38    1.43 
   0   6   2   14.56    1.33 
   0   6   2   15.34    0.91 
  -1  -6  -2   59.40    4.29 
   1   6   2   68.99    3.44 
   1   6   2   65.43    4.55 
  -2  -6  -2   70.93    4.93 
   2   6   2   80.76    5.31 
  -3  -6  -2   38.95    3.01 
   3   6   2   51.83    3.39 
  -4  -6  -2   36.04    2.65 
   4   6   2   39.06    3.00 
  -5  -6  -2    8.62    1.06 
   5   6   2   14.03    1.50 
  -6  -6  -2   14.09    1.39 
   6   6   2   11.86    1.67 
  -7  -6  -2   11.85    1.37 
   7   6   2    9.14    1.60 
   8   6   2   14.46    2.09 
  -9   7   2    2.84    1.01 
  -8   7   2    3.04    0.93 
  -7   7   2    5.97    1.00 
  -6   7   2    1.62    0.74 
  -6   7   2    1.55    0.65 
  -5   7   2   23.83    2.00 
  -5   7   2   23.00    1.62 
  -4   7   2    7.90    0.97 
  -4   7   2    7.43    0.77 
  -3   7   2   27.70    2.13 
  -3   7   2   26.09    1.65 
  -2   7   2   18.40    1.25 
  -2   7   2   23.12    1.76 
  -1   7   2   79.89    5.44 
  -1   7   2   77.44    4.21 
   0   7   2   67.78    3.67 
   0   7   2   70.27    4.83 
   1   7   2  105.60    5.35 
   1   7   2   96.96    6.97 
  -2  -7  -2   72.13    4.88 
   2   7   2   75.01    5.21 
  -3  -7  -2   25.69    1.77 
   3   7   2   17.52    1.86 
  -4  -7  -2   12.82    1.30 
   4   7   2   15.02    1.57 
  -5  -7  -2   28.41    2.22 
   5   7   2   29.10    2.57 
  -6  -7  -2    2.90    0.77 
   6   7   2    3.09    1.10 
  -7  -7  -2    1.33    0.83 
   7   7   2    1.92    1.07 
  -8  -7  -2    1.13    0.98 
   8   7   2    2.59    1.30 
  -9   8   2    0.53    0.90 
  -8   8   2    0.29    0.83 
  -7   8   2    6.97    1.18 
  -7   8   2    6.14    1.06 
  -6   8   2    3.66    0.90 
  -6   8   2    4.27    0.81 
  -5   8   2   37.95    2.42 
  -5   8   2   39.84    3.04 
  -4   8   2    4.57    0.80 
  -4   8   2    3.85    0.62 
  -3   8   2   35.97    2.78 
  -3   8   2   37.16    2.17 
  -2   8   2   19.01    1.21 
  -2   8   2   18.51    1.67 
  -1   8   2    3.29    0.40 
  -1   8   2    2.70    0.65 
   0   8   2   68.16    3.66 
   0   8   2   68.69    4.85 
   1   8   2   72.03    3.72 
   1   8   2   67.44    4.96 
  -2  -8  -2   51.51    3.13 
   2   8   2   35.35    3.21 
  -3  -8  -2    7.69    0.97 
   3   8   2    8.91    1.15 
  -4  -8  -2   22.05    1.84 
   4   8   2   21.62    2.08 
  -5  -8  -2    5.37    0.95 
   5   8   2    7.01    1.25 
  -6  -8  -2   19.64    1.96 
   6   8   2   22.83    2.30 
  -7  -8  -2   10.43    1.38 
   7   8   2    9.78    1.73 
  -8  -8  -2    0.55    1.04 
   8   8   2    0.59    1.23 
  -8   9   2    2.37    0.99 
  -7   9   2    3.87    0.95 
  -7   9   2    3.15    1.07 
  -6   9   2    0.94    0.66 
  -6   9   2    1.39    0.82 
  -5   9   2    9.53    1.22 
  -5   9   2    7.57    0.92 
  -4   9   2   17.32    1.68 
  -4   9   2   15.82    1.24 
  -3   9   2    9.24    1.14 
  -3   9   2    9.11    0.83 
  -2   9   2   45.15    2.43 
  -2   9   2   37.99    3.15 
  -1   9   2   30.64    1.74 
  -1   9   2   28.29    2.39 
   0   9   2    9.47    1.14 
   0   9   2    9.34    0.66 
   1   9   2   26.13    1.44 
   1   9   2   24.27    2.14 
  -2  -9  -2    6.31    0.90 
   2   9   2    2.88    0.79 
  -3  -9  -2   34.23    2.62 
   3   9   2   35.14    2.87 
  -4  -9  -2    3.40    0.82 
   4   9   2    2.93    0.88 
  -5  -9  -2   16.31    1.63 
   5   9   2   17.09    1.93 
  -6  -9  -2    8.59    1.27 
   6   9   2    8.51    1.50 
  -7  -9  -2    5.53    1.24 
   7   9   2    5.82    1.48 
  -8  -9  -2    2.02    1.26 
   8   9   2    1.54    1.32 
  -8  10   2    3.91    1.04 
  -7  10   2    3.84    0.96 
  -7  10   2    2.93    1.10 
  -6  10   2    9.08    1.14 
  -6  10   2   10.53    1.40 
  -5  10   2   17.82    1.41 
  -5  10   2   16.01    1.79 
  -4  10   2   10.26    1.29 
  -4  10   2   10.97    1.01 
  -3  10   2    8.64    0.82 
  -3  10   2    8.10    1.16 
  -2  10   2   13.88    1.01 
  -2  10   2   14.07    1.49 
  -1  10   2    6.95    0.63 
  -1  10   2    9.38    1.18 
   0  10   2    3.86    0.85 
   0  10   2    3.76    0.42 
   1  10   2   42.68    3.30 
  -2 -10  -2    8.35    1.07 
   2  10   2    7.33    1.11 
  -3 -10  -2    7.93    1.14 
   3  10   2    8.83    1.28 
  -4 -10  -2   26.83    2.28 
   4  10   2   28.45    2.55 
  -5 -10  -2   11.73    1.42 
   5  10   2   11.29    1.63 
  -6 -10  -2    9.94    1.42 
   6  10   2    9.52    1.60 
  -7 -10  -2    0.76    1.05 
   7  10   2    1.38    1.21 
  -8  11   2    0.85    0.90 
  -7  11   2    2.47    0.91 
  -7  11   2    1.46    1.13 
  -6  11   2    3.73    0.90 
  -6  11   2    4.05    1.19 
  -5  11   2    8.01    0.98 
  -5  11   2    5.54    1.17 
  -4  11   2    2.93    0.68 
  -4  11   2    4.02    0.99 
  -3  11   2    4.94    0.68 
  -3  11   2    5.23    1.09 
  -2  11   2   17.74    1.70 
  -2  11   2   14.43    1.14 
  -1  11   2    9.66    1.29 
   0  11   2   58.58    4.39 
   1  11   2   30.01    2.54 
   2  11   2   16.53    1.76 
  -3 -11  -2   23.14    2.03 
   3  11   2   20.86    2.14 
  -4 -11  -2   16.97    1.73 
   4  11   2   15.06    1.88 
  -5 -11  -2   10.70    1.39 
   5  11   2    7.63    1.48 
  -6 -11  -2    3.71    1.18 
   6  11   2    5.29    1.41 
  -7 -11  -2    3.94    1.29 
   7  11   2    3.59    1.45 
  -7  12   2    5.53    1.10 
  -7  12   2    5.32    1.47 
  -6  12   2    2.07    1.04 
  -6  12   2    1.01    0.81 
  -5  12   2    1.44    1.00 
  -5  12   2    0.81    0.68 
  -4  12   2    9.64    1.04 
  -4  12   2   10.84    1.52 
  -3  12   2   15.59    1.24 
  -3  12   2   15.73    1.80 
  -2  12   2    6.61    0.76 
  -2  12   2    7.85    1.22 
  -1  12   2   11.18    1.48 
   0  12   2    8.53    1.30 
   1  12   2   22.10    2.11 
   2  12   2   24.66    2.31 
  -3 -12  -2    6.52    1.19 
   3  12   2    5.81    1.23 
  -4 -12  -2    3.18    1.01 
   4  12   2    3.49    1.20 
  -5 -12  -2    6.95    1.28 
   5  12   2    3.74    1.22 
  -6 -12  -2    1.24    1.09 
   6  12   2    2.66    1.28 
  -7 -12  -2    3.32    1.32 
   7  12   2    3.79    1.49 
  -7  13   2    0.50    0.87 
  -6  13   2    0.24    0.79 
  -6  13   2    0.44    1.11 
  -5  13   2    1.63    0.77 
  -5  13   2    1.52    1.18 
  -4  13   2    9.44    1.58 
  -4  13   2    8.53    1.02 
  -3  13   2    2.10    1.02 
  -3  13   2    1.20    0.63 
  -2  13   2    2.49    0.57 
  -2  13   2    3.18    1.09 
  -1  13   2    7.92    1.37 
   0  13   2    0.08    0.83 
   1  13   2    5.78    1.16 
   2  13   2    5.96    1.20 
  -3 -13  -2    2.04    1.06 
   3  13   2    1.67    0.99 
  -4 -13  -2    2.80    1.16 
   4  13   2    5.61    1.33 
  -5 -13  -2   11.72    1.72 
   5  13   2   11.95    1.86 
  -6 -13  -2    4.10    1.34 
   6  13   2    1.96    1.29 
  -6  14   2    3.82    1.00 
  -6  14   2    2.71    1.40 
  -5  14   2    4.04    1.42 
  -5  14   2    2.37    0.84 
  -4  14   2    0.13    0.98 
  -4  14   2    0.05    0.65 
  -3  14   2    1.28    1.03 
  -3  14   2    0.73    0.62 
  -2  14   2    1.13    1.03 
  -1  14   2    0.84    1.01 
   0  14   2    2.68    1.14 
   1  14   2    4.24    1.15 
   2  14   2    2.79    1.05 
   3  14   2    1.66    1.08 
  -4 -14  -2    6.96    1.46 
   4  14   2    8.14    1.62 
  -5 -14  -2    5.68    1.44 
   5  14   2   10.29    1.78 
  -5  15   2    0.10    1.29 
  -5  15   2    0.54    0.78 
  -4  15   2    1.00    1.12 
  -4  15   2    1.56    0.76 
  -3  15   2    3.13    1.25 
  -2  15   2    0.72    1.11 
  -1  15   2    3.61    1.30 
   0  15   2    2.84    1.26 
   1  15   2    0.83    0.96 
   2  15   2    3.70    1.20 
   3  15   2    7.05    1.57 
   4  15   2    4.32    1.40 
  -5 -15  -2    3.05    1.36 
  -4  16   2    1.22    1.23 
  -3  16   2   -0.37    1.18 
  -2  16   2    5.59    1.51 
  -1  16   2    1.92    1.32 
   0  16   2    6.68    1.59 
   1  16   2    4.74    1.35 
   2  16   2    2.04    1.16 
   3  16   2    0.49    1.11 
  -2  17   2    1.58    1.39 
  -1  17   2    1.77    1.33 
   0  17   2    0.57    1.25 
   1  17   2    0.39    1.02 
   2  17   2   -0.92    1.08 
   2  17  -3   -0.59    1.12 
   1  17  -3    3.28    1.38 
   0  17  -3    2.77    1.28 
  -1  17  -3    0.93    1.20 
  -4 -16   3    2.87    1.32 
   3  16  -3    3.87    1.37 
  -3 -16   3    2.78    1.27 
   2  16  -3    1.40    1.13 
   1  16  -3    4.10    1.28 
   0  16  -3    0.33    1.05 
  -1  16  -3    1.77    1.18 
  -2  16  -3    2.02    1.12 
  -3  16  -3    3.15    1.30 
  -5 -15   3    1.33    1.22 
  -4 -15   3    0.71    1.07 
   3  15  -3    0.93    1.02 
  -3 -15   3    0.71    1.04 
   2  15  -3    6.94    1.47 
  -2 -15   3    6.85    1.40 
   1  15  -3    1.30    1.03 
   0  15  -3    0.73    0.99 
  -1  15  -3    1.31    1.04 
  -2  15  -3    2.54    1.15 
  -3  15  -3    1.93    1.18 
  -4  15  -3   -0.08    0.98 
  -6 -14   3    0.44    1.15 
  -5 -14   3    0.14    1.04 
  -4 -14   3    4.73    1.26 
   3  14  -3    0.86    0.94 
  -3 -14   3   -0.02    0.89 
   2  14  -3    2.19    1.02 
  -2 -14   3    5.25    1.19 
   1  14  -3   10.75    1.57 
   0  14  -3    1.83    1.06 
  -1  14  -3    9.52    1.54 
  -2  14  -3    8.62    1.45 
  -3  14  -3    6.87    1.36 
  -4  14  -3    2.32    1.11 
  -5  14  -3    4.20    1.53 
  -6 -13   3    0.04    0.98 
  -5 -13   3   -0.26    0.86 
  -4 -13   3    3.79    1.15 
   3  13  -3    6.72    1.26 
  -3 -13   3    6.76    1.20 
   2  13  -3    1.56    0.92 
  -2 -13   3    1.15    0.88 
   1  13  -3    6.59    1.26 
  -1 -13   3    5.60    1.21 
   0  13  -3   13.96    1.64 
  -1  13  -3    3.80    1.05 
  -2  13  -3    5.72    1.21 
  -3  13  -3    6.24    1.35 
  -4  13  -3   14.88    1.93 
  -5  13  -3    2.53    1.31 
  -7 -12   3    4.71    1.38 
  -6 -12   3    4.76    1.27 
  -5 -12   3    2.38    0.99 
   4  12  -3    0.25    0.78 
  -4 -12   3    1.42    0.92 
   3  12  -3   10.98    1.56 
  -3 -12   3   17.98    1.72 
   2  12  -3   10.54    1.32 
  -2 -12   3    7.40    1.21 
   1  12  -3   19.68    1.92 
  -1 -12   3   16.04    1.77 
   0  12  -3   11.40    1.44 
  -1  12  -3   25.39    2.32 
  -2  12  -3    1.47    0.82 
  -3  12  -3    6.95    1.30 
  -4  12  -3    6.30    1.33 
  -5  12  -3    2.84    1.24 
  -6  12  -3    5.59    1.52 
  -7 -11   3    1.40    1.21 
  -6 -11   3    4.27    1.15 
  -5 -11   3    0.73    0.84 
   4  11  -3   14.33    1.58 
  -4 -11   3   14.89    1.60 
   3  11  -3    5.87    1.04 
  -3 -11   3    6.02    1.06 
   2  11  -3   25.56    2.03 
  -2 -11   3   21.60    1.48 
  -2 -11   3   18.70    1.91 
   1  11  -3    7.94    1.13 
  -1 -11   3    7.15    0.81 
  -1 -11   3    6.47    1.08 
   0  11  -3    1.23    0.69 
  -1  11  -3   -0.01    0.67 
  -2  11  -3   11.29    1.46 
  -3  11  -3    5.42    1.09 
  -4  11  -3    5.57    1.24 
  -5  11  -3   12.31    1.76 
  -6  11  -3    9.60    1.73 
  -7  11  -3    2.76    1.39 
  -8 -10   3    0.19    1.22 
  -7 -10   3    1.22    1.19 
  -6 -10   3    2.13    1.04 
  -5 -10   3    0.03    0.82 
   4  10  -3   11.04    1.22 
  -4 -10   3    9.82    1.23 
   3  10  -3   18.96    1.69 
  -3 -10   3   15.16    1.63 
   2  10  -3    3.49    0.81 
  -2 -10   3    4.21    0.82 
  -2 -10   3    4.44    0.59 
   1  10  -3    4.80    0.91 
  -1 -10   3    8.87    0.78 
  -1 -10   3    8.34    1.04 
   0  10  -3   49.87    3.73 
   0 -10   3   49.35    3.58 
   0 -10   3   49.95    2.94 
  -1  10  -3   65.68    4.80 
  -2  10  -3    7.08    1.11 
  -3  10  -3   22.65    2.12 
  -4  10  -3    6.95    1.28 
  -5  10  -3    5.54    1.32 
  -6  10  -3    7.37    1.57 
  -7  10  -3    3.56    1.46 
  -8  -9   3   -0.01    1.08 
  -7  -9   3    1.98    1.17 
  -6  -9   3    4.25    1.12 
  -5  -9   3    3.09    0.96 
  -4  -9   3    6.50    1.07 
   3   9  -3    4.65    0.78 
  -3  -9   3    2.93    0.76 
  -3  -9   3    4.58    0.58 
   2   9  -3   17.06    1.47 
  -2  -9   3   12.87    1.09 
  -2  -9   3   15.17    1.44 
   1   9  -3   22.43    1.96 
  -1  -9   3   23.06    1.53 
  -1  -9   3   26.05    1.94 
   0   9  -3   71.16    5.09 
   0  -9   3   67.60    4.02 
   0  -9   3   77.49    4.90 
  -1   9  -3   47.44    3.40 
   1  -9   3   41.33    2.69 
  -2   9  -3   18.69    1.77 
  -3   9  -3   26.07    2.34 
  -4   9  -3   12.44    1.55 
  -5   9  -3    4.56    1.18 
  -6   9  -3    5.79    1.40 
  -7   9  -3    0.91    1.16 
  -9  -8   3    1.21    1.15 
  -8  -8   3    2.41    1.20 
  -7  -8   3    2.27    1.07 
  -6  -8   3    1.25    0.88 
  -5  -8   3   11.47    1.38 
   4   8  -3   13.79    1.29 
  -4  -8   3   12.87    1.03 
  -4  -8   3   13.25    1.42 
  -3  -8   3   14.39    1.00 
  -3  -8   3   10.79    1.27 
   2   8  -3   25.46    2.11 
  -2  -8   3   28.98    1.68 
  -2  -8   3   25.58    2.04 
   1   8  -3   88.57    6.16 
  -1  -8   3   91.54    4.90 
  -1  -8   3   88.50    5.90 
   0   8  -3    9.99    1.25 
   0  -8   3   15.30    1.07 
   0  -8   3   16.95    1.33 
  -1   8  -3   33.81    2.48 
   1  -8   3   28.87    1.97 
  -2   8  -3   30.67    2.48 
  -3   8  -3   37.13    2.96 
  -4   8  -3   12.82    1.53 
  -5   8  -3   17.51    1.97 
  -6   8  -3    3.04    1.17 
  -7   8  -3    4.26    1.46 
  -8   8  -3    5.32    1.57 
  -9  -7   3    0.20    1.15 
  -8  -7   3    3.93    1.24 
  -7  -7   3    0.94    0.97 
  -6  -7   3   42.38    3.22 
  -5  -7   3   12.18    1.38 
   4   7  -3   49.97    3.77 
  -4  -7   3   54.46    3.05 
  -4  -7   3   57.24    3.81 
   3   7  -3   37.98    2.84 
  -3  -7   3   40.95    2.83 
  -3  -7   3   38.51    2.27 
   2   7  -3   24.55    1.99 
  -2  -7   3   26.02    1.95 
  -2  -7   3   26.72    1.61 
   1   7  -3    8.20    0.96 
  -1  -7   3   10.47    1.01 
  -1  -7   3   12.30    0.89 
   0   7  -3   26.54    1.80 
   0  -7   3   21.00    1.42 
   0  -7   3   18.06    1.62 
  -1   7  -3   46.81    3.65 
   1  -7   3   55.36    2.97 
  -2   7  -3   12.86    1.32 
  -3   7  -3   27.79    2.39 
  -4   7  -3   12.55    1.52 
  -5   7  -3    5.68    1.18 
  -6   7  -3   12.02    1.74 
  -7   7  -3   10.01    1.71 
  -8   7  -3    1.87    1.27 
  -9  -6   3    1.61    1.18 
  -8  -6   3    0.40    0.96 
  -7  -6   3    7.24    1.18 
  -6  -6   3    4.95    0.98 
  -5  -6   3   46.46    3.40 
  -5  -6   3   48.21    2.76 
   4   6  -3    2.12    0.49 
  -4  -6   3    3.15    0.70 
  -4  -6   3    3.57    0.55 
   3   6  -3   59.77    4.14 
  -3  -6   3   59.57    3.35 
  -3  -6   3   60.48    4.05 
  -2  -6   3    9.52    0.80 
  -2  -6   3   10.01    0.97 
   1   6  -3  128.69    8.85 
  -1  -6   3  135.03    8.46 
  -1  -6   3  133.84    7.07 
   0   6  -3   48.83    3.69 
   0  -6   3   54.83    3.51 
   0  -6   3   54.01    2.99 
  -1   6  -3   32.49    2.58 
   1  -6   3   37.66    2.12 
  -2   6  -3   16.83    1.68 
   2  -6   3   24.26    1.47 
  -4   6  -3   18.99    1.88 
  -5   6  -3   21.74    2.15 
  -6   6  -3   11.53    1.63 
  -7   6  -3    3.33    1.24 
  -8   6  -3    3.03    1.42 
  -9  -5   3    1.50    1.05 
  -8  -5   3    2.92    1.09 
  -7  -5   3    3.72    0.98 
  -6  -5   3   34.15    2.07 
  -6  -5   3   34.84    2.72 
  -5  -5   3   13.50    1.01 
  -5  -5   3   12.90    1.36 
   4   5  -3   48.97    3.40 
  -4  -5   3   47.72    3.39 
  -4  -5   3   49.56    2.78 
   3   5  -3   34.68    2.66 
  -3  -5   3   40.50    2.24 
  -3  -5   3   40.60    2.69 
   2   5  -3   50.50    3.16 
  -2  -5   3   42.68    3.07 
  -2  -5   3   42.67    2.58 
  -1  -5   3    6.44    0.62 
  -1  -5   3    6.86    0.71 
   0   5  -3  119.16    7.93 
   0  -5   3  117.51    6.35 
  -1   5  -3  137.71    8.87 
   1  -5   3  125.42    7.05 
  -2   5  -3  147.82    9.88 
   2  -5   3  145.06    7.87 
  -3   5  -3   46.43    3.49 
  -4   5  -3   23.42    2.13 
  -5   5  -3   15.83    1.76 
  -6   5  -3    9.45    1.47 
  -7   5  -3    2.82    1.18 
  -8   5  -3    0.77    1.15 
  -9  -4   3    2.62    1.14 
  -8  -4   3    2.88    1.01 
  -7  -4   3    4.98    0.71 
  -7  -4   3    3.85    0.93 
  -6  -4   3   14.54    1.43 
  -6  -4   3   13.38    1.07 
  -5  -4   3   80.27    4.44 
  -5  -4   3   82.86    5.47 
   4   4  -3   20.10    1.55 
  -4  -4   3   21.06    1.35 
  -4  -4   3   22.66    1.70 
   3   4  -3  104.60    6.28 
  -3  -4   3   88.80    5.08 
  -3  -4   3   87.65    6.10 
   2   4  -3   33.90    2.59 
  -2  -4   3   40.45    2.20 
  -2  -4   3   40.58    2.59 
  -1  -4   3   14.96    1.07 
  -1  -4   3   17.46    1.24 
   0   4  -3  164.46    9.88 
   0  -4   3  139.16    7.87 
   0  -4   3  142.14    9.33 
  -1   4  -3  105.32    7.30 
   1  -4   3  110.79    5.83 
  -2   4  -3   64.24    4.23 
   2  -4   3   54.43    3.33 
  -3   4  -3    4.91    0.81 
  -4   4  -3    9.18    1.21 
  -5   4  -3   12.80    1.52 
  -6   4  -3   23.59    2.30 
  -7   4  -3   28.23    2.74 
  -8   4  -3    2.03    1.23 
  -9   4  -3    0.27    1.19 
 -10  -3   3    0.58    1.11 
  -9  -3   3    0.27    0.98 
  -8  -3   3    0.35    0.87 
  -7  -3   3    4.06    0.65 
  -7  -3   3    4.08    0.97 
  -6  -3   3   38.88    2.22 
  -6  -3   3   34.62    2.75 
  -5  -3   3   13.94    1.02 
   4   3  -3   26.91    1.78 
  -4  -3   3   22.98    1.53 
   3   3  -3    4.78    0.42 
  -3  -3   3    2.96    0.45 
  -3  -3   3    2.65    0.53 
   2   3  -3   82.62    5.06 
  -2  -3   3   72.68    4.92 
  -2  -3   3   71.92    4.14 
   1   3  -3   72.05    4.38 
  -1  -3   3   61.85    3.56 
  -1  -3   3   60.86    4.17 
   0   3  -3  345.51   24.32 
   0  -3   3  383.28   23.16 
   0  -3   3  387.42   19.43 
  -1   3  -3   15.45    1.32 
   2  -3   3   26.05    1.64 
   2  -3   3   27.06    2.15 
   3  -3   3   83.85    6.10 
   3  -3   3   88.81    4.80 
   4  -3   3   38.70    3.13 
   5  -3   3    7.77    1.27 
   6  -3   3   14.73    1.84 
  -7   3  -3    2.17    1.04 
  -8   3  -3    1.53    1.09 
  -9   3  -3    5.65    1.50 
 -10  -2   3   -0.16    1.09 
  -9  -2   3    2.72    1.12 
  -8  -2   3    0.49    0.60 
  -7  -2   3   11.78    1.03 
  -6  -2   3   11.32    0.94 
  -5  -2   3   35.46    2.10 
  -4  -2   3    6.68    0.62 
  -3  -2   3   55.72    3.07 
   2   2  -3    5.22    0.44 
   1   2  -3  262.38   16.92 
  -1  -2   3  254.78   13.54 
   0  -2   3  239.10   12.75 
   0  -2   3  245.48   16.02 
   0  -2   3  245.16   15.16 
   1  -2   3  165.64    8.71 
   1  -2   3  163.55   10.98 
   2  -2   3   67.48    4.78 
   2  -2   3   67.69    3.74 
   3  -2   3   13.38    1.00 
   3  -2   3   12.08    1.34 
   4  -2   3   49.74    3.82 
   5  -2   3   18.20    1.92 
   6  -2   3    2.47    0.98 
   7  -2   3    2.28    1.16 
  -8   2  -3    5.04    1.40 
  -9   2  -3    1.11    1.17 
 -10  -1   3    1.18    1.18 
  -9  -1   3    3.08    0.83 
  -8  -1   3    3.63    0.76 
  -7  -1   3    3.28    0.67 
  -6  -1   3    9.38    0.87 
  -5  -1   3    8.47    0.75 
  -4  -1   3  130.34    6.93 
  -3  -1   3  108.85    5.81 
  -2  -1   3   85.88    4.60 
  -1  -1   3   51.11    2.72 
  -1  -1   3   46.99    3.30 
   0  -1   3  115.12    7.66 
   0  -1   3  114.24    6.11 
   1  -1   3   79.28    5.37 
   1  -1   3   76.75    4.22 
   2  -1   3  315.11   16.30 
   2  -1   3  307.74   20.58 
  -3   1  -3   83.27    4.93 
   3  -1   3   71.44    5.52 
   3  -1   3   76.91    4.30 
  -4   1  -3   24.64    1.72 
   4  -1   3   26.69    2.25 
  -5   1  -3   32.54    2.26 
   5  -1   3   33.67    2.83 
   6  -1   3   21.33    2.24 
   7  -1   3    8.63    1.56 
   8  -1   3    3.66    1.35 
  -9   1  -3   -1.03    1.17 
  -9   0   3   -0.03    0.74 
  -8   0   3    0.48    0.61 
  -7   0   3   30.64    2.03 
  -6   0   3    2.77    0.56 
  -5   0   3    5.27    0.62 
  -4   0   3   29.08    1.75 
  -3   0   3  428.67   22.30 
  -2   0   3   17.38    1.10 
  -1   0   3  234.75   15.26 
  -1   0   3  231.28   12.19 
   0   0   3   89.76    5.85 
   0   0   3   83.56    4.66 
   1   0   3  170.74   11.37 
   1   0   3  170.61    9.01 
  -2   0  -3   27.94    1.77 
   2   0   3   27.31    1.64 
   2   0   3   27.37    2.20 
  -3   0  -3  126.89    8.01 
   3   0   3  130.28    8.77 
   3   0   3  127.14    6.84 
  -4   0  -3    6.29    0.64 
   4   0   3    6.73    1.01 
  -5   0  -3   87.38    5.51 
   5   0   3   82.63    6.21 
   6   0   3   40.66    3.45 
   7   0   3   10.71    1.68 
   8   0   3    0.90    1.16 
   9   0   3    2.60    1.42 
 -10   1   3    2.58    0.97 
  -9   1   3    2.79    0.87 
  -8   1   3    5.61    0.88 
  -7   1   3    3.22    0.70 
  -6   1   3   17.69    1.34 
  -5   1   3    6.82    0.71 
  -5   1   3    7.27    0.72 
  -4   1   3  126.99    6.61 
  -4   1   3  120.57    8.10 
  -3   1   3  109.66    5.91 
  -3   1   3  111.43    7.26 
  -2   1   3   71.44    3.98 
  -2   1   3   76.03    4.90 
  -1   1   3   38.07    2.59 
  -1   1   3   37.02    2.09 
   0   1   3  155.41    8.16 
   0   1   3  154.27   10.26 
   1   1   3   71.69    4.87 
   1   1   3   69.49    3.82 
  -2  -1  -3  301.85   18.87 
   2   1   3  296.30   20.03 
   2   1   3  311.74   15.86 
  -3  -1  -3   77.07    5.25 
   3   1   3   86.00    5.85 
   3   1   3   87.71    4.50 
  -4  -1  -3   24.40    1.74 
   4   1   3   25.53    2.20 
  -5  -1  -3   33.79    2.33 
   5   1   3   33.15    2.85 
   6   1   3   14.75    1.80 
   7   1   3    5.53    1.32 
   8   1   3    3.03    1.31 
   9   1   3   -1.01    1.16 
 -10   2   3    0.94    0.99 
  -9   2   3    3.04    0.92 
  -8   2   3    0.73    0.71 
  -7   2   3   14.08    1.22 
  -6   2   3   12.19    1.07 
  -5   2   3   36.43    2.48 
  -5   2   3   33.03    2.15 
  -4   2   3    7.72    0.72 
  -4   2   3    8.03    0.72 
  -3   2   3   63.84    4.27 
  -3   2   3   63.98    3.51 
  -2   2   3    5.24    0.54 
  -2   2   3    5.60    0.48 
  -1   2   3  258.49   13.56 
  -1   2   3  261.06   17.02 
   0   2   3  207.20   13.71 
   0   2   3  208.46   10.88 
   1   2   3  134.62    8.91 
   1   2   3  131.28    7.03 
  -2  -2  -3   65.70    4.38 
   2   2   3   73.59    4.87 
  -3  -2  -3   12.76    1.01 
   3   2   3   15.52    1.40 
  -4  -2  -3   54.87    3.63 
   4   2   3   55.90    4.16 
  -5  -2  -3   17.50    1.48 
   5   2   3   22.99    2.03 
   6   2   3    2.30    0.94 
   7   2   3    0.46    0.91 
   8   2   3    4.08    1.34 
   9   2   3    2.34    1.41 
  -9   3   3    0.01    0.89 
  -8   3   3    0.63    0.69 
  -7   3   3    3.29    0.72 
  -6   3   3   39.99    2.45 
  -5   3   3   16.03    1.16 
  -5   3   3   14.45    1.23 
  -4   3   3   26.08    1.91 
  -4   3   3   26.62    1.65 
  -3   3   3    4.88    0.54 
  -3   3   3    5.58    0.56 
  -2   3   3   91.36    4.95 
  -2   3   3   93.56    6.19 
  -1   3   3   77.33    5.33 
  -1   3   3   80.78    4.24 
   0   3   3  333.32   17.61 
   0   3   3  343.97   22.22 
  -2  -3  -3   26.66    2.05 
   2   3   3   32.54    1.75 
   2   3   3   34.31    2.41 
  -3  -3  -3   82.79    5.24 
   3   3   3   79.90    5.76 
   3   3   3   81.63    4.38 
  -4  -3  -3   36.68    2.51 
   4   3   3   37.07    2.96 
  -5  -3  -3    7.73    0.92 
   5   3   3   11.62    1.41 
   6   3   3   12.43    1.66 
   7   3   3    2.28    1.10 
   8   3   3    3.15    1.30 
   9   3   3    5.00    1.56 
  -9   4   3    1.03    0.86 
  -8   4   3    1.80    0.78 
  -7   4   3    3.83    0.79 
  -6   4   3   12.80    1.13 
  -5   4   3   82.53    5.78 
  -5   4   3   88.41    4.73 
  -4   4   3   18.72    1.50 
  -4   4   3   20.46    1.31 
  -3   4   3  107.04    7.06 
  -3   4   3  104.00    5.67 
  -2   4   3   36.21    2.12 
  -2   4   3   38.09    2.65 
  -1   4   3   15.26    0.96 
  -1   4   3   15.42    1.27 
   0   4   3  162.25    8.60 
   0   4   3  165.88   10.92 
   1   4   3  101.67    5.47 
   1   4   3  104.40    7.02 
  -2  -4  -3   58.00    4.05 
   2   4   3   64.09    3.36 
   2   4   3   65.49    4.47 
  -3  -4  -3    4.75    0.62 
   3   4   3    5.60    0.46 
   3   4   3    4.98    0.83 
  -4  -4  -3   11.75    1.09 
   4   4   3   10.86    1.37 
  -5  -4  -3   15.55    1.33 
   5   4   3   15.73    1.76 
  -6  -4  -3   20.77    1.76 
   6   4   3   22.71    2.27 
   7   4   3   31.13    2.97 
   8   4   3    4.43    1.40 
   9   4   3    0.84    1.27 
  -9   5   3    3.52    0.98 
  -8   5   3    3.58    0.91 
  -7   5   3    5.34    0.84 
  -6   5   3   24.72    1.72 
  -5   5   3   10.33    0.95 
  -5   5   3   10.78    1.09 
  -4   5   3   47.79    3.32 
  -4   5   3   45.71    2.71 
  -3   5   3   36.06    2.03 
  -3   5   3   33.04    2.51 
  -2   5   3   56.63    3.09 
  -2   5   3   54.98    3.90 
  -1   5   3    3.88    0.59 
  -1   5   3    4.14    0.43 
   0   5   3  126.03    8.49 
   1   5   3  141.22    7.33 
   1   5   3  136.67    9.39 
  -2  -5  -3  141.73    9.27 
   2   5   3  144.49    7.65 
   2   5   3  152.34    9.89 
  -3  -5  -3   56.43    3.40 
   3   5   3   47.36    3.73 
   3   5   3   47.02    2.71 
  -4  -5  -3   19.97    1.65 
   4   5   3   23.27    2.06 
  -5  -5  -3   10.71    1.14 
   5   5   3   15.57    1.66 
  -6  -5  -3   11.94    1.19 
   6   5   3   10.14    1.56 
   7   5   3    3.24    1.21 
   8   5   3    1.98    1.30 
  -9   6   3    2.47    0.99 
  -8   6   3    0.87    0.81 
  -7   6   3    8.12    1.06 
  -6   6   3    6.57    0.87 
  -5   6   3   64.21    3.77 
  -5   6   3   67.55    4.65 
  -4   6   3    1.88    0.57 
  -4   6   3    1.83    0.49 
  -3   6   3   58.38    4.05 
  -3   6   3   56.56    3.22 
  -2   6   3   11.45    1.14 
  -2   6   3   11.14    0.82 
  -1   6   3  136.28    7.07 
  -1   6   3  130.48    8.98 
   0   6   3   51.61    3.21 
   0   6   3   38.04    2.35 
   1   6   3   38.98    2.89 
   1   6   3   37.14    2.10 
  -2  -6  -3   21.97    1.51 
   2   6   3   17.25    1.10 
   2   6   3   17.75    1.71 
  -3  -6  -3  120.09    7.34 
   3   6   3  105.59    7.86 
  -4  -6  -3   16.65    1.50 
   4   6   3   20.35    1.87 
  -5  -6  -3   16.62    1.54 
   5   6   3   20.36    2.03 
  -6  -6  -3   12.00    1.31 
   6   6   3   12.60    1.72 
   7   6   3    4.80    1.36 
   8   6   3    3.20    1.37 
  -9   7   3    0.89    0.92 
  -8   7   3    2.94    0.97 
  -7   7   3    2.55    0.83 
  -6   7   3   40.75    3.27 
  -6   7   3   45.66    2.70 
  -5   7   3   12.38    1.31 
  -5   7   3   12.89    1.12 
  -4   7   3   58.31    3.19 
  -4   7   3   52.14    3.97 
  -3   7   3   37.95    2.26 
  -3   7   3   39.24    2.89 
  -2   7   3   22.03    1.43 
  -2   7   3   25.41    1.96 
  -1   7   3   10.87    1.11 
  -1   7   3    9.91    0.77 
   0   7   3   28.93    1.61 
   0   7   3   26.89    2.23 
   1   7   3   52.21    2.83 
   1   7   3   51.69    3.83 
  -2  -7  -3   19.67    1.50 
   2   7   3   14.90    1.66 
  -3  -7  -3   20.39    1.83 
   3   7   3   28.75    2.20 
  -4  -7  -3    8.76    1.08 
   4   7   3   12.16    1.43 
  -5  -7  -3    8.36    1.03 
   5   7   3    4.70    1.17 
  -6  -7  -3   11.61    1.38 
   6   7   3   15.50    1.88 
   7   7   3   11.44    1.82 
   8   7   3    0.78    1.26 
  -9   8   3    1.76    0.98 
  -8   8   3    1.28    0.92 
  -7   8   3    1.43    0.76 
  -6   8   3    0.52    0.72 
  -6   8   3    0.35    0.64 
  -5   8   3    8.99    0.95 
  -5   8   3    8.25    1.13 
  -4   8   3   16.62    1.21 
  -4   8   3   14.13    1.54 
  -3   8   3   10.49    0.90 
  -3   8   3   11.29    1.19 
  -2   8   3   24.01    2.00 
  -2   8   3   23.61    1.47 
  -1   8   3   91.01    6.55 
  -1   8   3   97.92    5.09 
   0   8   3    8.51    1.08 
   0   8   3    9.48    0.68 
   1   8   3   34.76    2.80 
   1   8   3   36.26    1.99 
   2   8   3   28.86    2.46 
  -3  -8  -3   36.71    2.81 
   3   8   3   40.49    3.14 
  -4  -8  -3   12.12    1.26 
   4   8   3   12.27    1.56 
  -5  -8  -3   15.24    1.51 
   5   8   3   15.84    1.88 
  -6  -8  -3    3.76    0.94 
   6   8   3    3.70    1.23 
   7   8   3    4.95    1.46 
   8   8   3    4.43    1.59 
  -8   9   3    3.26    1.03 
  -7   9   3    1.70    0.81 
  -6   9   3    2.60    0.88 
  -6   9   3    3.21    0.79 
  -5   9   3    4.80    0.99 
  -5   9   3    3.09    0.67 
  -4   9   3    5.38    0.97 
  -4   9   3    4.62    0.69 
  -3   9   3    4.35    0.60 
  -3   9   3    3.67    0.80 
  -2   9   3   18.17    1.65 
  -2   9   3   15.52    1.13 
  -1   9   3   21.72    2.03 
  -1   9   3   24.95    1.47 
   0   9   3   71.89    5.24 
   0   9   3   74.70    3.96 
   1   9   3   48.61    3.70 
   2   9   3   22.08    2.07 
  -3  -9  -3   30.36    2.42 
   3   9   3   32.24    2.73 
  -4  -9  -3   15.84    1.48 
   4   9   3   11.92    1.64 
  -5  -9  -3    5.84    1.06 
   5   9   3    5.25    1.25 
  -6  -9  -3    4.84    1.13 
   6   9   3    5.50    1.42 
   7   9   3    0.43    1.11 
  -8  10   3    0.83    0.89 
  -7  10   3    1.51    0.80 
  -6  10   3    2.16    0.98 
  -6  10   3    2.24    0.78 
  -5  10   3   -0.30    0.55 
  -5  10   3    0.82    0.80 
  -4  10   3   10.95    1.35 
  -4  10   3    9.35    0.97 
  -3  10   3   18.53    1.31 
  -3  10   3   17.24    1.80 
  -2  10   3    4.42    0.58 
  -2  10   3    4.79    0.95 
  -1  10   3    6.30    1.03 
  -1  10   3    3.89    0.46 
   0  10   3   49.22    3.80 
   0  10   3   50.83    2.78 
   1  10   3   64.76    4.78 
   2  10   3   11.94    1.48 
  -3 -10  -3   24.98    2.11 
   3  10   3   24.31    2.35 
  -4 -10  -3    8.70    1.19 
   4  10   3    6.12    1.27 
  -5 -10  -3    3.20    1.01 
   5  10   3    5.96    1.31 
  -6 -10  -3    7.02    1.27 
   6  10   3    8.87    1.66 
   7  10   3    4.47    1.54 
  -7  11   3    4.87    1.02 
  -6  11   3    3.21    1.20 
  -6  11   3    4.88    0.94 
  -5  11   3    0.01    0.88 
  -5  11   3    0.37    0.62 
  -4  11   3   14.48    1.67 
  -4  11   3   15.90    1.28 
  -3  11   3    4.10    1.03 
  -3  11   3    4.93    0.68 
  -2  11   3   26.35    2.35 
  -2  11   3   25.47    1.65 
  -1  11   3    8.80    1.26 
   0  11   3    1.27    0.75 
   1  11   3    0.60    0.69 
   2  11   3   11.78    1.53 
   3  11   3    5.62    1.22 
  -4 -11  -3    7.39    1.21 
   4  11   3    6.66    1.36 
  -5 -11  -3   11.47    1.51 
   5  11   3   10.02    1.67 
  -6 -11  -3    7.84    1.44 
   6  11   3    8.63    1.67 
   7  11   3    3.20    1.51 
  -7  12   3    1.46    0.88 
  -6  12   3    5.73    1.43 
  -6  12   3    5.51    1.00 
  -5  12   3    3.29    0.81 
  -5  12   3    4.07    1.15 
  -4  12   3    0.38    0.81 
  -4  12   3    0.71    0.61 
  -3  12   3   10.85    1.02 
  -3  12   3   12.85    1.61 
  -2  12   3   10.59    0.92 
  -2  12   3   10.09    1.45 
  -1  12   3   18.85    1.97 
   0  12   3    8.68    1.31 
   1  12   3   20.41    2.09 
   2  12   3    0.58    0.81 
   3  12   3    7.61    1.40 
  -4 -12  -3    4.20    1.17 
   4  12   3    6.09    1.36 
  -5 -12  -3    2.79    1.13 
   5  12   3    3.53    1.25 
  -6 -12  -3    9.20    1.55 
   6  12   3    7.77    1.67 
  -6  13   3    0.44    0.76 
  -6  13   3    0.49    1.17 
  -5  13   3    1.44    0.75 
  -5  13   3    1.23    1.13 
  -4  13   3    3.78    0.75 
  -4  13   3    2.99    1.12 
  -3  13   3    5.21    0.79 
  -3  13   3    5.88    1.30 
  -2  13   3    0.72    0.91 
  -1  13   3    7.27    1.35 
   0  13   3   12.23    1.62 
   1  13   3    3.96    1.11 
   2  13   3    9.04    1.49 
   3  13   3   10.35    1.65 
   4  13   3   15.13    2.02 
  -5 -13  -3    3.78    1.23 
   5  13   3    4.73    1.43 
  -6 -13  -3    4.30    1.47 
   6  13   3    4.55    1.52 
  -6  14   3   -0.27    1.20 
  -6  14   3    0.55    0.86 
  -5  14   3    1.01    0.75 
  -5  14   3   -0.40    1.08 
  -4  14   3    4.70    0.85 
  -4  14   3    5.46    1.39 
  -3  14   3    0.34    0.59 
  -3  14   3    1.03    1.13 
  -2  14   3    3.28    1.24 
  -1  14   3   11.71    1.71 
   0  14   3    0.64    0.94 
   1  14   3    8.21    1.47 
   2  14   3    7.57    1.48 
   3  14   3    7.58    1.54 
   4  14   3    3.76    1.37 
  -5 -14  -3    6.99    1.53 
   5  14   3    3.73    1.39 
  -5  15   3    0.94    1.32 
  -5  15   3    0.32    0.78 
  -4  15   3    0.53    1.24 
  -4  15   3   -0.56    0.74 
  -3  15   3    2.62    1.32 
  -2  15   3    7.90    1.62 
  -1  15   3    0.70    1.13 
   0  15   3    1.61    1.16 
   1  15   3    1.80    1.17 
   2  15   3    3.00    1.25 
   3  15   3    1.74    1.17 
   4  15   3   -0.03    1.12 
  -4  16   3    1.65    1.41 
  -3  16   3    3.85    1.45 
  -2  16   3    2.13    1.38 
  -1  16   3    2.06    1.34 
   0  16   3    0.43    1.18 
   1  16   3    3.26    1.44 
   2  16   3    3.83    1.34 
   3  16   3    4.30    1.47 
  -2  17   3    1.18    1.29 
  -1  17   3    2.64    1.41 
   0  17   3    3.02    1.38 
   1  17   3   -0.13    1.20 
  -3 -16   4    0.12    1.10 
   2  16  -4    1.06    1.18 
   1  16  -4    2.69    1.22 
   0  16  -4    0.90    1.13 
  -1  16  -4    2.45    1.24 
  -2  16  -4    0.33    1.04 
  -4 -15   4    1.11    1.10 
  -3 -15   4   -0.87    0.95 
   2  15  -4    2.50    1.17 
  -2 -15   4    4.03    1.21 
   1  15  -4    4.57    1.28 
   0  15  -4    3.98    1.28 
  -1  15  -4    4.21    1.31 
  -2  15  -4    5.99    1.40 
  -3  15  -4    2.18    1.16 
  -5 -14   4    4.53    1.26 
  -4 -14   4    0.48    1.02 
  -3 -14   4    3.63    1.14 
   2  14  -4    1.19    0.91 
  -2 -14   4    0.04    0.93 
   1  14  -4    6.26    1.34 
   0  14  -4    2.76    1.04 
  -1  14  -4    3.02    1.15 
  -2  14  -4    0.76    0.95 
  -3  14  -4    2.41    1.15 
  -4  14  -4    0.19    1.04 
  -6 -13   4    1.90    1.14 
  -5 -13   4    0.21    0.96 
  -4 -13   4    4.79    1.18 
  -3 -13   4   -0.13    0.83 
   2  13  -4    9.33    1.40 
  -2 -13   4   10.47    1.45 
   1  13  -4    1.10    0.91 
  -1 -13   4    0.78    0.84 
   0  13  -4    2.14    0.99 
  -1  13  -4    6.08    1.28 
  -2  13  -4    5.53    1.24 
  -3  13  -4    5.22    1.38 
  -4  13  -4    4.00    1.35 
  -5  13  -4    5.16    1.47 
  -7 -12   4    4.77    1.42 
  -6 -12   4   -0.65    0.93 
  -5 -12   4    3.62    1.15 
  -4 -12   4    1.00    0.90 
   3  12  -4    9.41    1.27 
  -3 -12   4    4.88    1.07 
   2  12  -4    3.45    0.96 
  -2 -12   4    2.34    0.91 
   1  12  -4    4.04    0.95 
  -1 -12   4    2.88    0.75 
  -1 -12   4    2.94    0.94 
   0  12  -4    0.56    0.79 
  -1  12  -4   12.15    1.54 
  -2  12  -4    7.48    1.35 
  -3  12  -4   14.13    1.87 
  -4  12  -4   11.07    1.66 
  -5  12  -4    6.08    1.48 
  -7 -11   4   -0.86    1.08 
  -6 -11   4    1.90    1.04 
  -5 -11   4   -0.05    0.83 
  -4 -11   4    5.65    1.11 
   3  11  -4    4.82    0.96 
  -3 -11   4    3.45    0.95 
   2  11  -4    3.03    0.88 
  -2 -11   4    2.68    0.66 
  -2 -11   4    3.55    0.88 
   1  11  -4    5.03    1.01 
  -1 -11   4    4.68    0.99 
  -1 -11   4    5.54    0.79 
   0  11  -4    7.43    1.15 
   0 -11   4    8.72    0.99 
  -1  11  -4    3.70    0.99 
  -2  11  -4   39.42    3.23 
  -3  11  -4    4.93    1.13 
  -4  11  -4    8.24    1.48 
  -5  11  -4    3.04    1.30 
  -6  11  -4    3.41    1.40 
  -8 -10   4    0.34    1.22 
  -7 -10   4    9.20    1.60 
  -6 -10   4    0.25    0.94 
  -5 -10   4    9.39    1.41 
  -4 -10   4    1.22    0.74 
   3  10  -4   50.34    4.03 
  -3 -10   4   57.53    3.24 
  -3 -10   4   58.67    3.99 
   2  10  -4    2.81    0.77 
  -2 -10   4    1.84    0.58 
  -2 -10   4    1.90    0.74 
   1  10  -4   26.15    2.21 
  -1 -10   4   27.36    2.15 
  -1 -10   4   25.09    1.79 
   0  10  -4    3.89    0.85 
   0 -10   4    2.14    0.67 
   0 -10   4    2.75    0.75 
  -1  10  -4    2.64    0.88 
   1 -10   4    0.27    0.59 
  -2  10  -4   17.17    1.77 
  -3  10  -4    7.28    1.25 
  -4  10  -4    5.10    1.20 
  -5  10  -4   14.21    1.93 
  -6  10  -4    3.55    1.40 
  -8  -9   4    0.59    1.11 
  -7  -9   4    0.71    1.02 
  -6  -9   4    6.19    1.24 
  -5  -9   4    1.07    0.87 
  -4  -9   4   17.59    1.71 
   3   9  -4   -0.01    0.23 
  -3  -9   4    0.72    0.49 
  -3  -9   4    0.00    0.60 
   2   9  -4   25.11    2.17 
  -2  -9   4   27.42    1.80 
  -2  -9   4   28.95    2.18 
   1   9  -4    0.10    0.49 
  -1  -9   4    0.29    0.45 
  -1  -9   4    0.26    0.52 
   0   9  -4   56.36    3.70 
   0  -9   4   43.33    3.35 
   0  -9   4   45.99    2.87 
  -1   9  -4    2.12    0.71 
   1  -9   4    3.77    0.72 
  -2   9  -4    7.77    1.15 
  -3   9  -4    3.18    0.92 
  -4   9  -4   18.47    1.98 
  -5   9  -4    6.14    1.42 
  -6   9  -4    7.74    1.67 
  -7   9  -4    2.08    1.37 
  -8  -8   4    1.27    1.11 
  -7  -8   4    0.07    0.92 
  -6  -8   4    3.53    1.02 
  -5  -8   4   11.64    1.39 
  -4  -8   4    2.88    0.58 
  -4  -8   4    2.45    0.82 
   3   8  -4   25.00    2.08 
  -3  -8   4   27.68    1.78 
  -3  -8   4   27.94    2.18 
   2   8  -4    0.57    0.43 
  -2  -8   4    0.39    0.49 
  -2  -8   4    0.45    0.45 
   1   8  -4   14.29    1.35 
  -1  -8   4   14.85    1.30 
  -1  -8   4   13.43    1.16 
   0   8  -4   30.50    2.36 
   0  -8   4   32.19    2.24 
   0  -8   4   25.38    1.89 
  -1   8  -4   32.69    2.55 
   1  -8   4   29.89    2.05 
  -2   8  -4   10.79    1.38 
   2  -8   4   15.58    1.27 
  -3   8  -4   22.82    2.14 
  -4   8  -4   11.83    1.57 
  -5   8  -4    7.78    1.44 
  -6   8  -4    4.55    1.35 
  -7   8  -4    4.23    1.49 
  -9  -7   4    0.98    1.13 
  -8  -7   4    5.11    1.23 
  -7  -7   4    1.02    0.95 
  -6  -7   4   11.59    1.44 
  -5  -7   4    6.30    1.07 
  -5  -7   4    6.76    0.82 
  -4  -7   4    5.67    0.94 
  -4  -7   4    7.17    0.78 
   3   7  -4    0.68    0.40 
  -3  -7   4    1.62    0.50 
  -3  -7   4    1.54    0.63 
  -2  -7   4   38.58    2.78 
  -2  -7   4   38.93    2.35 
   1   7  -4    1.45    0.52 
  -1  -7   4    2.31    0.54 
  -1  -7   4    2.56    0.51 
   0   7  -4   68.34    4.73 
   0  -7   4   65.48    3.81 
  -1   7  -4   30.78    2.35 
   1  -7   4   27.65    1.91 
  -2   7  -4   54.70    3.92 
   2  -7   4   49.71    3.11 
  -3   7  -4   17.49    1.83 
  -4   7  -4   10.63    1.46 
  -5   7  -4    9.00    1.54 
  -6   7  -4   14.59    2.00 
  -7   7  -4    2.80    1.38 
  -9  -6   4   -1.12    0.98 
  -8  -6   4   -0.02    1.00 
  -7  -6   4   -0.57    0.72 
  -6  -6   4    0.82    0.57 
  -6  -6   4    0.93    0.79 
  -5  -6   4   76.80    4.35 
  -5  -6   4   78.14    5.30 
  -4  -6   4   14.55    1.17 
  -4  -6   4   14.74    1.42 
   3   6  -4   18.73    1.58 
  -3  -6   4   21.12    1.69 
  -3  -6   4   23.64    1.47 
   2   6  -4   10.76    0.99 
  -2  -6   4    9.67    1.01 
  -2  -6   4   11.08    0.91 
  -1  -6   4   14.95    1.25 
  -1  -6   4   16.16    1.16 
   0   6  -4    1.99    0.52 
   0  -6   4    2.46    0.48 
   0  -6   4    1.81    0.51 
  -1   6  -4   88.38    6.17 
   1  -6   4   89.60    4.96 
  -2   6  -4    5.02    0.85 
   2  -6   4    1.88    0.56 
  -3   6  -4   22.79    2.01 
   3  -6   4   19.67    1.63 
  -4   6  -4   30.45    2.68 
  -5   6  -4   14.58    1.81 
  -6   6  -4    3.55    1.29 
  -7   6  -4    5.83    1.50 
  -8   6  -4   -0.63    1.17 
  -9  -5   4    0.98    1.08 
  -8  -5   4    3.95    1.20 
  -7  -5   4    0.38    0.81 
  -6  -5   4   29.59    2.44 
  -6  -5   4   28.98    1.94 
  -5  -5   4   11.51    1.00 
  -5  -5   4   10.36    1.24 
  -4  -5   4   17.52    1.51 
  -4  -5   4   16.97    1.29 
   3   5  -4    6.08    0.65 
  -3  -5   4    7.36    0.84 
  -3  -5   4    6.70    0.74 
   2   5  -4   24.85    1.76 
  -2  -5   4   21.18    1.52 
  -2  -5   4   23.74    1.75 
   1   5  -4    6.04    0.74 
  -1  -5   4    7.94    0.77 
  -1  -5   4    9.52    0.81 
   0   5  -4  214.39   15.16 
   0  -5   4  240.38   12.16 
   0  -5   4  234.07   14.41 
  -1   5  -4    8.85    1.08 
   1  -5   4   12.73    0.99 
  -2   5  -4   30.73    2.41 
   2  -5   4   28.25    1.89 
  -3   5  -4   11.19    1.32 
   3  -5   4   10.59    1.05 
  -4   5  -4   29.15    2.55 
  -5   5  -4    1.98    0.96 
  -6   5  -4    4.26    1.24 
  -7   5  -4    6.92    1.55 
  -8   5  -4    8.75    1.79 
  -9  -4   4    3.05    1.23 
  -8  -4   4    1.25    0.95 
  -7  -4   4    8.26    1.25 
  -7  -4   4    9.58    0.96 
  -6  -4   4    6.64    0.80 
  -6  -4   4    9.28    1.16 
  -5  -4   4    3.97    0.77 
  -5  -4   4    4.12    0.61 
  -4  -4   4    9.93    0.85 
  -4  -4   4    8.30    1.00 
   3   4  -4  108.20    7.18 
  -3  -4   4  110.53    5.90 
  -3  -4   4  107.33    7.02 
   2   4  -4   10.20    0.88 
  -2  -4   4   10.61    0.88 
  -2  -4   4    9.69    0.93 
  -1  -4   4  200.74   10.63 
   0   4  -4   24.96    2.01 
   0  -4   4   26.38    1.67 
   0  -4   4   27.57    1.82 
  -1   4  -4   57.80    3.91 
   1  -4   4   50.66    3.13 
  -2   4  -4   25.48    2.17 
   2  -4   4   27.50    1.76 
   3  -4   4   99.37    5.54 
  -4   4  -4    4.15    0.98 
  -5   4  -4   17.04    1.95 
  -6   4  -4    1.81    1.08 
  -7   4  -4    0.53    1.03 
  -8   4  -4    5.43    1.51 
  -9  -3   4    0.02    0.98 
  -8  -3   4    0.48    0.69 
  -8  -3   4    0.44    0.93 
  -7  -3   4    0.44    0.54 
  -7  -3   4    0.96    0.76 
  -6  -3   4    3.10    0.60 
  -5  -3   4    5.32    0.66 
  -4  -3   4   30.78    1.88 
  -3  -3   4   -0.13    0.34 
  -3  -3   4    0.06    0.37 
   2   3  -4  116.26    7.71 
  -2  -3   4  115.92    6.30 
  -2  -3   4  118.28    7.46 
   1   3  -4   47.82    3.17 
  -1  -3   4   42.63    2.62 
   0   3  -4   56.83    3.77 
   0  -3   4   52.99    3.44 
   0  -3   4   50.69    3.06 
   1  -3   4   82.87    4.82 
   1  -3   4   93.51    6.13 
   2  -3   4   49.70    3.63 
   2  -3   4   46.27    2.81 
   3  -3   4    0.78    0.63 
   3  -3   4    0.49    0.43 
   4  -3   4   20.59    2.09 
   5  -3   4    8.14    1.39 
   6  -3   4   26.52    2.66 
  -7   3  -4    1.74    1.17 
  -8   3  -4    4.72    1.53 
  -9  -2   4    1.57    1.09 
  -8  -2   4    0.24    0.63 
  -7  -2   4    8.20    0.92 
  -6  -2   4    2.13    0.58 
  -5  -2   4   11.01    0.94 
  -4  -2   4    3.08    0.51 
  -3  -2   4  121.58    6.52 
   2   2  -4   26.66    1.83 
  -2  -2   4   25.99    1.63 
   1   2  -4   85.00    5.94 
  -1  -2   4   89.47    5.64 
  -1  -2   4   91.88    4.85 
   0  -2   4    5.28    0.68 
   0  -2   4    5.31    0.58 
   0  -2   4    4.73    0.46 
   1  -2   4   81.32    4.51 
   1  -2   4   82.63    5.71 
   2  -2   4   45.59    2.67 
   2  -2   4   45.32    3.44 
   3  -2   4   57.60    4.37 
   3  -2   4   59.46    3.39 
   4  -2   4    4.46    1.00 
   5  -2   4   21.32    2.21 
   6  -2   4    9.31    1.57 
   7  -2   4    7.87    1.65 
   8  -2   4    2.93    1.37 
  -9  -1   4    0.33    0.77 
  -8  -1   4    5.89    0.88 
  -7  -1   4   -0.16    0.51 
  -6  -1   4   22.99    1.58 
  -5  -1   4    0.87    0.46 
  -4  -1   4   50.20    2.88 
  -3  -1   4    2.68    0.46 
   2   1  -4  158.71   10.29 
  -2  -1   4  154.85    8.33 
  -1  -1   4   21.96    1.41 
  -1  -1   4   22.35    1.66 
   0  -1   4  142.11    9.52 
   0  -1   4  142.29    7.60 
   1  -1   4   28.62    1.79 
   1  -1   4   30.29    2.32 
   2  -1   4   68.00    3.88 
   2  -1   4   71.07    4.98 
   3  -1   4   26.63    1.76 
   3  -1   4   28.82    2.40 
   4  -1   4   45.76    3.63 
   5  -1   4   19.11    2.04 
   6  -1   4    6.11    1.32 
   7  -1   4    1.50    1.11 
   8  -1   4    3.43    1.44 
  -9   0   4    4.49    0.93 
  -8   0   4   -0.06    0.63 
  -7   0   4    0.06    0.54 
  -6   0   4    0.11    0.47 
  -5   0   4   83.88    4.63 
  -4   0   4    1.53    0.45 
  -3   0   4    0.22    0.37 
  -2   0   4   19.48    1.45 
  -2   0   4   20.96    1.28 
  -1   0   4   82.35    4.51 
  -1   0   4   83.26    5.59 
   0   0   4    0.28    0.33 
   0   0   4    0.06    0.28 
   1   0   4  508.57   33.33 
   1   0   4  507.89   26.50 
   2   0   4   43.02    2.54 
   2   0   4   44.28    3.31 
   3   0   4   66.90    3.97 
   3   0   4   77.65    5.23 
   4   0   4   21.50    2.01 
   4   0   4   19.47    1.44 
   5   0   4    3.41    1.00 
   6   0   4   -0.05    0.76 
   7   0   4    2.34    1.16 
   8   0   4    1.07    1.20 
  -9   1   4    1.28    0.86 
  -8   1   4    5.80    0.92 
  -7   1   4    0.62    0.60 
  -6   1   4   24.95    1.72 
  -5   1   4    1.01    0.43 
  -4   1   4   50.75    2.90 
  -3   1   4    2.31    0.45 
  -2   1   4  152.67    8.03 
  -2   1   4  150.15    9.97 
  -1   1   4   24.03    1.47 
  -1   1   4   24.00    1.80 
   0   1   4  127.67    6.76 
   0   1   4  125.25    8.48 
   1   1   4   38.42    2.29 
   1   1   4   41.05    2.95 
   2   1   4   69.76    4.90 
   2   1   4   67.06    3.78 
  -3  -1  -4   27.54    1.79 
   3   1   4   26.92    1.70 
   3   1   4   24.72    2.28 
   4   1   4   45.96    3.68 
   4   1   4   47.36    2.76 
   5   1   4   24.71    2.38 
   6   1   4    6.16    1.35 
   7   1   4    1.80    1.07 
   8   1   4    1.83    1.33 
  -9   2   4    1.78    0.88 
  -8   2   4   -0.04    0.68 
  -7   2   4    7.14    0.92 
  -6   2   4    2.71    0.66 
  -5   2   4    5.58    0.71 
  -4   2   4    2.58    0.36 
  -4   2   4    2.38    0.50 
  -3   2   4  130.74    6.90 
  -3   2   4  127.46    8.50 
  -2   2   4   27.38    2.00 
  -2   2   4   28.58    1.69 
  -1   2   4   82.86    4.48 
  -1   2   4   82.50    5.59 
   0   2   4    6.53    0.62 
   0   2   4    7.17    0.79 
   1   2   4   96.70    6.48 
   1   2   4   91.38    5.07 
   2   2   4   39.92    2.35 
   2   2   4   41.47    3.10 
  -3  -2  -4   58.68    3.93 
   3   2   4   61.20    4.51 
   3   2   4   64.47    3.43 
   4   2   4    6.39    0.67 
   4   2   4    5.09    1.02 
   5   2   4   17.33    1.93 
   6   2   4    9.51    1.54 
   7   2   4    5.92    1.42 
   8   2   4    2.34    1.34 
  -9   3   4    0.51    0.85 
  -8   3   4    0.99    0.79 
  -7   3   4    1.60    0.73 
  -6   3   4    3.81    0.74 
  -5   3   4    5.55    0.74 
  -4   3   4   39.73    2.59 
  -4   3   4   32.04    2.17 
  -3   3   4    0.00    0.29 
  -3   3   4    0.32    0.29 
  -2   3   4  129.88    6.84 
  -2   3   4  126.47    8.53 
  -1   3   4   48.64    2.68 
  -1   3   4   47.19    3.38 
   0   3   4   55.09    3.90 
   0   3   4   55.21    3.07 
   1   3   4   87.37    6.17 
   1   3   4   91.40    4.85 
   2   3   4   50.29    3.75 
  -3  -3  -4    0.47    0.36 
   3   3   4   -0.31    0.52 
   3   3   4    0.08    0.28 
  -4  -3  -4   18.83    1.46 
   4   3   4   20.63    1.97 
   5   3   4    6.16    1.22 
   6   3   4   21.06    2.28 
   7   3   4    3.02    1.24 
   8   3   4    4.32    1.46 
  -9   4   4    5.33    1.13 
  -8   4   4    0.47    0.79 
  -7   4   4   11.25    1.19 
  -6   4   4   11.86    1.14 
  -5   4   4    4.44    0.68 
  -4   4   4    9.16    0.97 
  -4   4   4   10.18    0.89 
  -3   4   4  108.44    7.37 
  -3   4   4  111.97    5.95 
  -2   4   4   11.64    1.05 
  -2   4   4   10.49    0.84 
  -1   4   4  226.70   14.99 
  -1   4   4  226.32   11.89 
   0   4   4   24.69    1.50 
   0   4   4   23.91    1.96 
   1   4   4   34.00    1.98 
   2   4   4   25.58    2.11 
   2   4   4   24.16    1.51 
  -3  -4  -4   96.46    6.18 
   3   4   4   96.10    5.17 
   3   4   4   95.46    6.81 
  -4  -4  -4    5.98    0.70 
   4   4   4    2.60    0.89 
   5   4   4   16.02    1.88 
   6   4   4    1.46    0.98 
   7   4   4    0.27    1.08 
   8   4   4    6.47    1.65 
  -9   5   4    1.74    0.99 
  -8   5   4    2.30    0.85 
  -7   5   4    1.04    0.74 
  -6   5   4   31.35    2.13 
  -5   5   4   10.37    1.01 
  -4   5   4   23.11    1.91 
  -4   5   4   26.22    1.65 
  -3   5   4    7.53    0.73 
  -3   5   4    7.52    0.85 
  -2   5   4   24.81    1.96 
  -2   5   4   25.58    1.55 
  -1   5   4    8.55    0.70 
  -1   5   4    7.95    0.94 
   0   5   4  224.03   14.96 
   0   5   4  225.53   11.80 
   1   5   4    9.54    1.13 
   1   5   4   10.58    0.81 
   2   5   4   33.80    2.65 
   2   5   4   31.31    1.89 
  -3  -5  -4   10.19    1.04 
   3   5   4   12.16    0.85 
   3   5   4   13.39    1.46 
  -4  -5  -4   26.89    2.04 
   4   5   4   29.11    2.55 
   5   5   4    1.27    0.86 
   6   5   4    7.51    1.48 
   7   5   4    5.75    1.46 
   8   5   4    9.72    1.91 
  -9   6   4    2.11    1.02 
  -8   6   4    1.01    0.89 
  -7   6   4    0.44    0.78 
  -6   6   4    1.19    0.61 
  -5   6   4   80.37    4.55 
  -4   6   4   15.11    1.24 
  -4   6   4   17.04    1.49 
  -3   6   4   21.72    1.44 
  -3   6   4   21.46    1.79 
  -2   6   4   10.18    0.82 
  -2   6   4   10.29    1.06 
  -1   6   4   28.77    1.66 
  -1   6   4   25.85    2.16 
   0   6   4    2.22    0.36 
   0   6   4    2.00    0.61 
   1   6   4   90.67    6.31 
   1   6   4   89.10    4.85 
   2   6   4    3.93    0.89 
   2   6   4    4.65    0.51 
  -3  -6  -4   17.79    1.54 
   3   6   4   21.59    1.97 
  -4  -6  -4   29.98    2.24 
   4   6   4   30.18    2.70 
   5   6   4   14.38    1.83 
   6   6   4    2.77    1.14 
   7   6   4    6.65    1.62 
   8   6   4    1.08    1.27 
  -9   7   4    0.92    1.00 
  -8   7   4    5.41    1.12 
  -7   7   4    1.01    0.78 
  -6   7   4   10.02    1.11 
  -5   7   4    6.49    0.81 
  -5   7   4    5.53    0.86 
  -4   7   4    2.99    0.71 
  -4   7   4    3.07    0.62 
  -3   7   4    1.51    0.49 
  -3   7   4    0.51    0.55 
  -2   7   4   37.10    2.12 
  -2   7   4   33.99    2.73 
  -1   7   4    1.19    0.37 
  -1   7   4    1.09    0.55 
   0   7   4   69.20    4.97 
   1   7   4   37.34    2.95 
   1   7   4   36.26    2.12 
   2   7   4   50.73    3.89 
  -3  -7  -4   16.69    1.49 
   3   7   4   17.53    1.85 
  -4  -7  -4   11.86    1.25 
   4   7   4   11.84    1.56 
   5   7   4    8.45    1.51 
   6   7   4   12.30    1.83 
   7   7   4    3.47    1.40 
  -8   8   4    2.03    1.01 
  -7   8   4    1.56    0.82 
  -6   8   4    3.19    0.79 
  -5   8   4    8.16    1.14 
  -5   8   4    9.76    0.98 
  -4   8   4    2.76    0.63 
  -4   8   4    3.08    0.78 
  -3   8   4   28.04    1.83 
  -3   8   4   28.93    2.36 
  -2   8   4    0.30    0.39 
  -2   8   4    0.77    0.60 
  -1   8   4   12.06    0.91 
  -1   8   4   13.39    1.36 
   0   8   4   32.58    1.94 
   0   8   4   34.53    2.72 
   1   8   4   33.35    2.83 
   1   8   4   35.29    2.02 
   2   8   4   13.27    1.57 
   3   8   4   23.76    2.29 
  -4  -8  -4   10.98    1.26 
   4   8   4   11.55    1.58 
  -5  -8  -4   11.09    1.30 
   5   8   4    9.12    1.59 
   6   8   4    5.18    1.43 
   7   8   4    6.08    1.59 
  -8   9   4    1.99    0.94 
  -7   9   4    1.42    0.80 
  -6   9   4    8.62    1.07 
  -5   9   4    1.33    0.75 
  -5   9   4    1.62    0.66 
  -4   9   4   24.76    2.17 
  -4   9   4   22.99    1.66 
  -3   9   4    0.19    0.67 
  -3   9   4    0.57    0.48 
  -2   9   4   25.45    2.10 
  -2   9   4   21.76    1.50 
  -1   9   4    0.04    0.56 
  -1   9   4    0.14    0.32 
   0   9   4   53.98    3.03 
   0   9   4   55.19    4.10 
   1   9   4    1.81    0.81 
   2   9   4   10.63    1.47 
   3   9   4    2.29    0.91 
  -4  -9  -4   19.84    1.76 
   4   9   4   15.51    1.99 
  -5  -9  -4    6.68    1.15 
   5   9   4    6.26    1.41 
   6   9   4    8.66    1.75 
   7   9   4    2.51    1.34 
  -8  10   4    0.60    0.90 
  -7  10   4    8.38    1.21 
  -6  10   4    0.29    0.70 
  -5  10   4   11.59    1.16 
  -5  10   4    9.79    1.44 
  -4  10   4    1.86    0.62 
  -4  10   4    2.26    0.88 
  -3  10   4   57.84    3.37 
  -3  10   4   58.48    4.37 
  -2  10   4    2.47    0.89 
  -2  10   4    3.14    0.58 
  -1  10   4   21.36    1.43 
  -1  10   4   26.12    2.17 
   0  10   4    3.38    0.91 
   1  10   4    2.08    0.89 
   2  10   4   19.29    2.06 
   3  10   4    8.04    1.37 
  -4 -10  -4    5.58    1.13 
   4  10   4    5.89    1.34 
  -5 -10  -4   11.21    1.46 
   5  10   4   11.95    1.79 
   6  10   4    3.11    1.37 
  -7  11   4   -0.58    0.78 
  -6  11   4    1.76    0.80 
  -5  11   4    0.60    0.91 
  -5  11   4    0.56    0.69 
  -4  11   4    3.46    0.74 
  -4  11   4    3.98    1.08 
  -3  11   4    4.39    1.12 
  -3  11   4    6.53    0.79 
  -2  11   4    2.69    0.97 
  -2  11   4    2.45    0.58 
  -1  11   4    3.54    0.98 
   0  11   4    9.21    1.33 
   1  11   4    5.04    1.14 
   2  11   4   43.21    3.63 
   3  11   4    4.22    1.19 
   4  11   4    7.85    1.52 
  -5 -11  -4    3.63    1.19 
   5  11   4    4.28    1.32 
   6  11   4    2.95    1.38 
  -7  12   4    5.51    1.15 
  -6  12   4    0.16    0.76 
  -5  12   4    1.73    1.13 
  -5  12   4    2.77    0.80 
  -4  12   4    1.81    1.05 
  -4  12   4    1.93    0.70 
  -3  12   4    9.90    1.49 
  -3  12   4   10.41    1.04 
  -2  12   4    2.18    0.98 
  -2  12   4    2.67    0.61 
  -1  12   4    3.19    1.00 
   0  12   4    0.28    0.79 
   1  12   4   12.28    1.70 
   2  12   4    6.17    1.39 
   3  12   4   14.26    1.92 
   4  12   4    9.92    1.67 
   5  12   4    7.79    1.66 
   6  12   4    1.31    1.26 
  -6  13   4    1.46    0.87 
  -5  13   4    1.63    1.21 
  -5  13   4    0.25    0.71 
  -4  13   4    3.47    1.26 
  -4  13   4    4.68    0.88 
  -3  13   4    0.41    0.62 
  -3  13   4    0.12    0.97 
  -2  13   4   10.94    1.65 
  -1  13   4    0.76    0.91 
   0  13   4    0.47    0.91 
   1  13   4    8.25    1.51 
   2  13   4    5.41    1.46 
   3  13   4    6.00    1.45 
   4  13   4    3.95    1.38 
   5  13   4    6.99    1.66 
  -5  14   4    3.30    1.46 
  -5  14   4    2.93    0.94 
  -4  14   4    1.26    1.26 
  -4  14   4    0.19    0.71 
  -3  14   4    7.28    1.55 
  -2  14   4   -0.33    0.98 
  -1  14   4    4.16    1.19 
   0  14   4    1.67    1.09 
   1  14   4    3.16    1.24 
   2  14   4    0.15    1.10 
   3  14   4    3.44    1.33 
   4  14   4   -0.04    1.05 
  -4  15   4    1.24    1.37 
  -3  15   4    0.15    1.15 
  -2  15   4    3.87    1.36 
  -1  15   4    2.33    1.17 
   0  15   4    3.94    1.31 
   1  15   4    1.60    1.28 
   2  15   4    4.61    1.55 
   3  15   4    0.77    1.14 
  -3  16   4   -0.92    1.17 
  -2  16   4    0.24    1.23 
  -1  16   4    2.80    1.34 
   0  16   4    0.32    1.20 
   1  16   4    1.87    1.42 
   2  16   4    0.19    1.37 
  -3 -15   5    0.44    1.05 
  -2 -15   5    1.11    1.03 
   1  15  -5    0.48    1.12 
   0  15  -5    1.33    1.11 
  -1  15  -5    2.77    1.25 
  -2  15  -5    0.47    1.10 
  -5 -14   5   -0.28    1.03 
  -4 -14   5    1.41    1.10 
  -3 -14   5    1.05    1.02 
  -2 -14   5    0.84    0.98 
   1  14  -5    1.10    1.02 
   0  14  -5    0.47    0.92 
  -1  14  -5    3.99    1.26 
  -2  14  -5    6.58    1.44 
  -3  14  -5    2.36    1.22 
  -5 -13   5   -0.38    0.94 
  -4 -13   5    0.95    0.94 
  -3 -13   5    0.43    0.86 
  -2 -13   5    9.78    1.42 
   1  13  -5    1.19    0.89 
  -1 -13   5    0.74    0.83 
  -1 -13   5    1.29    0.92 
   0  13  -5    0.72    0.87 
  -1  13  -5    1.80    0.97 
  -2  13  -5    6.30    1.39 
  -3  13  -5   -1.32    0.96 
  -4  13  -5    4.82    1.37 
  -6 -12   5    1.55    1.07 
  -5 -12   5    2.45    1.08 
  -4 -12   5   -0.57    0.82 
  -3 -12   5    2.06    0.94 
   2  12  -5    0.72    0.87 
  -2 -12   5    1.91    0.85 
  -2 -12   5    1.89    0.78 
   1  12  -5   15.33    1.78 
  -1 -12   5   16.01    1.46 
  -1 -12   5   15.37    1.70 
   0  12  -5    0.27    0.78 
   0 -12   5    1.50    0.79 
  -1  12  -5   16.84    1.94 
  -2  12  -5   15.66    1.95 
  -3  12  -5    8.09    1.47 
  -4  12  -5    3.17    1.21 
  -5  12  -5    2.18    1.31 
  -7 -11   5    1.31    1.25 
  -6 -11   5    2.11    1.14 
  -5 -11   5    1.65    0.94 
  -4 -11   5    4.94    1.06 
  -3 -11   5    2.17    0.88 
   2  11  -5   11.30    1.42 
  -2 -11   5   11.33    1.15 
  -2 -11   5    9.76    1.31 
   1  11  -5    3.74    0.95 
  -1 -11   5    2.91    0.86 
  -1 -11   5    2.31    0.73 
   0  11  -5   18.66    1.88 
   0 -11   5   17.90    1.56 
  -1  11  -5    0.07    0.81 
   1 -11   5    0.20    0.75 
  -2  11  -5    2.78    1.03 
  -3  11  -5    6.10    1.31 
  -4  11  -5    5.68    1.35 
  -5  11  -5    6.89    1.57 
  -7 -10   5   -0.36    1.07 
  -6 -10   5   -0.13    0.95 
  -5 -10   5    3.64    1.09 
  -4 -10   5    0.60    0.79 
  -3 -10   5    5.08    0.98 
  -3 -10   5    4.62    0.82 
   2  10  -5    2.57    0.75 
  -2 -10   5    2.31    0.77 
  -2 -10   5    2.17    0.69 
   1  10  -5   15.00    1.51 
  -1 -10   5   12.28    1.37 
  -1 -10   5   12.21    1.23 
   0  10  -5    0.42    0.74 
   0 -10   5    0.88    0.54 
   0 -10   5    0.17    0.60 
  -1  10  -5   33.52    3.04 
   1 -10   5   44.49    2.62 
  -2  10  -5    8.02    1.39 
   2 -10   5   13.91    1.41 
  -3  10  -5   12.34    1.66 
  -4  10  -5    9.50    1.58 
  -5  10  -5    7.98    1.59 
  -6  10  -5    5.60    1.69 
  -8  -9   5    0.89    1.12 
  -7  -9   5    1.50    1.10 
  -6  -9   5    2.34    1.07 
  -5  -9   5    3.50    1.01 
  -4  -9   5   10.34    1.08 
  -4  -9   5   10.03    1.32 
  -3  -9   5    1.39    0.58 
  -3  -9   5    1.29    0.71 
   2   9  -5    4.23    0.82 
  -2  -9   5    6.23    0.95 
  -2  -9   5    7.14    0.86 
   1   9  -5    3.05    0.76 
  -1  -9   5    2.30    0.64 
  -1  -9   5    1.82    0.69 
   0   9  -5    7.16    1.02 
   0  -9   5    4.74    0.75 
   0  -9   5    4.90    0.85 
  -1   9  -5    0.71    0.73 
   1  -9   5    0.81    0.69 
  -2   9  -5   33.58    2.83 
   2  -9   5   33.67    2.37 
  -3   9  -5    3.09    1.03 
  -4   9  -5    9.36    1.52 
  -5   9  -5    5.64    1.43 
  -6   9  -5    7.29    1.73 
  -8  -8   5    0.17    1.05 
  -7  -8   5    2.92    1.05 
  -6  -8   5    0.65    0.89 
  -5  -8   5    3.95    0.82 
  -5  -8   5    4.58    1.06 
  -4  -8   5    8.17    0.93 
  -4  -8   5    7.01    1.09 
  -3  -8   5   32.32    2.09 
  -3  -8   5   29.70    2.42 
   2   8  -5    0.22    0.23 
  -2  -8   5    0.82    0.54 
  -2  -8   5    1.08    0.54 
   1   8  -5   24.18    2.17 
  -1  -8   5   27.06    2.06 
  -1  -8   5   29.26    1.88 
   0   8  -5    5.80    0.95 
   0  -8   5    7.78    0.91 
   0  -8   5    7.70    0.93 
  -1   8  -5    3.72    0.87 
   1  -8   5    7.97    0.94 
  -2   8  -5    4.52    0.96 
   2  -8   5    2.60    0.81 
  -3   8  -5   27.76    2.55 
  -4   8  -5    5.40    1.25 
  -5   8  -5    8.73    1.59 
  -6   8  -5    4.18    1.57 
  -7   8  -5    2.26    1.46 
  -8  -7   5    0.29    1.01 
  -7  -7   5   -0.51    0.77 
  -6  -7   5    4.02    1.05 
  -5  -7   5    3.92    0.78 
  -5  -7   5    4.52    0.98 
  -4  -7   5   15.39    1.29 
  -4  -7   5   15.16    1.50 
  -3  -7   5    3.54    0.76 
  -3  -7   5    3.25    0.65 
   2   7  -5   63.84    4.69 
  -2  -7   5   68.16    4.56 
  -2  -7   5   71.18    3.91 
   1   7  -5   14.29    1.42 
  -1  -7   5   17.50    1.29 
   0   7  -5   70.61    5.26 
   0  -7   5   73.08    4.93 
   0  -7   5   82.94    4.35 
  -1   7  -5   10.06    1.18 
   1  -7   5    7.53    0.99 
  -2   7  -5   25.12    2.25 
   2  -7   5   24.65    1.87 
  -3   7  -5    7.54    1.21 
   3  -7   5    3.86    0.88 
  -4   7  -5   14.65    1.81 
  -5   7  -5    2.18    1.09 
  -6   7  -5    1.72    1.27 
  -7   7  -5    0.26    1.33 
  -9  -6   5    1.38    1.18 
  -8  -6   5    2.98    1.13 
  -7  -6   5    3.70    1.08 
  -6  -6   5    1.29    0.65 
  -6  -6   5    1.33    0.79 
  -5  -6   5    3.89    0.75 
  -5  -6   5    3.84    0.90 
  -4  -6   5   15.19    1.27 
  -4  -6   5   14.93    1.45 
  -3  -6   5    9.56    1.06 
  -3  -6   5    9.66    0.96 
   2   6  -5    3.15    0.55 
  -2  -6   5    2.79    0.62 
  -2  -6   5    3.01    0.61 
   1   6  -5   48.78    3.38 
  -1  -6   5   43.95    2.79 
   0   6  -5    0.71    0.49 
   0  -6   5    1.78    0.58 
   0  -6   5    1.45    0.43 
  -1   6  -5   55.05    4.38 
   1  -6   5   67.03    3.61 
  -2   6  -5    1.30    0.68 
   2  -6   5    0.12    0.50 
  -3   6  -5   19.73    2.06 
   3  -6   5   21.09    1.69 
  -4   6  -5    4.11    1.08 
  -5   6  -5   15.00    1.90 
  -6   6  -5    1.53    1.24 
  -7   6  -5    5.18    1.61 
  -9  -5   5    0.51    1.12 
  -8  -5   5    1.37    0.95 
  -7  -5   5    0.38    0.78 
  -7  -5   5    1.66    0.74 
  -6  -5   5   11.52    1.11 
  -6  -5   5   12.10    1.43 
  -5  -5   5   11.88    1.10 
  -5  -5   5   12.27    1.35 
  -4  -5   5   13.56    1.38 
  -4  -5   5   16.05    1.28 
  -3  -5   5    7.46    0.87 
  -3  -5   5    5.80    0.78 
   2   5  -5   20.90    1.78 
  -2  -5   5   24.95    1.78 
  -2  -5   5   24.78    1.61 
   1   5  -5    0.04    0.17 
  -1  -5   5    0.57    0.39 
  -1  -5   5    0.60    0.45 
   0   5  -5   62.87    4.43 
   0  -5   5   59.79    3.58 
   0  -5   5   63.10    4.05 
  -1   5  -5   21.02    1.86 
   1  -5   5   21.17    1.57 
  -2   5  -5   22.94    2.10 
   2  -5   5   24.64    1.75 
  -3   5  -5   11.84    1.43 
   3  -5   5   10.70    1.16 
  -4   5  -5   21.32    2.15 
  -5   5  -5    8.55    1.43 
  -6   5  -5   13.87    1.97 
  -7   5  -5   -0.23    1.19 
  -9  -4   5    0.95    1.07 
  -8  -4   5    1.38    0.96 
  -7  -4   5    2.20    0.73 
  -7  -4   5    1.95    0.91 
  -6  -4   5    2.37    0.84 
  -6  -4   5    2.14    0.63 
  -5  -4   5   49.26    2.92 
  -5  -4   5   48.11    3.50 
  -4  -4   5   21.77    1.53 
  -4  -4   5   20.53    1.75 
  -3  -4   5   26.90    1.82 
  -3  -4   5   28.53    2.07 
   2   4  -5    7.81    0.80 
  -2  -4   5    8.09    0.84 
  -2  -4   5    7.61    0.82 
  -1  -4   5   83.32    4.72 
  -1  -4   5   86.31    5.47 
   0   4  -5    9.71    1.03 
   0  -4   5    8.64    0.78 
   0  -4   5    8.48    0.88 
  -1   4  -5   68.32    4.73 
   1  -4   5   63.29    3.78 
  -2   4  -5    7.88    1.13 
   2  -4   5    8.15    0.93 
  -3   4  -5   12.96    1.60 
   3  -4   5   15.89    1.33 
  -4   4  -5   14.01    1.71 
   4  -4   5   14.02    1.38 
  -5   4  -5   24.39    2.50 
  -6   4  -5    1.14    1.17 
  -7   4  -5    6.65    1.58 
  -8   4  -5    0.14    1.29 
  -9  -3   5    0.82    1.04 
  -8  -3   5    0.28    0.86 
  -8  -3   5    0.76    0.73 
  -7  -3   5    0.62    0.82 
  -7  -3   5    1.28    0.64 
  -6  -3   5    4.88    0.79 
  -5  -3   5    2.75    0.63 
  -4  -3   5   59.12    3.41 
  -3  -3   5    1.49    0.49 
  -3  -3   5    1.94    0.53 
   2   3  -5   43.34    3.04 
  -2  -3   5   44.58    2.99 
  -2  -3   5   44.59    2.64 
   1   3  -5    1.13    0.43 
  -1  -3   5    1.17    0.46 
  -1  -3   5    1.18    0.37 
   0   3  -5   34.53    2.82 
   0  -3   5   37.94    2.33 
   0  -3   5   40.38    2.51 
   1  -3   5    1.55    0.63 
   1  -3   5    1.30    0.48 
   2  -3   5   57.45    4.49 
   2  -3   5   63.25    3.55 
   3  -3   5    2.00    0.85 
   3  -3   5    2.11    0.63 
   4  -3   5   26.85    1.94 
   4  -3   5   25.49    2.54 
   5  -3   5    0.31    0.92 
   6  -3   5    9.54    1.70 
  -7   3  -5    1.02    1.22 
  -8   3  -5    3.72    1.47 
  -9  -2   5   -0.59    1.02 
  -9  -2   5    0.59    0.84 
  -8  -2   5    0.41    0.72 
  -7  -2   5    7.78    0.97 
  -6  -2   5    1.65    0.61 
  -5  -2   5   39.18    2.40 
  -4  -2   5    4.55    0.68 
  -3  -2   5   21.44    1.50 
   2   2  -5    5.81    0.61 
  -2  -2   5    5.73    0.71 
  -1  -2   5   59.25    3.77 
  -1  -2   5   56.71    4.06 
  -1  -2   5   58.10    3.34 
   0  -2   5   28.11    1.87 
   0  -2   5   28.09    1.82 
   0  -2   5   29.23    2.26 
   1  -2   5   91.69    6.43 
   1  -2   5   92.28    5.09 
   2  -2   5   24.02    2.15 
   2  -2   5   24.45    1.69 
   3  -2   5   90.26    6.52 
   3  -2   5   90.72    5.10 
   4  -2   5    3.87    0.78 
   4  -2   5    3.69    1.05 
   5  -2   5   22.01    2.36 
   6  -2   5    7.16    1.54 
   7  -2   5    5.24    1.53 
   8  -2   5    1.09    1.27 
  -9  -1   5    0.74    0.83 
  -8  -1   5    4.08    0.89 
  -7  -1   5    0.14    0.66 
  -6  -1   5    6.81    0.87 
  -5  -1   5    5.82    0.78 
  -4  -1   5   31.66    1.97 
  -3  -1   5   13.31    1.08 
  -2  -1   5  100.18    5.30 
  -2  -1   5   93.35    6.44 
  -1  -1   5    4.08    0.59 
  -1  -1   5    3.47    0.56 
   0  -1   5   58.97    3.38 
   0  -1   5   59.73    4.23 
   1  -1   5   26.73    1.69 
   1  -1   5   23.81    2.10 
   2  -1   5  119.96    6.53 
   2  -1   5  118.54    8.27 
   3  -1   5    2.98    0.86 
   3  -1   5    2.96    0.64 
   4  -1   5   46.54    2.85 
   4  -1   5   44.95    3.71 
   5  -1   5    5.06    1.20 
   6  -1   5    7.95    1.57 
   7  -1   5    0.22    1.04 
   8  -1   5    2.83    1.50 
  -9   0   5    0.97    0.87 
  -8   0   5   -0.02    0.72 
  -7   0   5    8.35    1.01 
  -6   0   5    0.08    0.57 
  -5   0   5    4.65    0.72 
  -4   0   5    4.22    0.64 
  -3   0   5   67.68    3.79 
  -2   0   5   97.28    6.61 
  -2   0   5  100.49    5.40 
  -1   0   5   55.61    3.12 
  -1   0   5   52.84    3.80 
   0   0   5    7.69    0.89 
   0   0   5    6.63    0.71 
   1   0   5   61.12    3.36 
   1   0   5   55.06    4.20 
   2   0   5   39.86    2.46 
   2   0   5   41.55    3.19 
   3   0   5    1.26    0.50 
   3   0   5    0.86    0.69 
   4   0   5   12.28    1.14 
   4   0   5   13.06    1.63 
   5   0   5    8.63    1.44 
   6   0   5    8.56    1.58 
   7   0   5    7.85    1.65 
   8   0   5    1.83    1.28 
  -9   1   5    0.53    0.87 
  -8   1   5    4.06    0.87 
  -7   1   5    0.90    0.65 
  -6   1   5    4.96    0.79 
  -5   1   5    5.27    0.75 
  -4   1   5   35.63    2.22 
  -3   1   5    9.76    0.87 
  -3   1   5   11.50    0.92 
  -2   1   5   98.34    6.68 
  -2   1   5  101.43    5.44 
  -1   1   5    3.66    0.56 
  -1   1   5    4.11    0.60 
   0   1   5   47.17    3.54 
   0   1   5   50.71    2.85 
   1   1   5   26.72    1.74 
   1   1   5   28.16    2.27 
   2   1   5  149.07    9.87 
   2   1   5  139.06    7.73 
   3   1   5    1.75    0.53 
   3   1   5    2.05    0.78 
   4   1   5   46.83    3.78 
   4   1   5   46.86    2.84 
   5   1   5    4.11    1.12 
   6   1   5    5.53    1.38 
   7   1   5    0.47    1.01 
   8   1   5    1.66    1.26 
  -9   2   5   -0.56    0.79 
  -8   2   5    0.57    0.77 
  -7   2   5    9.38    1.07 
  -6   2   5    2.24    0.65 
  -5   2   5   37.46    2.32 
  -4   2   5    4.20    0.67 
  -3   2   5   22.81    1.46 
  -3   2   5   20.83    1.60 
  -2   2   5    6.35    0.67 
  -2   2   5    6.44    0.70 
  -1   2   5   62.89    4.49 
  -1   2   5   66.27    3.62 
   0   2   5   25.80    1.70 
   0   2   5   28.51    2.18 
   1   2   5   75.12    5.47 
   1   2   5   80.12    4.31 
   2   2   5   23.26    1.53 
   2   2   5   23.59    2.08 
   3   2   5   93.85    6.69 
   3   2   5   93.06    5.16 
   4   2   5    3.78    0.62 
   4   2   5    3.65    1.03 
   5   2   5   17.32    2.01 
   6   2   5    4.79    1.31 
   7   2   5    5.58    1.51 
   8   2   5    1.83    1.31 
  -9   3   5   -0.75    0.82 
  -8   3   5    1.42    0.81 
  -7   3   5    1.91    0.75 
  -6   3   5    3.42    0.73 
  -5   3   5    5.92    0.80 
  -4   3   5   70.71    4.00 
  -3   3   5    1.42    0.48 
  -3   3   5    1.06    0.39 
  -2   3   5   44.78    3.26 
  -2   3   5   47.10    2.66 
  -1   3   5    1.67    0.44 
  -1   3   5    1.22    0.47 
   0   3   5   33.10    2.01 
   0   3   5   33.03    2.56 
   1   3   5    1.58    0.45 
   1   3   5    1.58    0.61 
   2   3   5   58.59    3.30 
   2   3   5   57.42    4.32 
   3   3   5    0.58    0.67 
   3   3   5    1.24    0.45 
   4   3   5   23.44    2.32 
   5   3   5    1.88    0.94 
   6   3   5    5.71    1.40 
   7   3   5    0.96    1.18 
   8   3   5    3.06    1.42 
  -9   4   5    0.63    0.93 
  -8   4   5    0.87    0.76 
  -7   4   5    1.35    0.72 
  -6   4   5    2.17    0.71 
  -5   4   5   48.12    2.89 
  -4   4   5   22.54    1.55 
  -3   4   5   32.55    2.41 
  -3   4   5   32.24    2.02 
  -2   4   5    9.08    0.95 
  -2   4   5    9.08    0.82 
  -1   4   5   72.43    5.10 
  -1   4   5   73.84    4.05 
   0   4   5   10.69    0.88 
   0   4   5   10.37    1.15 
   1   4   5   66.89    4.98 
   1   4   5   71.97    3.89 
   2   4   5    9.75    1.27 
   3   4   5   12.94    1.01 
   3   4   5   11.99    1.52 
   4   4   5   15.38    1.82 
   5   4   5   22.26    2.38 
   6   4   5    1.25    1.04 
   7   4   5    6.96    1.63 
   8   4   5   -1.29    1.01 
  -9   5   5    2.03    1.04 
  -8   5   5    4.30    1.04 
  -7   5   5    0.64    0.77 
  -6   5   5   15.35    1.38 
  -5   5   5   11.39    1.09 
  -4   5   5    8.76    0.88 
  -3   5   5    7.36    0.89 
  -3   5   5    7.27    0.78 
  -2   5   5   22.84    1.91 
  -2   5   5   23.61    1.55 
  -1   5   5    0.83    0.37 
  -1   5   5    0.73    0.51 
   0   5   5   70.33    3.89 
   0   5   5   69.33    4.99 
   1   5   5   16.72    1.75 
   1   5   5   20.04    1.29 
   2   5   5   19.94    1.35 
   2   5   5   19.20    1.91 
   3   5   5   10.63    1.46 
   4   5   5   20.97    2.21 
   5   5   5    7.27    1.43 
   6   5   5   14.93    2.05 
   7   5   5   -1.13    0.93 
  -9   6   5    2.22    1.09 
  -8   6   5    2.17    0.99 
  -7   6   5    5.81    1.02 
  -6   6   5    1.49    0.69 
  -5   6   5    7.05    0.91 
  -4   6   5   16.96    1.32 
  -4   6   5   17.55    1.56 
  -3   6   5   12.76    1.29 
  -3   6   5   13.57    1.06 
  -2   6   5    2.91    0.69 
  -2   6   5    3.46    0.56 
  -1   6   5   48.93    3.64 
  -1   6   5   48.84    2.80 
   0   6   5    1.07    0.60 
   0   6   5    0.59    0.38 
   1   6   5   70.33    4.90 
   1   6   5   63.17    3.68 
   2   6   5    1.54    0.76 
   2   6   5    1.35    0.43 
   3   6   5   24.24    2.36 
   4   6   5    3.76    1.18 
   5   6   5   14.65    1.91 
   6   6   5    2.40    1.20 
   7   6   5    6.85    1.68 
  -8   7   5    0.28    0.91 
  -7   7   5    0.40    0.73 
  -6   7   5    4.37    0.87 
  -5   7   5    5.67    0.85 
  -4   7   5   17.87    1.37 
  -4   7   5   17.56    1.66 
  -3   7   5    3.65    0.74 
  -3   7   5    3.09    0.58 
  -2   7   5   67.81    4.86 
  -2   7   5   68.05    3.81 
  -1   7   5   16.08    1.66 
  -1   7   5   17.36    1.20 
   0   7   5   77.87    4.39 
   0   7   5   81.99    5.74 
   1   7   5    8.12    1.24 
   1   7   5   11.04    0.87 
   2   7   5   26.01    2.42 
   3   7   5    5.59    1.18 
   4   7   5   16.78    2.05 
   5   7   5    3.76    1.25 
   6   7   5    4.00    1.38 
   7   7   5    0.53    1.13 
  -8   8   5    0.04    0.86 
  -7   8   5    2.50    0.92 
  -6   8   5    3.49    0.87 
  -5   8   5    5.21    0.86 
  -4   8   5    5.66    1.01 
  -4   8   5    6.32    0.82 
  -3   8   5   25.16    2.20 
  -3   8   5   27.07    1.75 
  -2   8   5    1.88    0.52 
  -2   8   5    2.07    0.73 
  -1   8   5   24.99    1.60 
  -1   8   5   24.65    2.23 
   0   8   5    7.57    1.19 
   1   8   5    4.89    1.04 
   2   8   5    3.90    1.04 
   3   8   5   30.15    2.81 
   4   8   5    2.72    1.07 
   5   8   5   10.46    1.77 
   6   8   5    2.63    1.29 
   7   8   5    4.78    1.63 
  -8   9   5    0.95    0.95 
  -7   9   5    2.80    0.94 
  -6   9   5    2.55    0.85 
  -5   9   5    1.94    0.72 
  -4   9   5    7.99    1.19 
  -4   9   5    8.33    0.94 
  -3   9   5    1.84    0.57 
  -3   9   5    1.80    0.78 
  -2   9   5    5.40    0.70 
  -2   9   5    4.64    0.93 
  -1   9   5    1.87    0.83 
  -1   9   5    3.52    0.56 
   0   9   5   10.14    1.39 
   0   9   5   10.62    0.89 
   1   9   5    0.37    0.85 
   2   9   5   33.97    3.00 
   3   9   5    3.70    1.21 
   4   9   5    9.45    1.58 
   5   9   5    4.08    1.36 
   6   9   5    6.95    1.64 
  -7  10   5   -0.27    0.83 
  -6  10   5    1.00    0.79 
  -5  10   5    4.36    0.86 
  -4  10   5    0.78    0.65 
  -4  10   5    0.89    0.86 
  -3  10   5    7.40    1.16 
  -3  10   5    8.59    0.90 
  -2  10   5    2.90    0.60 
  -2  10   5    2.12    0.87 
  -1  10   5   12.27    1.03 
  -1  10   5   12.47    1.54 
   0  10   5    0.70    0.82 
   1  10   5   41.14    3.47 
   2  10   5    7.37    1.40 
   3  10   5   13.77    1.93 
   4  10   5    7.21    1.49 
   5  10   5    8.45    1.68 
   6  10   5    5.49    1.61 
  -7  11   5    0.81    0.97 
  -6  11   5    3.20    0.95 
  -5  11   5    0.77    0.74 
  -4  11   5    4.10    1.15 
  -4  11   5    5.79    0.86 
  -3  11   5    2.12    0.93 
  -3  11   5    3.01    0.66 
  -2  11   5   11.66    0.97 
  -2  11   5    7.25    1.30 
  -1  11   5    3.57    1.04 
   0  11   5   17.71    1.99 
   1  11   5    1.33    0.97 
   2  11   5    4.57    1.31 
   3  11   5    5.61    1.44 
   4  11   5    7.22    1.56 
   5  11   5    5.47    1.49 
  -6  12   5   -0.12    0.81 
  -5  12   5    3.79    0.91 
  -4  12   5    0.67    1.00 
  -4  12   5   -0.10    0.62 
  -3  12   5    2.47    1.06 
  -3  12   5    3.39    0.71 
  -2  12   5    1.87    0.99 
  -1  12   5   13.44    1.76 
   0  12   5    0.51    1.02 
   1  12   5   18.74    2.18 
   2  12   5   13.16    1.93 
   3  12   5    8.94    1.73 
   4  12   5    2.80    1.29 
   5  12   5    1.32    1.18 
  -5  13   5    0.21    0.74 
  -4  13   5   -0.25    1.00 
  -4  13   5   -1.21    0.61 
  -3  13   5   -0.01    0.99 
  -2  13   5    6.44    1.39 
  -1  13   5    0.86    0.95 
   0  13   5    0.25    0.99 
   1  13   5    1.56    1.15 
   2  13   5    8.08    1.71 
   3  13   5    0.40    1.21 
   4  13   5    6.12    1.61 
  -5  14   5    0.58    0.82 
  -4  14   5    0.31    1.25 
  -3  14   5    2.59    1.24 
  -2  14   5   -0.61    1.06 
  -1  14   5    1.48    1.11 
   0  14   5    0.76    1.15 
   1  14   5    3.81    1.40 
   2  14   5    5.35    1.60 
   3  14   5    2.57    1.42 
  -3  15   5   -0.22    1.11 
  -2  15   5    0.58    1.22 
  -1  15   5    1.12    1.18 
   0  15   5    1.33    1.24 
   1  15   5    3.22    1.42 
   2  15   5    1.18    1.34 
  -4 -14   6    0.21    1.03 
   0  14  -6    1.90    1.13 
  -1  14  -6    5.89    1.41 
  -2  14  -6   -0.49    1.06 
  -5 -13   6    2.86    1.20 
  -4 -13   6    6.10    1.30 
  -3 -13   6    2.33    1.03 
  -1 -13   6   -0.13    0.89 
   0  13  -6    4.86    1.28 
   0 -13   6    5.88    1.25 
  -1  13  -6    0.82    1.04 
  -2  13  -6    3.90    1.39 
  -3  13  -6    2.48    1.36 
  -5 -12   6    0.58    0.96 
  -4 -12   6    1.00    0.94 
  -3 -12   6    3.56    1.03 
  -2 -12   6    4.26    1.03 
   1  12  -6    1.77    0.96 
  -1 -12   6    1.82    0.86 
   0  12  -6   -0.41    0.80 
   0 -12   6    1.61    0.91 
  -1  12  -6    1.41    1.09 
   1 -12   6    2.36    1.02 
  -2  12  -6   -0.23    0.89 
  -3  12  -6    3.55    1.30 
  -4  12  -6    0.81    1.19 
  -6 -11   6   -0.47    0.99 
  -5 -11   6    0.47    0.91 
  -4 -11   6    2.23    0.94 
  -3 -11   6    0.80    0.82 
  -3 -11   6    0.51    0.79 
  -2 -11   6    6.76    1.15 
  -2 -11   6    6.41    1.03 
   1  11  -6    0.64    0.78 
  -1 -11   6    1.78    0.83 
   0  11  -6    0.81    0.87 
   0 -11   6    0.98    0.81 
  -1  11  -6   10.78    1.50 
   1 -11   6   10.27    1.37 
  -2  11  -6   11.50    1.63 
  -3  11  -6    8.18    1.55 
  -4  11  -6    5.62    1.48 
  -7 -10   6    0.75    1.14 
  -6 -10   6    1.82    1.10 
  -5 -10   6    0.41    0.93 
  -4 -10   6    1.39    0.84 
  -3 -10   6    5.84    1.02 
  -3 -10   6    4.89    0.94 
  -2 -10   6    8.92    1.12 
  -2 -10   6    8.23    1.16 
   1  10  -6   10.46    1.35 
  -1 -10   6   12.23    1.30 
   0  10  -6    9.45    1.42 
   0 -10   6   10.89    1.26 
  -1  10  -6    5.43    1.13 
   1 -10   6    5.58    1.07 
  -2  10  -6   13.76    1.70 
   2 -10   6   10.09    1.43 
  -3  10  -6   19.87    2.25 
  -4  10  -6    3.31    1.29 
  -5  10  -6    4.43    1.41 
  -7  -9   6    0.71    1.06 
  -6  -9   6    3.58    1.16 
  -5  -9   6    0.30    0.83 
  -4  -9   6    7.26    1.05 
  -4  -9   6    6.86    1.16 
  -3  -9   6    0.46    0.63 
  -3  -9   6    0.00    0.63 
  -2  -9   6   16.56    1.57 
  -2  -9   6   17.28    1.50 
   1   9  -6   11.20    1.32 
  -1  -9   6    8.32    1.11 
   0   9  -6    3.04    0.89 
   0  -9   6    3.52    0.87 
  -1   9  -6    1.15    0.85 
   1  -9   6    2.06    0.83 
  -2   9  -6   11.79    1.59 
   2  -9   6   11.77    1.41 
  -3   9  -6    2.49    1.05 
  -4   9  -6    6.04    1.44 
  -5   9  -6    4.69    1.46 
  -8  -8   6    0.31    1.12 
  -7  -8   6    3.60    1.18 
  -6  -8   6    1.73    0.96 
  -5  -8   6    5.28    0.96 
  -5  -8   6    8.05    1.27 
  -4  -8   6   10.78    1.11 
  -4  -8   6    9.77    1.28 
  -3  -8   6    1.96    0.75 
  -3  -8   6    2.00    0.72 
  -2  -8   6    0.93    0.59 
  -2  -8   6    0.95    0.65 
   1   8  -6   11.95    1.23 
  -1  -8   6    7.17    1.05 
   0   8  -6    1.75    0.76 
   0  -8   6    2.15    0.78 
  -1   8  -6   22.99    2.19 
   1  -8   6   24.32    1.90 
  -2   8  -6   10.31    1.48 
   2  -8   6    9.70    1.27 
  -3   8  -6    5.57    1.30 
   3  -8   6   10.70    1.37 
  -4   8  -6    4.54    1.29 
  -5   8  -6   13.78    1.99 
  -6   8  -6    2.86    1.37 
  -8  -7   6    0.96    1.07 
  -7  -7   6    2.35    1.05 
  -6  -7   6    6.74    1.04 
  -6  -7   6    5.64    1.19 
  -5  -7   6    3.04    0.93 
  -5  -7   6    3.88    0.85 
  -4  -7   6   13.00    1.24 
  -4  -7   6   13.41    1.42 
  -3  -7   6    5.35    0.90 
  -3  -7   6    6.11    0.88 
  -2  -7   6    3.73    0.73 
  -2  -7   6    2.98    0.74 
   1   7  -6    7.66    1.01 
  -1  -7   6    8.51    0.99 
   0  -7   6   57.89    3.52 
  -1   7  -6   14.02    1.64 
   1  -7   6   19.33    1.54 
  -2   7  -6    7.88    1.32 
   2  -7   6    9.40    1.18 
  -3   7  -6    7.02    1.32 
   3  -7   6    7.85    1.18 
  -4   7  -6   11.61    1.72 
  -5   7  -6    2.98    1.22 
  -6   7  -6    3.73    1.38 
  -8  -6   6    3.50    1.21 
  -7  -6   6    1.44    0.99 
  -6  -6   6    1.86    0.91 
  -6  -6   6    1.31    0.78 
  -5  -6   6    2.92    0.81 
  -5  -6   6    3.35    0.89 
  -4  -6   6   19.90    1.76 
  -4  -6   6   19.77    1.60 
  -3  -6   6   27.89    1.93 
  -3  -6   6   26.82    2.11 
  -2  -6   6   12.52    1.21 
  -2  -6   6   14.02    1.23 
  -1  -6   6   35.25    2.54 
  -1  -6   6   38.68    2.39 
   0   6  -6   18.33    1.62 
   0  -6   6   14.53    1.38 
  -1   6  -6    4.51    0.92 
   1  -6   6    1.86    0.73 
  -2   6  -6   10.71    1.36 
   2  -6   6    7.89    1.05 
  -3   6  -6   16.47    1.94 
   3  -6   6   17.65    1.58 
  -4   6  -6    5.27    1.27 
  -5   6  -6    5.44    1.36 
  -6   6  -6    3.05    1.28 
  -8  -5   6    0.18    0.94 
  -7  -5   6    2.31    1.02 
  -7  -5   6    1.24    0.78 
  -6  -5   6    5.23    0.94 
  -6  -5   6    5.88    1.10 
  -5  -5   6    5.14    0.97 
  -5  -5   6    6.62    0.93 
  -4  -5   6   11.21    1.12 
  -4  -5   6   10.14    1.19 
  -3  -5   6    0.68    0.57 
  -3  -5   6    1.55    0.56 
  -2  -5   6   18.40    1.44 
  -1  -5   6   15.20    1.24 
  -1  -5   6   13.88    1.28 
   0   5  -6   16.42    1.64 
   0  -5   6   20.33    1.48 
  -1   5  -6    6.37    1.00 
   1  -5   6    3.95    0.83 
   2  -5   6   33.45    2.32 
  -3   5  -6    1.58    0.91 
   3  -5   6    2.65    0.83 
  -4   5  -6    5.86    1.31 
   4  -5   6    7.12    1.17 
  -5   5  -6    2.95    1.18 
  -6   5  -6    7.12    1.54 
  -7   5  -6    0.93    1.36 
  -9  -4   6    2.77    1.19 
  -8  -4   6    3.57    0.94 
  -8  -4   6    2.51    1.08 
  -7  -4   6    2.73    0.98 
  -7  -4   6    2.52    0.89 
  -6  -4   6    3.32    0.81 
  -6  -4   6    3.69    0.95 
  -5  -4   6    0.85    0.66 
  -5  -4   6   -0.14    0.57 
  -4  -4   6   15.44    1.34 
  -4  -4   6   15.81    1.44 
  -3  -4   6   13.58    1.19 
  -3  -4   6   12.57    1.22 
   2   4  -6    6.68    0.78 
  -2  -4   6    7.70    0.88 
   1   4  -6   32.20    2.58 
  -1  -4   6   35.87    2.39 
  -1  -4   6   34.96    2.21 
   0   4  -6   33.61    2.55 
   0  -4   6   29.42    2.09 
  -1   4  -6   45.58    3.51 
   1  -4   6   45.81    2.83 
  -2   4  -6    1.40    0.80 
   2  -4   6    2.26    0.72 
  -3   4  -6   45.48    3.56 
   3  -4   6   40.02    2.74 
  -4   4  -6   14.30    1.84 
   4  -4   6   15.38    1.52 
  -5   4  -6   15.51    2.02 
  -6   4  -6    0.77    1.20 
  -7   4  -6    2.46    1.44 
  -9  -3   6    0.91    1.06 
  -8  -3   6    3.86    1.10 
  -8  -3   6    3.56    0.91 
  -7  -3   6    2.55    0.97 
  -7  -3   6    2.99    0.82 
  -6  -3   6    5.87    0.90 
  -5  -3   6    0.19    0.57 
  -4  -3   6   17.10    1.38 
  -4  -3   6   16.13    1.48 
  -3  -3   6   17.36    1.40 
  -3  -3   6   17.65    1.47 
   2   3  -6    9.82    0.93 
  -2  -3   6    7.48    0.91 
   1   3  -6    4.95    0.71 
  -1  -3   6    3.40    0.51 
  -1  -3   6    2.56    0.63 
   0   3  -6   44.61    3.35 
   0  -3   6   43.99    2.74 
   1  -3   6    9.16    1.21 
   1  -3   6    8.16    0.95 
   2  -3   6   25.43    2.40 
   2  -3   6   26.97    1.91 
   3  -3   6    6.32    0.98 
   3  -3   6    7.44    1.33 
   4  -3   6   15.85    1.98 
   4  -3   6   15.76    1.51 
   5  -3   6   -0.31    0.98 
   6  -3   6    2.96    1.32 
  -7   3  -6   -0.13    1.30 
  -9  -2   6   -0.95    0.94 
  -9  -2   6    0.51    0.92 
  -8  -2   6    2.49    0.86 
  -7  -2   6    0.76    0.69 
  -6  -2   6    9.77    1.07 
  -5  -2   6   23.67    1.73 
  -4  -2   6    5.54    0.81 
  -3  -2   6   35.36    2.28 
   2   2  -6   17.67    1.47 
  -2  -2   6   19.87    1.44 
  -1  -2   6   47.16    2.79 
  -1  -2   6   47.20    3.38 
  -1  -2   6   44.51    3.04 
   0  -2   6    4.03    0.80 
   0  -2   6    4.33    0.70 
   1  -2   6   32.80    2.16 
   1  -2   6   33.73    2.75 
   2  -2   6   22.30    2.18 
   2  -2   6   24.35    1.75 
   3  -2   6   24.31    2.44 
   3  -2   6   25.75    1.91 
   4  -2   6    2.40    0.76 
   4  -2   6    1.44    0.95 
   5  -2   6    9.50    1.69 
   6  -2   6    3.33    1.31 
   7  -2   6    1.53    1.26 
  -9  -1   6    0.72    0.92 
  -8  -1   6   -0.20    0.82 
  -7  -1   6    0.86    0.70 
  -6  -1   6    1.62    0.69 
  -5  -1   6   16.48    1.38 
  -4  -1   6   19.45    1.47 
  -3  -1   6   29.97    2.00 
  -2  -1   6   30.81    2.34 
  -2  -1   6   32.40    2.04 
  -1  -1   6   10.69    1.02 
  -1  -1   6   11.08    1.14 
   0  -1   6   35.13    2.85 
   0  -1   6   39.05    2.33 
   1  -1   6    8.55    0.92 
   1  -1   6    7.93    1.10 
   2  -1   6   60.36    3.60 
   2  -1   6   61.18    4.57 
   3  -1   6    7.15    0.94 
   3  -1   6    7.32    1.26 
   4  -1   6   17.43    1.56 
   4  -1   6   20.29    2.12 
   5  -1   6    2.88    1.17 
   6  -1   6    5.71    1.52 
   7  -1   6    0.51    1.14 
  -9   0   6    0.89    0.95 
  -8   0   6    0.21    0.85 
  -7   0   6    3.26    0.86 
  -6   0   6    0.33    0.66 
  -5   0   6    0.18    0.57 
  -4   0   6    2.48    0.64 
  -3   0   6   25.35    1.79 
  -2   0   6    7.02    0.85 
  -2   0   6    8.54    0.87 
  -1   0   6   38.96    2.43 
  -1   0   6   40.33    2.96 
   0   0   6    6.28    0.90 
   0   0   6    6.08    0.77 
   1   0   6   41.02    3.27 
   1   0   6   43.51    2.62 
   2   0   6    8.59    0.93 
   2   0   6    8.42    1.23 
   3   0   6   54.29    3.21 
   3   0   6   49.91    4.08 
   4   0   6    7.48    1.39 
   4   0   6    6.78    0.98 
   5   0   6    1.04    0.96 
   6   0   6   -0.08    0.94 
   7   0   6    1.71    1.23 
  -9   1   6   -0.60    0.90 
  -8   1   6    0.12    0.82 
  -7   1   6    1.63    0.83 
  -6   1   6    0.35    0.69 
  -5   1   6   15.81    1.34 
  -4   1   6   23.24    1.66 
  -3   1   6   35.80    2.25 
  -2   1   6   33.56    2.12 
  -2   1   6   32.53    2.45 
  -1   1   6    9.04    0.92 
  -1   1   6    9.36    1.02 
   0   1   6   40.94    2.57 
   0   1   6   44.25    3.24 
   1   1   6   10.03    0.97 
   1   1   6    9.56    1.21 
   2   1   6   53.53    3.24 
   2   1   6   56.69    4.21 
   3   1   6    3.88    0.72 
   3   1   6    4.96    1.07 
   4   1   6   15.09    1.34 
   4   1   6   14.97    1.84 
   5   1   6    3.95    1.27 
   6   1   6    5.28    1.46 
   7   1   6    1.18    1.20 
  -9   2   6    0.85    0.96 
  -8   2   6    2.13    0.92 
  -7   2   6    0.86    0.81 
  -6   2   6    8.90    1.09 
  -5   2   6   26.89    1.93 
  -4   2   6    7.18    0.87 
  -3   2   6   31.19    1.99 
  -2   2   6   16.94    1.48 
  -2   2   6   18.04    1.33 
  -1   2   6   46.28    3.34 
  -1   2   6   44.44    2.72 
   0   2   6    3.65    0.63 
   0   2   6    4.06    0.77 
   1   2   6   39.38    3.31 
   1   2   6   46.09    2.61 
   2   2   6   22.11    2.10 
   2   2   6   22.02    1.55 
   3   2   6   13.45    1.72 
   3   2   6   15.41    1.28 
   4   2   6    0.54    0.82 
   4   2   6    0.21    0.55 
   5   2   6    8.14    1.54 
   6   2   6    2.24    1.17 
   7   2   6    3.78    1.38 
  -9   3   6    0.71    0.99 
  -8   3   6    4.40    1.04 
  -7   3   6    1.90    0.87 
  -6   3   6    4.23    0.88 
  -5   3   6    0.21    0.64 
  -4   3   6   13.12    1.17 
  -3   3   6   16.67    1.29 
  -2   3   6    7.89    0.84 
  -2   3   6    9.86    1.01 
  -1   3   6    4.94    0.82 
  -1   3   6    4.93    0.69 
   0   3   6   41.65    3.18 
   0   3   6   40.82    2.50 
   1   3   6    8.15    1.15 
   1   3   6    7.82    0.81 
   2   3   6   33.73    2.16 
   2   3   6   35.08    2.90 
   3   3   6    6.56    1.24 
   3   3   6    6.32    0.81 
   4   3   6   18.82    1.51 
   4   3   6   20.56    2.21 
   5   3   6   -0.13    0.95 
   6   3   6    1.30    1.10 
   7   3   6    0.14    1.11 
  -8   4   6    2.46    0.95 
  -7   4   6    2.68    0.81 
  -6   4   6    6.40    0.98 
  -5   4   6    0.24    0.61 
  -4   4   6   13.41    1.20 
  -3   4   6   19.61    1.45 
  -2   4   6    7.24    0.89 
  -2   4   6    5.48    0.73 
  -1   4   6   35.31    2.80 
  -1   4   6   36.90    2.25 
   0   4   6   29.56    2.50 
   0   4   6   30.98    1.96 
   1   4   6   44.87    2.71 
   1   4   6   47.19    3.60 
   2   4   6    1.09    0.78 
   2   4   6    0.87    0.47 
   3   4   6   46.95    3.84 
   4   4   6   11.62    1.73 
   5   4   6   15.32    2.07 
   6   4   6   -0.34    0.98 
   7   4   6    3.54    1.45 
  -8   5   6    0.32    0.87 
  -7   5   6    2.46    0.88 
  -6   5   6    5.41    0.85 
  -5   5   6    8.42    0.97 
  -4   5   6   12.66    1.17 
  -3   5   6    2.31    0.62 
  -3   5   6    2.72    0.64 
  -2   5   6   45.84    2.62 
  -2   5   6   40.74    3.22 
  -1   5   6   12.50    1.07 
  -1   5   6   12.13    1.34 
   0   5   6   15.04    1.19 
   0   5   6   15.71    1.65 
   1   5   6    5.23    0.69 
   1   5   6    5.65    1.05 
   2   5   6   31.32    2.78 
   3   5   6    1.54    0.93 
   4   5   6    4.92    1.28 
   5   5   6    2.50    1.23 
   6   5   6    7.74    1.67 
   7   5   6   -1.85    0.99 
  -8   6   6    2.51    1.01 
  -7   6   6    2.19    0.80 
  -6   6   6    1.15    0.73 
  -5   6   6    2.26    0.70 
  -4   6   6   18.61    1.46 
  -3   6   6   28.46    2.34 
  -3   6   6   28.61    1.91 
  -2   6   6   12.31    1.07 
  -2   6   6   14.16    1.44 
  -1   6   6   28.39    2.72 
  -1   6   6   42.81    2.26 
   0   6   6   22.65    1.48 
   0   6   6   18.17    1.99 
   1   6   6    5.70    0.72 
   1   6   6    6.39    1.12 
   2   6   6   12.44    1.64 
   3   6   6   18.02    2.10 
   4   6   6    3.59    1.23 
   5   6   6    5.33    1.48 
   6   6   6    2.97    1.35 
  -8   7   6    1.09    0.95 
  -7   7   6    3.18    0.92 
  -6   7   6    6.09    0.98 
  -5   7   6    1.51    0.68 
  -4   7   6   14.07    1.25 
  -3   7   6    8.33    1.14 
  -3   7   6    8.73    0.95 
  -2   7   6    0.51    0.53 
  -2   7   6    0.48    0.68 
  -1   7   6    7.59    0.82 
  -1   7   6    8.51    1.21 
   0   7   6   63.01    3.62 
   0   7   6   63.48    4.73 
   1   7   6   18.82    1.86 
   1   7   6   13.10    1.11 
   2   7   6    8.67    1.40 
   3   7   6    9.57    1.60 
   4   7   6    9.68    1.72 
   5   7   6    2.23    1.17 
   6   7   6    2.85    1.33 
  -7   8   6    2.02    0.89 
  -6   8   6    2.28    0.82 
  -5   8   6    6.83    0.95 
  -4   8   6    9.44    1.02 
  -3   8   6   -0.06    0.56 
  -3   8   6    0.77    0.71 
  -2   8   6    0.41    0.54 
  -2   8   6    0.76    0.77 
  -1   8   6   10.86    0.99 
  -1   8   6   11.08    1.46 
   0   8   6    0.53    0.79 
   0   8   6    1.72    0.54 
   1   8   6   26.28    2.51 
   2   8   6    9.51    1.54 
   3   8   6    6.95    1.51 
   4   8   6    5.55    1.50 
   5   8   6   12.27    1.95 
   6   8   6    2.41    1.31 
  -7   9   6   -0.57    0.78 
  -6   9   6    3.05    0.88 
  -5   9   6   -0.38    0.61 
  -4   9   6    7.92    0.96 
  -3   9   6    0.55    0.59 
  -3   9   6   -0.13    0.73 
  -2   9   6   18.61    1.97 
  -2   9   6   21.18    1.51 
  -1   9   6   11.52    1.51 
  -1   9   6   10.70    1.00 
   0   9   6    3.27    1.08 
   1   9   6    0.91    0.90 
   2   9   6   12.39    1.78 
   3   9   6    1.41    1.14 
   4   9   6    5.79    1.57 
   5   9   6    3.66    1.46 
  -7  10   6    2.03    0.97 
  -6  10   6    2.03    0.86 
  -5  10   6    1.16    0.73 
  -4  10   6    1.11    0.67 
  -3  10   6    3.56    0.77 
  -3  10   6    4.70    1.10 
  -2  10   6    7.26    1.27 
  -2  10   6    6.24    0.83 
  -1  10   6   10.11    1.49 
   0  10   6    8.61    1.48 
   1  10   6    6.48    1.35 
   2  10   6   13.48    1.96 
   3  10   6   19.83    2.40 
   4  10   6    3.52    1.47 
   5  10   6    2.12    1.33 
  -6  11   6   -0.25    0.75 
  -5  11   6    0.55    0.72 
  -4  11   6    3.06    0.76 
  -3  11   6    0.84    0.68 
  -3  11   6    0.77    0.94 
  -2  11   6    5.34    0.85 
  -2  11   6    5.61    1.29 
  -1  11   6    0.96    0.99 
   0  11   6    0.05    0.93 
   1  11   6   11.48    1.77 
   2  11   6   12.42    1.91 
   3  11   6    7.82    1.72 
   4  11   6    6.18    1.71 
  -5  12   6    1.02    0.81 
  -4  12   6    1.11    0.69 
  -3  12   6    5.75    1.29 
  -3  12   6    5.65    0.94 
  -2  12   6    3.19    1.18 
  -1  12   6    0.32    1.00 
   0  12   6    1.31    1.11 
   1  12   6    2.55    1.25 
   2  12   6    0.50    1.18 
   3  12   6    6.10    1.66 
   4  12   6    0.58    1.29 
  -5  13   6    1.91    0.85 
  -4  13   6    5.58    0.99 
  -3  13   6    2.85    1.27 
  -2  13   6    0.47    1.08 
  -1  13   6    0.85    1.19 
   0  13   6    6.36    1.56 
   1  13   6    2.10    1.28 
   2  13   6    3.88    1.44 
   3  13   6    1.73    1.51 
  -3  14   6    1.06    1.26 
  -2  14   6    0.52    1.26 
  -1  14   6    1.92    1.26 
   0  14   6    1.62    1.35 
   1  14   6    3.64    1.48 
   2  14   6   -0.43    1.26 
  -1  15   6   -0.02    1.28 
  -1 -13   7    0.42    1.07 
   0 -13   7    1.42    1.09 
  -1  13  -7    1.98    1.21 
   1 -13   7    2.65    1.27 
  -2 -12   7    0.37    1.00 
  -1 -12   7    2.00    1.03 
   0 -12   7    2.63    1.13 
  -1  12  -7    5.61    1.45 
   1 -12   7    7.04    1.38 
  -2  12  -7    5.80    1.43 
  -5 -11   7   -0.18    0.88 
  -4 -11   7    1.15    0.95 
  -3 -11   7    1.07    0.96 
  -2 -11   7    4.01    1.08 
  -1 -11   7    1.53    0.94 
   0  11  -7    2.38    1.11 
   0 -11   7    3.44    1.05 
  -1  11  -7    0.50    0.99 
   1 -11   7    1.53    1.03 
  -2  11  -7    5.10    1.40 
   2 -11   7    3.69    1.28 
  -3  11  -7    1.20    1.16 
  -6 -10   7    0.93    1.07 
  -5 -10   7    2.73    1.08 
  -4 -10   7    1.94    0.89 
  -4 -10   7    3.21    0.98 
  -3 -10   7    2.54    0.88 
  -2 -10   7    0.92    0.85 
  -1 -10   7    3.95    1.01 
   0  10  -7    1.77    0.95 
   0 -10   7    2.87    1.01 
  -1  10  -7    7.12    1.41 
   1 -10   7    7.48    1.28 
  -2  10  -7   13.28    1.83 
   2 -10   7   13.84    1.67 
  -3  10  -7    3.09    1.34 
  -4  10  -7    2.61    1.36 
  -6  -9   7    0.60    0.95 
  -5  -9   7    3.77    1.07 
  -4  -9   7    1.58    0.88 
  -4  -9   7    1.02    0.84 
  -3  -9   7    1.25    0.77 
  -2  -9   7    3.98    0.92 
  -1  -9   7    6.18    1.13 
   0   9  -7   10.13    1.36 
   0  -9   7    6.14    1.16 
  -1   9  -7    8.36    1.41 
   1  -9   7   10.14    1.33 
  -2   9  -7    7.04    1.43 
   2  -9   7    7.42    1.30 
  -3   9  -7   10.46    1.73 
   3  -9   7    8.30    1.52 
  -4   9  -7    3.69    1.37 
  -7  -8   7   -0.57    0.95 
  -6  -8   7    2.51    1.01 
  -5  -8   7    0.96    0.82 
  -5  -8   7    0.48    0.89 
  -4  -8   7    1.97    0.87 
  -4  -8   7    0.89    0.81 
  -3  -8   7   16.40    1.55 
  -3  -8   7   17.51    1.67 
  -2  -8   7    3.89    0.87 
  -1  -8   7    6.80    1.05 
   0   8  -7    6.46    1.14 
   0  -8   7    6.37    1.05 
  -1   8  -7    2.69    0.98 
   1  -8   7    6.47    1.13 
  -2   8  -7    1.34    1.07 
   2  -8   7    0.60    0.93 
  -3   8  -7    5.65    1.36 
   3  -8   7    7.83    1.32 
  -4   8  -7    7.55    1.59 
  -5   8  -7    3.62    1.36 
  -7  -7   7    0.78    1.01 
  -6  -7   7    0.93    0.89 
  -6  -7   7    1.17    0.92 
  -5  -7   7   -0.25    0.75 
  -5  -7   7    0.76    0.80 
  -4  -7   7    0.64    0.73 
  -4  -7   7    1.06    0.72 
  -3  -7   7   10.23    1.20 
  -3  -7   7    8.73    1.15 
  -2  -7   7    3.33    0.85 
  -1  -7   7    8.80    1.12 
   0   7  -7    4.38    0.99 
   0  -7   7    5.79    1.03 
  -1   7  -7    1.81    0.90 
   1  -7   7    1.61    0.85 
  -2   7  -7   13.74    1.87 
   2  -7   7   18.40    1.68 
  -3   7  -7    4.71    1.31 
   3  -7   7    4.85    1.17 
  -4   7  -7    4.07    1.27 
  -5   7  -7    2.09    1.24 
  -8  -6   7    1.65    1.10 
  -7  -6   7    0.47    0.97 
  -7  -6   7    1.42    0.90 
  -6  -6   7    3.81    1.03 
  -6  -6   7    3.38    0.94 
  -5  -6   7    1.81    0.81 
  -5  -6   7    1.97    0.83 
  -4  -6   7    1.81    0.76 
  -4  -6   7    0.81    0.70 
  -3  -6   7   12.89    1.27 
  -3  -6   7   13.29    1.34 
  -2  -6   7    4.95    0.93 
  -1  -6   7   17.26    1.45 
   0   6  -7    1.72    0.80 
   0  -6   7    1.70    0.78 
  -1   6  -7    6.62    1.16 
   1  -6   7    3.55    0.96 
  -2   6  -7    6.09    1.27 
   2  -6   7    7.19    1.14 
  -3   6  -7    6.70    1.41 
   3  -6   7    8.30    1.23 
  -4   6  -7    2.81    1.22 
   4  -6   7    6.22    1.27 
  -5   6  -7    6.86    1.54 
  -6   6  -7    1.27    1.18 
  -8  -5   7    1.19    1.08 
  -7  -5   7    2.29    0.93 
  -7  -5   7    2.27    1.03 
  -6  -5   7    1.03    0.88 
  -6  -5   7    1.71    0.84 
  -5  -5   7    0.89    0.75 
  -5  -5   7    1.45    0.77 
  -4  -5   7    5.39    0.95 
  -4  -5   7    5.84    0.99 
  -3  -5   7   14.72    1.41 
  -3  -5   7   16.15    1.41 
  -2  -5   7    7.01    0.96 
   1   5  -7    4.56    0.80 
  -1  -5   7   10.68    1.07 
   0   5  -7   35.27    2.87 
   0  -5   7   35.93    2.41 
  -1   5  -7    5.86    1.11 
   1  -5   7    4.47    0.92 
  -2   5  -7    3.79    1.05 
   2  -5   7    4.49    0.98 
  -3   5  -7    4.21    1.13 
   3  -5   7    2.56    0.95 
  -4   5  -7    4.33    1.29 
   4  -5   7    5.05    1.17 
  -5   5  -7    3.92    1.34 
  -6   5  -7    1.11    1.12 
  -8  -4   7   -0.56    0.88 
  -8  -4   7   -0.16    0.87 
  -7  -4   7    0.96    0.85 
  -7  -4   7    1.03    0.92 
  -6  -4   7    0.72    0.80 
  -6  -4   7    0.33    0.76 
  -5  -4   7    4.96    0.93 
  -5  -4   7    3.90    0.89 
  -4  -4   7   28.22    2.22 
  -4  -4   7   28.43    2.04 
  -3  -4   7   14.29    1.30 
  -3  -4   7   12.16    1.26 
  -2  -4   7    8.72    1.03 
   1   4  -7    8.33    1.08 
  -1  -4   7    9.35    1.07 
   0   4  -7   13.33    1.47 
   0  -4   7   12.68    1.24 
  -1   4  -7   14.42    1.57 
   1  -4   7   11.84    1.27 
  -2   4  -7   12.31    1.62 
   2  -4   7   12.15    1.32 
  -3   4  -7    5.95    1.33 
   3  -4   7    7.18    1.11 
  -4   4  -7    1.95    1.14 
   4  -4   7    3.46    1.03 
  -5   4  -7    5.33    1.48 
  -6   4  -7    2.46    1.25 
  -8  -3   7    0.62    0.95 
  -8  -3   7    0.75    0.95 
  -7  -3   7    1.15    0.84 
  -7  -3   7    2.06    0.95 
  -6  -3   7    5.99    1.10 
  -6  -3   7    6.29    1.02 
  -5  -3   7    4.29    0.92 
  -5  -3   7    4.74    0.91 
  -4  -3   7    3.48    0.78 
  -4  -3   7    2.89    0.74 
  -3  -3   7    2.03    0.71 
  -3  -3   7    1.65    0.55 
  -2  -3   7   10.23    1.06 
   1   3  -7   10.23    1.15 
  -1  -3   7    9.55    1.05 
   0   3  -7    8.59    1.20 
   0  -3   7   10.79    1.07 
   1  -3   7    8.28    1.05 
   1  -3   7   11.20    1.42 
   2  -3   7   10.36    1.21 
   2  -3   7   10.44    1.53 
   3  -3   7    1.54    0.81 
   3  -3   7    1.58    1.00 
   4  -3   7   12.41    1.48 
   4  -3   7   14.85    2.01 
   5  -3   7    1.27    1.17 
  -6   3  -7    0.45    1.08 
  -8  -2   7    0.66    0.93 
  -7  -2   7    0.48    0.83 
  -6  -2   7    7.38    1.09 
  -5  -2   7    1.18    0.75 
  -4  -2   7    6.86    0.99 
  -3  -2   7    6.24    0.91 
  -2  -2   7    6.79    0.92 
  -2  -2   7    6.51    0.78 
  -1  -2   7   13.40    1.35 
  -1  -2   7   11.12    1.14 
   0  -2   7    2.81    0.68 
   0  -2   7    2.38    0.79 
   1  -2   7   23.30    2.20 
   1  -2   7   22.57    1.72 
   2  -2   7   11.91    1.58 
   2  -2   7   11.64    1.25 
   3  -2   7   16.82    1.55 
   3  -2   7   15.45    1.96 
   4  -2   7    1.57    1.05 
   4  -2   7    1.18    0.84 
   5  -2   7    3.64    1.44 
   6  -2   7    2.03    1.39 
  -8  -1   7    0.79    0.91 
  -7  -1   7    0.77    0.85 
  -6  -1   7    3.11    0.87 
  -5  -1   7    6.20    1.00 
  -4  -1   7    9.96    1.13 
  -3  -1   7   24.43    1.82 
  -2  -1   7   13.27    1.23 
  -1  -1   7    6.93    0.86 
  -1  -1   7    8.27    1.06 
   0  -1   7   11.33    1.11 
   0  -1   7   12.94    1.41 
   1  -1   7   11.12    1.15 
   1  -1   7   12.06    1.43 
   2  -1   7   11.14    1.20 
   2  -1   7   10.73    1.45 
   3  -1   7   12.41    1.69 
   3  -1   7   14.19    1.37 
   4  -1   7    1.61    1.07 
   4  -1   7    3.02    0.89 
   5  -1   7   -0.10    1.05 
   6  -1   7    3.55    1.48 
  -8   0   7    1.22    0.91 
  -7   0   7   -0.85    0.73 
  -6   0   7    7.78    1.07 
  -5   0   7   14.71    1.38 
  -4   0   7    4.26    0.84 
  -3   0   7    5.48    0.82 
  -2   0   7   13.60    1.24 
  -1   0   7    5.36    0.83 
  -1   0   7    3.45    0.73 
   0   0   7   42.91    2.66 
   0   0   7   42.31    3.32 
   1   0   7   17.79    1.44 
   1   0   7   16.75    1.79 
   2   0   7    2.30    0.74 
   2   0   7    1.27    0.81 
   3   0   7   14.95    1.43 
   3   0   7   15.76    1.89 
   4   0   7    1.55    0.75 
   4   0   7    1.53    1.06 
   5   0   7   -0.08    0.98 
   6   0   7    2.09    1.42 
  -8   1   7    0.64    0.92 
  -7   1   7    1.31    0.82 
  -6   1   7    1.53    0.80 
  -5   1   7    8.41    1.07 
  -4   1   7    9.54    1.09 
  -3   1   7   24.35    1.76 
  -2   1   7   16.49    1.35 
  -1   1   7    4.37    0.78 
  -1   1   7    5.65    0.89 
   0   1   7   12.28    1.13 
   0   1   7   11.97    1.38 
   1   1   7    9.30    1.30 
   1   1   7   10.35    1.07 
   2   1   7    9.37    1.37 
   2   1   7    8.06    0.98 
   3   1   7   14.43    1.33 
   3   1   7   12.99    1.73 
   4   1   7    4.57    1.28 
   4   1   7    3.39    0.87 
   5   1   7    2.08    1.19 
   6   1   7    1.85    1.31 
  -8   2   7    0.39    0.94 
  -7   2   7    0.22    0.85 
  -6   2   7   10.70    1.25 
  -5   2   7    0.57    0.70 
  -4   2   7    6.29    0.90 
  -3   2   7   11.09    1.15 
  -2   2   7    8.19    0.97 
  -1   2   7    7.18    1.00 
  -1   2   7    7.42    0.92 
   0   2   7    2.51    0.66 
   0   2   7    2.60    0.80 
   1   2   7   22.77    1.69 
   1   2   7   22.92    2.16 
   2   2   7    8.10    0.97 
   2   2   7    9.59    1.39 
   3   2   7   16.15    1.49 
   3   2   7   20.15    2.10 
   4   2   7    0.25    0.65 
   4   2   7    0.67    0.95 
   5   2   7    3.26    1.32 
   6   2   7    3.10    1.41 
  -8   3   7   -0.10    0.94 
  -7   3   7    1.52    0.92 
  -6   3   7    8.72    1.21 
  -5   3   7    5.07    0.90 
  -4   3   7    2.92    0.74 
  -3   3   7    3.87    0.76 
  -2   3   7   13.92    1.26 
  -1   3   7   10.15    1.08 
  -1   3   7   12.10    1.29 
   0   3   7    7.99    0.90 
   0   3   7    6.79    1.09 
   1   3   7   12.00    1.49 
   1   3   7   11.14    1.08 
   2   3   7    7.55    1.32 
   2   3   7    8.33    0.95 
   3   3   7    2.61    1.04 
   3   3   7    2.33    0.69 
   4   3   7   11.05    1.78 
   5   3   7    1.32    1.18 
   6   3   7    1.86    1.33 
  -8   4   7    1.55    1.04 
  -7   4   7    2.02    0.97 
  -6   4   7    0.01    0.68 
  -5   4   7    7.24    1.02 
  -4   4   7   28.78    2.01 
  -3   4   7   12.33    1.17 
  -2   4   7   13.64    1.23 
  -1   4   7    7.88    0.94 
  -1   4   7    8.91    1.19 
   0   4   7   15.91    1.69 
   0   4   7   15.53    1.32 
   1   4   7   12.20    1.11 
   1   4   7   13.00    1.56 
   2   4   7    9.45    1.49 
   2   4   7    9.46    1.00 
   3   4   7    6.08    1.34 
   4   4   7    3.04    1.23 
   5   4   7    8.78    1.82 
   6   4   7    3.36    1.52 
  -8   5   7    1.27    1.03 
  -7   5   7    0.71    0.95 
  -6   5   7    0.71    0.79 
  -5   5   7    0.49    0.70 
  -4   5   7    8.65    1.02 
  -3   5   7   13.30    1.22 
  -2   5   7    6.14    0.97 
  -2   5   7    5.79    0.87 
  -1   5   7    7.29    0.92 
  -1   5   7    8.63    1.19 
   0   5   7   35.75    2.99 
   0   5   7   34.62    2.27 
   1   5   7    5.66    0.79 
   1   5   7    7.21    1.25 
   2   5   7    6.37    1.25 
   2   5   7    3.63    0.78 
   3   5   7    3.56    1.22 
   4   5   7    7.02    1.60 
   5   5   7    3.36    1.44 
   6   5   7    1.31    1.29 
  -7   6   7    1.70    0.92 
  -6   6   7    3.23    0.93 
  -5   6   7    1.79    0.79 
  -4   6   7    2.88    0.79 
  -3   6   7    8.79    0.99 
  -2   6   7    5.56    1.00 
  -2   6   7    4.71    0.80 
  -1   6   7   15.97    1.73 
  -1   6   7   16.15    1.36 
   0   6   7    0.98    0.63 
   0   6   7    1.75    0.84 
   1   6   7    3.88    0.71 
   1   6   7    5.13    1.17 
   2   6   7    6.59    1.39 
   3   6   7    6.03    1.41 
   4   6   7    4.00    1.37 
   5   6   7    4.31    1.53 
   6   6   7    1.64    1.34 
  -7   7   7   -0.26    0.81 
  -6   7   7    0.54    0.79 
  -5   7   7    1.22    0.77 
  -4   7   7    0.18    0.64 
  -3   7   7    9.93    1.09 
  -2   7   7    5.56    0.84 
  -2   7   7    6.78    1.15 
  -1   7   7   10.52    1.08 
  -1   7   7   10.97    1.48 
   0   7   7    6.02    1.22 
   0   7   7    4.40    0.81 
   1   7   7    1.52    0.96 
   2   7   7   16.89    2.14 
   3   7   7    5.46    1.46 
   4   7   7    5.29    1.58 
   5   7   7    2.64    1.51 
  -7   8   7    0.04    0.85 
  -6   8   7    1.57    0.85 
  -5   8   7    0.76    0.75 
  -4   8   7    2.43    0.79 
  -3   8   7   17.24    1.44 
  -2   8   7    3.12    0.72 
  -2   8   7    3.01    0.99 
  -1   8   7    8.72    1.36 
  -1   8   7    7.75    0.95 
   0   8   7    5.39    1.25 
   1   8   7    3.21    1.15 
   2   8   7    1.92    1.16 
   3   8   7    5.99    1.57 
   4   8   7    6.26    1.73 
   5   8   7    3.32    1.55 
  -6   9   7    0.72    0.85 
  -5   9   7    2.72    0.89 
  -4   9   7    1.25    0.74 
  -3   9   7    0.81    0.70 
  -2   9   7    3.69    0.80 
  -2   9   7    5.81    1.23 
  -1   9   7    7.39    1.31 
  -1   9   7    4.67    0.88 
   0   9   7    8.93    1.55 
   1   9   7    9.57    1.68 
   2   9   7    7.92    1.64 
   3   9   7    8.06    1.72 
   4   9   7    3.12    1.51 
  -6  10   7    0.50    0.83 
  -5  10   7    2.30    0.87 
  -4  10   7    2.52    0.82 
  -3  10   7    1.32    0.73 
  -2  10   7    3.16    1.20 
  -2  10   7    2.76    0.73 
  -1  10   7    2.74    1.20 
   0  10   7    2.26    1.18 
   1  10   7    5.84    1.50 
   2  10   7   13.48    2.02 
   3  10   7    3.02    1.45 
   4  10   7    3.07    1.54 
  -5  11   7    0.52    0.83 
  -4  11   7    0.36    0.75 
  -3  11   7    2.62    0.83 
  -2  11   7    2.67    1.25 
  -1  11   7    2.31    1.24 
   0  11   7    2.98    1.22 
   1  11   7    1.73    1.34 
   2  11   7    5.33    1.57 
   3  11   7    1.76    1.35 
  -4  12   7    1.58    0.89 
  -2  12   7    0.38    1.17 
  -1  12   7    3.38    1.40 
   0  12   7    2.58    1.32 
   1  12   7    5.65    1.62 
   2  12   7    3.49    1.59 
  -2  13   7    3.22    1.46 
  -1  13   7    1.66    1.38 
   0  13   7    1.28    1.38 
   1  13   7    3.62    1.48 
  -2 -12   8    1.20    1.08 
  -1 -12   8    1.81    1.17 
   0 -12   8    3.96    1.31 
  -3 -11   8    1.36    1.04 
  -2 -11   8    2.83    1.12 
  -1 -11   8   -0.52    0.99 
   0 -11   8    0.28    0.98 
   1 -11   8    2.32    1.18 
  -4 -10   8   -0.23    0.95 
  -3 -10   8    0.34    0.95 
  -2 -10   8    6.66    1.26 
  -1 -10   8    1.66    1.03 
   0 -10   8    3.18    1.17 
  -1  10  -8    2.69    1.23 
   1 -10   8    1.48    1.12 
  -2  10  -8    6.87    1.53 
   2 -10   8    3.42    1.29 
  -5  -9   8    1.13    1.04 
  -4  -9   8    0.64    0.95 
  -3  -9   8    1.72    0.93 
  -2  -9   8    4.35    1.11 
  -1  -9   8    7.92    1.30 
   0  -9   8    3.29    1.10 
  -1   9  -8    4.48    1.29 
   1  -9   8    3.81    1.10 
  -2   9  -8    2.60    1.18 
   2  -9   8    3.34    1.24 
  -3   9  -8    0.92    1.20 
   3  -9   8   -0.90    1.06 
  -6  -8   8    0.59    1.07 
  -5  -8   8    0.57    0.93 
  -4  -8   8    2.70    1.00 
  -3  -8   8    1.26    0.88 
  -2  -8   8    1.95    0.92 
  -1  -8   8    3.30    1.01 
   0  -8   8    3.04    1.04 
  -1   8  -8    3.53    1.18 
   1  -8   8    3.84    1.15 
  -2   8  -8    4.59    1.36 
   2  -8   8    4.11    1.22 
  -3   8  -8    4.63    1.42 
   3  -8   8    6.53    1.36 
  -4   8  -8    0.65    1.16 
  -6  -7   8   -0.16    0.92 
  -6  -7   8    1.11    0.95 
  -5  -7   8    1.89    0.93 
  -5  -7   8    2.89    0.95 
  -4  -7   8    1.14    0.83 
  -3  -7   8    2.18    0.93 
  -2  -7   8    7.21    1.12 
  -1  -7   8    2.71    0.92 
   0  -7   8    0.78    0.88 
  -1   7  -8    8.52    1.41 
   1  -7   8    7.52    1.28 
  -2   7  -8    1.62    1.08 
   2  -7   8    2.77    1.02 
  -3   7  -8    6.93    1.59 
   3  -7   8    9.61    1.45 
  -4   7  -8    2.26    1.28 
   4  -7   8    3.44    1.33 
  -7  -6   8    1.68    1.08 
  -7  -6   8    1.56    1.04 
  -6  -6   8   -0.84    0.82 
  -6  -6   8    0.43    0.90 
  -5  -6   8   -0.05    0.85 
  -5  -6   8    0.08    0.83 
  -4  -6   8   14.35    1.45 
  -3  -6   8    2.32    0.87 
  -2  -6   8   10.24    1.27 
  -1  -6   8    3.90    0.93 
   0  -6   8    2.24    0.90 
  -1   6  -8    8.81    1.46 
   1  -6   8   10.62    1.34 
  -2   6  -8    8.03    1.48 
   2  -6   8    7.08    1.26 
  -3   6  -8    1.34    1.10 
   3  -6   8    2.32    1.03 
  -4   6  -8    5.93    1.57 
   4  -6   8    6.85    1.41 
  -7  -5   8    1.88    1.04 
  -7  -5   8    0.86    1.00 
  -6  -5   8    0.02    0.84 
  -6  -5   8   -0.37    0.83 
  -5  -5   8    3.01    0.96 
  -5  -5   8    2.52    0.92 
  -4  -5   8    2.23    0.88 
  -3  -5   8   15.83    1.49 
  -2  -5   8    0.32    0.76 
  -1  -5   8    9.25    1.20 
   0   5  -8    4.07    1.02 
   0  -5   8    2.52    0.87 
  -1   5  -8    4.33    1.14 
   1  -5   8    4.43    1.02 
  -2   5  -8    1.29    1.03 
   2  -5   8    1.66    0.90 
  -3   5  -8    5.18    1.34 
   3  -5   8    3.42    1.08 
  -4   5  -8    1.72    1.14 
   4  -5   8    3.76    1.21 
  -5   5  -8    0.19    1.10 
  -7  -4   8    1.24    0.96 
  -7  -4   8    0.95    0.97 
  -6  -4   8    4.25    1.01 
  -6  -4   8    4.74    1.07 
  -5  -4   8    0.09    0.74 
  -5  -4   8    0.43    0.81 
  -4  -4   8    0.00    0.75 
  -3  -4   8    3.15    0.88 
  -2  -4   8    7.05    0.98 
  -1  -4   8    4.53    0.96 
   0   4  -8    6.87    1.17 
   0  -4   8    4.92    0.93 
  -1   4  -8    0.73    0.86 
   1  -4   8   -0.28    0.70 
  -2   4  -8    7.38    1.37 
   2  -4   8    5.65    1.11 
  -3   4  -8    5.53    1.39 
   3  -4   8    4.51    1.11 
  -4   4  -8    7.88    1.61 
   4  -4   8   10.04    1.48 
  -5   4  -8    1.15    1.21 
  -7  -3   8    0.68    0.94 
  -7  -3   8    0.88    0.93 
  -6  -3   8    1.73    0.87 
  -6  -3   8    2.04    0.94 
  -5  -3   8    3.10    0.97 
  -5  -3   8    2.86    0.88 
  -4  -3   8    0.56    0.69 
  -4  -3   8    0.24    0.78 
  -3  -3   8    3.74    0.91 
  -2  -3   8    4.42    0.90 
  -1  -3   8   13.90    1.36 
   0   3  -8    9.39    1.33 
   0  -3   8    9.93    1.17 
   1  -3   8    6.62    1.04 
   2  -3   8    6.83    1.18 
   2  -3   8    9.33    1.51 
   3  -3   8    4.32    1.06 
   3  -3   8    2.16    1.18 
   4  -3   8    2.14    1.29 
   4  -3   8    1.96    1.10 
  -7  -2   8   -0.30    0.86 
  -6  -2   8    0.16    0.88 
  -5  -2   8    3.31    0.96 
  -4  -2   8    1.77    0.87 
  -3  -2   8    3.36    0.86 
  -2  -2   8   13.11    1.30 
  -1  -2   8    4.66    0.85 
   0  -2   8   30.57    2.75 
   0  -2   8   33.12    2.23 
   1  -2   8    7.86    1.32 
   1  -2   8    7.76    1.08 
   2  -2   8    2.15    1.03 
   2  -2   8    3.19    0.91 
   3  -2   8    7.82    1.52 
   3  -2   8    4.63    1.09 
   4  -2   8    0.75    0.96 
   4  -2   8    2.04    1.28 
   5  -2   8   -0.20    1.26 
  -7  -1   8    3.46    1.09 
  -6  -1   8    0.22    0.86 
  -5  -1   8    3.01    0.93 
  -4  -1   8    0.19    0.76 
  -3  -1   8    8.26    1.12 
  -2  -1   8    1.71    0.73 
  -1  -1   8    8.85    1.02 
   0  -1   8    1.01    0.80 
   0  -1   8    1.30    0.72 
   1  -1   8   11.19    1.20 
   1  -1   8    9.98    1.45 
   2  -1   8    3.42    0.92 
   2  -1   8    2.59    1.06 
   3  -1   8    5.14    1.10 
   3  -1   8    5.55    1.38 
   4  -1   8    1.29    1.24 
   4  -1   8    3.23    1.01 
   5  -1   8    2.29    1.42 
   5  -1   8    2.19    1.14 
  -7   0   8   -0.92    0.87 
  -6   0   8    6.35    1.16 
  -5   0   8    9.17    1.25 
  -4   0   8    6.21    1.06 
  -3   0   8    2.49    0.81 
  -2   0   8    0.57    0.62 
  -1   0   8    5.73    0.91 
   0   0   8    2.35    0.74 
   0   0   8    1.41    0.80 
   1   0   8    5.12    1.12 
   1   0   8    6.40    0.96 
   2   0   8   14.91    1.83 
   2   0   8   13.94    1.42 
   3   0   8    1.65    1.01 
   3   0   8    1.37    0.82 
   4   0   8    1.11    0.86 
   4   0   8    2.83    1.23 
   5   0   8    0.39    1.21 
  -7   1   8    2.55    1.03 
  -6   1   8    1.36    0.91 
  -5   1   8    5.33    1.10 
  -4   1   8   -0.18    0.71 
  -3   1   8    5.56    0.94 
  -2   1   8    2.48    0.76 
  -1   1   8   13.53    1.28 
   0   1   8    0.42    0.74 
   0   1   8    1.06    0.63 
   1   1   8   13.02    1.26 
   1   1   8   11.45    1.53 
   2   1   8    4.48    1.18 
   2   1   8    5.09    0.93 
   3   1   8    4.44    1.30 
   3   1   8    5.92    1.06 
   4   1   8    4.60    1.41 
   4   1   8    4.82    1.04 
   5   1   8    1.36    1.31 
  -7   2   8    0.38    0.92 
  -6   2   8    0.77    0.88 
  -5   2   8    2.82    0.91 
  -4   2   8    1.58    0.81 
  -3   2   8    2.77    0.83 
  -2   2   8   13.24    1.31 
  -1   2   8    5.84    0.93 
   0   2   8   31.56    2.10 
   0   2   8   28.84    2.63 
   1   2   8    8.51    1.09 
   1   2   8   10.02    1.44 
   2   2   8    2.16    0.78 
   2   2   8    2.77    1.06 
   3   2   8    5.39    0.97 
   3   2   8    5.18    1.38 
   4   2   8    0.86    1.09 
   5   2   8    1.94    1.40 
  -7   3   8    1.12    0.97 
  -6   3   8    0.60    0.89 
  -5   3   8    1.72    0.83 
  -4   3   8    1.02    0.81 
  -3   3   8    3.66    0.84 
  -2   3   8    4.23    0.87 
  -1   3   8    9.73    1.13 
   0   3   8    9.43    1.07 
   0   3   8    8.07    1.31 
   1   3   8    8.37    1.39 
   1   3   8    9.74    1.11 
   2   3   8    6.71    1.39 
   2   3   8    7.61    1.02 
   3   3   8    2.37    1.19 
   4   3   8    1.82    1.25 
   5   3   8    5.12    1.58 
  -7   4   8    1.84    1.01 
  -6   4   8    4.83    1.03 
  -5   4   8    1.21    0.80 
  -4   4   8    0.33    0.71 
  -3   4   8    3.61    0.90 
  -2   4   8    9.59    1.15 
  -1   4   8    4.06    0.87 
  -1   4   8    3.16    0.91 
   0   4   8    8.22    1.29 
   0   4   8    6.77    0.97 
   1   4   8   -0.16    0.64 
   1   4   8   -0.73    0.79 
   2   4   8    5.47    0.90 
   2   4   8    6.87    1.40 
   3   4   8    3.82    1.32 
   4   4   8    8.80    1.79 
   5   4   8    1.67    1.43 
  -7   5   8    0.39    0.91 
  -6   5   8   -0.49    0.77 
  -5   5   8    1.97    0.85 
  -4   5   8    2.48    0.83 
  -3   5   8   19.52    1.68 
  -2   5   8    0.39    0.69 
  -1   5   8   10.39    1.46 
  -1   5   8   11.58    1.22 
   0   5   8    3.42    0.77 
   0   5   8    3.45    1.09 
   1   5   8    3.95    1.19 
   1   5   8    3.95    0.82 
   2   5   8    1.43    1.09 
   3   5   8    4.69    1.44 
   4   5   8    1.11    1.29 
   5   5   8    0.29    1.26 
  -7   6   8    1.42    0.97 
  -6   6   8   -0.68    0.77 
  -5   6   8   -0.22    0.73 
  -4   6   8   13.90    1.38 
  -3   6   8    3.12    0.91 
  -2   6   8    7.80    1.07 
  -1   6   8    4.77    1.17 
  -1   6   8    4.85    0.89 
   0   6   8    2.93    0.76 
   0   6   8    3.41    1.15 
   1   6   8    7.43    1.43 
   2   6   8    5.70    1.46 
   3   6   8    0.68    1.23 
   4   6   8    5.66    1.62 
  -6   7   8    0.39    0.86 
  -5   7   8    2.87    0.91 
  -4   7   8    1.75    0.79 
  -3   7   8    0.42    0.71 
  -2   7   8    7.81    1.07 
  -1   7   8    2.58    0.79 
  -1   7   8    2.74    1.08 
   0   7   8   -0.30    0.89 
   0   7   8   -0.10    0.70 
   1   7   8    5.91    1.47 
   2   7   8    2.10    1.30 
   3   7   8    5.76    1.58 
   4   7   8    1.46    1.48 
  -6   8   8    1.28    0.93 
  -5   8   8    2.05    0.88 
  -4   8   8    1.01    0.77 
  -3   8   8    0.58    0.77 
  -2   8   8    3.47    0.92 
  -1   8   8    3.52    1.19 
  -1   8   8    4.20    0.92 
   0   8   8    2.87    1.18 
   1   8   8    4.67    1.41 
   2   8   8    4.07    1.47 
   3   8   8    5.02    1.56 
   4   8   8    1.53    1.41 
  -5   9   8    1.08    0.88 
  -4   9   8    0.84    0.79 
  -3   9   8    2.94    0.88 
  -2   9   8    2.91    0.93 
  -1   9   8    7.81    1.57 
   0   9   8    2.81    1.23 
   1   9   8    3.83    1.40 
   2   9   8    3.18    1.46 
   3   9   8    0.37    1.31 
  -5  10   8    0.38    0.89 
  -4  10   8    1.33    0.86 
  -3  10   8    0.13    0.77 
  -1  10   8    1.50    1.22 
   0  10   8    4.27    1.47 
   1  10   8    1.72    1.34 
   2  10   8    5.57    1.69 
  -4  11   8    3.60    0.96 
  -1  11   8    1.29    1.31 
   0  11   8    0.82    1.35 
   1  11   8    2.29    1.45 
  -1  12   8    2.45    1.45 
   0  12   8    5.01    1.72 
  -2 -10   9    0.90    1.08 
  -1 -10   9    2.29    1.11 
  -3  -9   9    2.08    1.03 
  -2  -9   9    0.13    0.95 
  -1  -9   9   -0.20    0.98 
   0  -9   9   -0.24    1.01 
   1  -9   9    2.55    1.20 
  -4  -8   9    0.79    1.01 
  -3  -8   9   -0.19    0.90 
  -2  -8   9   14.61    1.61 
  -1  -8   9    0.49    0.97 
   0  -8   9    1.75    1.07 
   1  -8   9    0.95    1.07 
  -2   8  -9    3.76    1.41 
   2  -8   9    1.46    1.16 
  -5  -7   9    1.12    1.01 
  -4  -7   9    0.56    0.94 
  -3  -7   9    2.13    1.01 
  -2  -7   9    1.54    0.94 
  -1  -7   9    3.47    1.05 
   0  -7   9    1.11    1.00 
   1  -7   9    2.29    1.14 
  -2   7  -9    1.20    1.20 
   2  -7   9    1.90    1.05 
  -5  -6   9    0.45    0.96 
  -4  -6   9    2.93    1.05 
  -3  -6   9    4.13    1.09 
  -2  -6   9    1.32    0.93 
  -1  -6   9    2.40    0.98 
   0  -6   9    3.64    1.10 
   1  -6   9    1.24    0.93 
  -2   6  -9    5.39    1.44 
   2  -6   9    5.20    1.22 
  -3   6  -9    2.77    1.24 
   3  -6   9    3.80    1.26 
  -6  -5   9   -0.85    0.90 
  -5  -5   9    2.33    1.01 
  -4  -5   9   -0.16    0.84 
  -3  -5   9    0.44    0.85 
  -2  -5   9    1.39    0.94 
  -1  -5   9    3.66    1.01 
   0  -5   9    1.29    0.83 
   1  -5   9   10.93    1.41 
  -2   5  -9    1.42    1.19 
   2  -5   9    3.92    1.13 
  -3   5  -9    1.37    1.15 
   3  -5   9    2.21    1.10 
  -6  -4   9   -0.23    0.98 
  -5  -4   9    0.67    0.93 
  -4  -4   9    4.25    1.07 
  -3  -4   9    3.64    0.99 
  -2  -4   9    9.67    1.29 
  -1  -4   9    1.65    0.90 
   0  -4   9    1.99    0.89 
  -1   4  -9    0.37    1.01 
   1  -4   9   -0.53    0.79 
  -2   4  -9    1.73    1.17 
   2  -4   9    3.75    1.09 
  -3   4  -9   -0.44    0.95 
   3  -4   9    0.97    0.99 
  -4   4  -9    0.33    1.09 
   4  -4   9   -0.81    1.10 
  -6  -3   9    0.81    0.99 
  -5  -3   9    2.21    1.02 
  -4  -3   9    0.86    0.93 
  -3  -3   9   15.44    1.57 
  -2  -3   9    0.37    0.81 
  -1  -3   9    4.98    1.04 
   0  -3   9    1.43    0.79 
  -1   3  -9    2.15    1.14 
   1  -3   9    3.82    1.01 
  -2   3  -9    1.17    1.09 
   2  -3   9    1.75    0.96 
  -3   3  -9    4.08    1.41 
   3  -3   9    3.86    1.14 
  -4   3  -9    0.76    1.27 
   4  -3   9    0.37    1.09 
  -6  -2   9    0.80    0.98 
  -6  -2   9    2.54    0.99 
  -5  -2   9   -0.39    0.85 
  -4  -2   9    2.03    0.96 
  -3  -2   9    0.49    0.85 
  -2  -2   9    2.27    0.82 
  -1  -2   9    2.37    0.87 
   0  -2   9    4.34    0.96 
   1  -2   9    2.15    0.89 
   1  -2   9    0.82    1.02 
   2  -2   9    5.95    1.44 
   2  -2   9    5.85    1.16 
   3  -2   9    0.14    1.15 
   3  -2   9   -1.37    0.83 
   4  -2   9    4.75    1.63 
   4  -2   9    5.59    1.26 
  -6  -1   9   -0.14    0.96 
  -5  -1   9    3.52    1.10 
  -4  -1   9   -0.17    0.87 
  -3  -1   9    2.13    0.87 
  -2  -1   9    0.52    0.74 
  -1  -1   9    8.32    1.12 
   0  -1   9    0.80    0.78 
   1  -1   9    5.78    1.03 
   1  -1   9    5.51    1.32 
   2  -1   9    1.03    0.87 
   2  -1   9    0.15    1.00 
   3  -1   9    2.95    1.40 
   3  -1   9    4.88    1.13 
   4  -1   9    3.31    1.48 
   4  -1   9    4.21    1.23 
  -6   0   9    2.62    1.09 
  -5   0   9    0.06    0.94 
  -4   0   9    2.39    1.01 
  -3   0   9    0.50    0.83 
  -2   0   9    3.94    0.94 
  -1   0   9    1.31    0.77 
   0   0   9    7.56    1.14 
   1   0   9    0.60    0.91 
   1   0   9    1.01    0.77 
   2   0   9    2.97    1.00 
   2   0   9    2.38    1.16 
   3   0   9    9.17    1.33 
   3   0   9    8.53    1.71 
   4   0   9    0.23    1.00 
   4   0   9    1.39    1.23 
  -6   1   9    0.34    0.99 
  -5   1   9    3.26    1.10 
  -4   1   9    0.04    0.82 
  -3   1   9    2.32    0.91 
  -2   1   9    0.92    0.81 
  -1   1   9    6.35    1.04 
   0   1   9    0.63    0.76 
   1   1   9    3.41    0.89 
   1   1   9    3.79    1.18 
   2   1   9    0.14    0.76 
   2   1   9    0.65    1.03 
   3   1   9    3.74    1.39 
   3   1   9    6.07    1.10 
   4   1   9    1.34    1.28 
  -6   2   9    1.53    1.10 
  -5   2   9   -0.67    0.82 
  -4   2   9    2.02    0.95 
  -3   2   9    1.16    0.85 
  -2   2   9    2.58    0.90 
  -1   2   9    2.17    0.84 
   0   2   9    5.82    0.99 
   1   2   9    1.67    1.00 
   1   2   9    0.48    0.79 
   2   2   9    6.18    1.44 
   2   2   9    4.75    0.99 
   3   2   9    0.74    0.94 
   3   2   9   -0.86    1.06 
   4   2   9    2.97    1.43 
  -6   3   9    2.09    1.03 
  -5   3   9    2.08    0.98 
  -4   3   9   -1.16    0.79 
  -3   3   9   16.05    1.60 
  -2   3   9    0.87    0.81 
  -1   3   9    5.21    1.00 
   0   3   9    0.47    0.71 
   1   3   9    3.15    0.87 
   1   3   9    1.76    1.09 
   2   3   9    0.74    1.05 
   2   3   9    0.89    0.82 
   3   3   9    1.63    1.23 
   4   3   9    0.58    1.24 
  -6   4   9    0.10    0.87 
  -5   4   9    0.99    0.97 
  -4   4   9    4.47    1.08 
  -3   4   9    4.16    1.04 
  -2   4   9    9.15    1.21 
  -1   4   9    1.73    0.84 
   0   4   9    0.98    0.72 
   1   4   9    1.01    0.81 
   1   4   9    0.60    1.02 
   2   4   9    3.44    1.37 
   3   4   9    0.87    1.21 
   4   4   9    1.38    1.32 
  -6   5   9   -0.53    0.87 
  -5   5   9    1.79    1.02 
  -4   5   9   -0.18    0.86 
  -3   5   9    0.14    0.82 
  -2   5   9    1.49    0.88 
  -1   5   9    3.77    0.93 
   0   5   9    1.00    1.03 
   0   5   9   -0.07    0.67 
   1   5   9    9.28    1.67 
   2   5   9    1.35    1.30 
   3   5   9    2.40    1.43 
  -5   6   9    0.82    0.91 
  -4   6   9    3.63    1.12 
  -3   6   9    2.90    1.00 
  -2   6   9    1.00    0.84 
  -1   6   9    3.59    0.94 
   0   6   9    3.64    0.93 
   0   6   9    1.72    1.17 
   1   6   9    0.13    1.08 
   2   6   9    6.88    1.66 
   3   6   9    2.96    1.55 
  -5   7   9    1.34    0.92 
  -4   7   9    0.50    0.97 
  -3   7   9    3.11    0.98 
  -2   7   9    2.09    0.95 
  -1   7   9    6.58    1.13 
   0   7   9   -0.87    1.08 
   1   7   9    1.38    1.32 
   2   7   9    0.41    1.22 
  -4   8   9    1.70    1.01 
  -3   8   9    1.76    0.96 
  -2   8   9   13.19    1.49 
   0   8   9   -0.21    1.24 
   1   8   9    0.51    1.26 
   2   8   9    3.42    1.52 
  -3   9   9    0.66    0.95 
   0   9   9    1.54    1.42 
   1   9   9    3.42    1.60 
  -2  -7  10    0.66    1.01 
  -1  -7  10    1.48    1.06 
  -3  -6  10    0.85    1.02 
  -2  -6  10    2.25    1.07 
  -1  -6  10   -0.15    0.94 
   0  -6  10    1.42    1.07 
  -4  -5  10    0.28    0.92 
  -3  -5  10    2.81    1.14 
  -2  -5  10    2.43    1.04 
  -1  -5  10    3.40    1.10 
   0  -5  10    2.31    0.99 
   1  -5  10    3.62    1.13 
  -4  -4  10    2.73    1.08 
  -3  -4  10    2.14    1.03 
  -2  -4  10    3.56    1.16 
  -1  -4  10   -0.34    0.82 
   0  -4  10    0.61    0.85 
   1  -4  10    0.77    0.95 
   2  -4  10    3.62    1.16 
  -5  -3  10   -0.02    1.01 
  -4  -3  10    1.58    1.05 
  -3  -3  10    1.11    0.98 
  -2  -3  10    0.02    0.84 
  -1  -3  10    2.45    0.97 
   0  -3  10   -0.57    0.81 
   1  -3  10    3.20    1.07 
   2  -3  10    0.46    0.94 
  -5  -2  10   -0.78    0.98 
  -4  -2  10    1.19    1.01 
  -3  -2  10    2.90    1.08 
  -2  -2  10    2.87    0.98 
  -1  -2  10    0.09    0.83 
   0  -2  10    5.48    1.10 
   1  -2  10    1.32    0.96 
   2  -2  10   -0.22    1.17 
   2  -2  10   -0.40    0.96 
  -5  -1  10    1.46    1.08 
  -4  -1  10    1.29    1.05 
  -3  -1  10    0.53    0.88 
  -2  -1  10    1.38    0.88 
  -1  -1  10    3.83    1.05 
   0  -1  10    0.58    0.84 
   1  -1  10    1.40    0.90 
   2  -1  10    0.14    1.19 
   2  -1  10    0.66    0.96 
  -5   0  10    0.18    1.05 
  -4   0  10    0.69    0.94 
  -3   0  10   -0.49    0.77 
  -2   0  10    7.01    1.20 
  -1   0  10    0.48    0.79 
   0   0  10   11.16    1.37 
   1   0  10    3.54    1.01 
   2   0  10    7.30    1.69 
   2   0  10    6.08    1.23 
  -5   1  10   -0.13    0.99 
  -4   1  10    0.81    0.93 
  -3   1  10    1.06    0.92 
  -2   1  10    0.71    0.84 
  -1   1  10    1.82    0.89 
   0   1  10    0.70    0.89 
   1   1  10    1.42    0.92 
   2   1  10    0.21    1.17 
   2   1  10    0.71    0.93 
  -5   2  10   -0.17    0.97 
  -4   2  10    1.46    1.02 
  -3   2  10    1.99    1.04 
  -2   2  10    1.87    0.94 
  -1   2  10    0.02    0.81 
   0   2  10    5.79    1.16 
   1   2  10    1.43    0.93 
   2   2  10    0.47    1.25 
   2   2  10   -0.01    0.93 
  -5   3  10    1.97    1.06 
  -4   3  10   -0.23    0.89 
  -3   3  10    1.47    0.98 
  -2   3  10    1.13    0.90 
  -1   3  10    3.33    1.00 
   0   3  10    0.49    0.83 
   1   3  10    3.25    1.00 
   2   3  10    0.32    1.17 
  -4   4  10    1.91    1.08 
  -3   4  10    2.26    1.01 
  -2   4  10    5.14    1.14 
  -1   4  10    0.78    0.86 
   0   4  10    0.52    0.89 
   2   4  10    1.04    1.34 
  -4   5  10    0.74    1.02 
  -3   5  10    4.56    1.16 
  -2   5  10    1.78    0.97 
  -1   5  10    2.36    0.93 
   0   5  10    1.98    0.91 
  -3   6  10   -0.26    0.99 
  -2   6  10    2.84    1.04 
  -1   6  10    0.37    0.87 
  -2   7  10    0.65    0.92 
   0   0   0    0.00    0.00 
;
_shelx_hkl_checksum              5572
loop_
_space_group_symop_operation_xyz
'x, y, z'
'-x, y+1/2, -z'
loop_
_atom_site_label
_atom_site_type_symbol
_atom_site_fract_x
_atom_site_fract_y
_atom_site_fract_z
_atom_site_U_iso_or_equiv
_atom_site_adp_type
_atom_site_occupancy
_atom_site_site_symmetry_order
_atom_site_calc_flag
_atom_site_refinement_flags_posn
_atom_site_refinement_flags_adp
Br1 Br 1.24344(8) 0.54920(5) 1.05146(6) 0.0686(2) Uani 1 1 d . .
O1 O 0.9075(5) 0.5303(3) 0.3386(5) 0.0656(12) Uani 1 1 d . .
O2 O 0.4298(4) 0.6877(2) 0.5338(4) 0.0422(8) Uani 1 1 d . .
O3 O 0.8899(5) 0.8781(2) 0.3783(5) 0.0510(9) Uani 1 1 d . .
O4 O 0.5410(4) 0.8534(2) 0.3880(4) 0.0402(8) Uani 1 1 d . .
C1 C 0.5869(6) 0.6835(3) 0.4803(5) 0.0340(10) Uani 1 1 d . .
C2 C 0.6670(7) 0.6019(4) 0.4403(6) 0.0405(11) Uani 1 1 d . .
H2 H 0.6152 0.5408 0.4536 0.049 Uiso 1 1 calc R U
C3 C 0.8341(7) 0.6057(4) 0.3761(6) 0.0442(12) Uani 1 1 d . .
C4 C 0.9086(7) 0.7024(4) 0.3534(6) 0.0441(12) Uani 1 1 d . .
H4 H 1.0128 0.7065 0.3083 0.053 Uiso 1 1 calc R U
C5 C 0.8334(6) 0.7854(3) 0.3944(5) 0.0374(11) Uani 1 1 d . .
C6 C 0.6640(6) 0.7864(3) 0.4723(5) 0.0306(10) Uani 1 1 d . .
C7 C 0.7128(6) 0.8331(3) 0.6513(5) 0.0300(10) Uani 1 1 d . .
H7 H 0.7772 0.8945 0.6378 0.036 Uiso 1 1 calc R U
C8 C 0.5575(6) 0.8607(3) 0.7227(6) 0.0358(11) Uani 1 1 d . .
C9 C 0.4391(7) 0.8920(4) 0.7839(6) 0.0427(12) Uani 1 1 d . .
H9 H 0.3457 0.9167 0.8322 0.051 Uiso 1 1 calc R U
C10 C 0.8391(6) 0.7661(3) 0.7618(5) 0.0320(10) Uani 1 1 d . .
C11 C 0.7827(7) 0.6888(4) 0.8511(5) 0.0408(11) Uani 1 1 d . .
H11 H 0.6624 0.6794 0.8508 0.049 Uiso 1 1 calc R U
C12 C 0.9003(7) 0.6255(4) 0.9403(6) 0.0431(12) Uani 1 1 d . .
H12 H 0.8607 0.5737 0.9997 0.052 Uiso 1 1 calc R U
C13 C 1.0782(7) 0.6403(4) 0.9403(6) 0.0436(12) Uani 1 1 d . .
C14 C 1.1388(7) 0.7170(4) 0.8584(6) 0.0452(13) Uani 1 1 d . .
H14 H 1.2593 0.7270 0.8618 0.054 Uiso 1 1 calc R U
C15 C 1.0185(7) 0.7803(4) 0.7694(6) 0.0435(12) Uani 1 1 d . .
H15 H 1.0594 0.8334 0.7136 0.052 Uiso 1 1 calc R U
C16 C 0.3397(8) 0.5958(4) 0.5476(7) 0.0538(14) Uani 1 1 d . .
H16A H 0.3248 0.5623 0.4434 0.081 Uiso 1 1 calc R U
H16B H 0.2262 0.6085 0.5794 0.081 Uiso 1 1 calc R U
H16C H 0.4078 0.5551 0.6293 0.081 Uiso 1 1 calc R U
C17 C 1.0536(8) 0.8906(5) 0.3145(8) 0.0669(17) Uani 1 1 d . .
H17A H 1.1473 0.8598 0.3877 0.100 Uiso 1 1 calc R U
H17B H 1.0782 0.9599 0.3056 0.100 Uiso 1 1 calc R U
H17C H 1.0446 0.8604 0.2078 0.100 Uiso 1 1 calc R U
C18 C 0.4906(9) 0.8318(5) 0.2182(6) 0.0633(16) Uani 1 1 d . .
H18A H 0.5908 0.8391 0.1615 0.095 Uiso 1 1 calc R U
H18B H 0.3992 0.8766 0.1722 0.095 Uiso 1 1 calc R U
H18C H 0.4478 0.7650 0.2063 0.095 Uiso 1 1 calc R U
loop_
_atom_site_aniso_label
_atom_site_aniso_U_11
_atom_site_aniso_U_22
_atom_site_aniso_U_33
_atom_site_aniso_U_23
_atom_site_aniso_U_13
_atom_site_aniso_U_12
Br1 0.0698(4) 0.0710(4) 0.0623(3) 0.0213(3) 0.0002(3) 0.0298(4)
O1 0.059(2) 0.047(3) 0.096(3) -0.015(2) 0.029(2) 0.0064(19)
O2 0.0393(19) 0.0312(19) 0.059(2) -0.0088(16) 0.0162(16) -0.0073(15)
O3 0.052(2) 0.039(2) 0.066(2) 0.0032(17) 0.0231(19) -0.0106(17)
O4 0.0435(18) 0.0360(19) 0.0386(17) 0.0046(14) -0.0022(15) 0.0063(15)
C1 0.033(3) 0.036(3) 0.033(2) -0.004(2) 0.004(2) -0.004(2)
C2 0.045(3) 0.029(3) 0.048(3) -0.005(2) 0.005(2) -0.007(2)
C3 0.044(3) 0.039(3) 0.050(3) -0.007(2) 0.010(2) 0.004(2)
C4 0.041(3) 0.049(3) 0.044(3) -0.008(2) 0.014(2) -0.002(2)
C5 0.039(3) 0.038(3) 0.035(2) 0.003(2) 0.003(2) -0.005(2)
C6 0.032(2) 0.027(2) 0.032(2) 0.0020(18) 0.0017(19) -0.0020(19)
C7 0.033(2) 0.022(2) 0.035(2) -0.0005(17) 0.002(2) -0.0020(18)
C8 0.043(3) 0.026(3) 0.037(2) -0.002(2) 0.000(2) -0.002(2)
C9 0.044(3) 0.039(3) 0.047(3) -0.002(2) 0.009(2) 0.001(2)
C10 0.037(3) 0.027(2) 0.032(2) -0.0019(18) 0.0034(19) 0.0000(19)
C11 0.039(3) 0.043(3) 0.040(3) 0.004(2) 0.003(2) 0.001(2)
C12 0.057(3) 0.037(3) 0.036(2) 0.009(2) 0.009(2) 0.006(2)
C13 0.051(3) 0.040(3) 0.038(3) 0.006(2) -0.001(2) 0.017(2)
C14 0.038(3) 0.049(3) 0.046(3) 0.006(2) -0.001(2) 0.005(2)
C15 0.041(3) 0.039(3) 0.049(3) 0.005(2) 0.004(2) -0.006(2)
C16 0.053(3) 0.043(3) 0.069(4) -0.006(2) 0.021(3) -0.014(2)
C17 0.066(4) 0.058(4) 0.084(4) 0.008(3) 0.037(4) -0.019(3)
C18 0.071(4) 0.076(4) 0.038(3) 0.010(3) -0.008(3) 0.009(3)
loop_
_atom_type_symbol
_atom_type_description
_atom_type_scat_dispersion_real
_atom_type_scat_dispersion_imag
_atom_type_scat_source
C C 0.0033 0.0016 'International Tables Vol C Tables 4.2.6.8 and 6.1.1.4'
H H 0.0000 0.0000 'International Tables Vol C Tables 4.2.6.8 and 6.1.1.4'
O O 0.0106 0.0060 'International Tables Vol C Tables 4.2.6.8 and 6.1.1.4'
Br Br -0.2901 2.4595 'International Tables Vol C Tables 4.2.6.8 and 6.1.1.4'
loop_
_geom_angle_atom_site_label_1
_geom_angle_atom_site_label_2
_geom_angle_atom_site_label_3
_geom_angle
C1 O2 C16 117.1(4)
C5 O3 C17 117.2(4)
C6 O4 C18 114.5(4)
C2 C1 O2 125.9(4)
C2 C1 C6 123.6(4)
O2 C1 C6 110.5(4)
C1 C2 C3 121.7(4)
C1 C2 H2 119.2
C3 C2 H2 119.2
O1 C3 C4 120.9(5)
O1 C3 C2 121.5(5)
C4 C3 C2 117.5(4)
C5 C4 C3 122.4(5)
C5 C4 H4 118.8
C3 C4 H4 118.8
C4 C5 O3 127.4(4)
C4 C5 C6 122.7(4)
O3 C5 C6 109.9(4)
O4 C6 C1 111.9(4)
O4 C6 C5 110.3(3)
C1 C6 C5 111.7(3)
O4 C6 C7 104.4(3)
C1 C6 C7 111.3(3)
C5 C6 C7 106.9(3)
C8 C7 C10 113.5(4)
C8 C7 C6 112.3(4)
C10 C7 C6 110.9(3)
C8 C7 H7 106.5
C10 C7 H7 106.5
C6 C7 H7 106.5
C9 C8 C7 173.5(5)
C8 C9 H9 180.0
C15 C10 C11 117.9(4)
C15 C10 C7 119.1(4)
C11 C10 C7 123.0(4)
C12 C11 C10 121.4(5)
C12 C11 H11 119.3
C10 C11 H11 119.3
C11 C12 C13 118.8(4)
C11 C12 H12 120.6
C13 C12 H12 120.6
C14 C13 C12 121.5(4)
C14 C13 Br1 118.8(4)
C12 C13 Br1 119.7(4)
C13 C14 C15 119.0(5)
C13 C14 H14 120.5
C15 C14 H14 120.5
C10 C15 C14 121.3(4)
C10 C15 H15 119.3
C14 C15 H15 119.3
O2 C16 H16A 109.5
O2 C16 H16B 109.5
H16A C16 H16B 109.5
O2 C16 H16C 109.5
H16A C16 H16C 109.5
H16B C16 H16C 109.5
O3 C17 H17A 109.5
O3 C17 H17B 109.5
H17A C17 H17B 109.5
O3 C17 H17C 109.5
H17A C17 H17C 109.5
H17B C17 H17C 109.5
O4 C18 H18A 109.5
O4 C18 H18B 109.5
H18A C18 H18B 109.5
O4 C18 H18C 109.5
H18A C18 H18C 109.5
H18B C18 H18C 109.5
loop_
_geom_bond_atom_site_label_1
_geom_bond_atom_site_label_2
_geom_bond_distance
Br1 C13 1.901(5)
O1 C3 1.225(6)
O2 C1 1.342(5)
O2 C16 1.433(5)
O3 C5 1.338(5)
O3 C17 1.439(6)
O4 C6 1.412(5)
O4 C18 1.421(6)
C1 C2 1.327(6)
C1 C6 1.516(6)
C2 C3 1.456(7)
C2 H2 0.9300
C3 C4 1.449(8)
C4 C5 1.327(7)
C4 H4 0.9300
C5 C6 1.530(7)
C6 C7 1.592(6)
C7 C8 1.451(7)
C7 C10 1.523(6)
C7 H7 0.9800
C8 C9 1.178(6)
C9 H9 0.9300
C10 C15 1.381(7)
C10 C11 1.382(6)
C11 C12 1.373(7)
C11 H11 0.9300
C12 C13 1.378(7)
C12 H12 0.9300
C13 C14 1.354(7)
C14 C15 1.384(7)
C14 H14 0.9300
C15 H15 0.9300
C16 H16A 0.9600
C16 H16B 0.9600
C16 H16C 0.9600
C17 H17A 0.9600
C17 H17B 0.9600
C17 H17C 0.9600
C18 H18A 0.9600
C18 H18B 0.9600
C18 H18C 0.9600
loop_
_geom_torsion_atom_site_label_1
_geom_torsion_atom_site_label_2
_geom_torsion_atom_site_label_3
_geom_torsion_atom_site_label_4
_geom_torsion
C16 O2 C1 C2 -0.6(7)
C16 O2 C1 C6 179.8(4)
O2 C1 C2 C3 177.1(4)
C6 C1 C2 C3 -3.4(7)
C1 C2 C3 O1 -179.7(5)
C1 C2 C3 C4 -1.5(7)
O1 C3 C4 C5 -179.3(5)
C2 C3 C4 C5 2.6(7)
C3 C4 C5 O3 -179.7(5)
C3 C4 C5 C6 1.2(8)
C17 O3 C5 C4 -2.3(8)
C17 O3 C5 C6 176.9(4)
C18 O4 C6 C1 -65.4(5)
C18 O4 C6 C5 59.7(5)
C18 O4 C6 C7 174.2(4)
C2 C1 C6 O4 130.8(4)
O2 C1 C6 O4 -49.6(5)
C2 C1 C6 C5 6.5(6)
O2 C1 C6 C5 -173.9(4)
C2 C1 C6 C7 -112.9(5)
O2 C1 C6 C7 66.7(4)
C4 C5 C6 O4 -130.5(5)
O3 C5 C6 O4 50.2(5)
C4 C5 C6 C1 -5.4(6)
O3 C5 C6 C1 175.4(4)
C4 C5 C6 C7 116.6(5)
O3 C5 C6 C7 -62.6(4)
O4 C6 C7 C8 48.9(4)
C1 C6 C7 C8 -71.9(5)
C5 C6 C7 C8 165.8(4)
O4 C6 C7 C10 177.2(3)
C1 C6 C7 C10 56.3(5)
C5 C6 C7 C10 -66.0(4)
C8 C7 C10 C15 -141.0(4)
C6 C7 C10 C15 91.4(5)
C8 C7 C10 C11 41.5(6)
C6 C7 C10 C11 -86.1(5)
C15 C10 C11 C12 -2.2(7)
C7 C10 C11 C12 175.3(4)
C10 C11 C12 C13 0.2(7)
C11 C12 C13 C14 1.9(7)
C11 C12 C13 Br1 -176.1(3)
C12 C13 C14 C15 -1.7(8)
Br1 C13 C14 C15 176.3(4)
C11 C10 C15 C14 2.4(7)
C7 C10 C15 C14 -175.2(4)
C13 C14 C15 C10 -0.5(7)
