#------------------------------------------------------------------------------
#$Date: 2017-06-24 03:49:42 +0300 (Sat, 24 Jun 2017) $
#$Revision: 198126 $
#$URL: file:///home/coder/svn-repositories/cod/cif/7/12/03/7120337.cif $
#------------------------------------------------------------------------------
#
# This file is available in the Crystallography Open Database (COD),
# http://www.crystallography.net/
#
# All data on this site have been placed in the public domain by the
# contributors.
#
data_7120337
loop_
_publ_author_name
'Satpathi, Bishnupada'
'Wagulde , Siddhant V.'
'Ramasastry, S. S. V.'
_publ_section_title
;
 Enantioselective organocatalytic intramolecular Morita-Baylis-Hillman
 (IMBH) reaction of dienones, and elaboration of the IMBH adducts to
 fluorenones
;
_journal_name_full               'Chem. Commun.'
_journal_paper_doi               10.1039/C7CC02524F
_journal_year                    2017
_chemical_formula_moiety         'C13 H12 O2'
_chemical_formula_sum            'C13 H12 O2'
_chemical_formula_weight         200.24
_space_group_crystal_system      triclinic
_space_group_IT_number           2
_space_group_name_Hall           '-P 1'
_space_group_name_H-M_alt        'P -1'
_symmetry_Int_Tables_number      2
_symmetry_space_group_name_Hall  '-P 1'
_symmetry_space_group_name_H-M   'P -1'
_atom_sites_solution_primary     dual
_audit_creation_date             2016-12-03
_audit_creation_method
;
Olex2 1.2
(compiled 2016.09.09 svn.r3337 for OlexSys, GUI svn.r5227)
;
_audit_update_record
;
2016-12-03 deposited with the CCDC.
2017-06-23 downloaded from the CCDC.
;
_cell_angle_alpha                73.986(8)
_cell_angle_beta                 73.564(11)
_cell_angle_gamma                83.983(8)
_cell_formula_units_Z            2
_cell_length_a                   7.8751(9)
_cell_length_b                   8.2320(4)
_cell_length_c                   8.8523(12)
_cell_measurement_reflns_used    1844
_cell_measurement_temperature    298
_cell_measurement_theta_max      25.3080
_cell_measurement_theta_min      3.0470
_cell_volume                     528.84(10)
_computing_cell_refinement       'CrysAlisPro 1.171.39.7f (Rigaku OD, 2015)'
_computing_data_collection       'CrysAlisPro 1.171.39.7f (Rigaku OD, 2015)'
_computing_data_reduction        'CrysAlisPro 1.171.39.7f (Rigaku OD, 2015)'
_computing_molecular_graphics    'Olex2 (Dolomanov et al., 2009)'
_computing_publication_material  'Olex2 (Dolomanov et al., 2009)'
_computing_structure_refinement  'olex2.refine (Bourhis et al., 2015)'
_computing_structure_solution    'ShelXT (Sheldrick, 2015)'
_diffrn_ambient_temperature      298
_diffrn_detector                 'CCD plate'
_diffrn_measured_fraction_theta_full 0.9731
_diffrn_measured_fraction_theta_max 0.9262
_diffrn_measurement_details
;
List of Runs (angles in degrees, time in seconds):

  # Type    Start    End  Width  t~exp~   \w     \q     \k     \f   Frames
#--------------------------------------------------------------------------
  1  \w    -69.00 119.00   0.50    5.00    --   29.89  54.00 -90.00  376
  2  \w    -69.00 119.00   0.50    5.00    --   29.89  54.00 -90.00  376
  3  \w    -69.00 119.00   0.50    5.00    --   29.89  54.00  30.00  376
  4  \w    -69.00 119.00   0.50    5.00    --   29.89  54.00 150.00  376
  5  \w    -69.00  91.00   0.50    5.00    --   29.89  54.00-150.00  320
;
_diffrn_measurement_device       'two-circle diffractometer'
_diffrn_measurement_device_type  'XtaLAB Mini (ROW)'
_diffrn_measurement_method       '\w scans'
_diffrn_orient_matrix_type
'CrysAlisPro convention (1999,Acta A55,543-557)'
_diffrn_orient_matrix_UB_11      -0.0514496000
_diffrn_orient_matrix_UB_12      -0.0001568000
_diffrn_orient_matrix_UB_13      0.0800172000
_diffrn_orient_matrix_UB_21      -0.0761617000
_diffrn_orient_matrix_UB_22      0.0252835000
_diffrn_orient_matrix_UB_23      -0.0294057000
_diffrn_orient_matrix_UB_31      -0.0194445000
_diffrn_orient_matrix_UB_32      -0.0860418000
_diffrn_orient_matrix_UB_33      0.0144776000
_diffrn_radiation_monochromator  graphite
_diffrn_radiation_probe          x-ray
_diffrn_radiation_type           'Mo K\a'
_diffrn_radiation_wavelength     0.71073
_diffrn_reflns_av_R_equivalents  0.0618
_diffrn_reflns_av_unetI/netI     0.0428
_diffrn_reflns_limit_h_max       10
_diffrn_reflns_limit_h_min       -11
_diffrn_reflns_limit_k_max       12
_diffrn_reflns_limit_k_min       -11
_diffrn_reflns_limit_l_max       13
_diffrn_reflns_limit_l_min       -12
_diffrn_reflns_number            11929
_diffrn_reflns_theta_full        26.0000
_diffrn_reflns_theta_max         32.75
_diffrn_reflns_theta_min         2.48
_diffrn_source                   'fine-focus sealed X-ray tube'
_diffrn_source_type              'Enhance (Mo) X-ray Source'
_exptl_absorpt_coefficient_mu    0.084
_exptl_absorpt_correction_T_max  1.00000
_exptl_absorpt_correction_T_min  0.48244
_exptl_absorpt_correction_type   multi-scan
_exptl_absorpt_process_details
;
CrysAlisPro 1.171.39.7f (Rigaku Oxford Diffraction, 2015)
Empirical absorption correction using spherical harmonics,
 implemented in SCALE3 ABSPACK scaling algorithm.
;
_exptl_crystal_colour            clear
_exptl_crystal_colour_lustre     clear
_exptl_crystal_density_diffrn    1.2574
_exptl_crystal_description       block
_exptl_crystal_F_000             212.1121
_exptl_crystal_size_max          0.25
_exptl_crystal_size_mid          0.2
_exptl_crystal_size_min          0.14
_refine_diff_density_max         0.7218
_refine_diff_density_min         -0.3509
_refine_diff_density_rms         0.1009
_refine_ls_d_res_high            0.6568
_refine_ls_d_res_low             8.2028
_refine_ls_goodness_of_fit_ref   1.4669
_refine_ls_hydrogen_treatment    constr
_refine_ls_matrix_type           full
_refine_ls_number_constraints    22
_refine_ls_number_parameters     137
_refine_ls_number_reflns         3626
_refine_ls_number_restraints     0
_refine_ls_restrained_S_all      1.4669
_refine_ls_R_factor_all          0.1444
_refine_ls_R_factor_gt           0.0969
_refine_ls_shift/su_max          0.0000
_refine_ls_shift/su_mean         0.0000
_refine_ls_structure_factor_coef Fsqd
_refine_ls_weighting_details
'w=1/[\s^2^(Fo^2^)+(0.1P)^2^] where P=(Fo^2^+2Fc^2^)/3'
_refine_ls_weighting_scheme      calc
_refine_ls_wR_factor_gt          0.2396
_refine_ls_wR_factor_ref         0.2917
_reflns_Friedel_coverage         0.0
_reflns_limit_h_max              11
_reflns_limit_h_min              -11
_reflns_limit_k_max              12
_reflns_limit_k_min              -11
_reflns_limit_l_max              13
_reflns_limit_l_min              0
_reflns_number_gt                1897
_reflns_number_total             3626
_reflns_threshold_expression     I>=2u(I)
_iucr_refine_instructions_details
;
TITL bsme_a.res in P-1
REM Old TITL bsme in P-1
REM SHELXT solution in P-1
REM R1 0.193, Rweak 0.002, Alpha 0.020, Orientation as input
REM Formula found by SHELXT: C13 O2
CELL 0.71073 7.8751 8.232 8.8523 73.986 73.564 83.983
ZERR 2 0.0009 0.0004 0.0012 0.008 0.011 0.008
LATT 1
SFAC C H N O
UNIT 22 20 2 2

L.S. 10
PLAN  20
TEMP 24.85
BOND $H
FMAP 2
list 4
MORE -1
ACTA 52
CONF 
OMIT 5 11 7
OMIT -1 -2 1
OMIT 0 -1 2
OMIT 2 0 3
OMIT 3 2 0
OMIT -3 -5 1
OMIT 3 1 2
OMIT 2 -2 0
OMIT 1 -2 3
OMIT 3 1 3
OMIT 4 1 3
OMIT 2 -4 1
OMIT -1 -1 2
OMIT -3 -3 2
OMIT 0 3 2
OMIT 3 -1 0
OMIT 3 -1 1
OMIT 3 1 4
OMIT 2 2 5
OMIT 5 1 0
OMIT 2 -2 2
OMIT -3 0 1
OMIT 2 2 2
OMIT 1 7 2
OMIT 2 3 3
OMIT -2 -1 4
OMIT 3 -3 1
OMIT 0 4 1
OMIT 1 -3 4
OMIT 0 6 1
OMIT 1 3 3
OMIT 2 3 4
OMIT -3 4 1
OMIT 3 3 2
OMIT 6 0 1
OMIT -3 1 1
OMIT 3 -1 5
OMIT 0 -5 2
OMIT 0 2 0
OMIT 5 4 1
OMIT 1 0 5
OMIT -10 2 1
OMIT 2 2 4
OMIT -2 1 2
OMIT 1 -2 5
OMIT 0 -5 1
OMIT 0 4 2
OMIT -3 -3 3
OMIT 1 4 5
OMIT 6 -9 1
OMIT 3 -4 0
OMIT 4 -3 3
OMIT -2 3 1
OMIT 4 -2 4
OMIT -4 -1 1
OMIT 9 7 4
OMIT 0 2 4
OMIT 3 -1 7
OMIT -2 -5 1
OMIT 0 -1 3
WGHT 0.1
FVAR 0.7783
REM <olex2.extras>
REM <HklSrc "%.\\bsme.hkl">
REM </olex2.extras>

O001  4     0.64899  0.79387  0.19492  11.00000  0.06758  0.06754  0.06097 =
 -0.01130 -0.01063 -0.00937 
AFIX 147
H001  2     0.68154  0.69425  0.21720  11.00000 -1.50000 
AFIX 0
O002  4     0.24309  0.54825  0.68157  11.00000  0.07054  0.05945  0.07326 =
 -0.01086 -0.00973 -0.01687 
C003  1     0.51068  0.70230  0.62044  11.00000  0.06065  0.04327  0.05987 =
 -0.01410 -0.01881 -0.00102 
C004  1     0.36858  0.72628  0.41116  11.00000  0.05760  0.04778  0.05864 =
 -0.01514 -0.01662 -0.00015 
C005  1     0.61537  0.80209  0.47904  11.00000  0.05733  0.04515  0.06582 =
 -0.01566 -0.01749 -0.00359 
C006  1     0.35764  0.64652  0.58524  11.00000  0.05636  0.04483  0.05869 =
 -0.01401 -0.01366 -0.00399 
C007  1     0.53268  0.83281  0.33682  11.00000  0.06269  0.04561  0.05891 =
 -0.00686 -0.01720 -0.00951 
AFIX 13
H007  2     0.49508  0.95212  0.30844  11.00000 -1.20000 
AFIX 0
C008  1     0.24831  0.69976  0.34063  11.00000  0.05519  0.05284  0.06598 =
 -0.01686 -0.01569 -0.00530 
AFIX 43
H008  2     0.15907  0.62586  0.40619  11.00000 -1.20000 
AFIX 0
C009  1     0.24126  0.77275  0.17445  11.00000  0.05876  0.05945  0.06674 =
 -0.01595 -0.01835 -0.00537 
AFIX 43
H009  2     0.32664  0.84888  0.10495  11.00000 -1.20000 
AFIX 0
C00A  1     0.11445  0.73324  0.11812  11.00000  0.06072  0.06331  0.07077 =
 -0.02166 -0.02101 -0.00226 
AFIX 43
H00A  2     0.03203  0.65529  0.18971  11.00000 -1.20000 
AFIX 0
C00B  1     0.55641  0.66178  0.76737  11.00000  0.08017  0.06094  0.06187 =
 -0.01196 -0.02467 -0.00110 
AFIX 43
H00B  2     0.48398  0.59576  0.86190  11.00000 -1.20000 
AFIX 0
C00C  1     0.77501  0.85937  0.48006  11.00000  0.06559  0.06214  0.07630 =
 -0.01454 -0.02011 -0.01185 
AFIX 43
H00C  2     0.84850  0.92429  0.38553  11.00000 -1.20000 
AFIX 0
C00D  1     0.82096  0.81673  0.62601  11.00000  0.07417  0.07633  0.08946 =
 -0.02225 -0.03497 -0.00878 
AFIX 43
H00D  2     0.92810  0.85246  0.62848  11.00000 -1.20000 
AFIX 0
C00E  1     0.71228  0.72249  0.76851  11.00000  0.08584  0.07263  0.08070 =
 -0.01922 -0.04061 -0.00081 
AFIX 43
H00E  2     0.74472  0.70002  0.86561  11.00000 -1.20000 
AFIX 0
C00F  1     0.09516  0.80432 -0.05000  11.00000  0.07620  0.08905  0.07418 =
 -0.02753 -0.02942  0.00090 
AFIX 137
H00f  2     0.18950  0.88016 -0.11240  11.00000 -1.50000 
H00g  2     0.10006  0.71407 -0.10057  11.00000 -1.50000 
H00h  2    -0.01654  0.86464 -0.04560  11.00000 -1.50000 
AFIX 0
HKLF 4

END
Q1 1 0.533333 0.84375 0.333333 11 0.05 0.72
Q2 1 0.233333 0.53125 0.694444 11 0.05 0.69
Q3 1 0.5 0.6875 0.611111 11 0.05 0.69
Q4 1 0.633333 0.8125 0.472222 11 0.05 0.58
Q5 1 0.566667 0.65625 0.777778 11 0.05 0.57
Q6 1 0.366667 0.71875 0.416667 11 0.05 0.56
Q7 1 0.233333 0.6875 0.361111 11 0.05 0.54
Q8 1 0.233333 0.78125 0.166667 11 0.05 0.52
Q9 1 0.666667 0.78125 0.194444 11 0.05 0.5
Q10 1 0.833333 0.84375 0.611111 11 0.05 0.47
Q11 1 0.1 0.75 0.111111 11 0.05 0.46
Q12 1 0.766667 0.875 0.472222 11 0.05 0.45
Q13 1 0.366667 0.65625 0.583333 11 0.05 0.42
Q14 1 0.1 0.8125 -0.055556 11 0.05 0.37
Q15 1 0.7 0.71875 0.777778 11 0.05 0.36
Q16 1 0.5 0.875 0.194444 11 0.05 0.35
Q17 1 0.133333 0.5 0.638889 11 0.05 0.3
Q18 1 0.1 0.59375 0.444444 11 0.05 0.3
Q19 1 0.4 0.90625 0.083333 11 0.05 0.3
Q20 1 0.4 0.59375 0.722222 11 0.05 0.29

  REM The information below was added by Olex2.
  REM
  REM R1 = 0.0969 for 1897 Fo > 4sig(Fo) and 0.1444 for all 3626 data
  REM 137 parameters refined using 0 restraints
  REM Highest difference peak 0.7218, deepest hole -0.3509
  REM Mean Shift 0.0000, Max Shift 0.0000.
  
  REM +++ Tabular Listing of Refinement Information +++
  REM R1_all = 0.1444
  REM R1_gt = 0.0969
  REM wR_ref = 0.2917
  REM GOOF = 1.4669
  REM Shift_max = 0.0000
  REM Shift_mean = 0.0000
  REM Reflections_all = 3626
  REM Reflections_gt = 1897
  REM Parameters = 137
  REM Hole = -0.3509
  REM Peak = 0.7218
  REM Flack = n/a
  
  
;
_cod_data_source_file            c7cc02524f2.cif
_cod_data_source_block           bsme
_cod_database_code               7120337
_reflns_odcompleteness_completeness 100.00
_reflns_odcompleteness_iscentric 1
_reflns_odcompleteness_theta     26.32
_olex2_refinement_description
;
1. Fixed Uiso
 At 1.2 times of:
  All C(H) groups
 At 1.5 times of:
  All C(H,H,H) groups, All O(H) groups
2.a Ternary CH refined with riding coordinates:
 C007(H007)
2.b Aromatic/amide H refined with riding coordinates:
 C00C(H00C), C00D(H00D), C00E(H00E), C00B(H00B), C008(H008), C009(H009),
 C00A(H00A)
2.c Idealised Me refined as rotating group:
 C00F(H00f,H00g,H00h)
2.d Idealised tetrahedral OH refined as rotating group:
 O001(H001)
;
_iucr_refine_fcf_details
;
data_bsme
_computing_structure_refinement   'olex2.refine (Bourhis et al., 2015)'
_shelx_refln_list_code            4
loop_
  _space_group_symop_id
  _space_group_symop_operation_xyz
  1  x,y,z
  2  -x,-y,-z

_space_group_crystal_system       triclinic
_space_group_IT_number            2
_space_group_name_H-M_alt         'P -1'
_space_group_name_Hall            '-P 1'
_symmetry_space_group_name_H-M    'P -1'
_symmetry_space_group_name_Hall   '-P 1'
_symmetry_Int_Tables_number       2
_cell_length_a                    7.8751(9)
_cell_length_b                    8.2320(4)
_cell_length_c                    8.8523(12)
_cell_angle_alpha                 73.986(8)
_cell_angle_beta                  73.564(11)
_cell_angle_gamma                 83.983(8)
_cell_volume                      528.84(10)
loop_
  _refln_index_h
  _refln_index_k
  _refln_index_l
  _refln_F_squared_calc
  _refln_F_squared_meas
  _refln_F_squared_sigma
  _refln_F_squared_weight
  _refln_observed_status
-11 -2 1 0.045 0.512 0.809 13.039 o
-11 -1 1 0.319 -0.017 0.644 20.573 o
-11 0 1 0.013 -0.347 0.429 46.339 o
-10 -4 1 0.034 0.446 0.248 138.562 o
-10 -3 1 0.465 1.255 0.941 9.584 o
-10 -3 2 0.011 0.792 0.842 12.031 o
-10 -2 1 0.001 0.198 0.116 637.154 o
-10 -2 2 0.720 1.288 1.040 7.833 o
-10 -2 3 0.001 -0.083 0.528 30.591 o
-10 -1 1 0.631 0.617 0.547 28.147 o
-10 -1 2 0.298 0.405 0.315 85.334 o
-10 -1 3 0.018 0.050 0.462 39.954 o
-10 0 1 0.341 0.931 0.531 30.013 o
-10 0 2 1.979 3.535 1.136 6.312 o
-10 0 3 0.060 0.095 0.519 31.740 o
-10 1 1 1.289 1.902 0.752 14.522 o
-10 1 2 0.182 0.198 0.266 120.322 o
-10 1 3 0.051 0.133 0.417 48.969 o
-10 2 2 1.031 1.026 0.522 30.130 o
-10 2 3 0.010 -0.375 0.825 12.530 o
-10 3 1 1.041 1.043 0.702 16.949 o
-10 3 2 0.347 0.270 0.149 369.477 o
-10 3 3 0.166 0.099 0.314 86.592 o
-10 4 1 0.431 1.073 1.271 5.270 o
-10 4 2 1.799 3.665 1.816 2.544 o
-9 -7 1 0.003 -0.017 0.347 71.032 o
-9 -6 1 0.394 -0.030 0.482 36.666 o
-9 -6 2 0.237 0.215 1.337 4.773 o
-9 -5 1 0.593 0.907 0.677 18.439 o
-9 -5 2 0.461 1.273 0.757 14.765 o
-9 -4 1 2.219 3.283 0.988 8.191 o
-9 -4 2 0.501 0.857 0.214 171.333 o
-9 -4 3 0.144 -0.033 0.363 64.676 o
-9 -3 1 4.721 7.899 1.333 4.045 o
-9 -3 2 0.273 0.403 0.457 40.603 o
-9 -3 3 0.037 -0.141 0.232 158.683 o
-9 -2 1 3.518 6.984 1.164 5.426 o
-9 -2 2 1.504 1.512 0.465 35.788 o
-9 -2 3 0.066 0.071 0.339 74.351 o
-9 -2 4 0.033 -0.124 0.462 39.955 o
-9 -1 1 2.868 4.666 0.903 9.133 o
-9 -1 2 0.038 0.179 0.260 126.192 o
-9 -1 3 0.008 -0.066 0.190 236.862 o
-9 -1 4 0.160 0.248 0.198 215.567 o
-9 -1 5 0.857 0.639 1.494 3.814 o
-9 0 1 0.910 0.476 0.545 28.209 o
-9 0 2 0.021 0.140 0.578 25.569 o
-9 0 3 0.001 -0.024 0.825 12.530 o
-9 0 4 0.006 0.852 0.635 21.097 o
-9 0 5 0.092 -0.198 0.619 22.273 o
-9 1 1 3.148 6.517 1.058 6.558 o
-9 1 2 0.368 0.717 0.492 34.876 o
-9 1 3 0.007 -0.343 0.324 81.145 o
-9 1 4 0.224 0.260 0.437 44.477 o
-9 1 5 0.313 0.227 0.330 77.737 o
-9 2 1 5.748 12.769 3.331 0.727 o
-9 2 2 0.521 0.671 0.483 36.018 o
-9 2 3 0.007 -0.025 0.125 543.834 o
-9 2 4 0.241 -0.627 0.584 25.041 o
-9 2 5 0.154 0.419 0.685 18.166 o
-9 3 1 0.008 0.465 0.329 78.767 o
-9 3 2 1.332 2.050 0.879 10.709 o
-9 3 3 0.149 0.597 0.350 69.340 o
-9 3 4 0.104 0.083 0.360 65.965 o
-9 3 5 0.048 0.241 0.130 503.439 o
-9 4 1 3.230 4.916 0.876 9.376 o
-9 4 2 1.197 3.194 0.681 17.120 o
-9 4 3 0.675 0.776 0.504 33.021 o
-9 4 4 0.095 1.245 0.733 15.824 o
-9 4 5 0.071 -1.370 1.222 5.720 o
-9 5 1 0.037 1.330 0.675 18.626 o
-9 5 2 1.645 2.978 0.795 12.623 o
-9 5 3 0.030 -0.154 0.293 99.299 o
-9 5 4 0.074 0.908 0.825 12.507 o
-9 6 1 0.477 0.266 0.517 31.727 o
-9 6 2 0.039 0.743 0.891 10.732 o
-9 6 3 0.080 0.314 0.215 184.358 o
-9 7 1 0.025 -0.050 0.363 64.720 o
-8 -8 1 0.624 0.858 1.255 5.406 o
-8 -7 1 0.006 0.254 0.809 13.045 o
-8 -7 2 0.371 0.050 0.842 12.032 o
-8 -6 1 0.340 -0.482 0.467 39.050 o
-8 -6 2 1.085 0.461 0.408 49.007 o
-8 -6 3 0.865 1.469 1.370 4.520 o
-8 -5 1 3.699 5.400 0.979 7.487 o
-8 -5 2 0.112 0.114 0.233 156.868 o
-8 -5 3 3.073 3.978 0.983 7.910 o
-8 -5 4 2.091 3.962 2.229 1.694 o
-8 -4 1 0.569 0.700 0.207 182.951 o
-8 -4 2 1.180 1.088 0.483 34.697 o
-8 -4 3 0.094 -0.221 0.398 53.805 o
-8 -4 4 1.021 1.965 0.751 14.673 o
-8 -4 5 0.011 -0.198 0.858 11.585 o
-8 -3 1 0.026 -0.386 0.297 96.749 o
-8 -3 2 1.015 1.512 0.552 26.816 o
-8 -3 3 1.658 1.557 0.527 28.114 o
-8 -3 4 2.980 5.109 1.076 6.599 o
-8 -3 5 0.061 0.011 0.352 68.745 o
-8 -2 1 2.316 2.310 0.646 18.148 o
-8 -2 2 0.157 -0.045 0.388 56.630 o
-8 -2 3 0.524 0.458 0.172 265.315 o
-8 -2 4 1.176 1.210 0.645 19.858 o
-8 -2 5 0.363 0.914 0.392 54.576 o
-8 -2 6 0.019 -0.132 0.644 20.595 o
-8 -1 1 3.283 1.813 0.494 26.508 o
-8 -1 2 0.836 1.133 0.454 39.734 o
-8 -1 3 2.004 3.133 0.763 13.377 o
-8 -1 4 2.938 5.657 0.983 7.667 o
-8 -1 5 0.023 -0.210 0.196 223.105 o
-8 -1 6 0.401 1.133 0.617 22.157 o
-8 0 1 0.259 0.318 0.147 379.517 o
-8 0 2 0.011 0.254 0.287 103.450 o
-8 0 3 0.052 0.003 0.254 132.593 o
-8 0 4 1.244 2.017 0.621 20.895 o
-8 0 5 0.042 0.057 0.305 91.506 o
-8 0 6 0.519 0.727 0.404 51.197 o
-8 1 1 14.700 23.178 1.781 1.367 o
-8 1 2 3.241 5.802 0.652 14.414 o
-8 1 3 1.138 1.029 0.496 33.111 o
-8 1 4 0.002 0.060 0.244 143.011 o
-8 1 5 0.078 0.267 0.227 165.682 o
-8 1 6 0.240 0.843 0.551 27.915 o
-8 1 7 0.379 0.743 0.693 17.666 o
-8 2 1 3.627 5.324 0.925 8.284 o
-8 2 2 2.209 3.064 0.528 25.047 o
-8 2 3 4.404 5.681 1.312 4.365 o
-8 2 4 0.331 0.203 0.239 146.865 o
-8 2 5 0.501 0.787 0.490 35.057 o
-8 2 6 0.345 0.598 0.374 60.348 o
-8 2 7 0.011 -0.281 0.380 59.216 o
-8 3 1 16.008 26.705 1.680 1.283 o
-8 3 2 0.018 -0.132 0.251 135.663 o
-8 3 3 1.195 1.810 0.639 19.974 o
-8 3 4 3.031 4.883 1.169 5.690 o
-8 3 5 2.018 2.614 1.378 4.380 o
-8 3 6 0.187 -0.239 0.401 53.141 o
-8 4 1 0.061 -0.229 0.204 204.109 o
-8 4 2 0.185 -0.446 0.724 16.265 o
-8 4 3 3.198 4.284 0.688 14.235 o
-8 4 4 0.229 -0.118 0.479 37.210 o
-8 4 5 0.045 -0.578 0.448 42.458 o
-8 4 6 0.027 0.628 0.556 27.527 o
-8 5 1 2.664 1.620 0.734 14.415 o
-8 5 2 0.063 -0.506 0.488 35.776 o
-8 5 3 0.010 -0.170 0.668 19.120 o
-8 5 4 0.400 0.308 0.974 8.986 o
-8 5 5 0.615 1.698 0.873 11.053 o
-8 5 6 0.661 0.995 0.595 23.751 o
-8 6 1 0.120 -0.109 0.702 17.326 o
-8 6 2 1.123 1.238 0.416 45.749 o
-8 6 3 0.130 -0.371 0.841 12.065 o
-8 6 4 0.002 0.237 0.858 11.584 o
-8 6 5 0.091 0.033 0.528 30.585 o
-8 7 1 0.413 -0.548 0.559 27.209 o
-8 7 2 0.069 -0.668 0.944 9.586 o
-8 7 3 0.017 -2.047 1.337 4.774 o
-8 7 4 0.000 1.205 1.057 7.637 o
-8 8 1 0.466 -0.515 0.882 10.950 o
-8 8 2 0.747 1.040 1.189 6.012 o
-7 -9 1 0.023 -0.512 0.116 639.175 o
-7 -8 1 0.185 0.611 0.594 24.098 o
-7 -8 2 1.999 3.269 2.130 1.858 o
-7 -7 1 1.227 0.463 0.091 482.277 o
-7 -7 2 2.005 3.216 1.095 6.795 o
-7 -7 3 6.355 10.400 3.203 0.787 o
-7 -7 4 0.016 -0.462 0.578 25.572 o
-7 -6 1 0.000 -0.154 0.135 471.341 o
-7 -6 2 0.775 0.450 0.481 36.137 o
-7 -6 3 0.613 0.759 0.592 24.039 o
-7 -6 4 0.832 0.534 0.693 17.562 o
-7 -6 5 0.266 2.542 1.568 3.456 o
-7 -5 1 0.890 0.618 0.322 77.377 o
-7 -5 2 0.111 0.103 0.271 115.848 o
-7 -5 3 9.307 15.364 2.351 1.253 o
-7 -5 4 0.877 1.023 0.655 19.512 o
-7 -5 5 0.234 0.168 0.328 79.120 o
-7 -4 1 1.708 0.614 0.439 40.505 o
-7 -4 2 2.236 2.391 0.626 19.192 o
-7 -4 3 0.001 -0.122 0.075 1509.440 o
-7 -4 4 2.385 1.957 0.792 12.607 o
-7 -4 5 0.026 0.066 0.222 173.365 o
-7 -4 6 0.000 0.349 0.329 78.837 o
-7 -3 1 0.000 0.153 0.116 631.262 o
-7 -3 2 0.017 0.296 0.232 158.278 o
-7 -3 3 8.578 13.231 1.535 2.524 o
-7 -3 4 0.730 1.834 0.591 23.665 o
-7 -3 5 0.056 -0.011 0.363 64.722 o
-7 -3 6 0.730 0.511 0.192 206.496 o
-7 -3 7 0.609 -0.528 0.891 10.720 o
-7 -2 1 1.940 0.890 0.385 49.153 o
-7 -2 2 0.003 -0.359 0.170 295.477 o
-7 -2 3 0.003 0.012 0.167 307.336 o
-7 -2 4 0.213 -0.236 0.235 154.170 o
-7 -2 5 0.777 0.512 0.274 106.674 o
-7 -2 6 0.031 -0.306 0.428 46.633 o
-7 -2 7 0.190 -0.479 1.040 7.891 o
-7 -1 1 0.727 0.192 0.265 116.411 o
-7 -1 2 21.273 29.111 3.567 0.463 o
-7 -1 3 2.790 2.551 0.606 19.388 o
-7 -1 4 0.420 0.735 0.322 80.114 o
-7 -1 5 0.219 0.206 0.203 204.217 o
-7 -1 6 0.328 -0.099 0.264 121.534 o
-7 -1 7 0.660 1.799 1.024 8.066 o
-7 0 1 5.777 5.114 0.563 13.640 o
-7 0 2 9.942 11.412 0.817 4.862 o
-7 0 3 0.121 -0.137 0.162 323.782 o
-7 0 4 1.815 2.085 0.580 22.882 o
-7 0 5 0.103 -0.551 0.462 40.058 o
-7 0 6 0.081 0.061 0.195 223.389 o
-7 0 7 0.001 -0.210 0.380 59.216 o
-7 0 8 0.125 0.677 0.858 11.570 o
-7 1 1 9.575 13.220 0.941 4.164 o
-7 1 2 8.112 9.059 0.785 6.434 o
-7 1 3 31.753 45.120 4.700 0.243 o
-7 1 4 6.344 8.118 1.215 4.362 o
-7 1 5 1.268 1.323 0.420 44.199 o
-7 1 6 0.015 0.281 0.157 345.585 o
-7 1 7 0.306 0.298 0.363 64.274 o
-7 1 8 0.003 -0.429 1.007 8.419 o
-7 2 1 2.562 2.678 0.484 28.278 o
-7 2 2 3.958 3.574 0.527 20.125 o
-7 2 3 1.753 1.376 0.343 59.325 o
-7 2 4 0.003 -0.048 0.174 282.187 o
-7 2 5 0.299 0.397 0.561 27.004 o
-7 2 6 0.081 0.469 0.505 33.381 o
-7 2 7 0.020 -0.191 0.355 67.766 o
-7 2 8 0.221 0.710 0.842 12.018 o
-7 3 1 2.945 3.149 0.529 23.062 o
-7 3 2 0.036 -0.150 0.146 399.325 o
-7 3 3 5.690 6.325 0.740 9.529 o
-7 3 4 1.387 0.851 0.615 21.749 o
-7 3 5 2.008 2.931 0.811 11.994 o
-7 3 6 2.206 4.630 1.130 6.238 o
-7 3 7 0.468 0.772 0.469 38.192 o
-7 3 8 0.026 -0.255 0.759 14.804 o
-7 4 1 4.958 3.923 0.577 15.652 o
-7 4 2 0.142 -0.187 0.450 42.075 o
-7 4 3 0.784 0.582 0.300 89.606 o
-7 4 4 0.153 -0.516 1.139 6.580 o
-7 4 5 0.997 0.949 0.527 29.701 o
-7 4 6 0.005 -0.169 0.168 301.856 o
-7 4 7 0.070 -0.030 0.256 130.343 o
-7 5 1 1.494 1.938 0.406 44.542 o
-7 5 2 1.010 0.571 0.500 33.109 o
-7 5 3 0.156 -0.368 0.846 11.929 o
-7 5 4 0.014 -0.647 1.389 4.424 o
-7 5 5 0.000 -0.326 0.098 886.327 o
-7 5 6 0.533 0.209 0.254 128.946 o
-7 5 7 0.554 0.434 0.349 68.477 o
-7 6 1 3.341 1.968 0.782 12.302 o
-7 6 2 0.191 -0.916 1.177 6.161 o
-7 6 3 0.243 -0.642 0.612 22.749 o
-7 6 4 0.089 -0.282 0.264 122.349 o
-7 6 5 2.388 3.694 1.065 7.036 o
-7 6 6 0.202 0.001 0.437 44.565 o
-7 6 7 0.097 0.677 0.858 11.572 o
-7 7 1 0.009 -0.733 0.749 15.201 o
-7 7 2 0.849 -0.418 0.503 33.351 o
-7 7 3 0.491 0.106 0.310 87.596 o
-7 7 4 0.149 0.290 0.388 56.449 o
-7 7 5 0.000 0.033 0.891 10.742 o
-7 7 6 0.248 -0.776 0.974 8.996 o
-7 8 1 0.437 -1.253 0.683 18.251 o
-7 8 2 0.348 -0.472 0.675 18.735 o
-7 8 3 0.146 -0.315 0.430 46.164 o
-7 8 4 0.010 0.440 0.250 135.608 o
-7 9 1 0.004 -1.912 0.827 12.484 o
-7 9 2 0.010 -0.836 0.780 14.043 o
-6 -9 1 1.303 1.073 0.957 9.162 o
-6 -9 2 4.424 6.224 2.212 1.659 o
-6 -8 1 0.003 0.031 0.331 77.766 o
-6 -8 2 0.228 0.608 0.768 14.457 o
-6 -8 3 0.303 0.116 0.809 13.035 o
-6 -7 1 0.539 0.354 0.306 89.232 o
-6 -7 2 4.987 7.144 1.120 5.402 o
-6 -7 3 2.334 4.324 1.226 5.363 o
-6 -7 4 1.446 1.363 0.789 13.273 o
-6 -7 5 0.038 -0.017 0.561 27.097 o
-6 -6 1 0.560 0.434 0.217 171.750 o
-6 -6 2 0.021 -0.102 0.287 103.404 o
-6 -6 3 0.193 0.362 0.206 198.297 o
-6 -6 4 0.218 0.421 0.420 48.119 o
-6 -6 5 0.467 1.005 0.656 19.620 o
-6 -6 6 0.314 1.486 1.255 5.406 o
-6 -5 1 1.588 2.173 0.525 27.791 o
-6 -5 2 2.954 4.324 0.819 10.839 o
-6 -5 3 0.660 1.018 0.383 55.761 o
-6 -5 4 1.596 1.099 0.452 38.024 o
-6 -5 5 0.728 0.111 0.834 12.235 o
-6 -5 6 0.631 0.417 0.652 19.930 o
-6 -4 1 0.021 -0.138 0.144 413.936 o
-6 -4 2 2.799 2.258 0.518 25.311 o
-6 -4 3 1.065 0.606 0.196 182.202 o
-6 -4 4 4.069 5.193 0.904 8.420 o
-6 -4 5 1.121 0.701 0.422 45.400 o
-6 -4 6 0.115 0.125 0.413 50.079 o
-6 -4 7 0.050 -0.051 0.751 15.131 o
-6 -3 1 26.119 29.238 1.859 0.788 o
-6 -3 2 29.564 31.760 2.814 0.499 o
-6 -3 3 1.253 0.199 0.292 91.403 o
-6 -3 4 3.790 4.499 0.815 10.329 o
-6 -3 5 0.933 0.319 0.279 102.692 o
-6 -3 6 0.069 -0.465 0.367 63.206 o
-6 -3 7 0.290 0.212 0.418 48.639 o
-6 -2 1 40.682 50.325 1.855 0.376 o
-6 -2 2 7.652 8.142 1.260 3.883 o
-6 -2 3 2.891 2.356 0.559 22.125 o
-6 -2 4 2.579 2.335 0.568 22.185 o
-6 -2 5 0.382 0.255 0.333 76.239 o
-6 -2 6 0.004 -0.243 0.155 357.403 o
-6 -2 7 0.008 -0.085 0.999 8.558 o
-6 -2 8 0.141 0.121 0.363 64.835 o
-6 -1 1 0.803 0.620 0.138 348.773 o
-6 -1 2 106.428 137.459 7.165 0.045 o
-6 -1 3 62.440 97.060 4.879 0.109 o
-6 -1 4 2.262 1.059 0.263 82.432 o
-6 -1 5 0.310 0.050 0.163 314.101 o
-6 -1 6 0.058 -0.062 0.293 99.593 o
-6 -1 7 0.033 0.118 0.274 114.022 o
-6 -1 8 0.134 1.255 0.797 13.383 o
-6 0 1 23.418 23.021 1.269 1.214 o
-6 0 2 2.686 3.271 0.420 32.913 o
-6 0 3 0.301 0.206 0.279 108.827 o
-6 0 4 0.280 0.190 0.136 444.295 o
-6 0 5 2.445 2.807 0.603 19.888 o
-6 0 6 1.028 0.804 0.375 57.131 o
-6 0 7 0.120 0.555 0.379 59.280 o
-6 0 8 0.458 0.238 0.275 111.059 o
-6 1 1 8.769 8.407 0.707 6.842 o
-6 1 2 2.753 2.290 0.331 48.277 o
-6 1 3 13.648 13.812 1.206 2.563 o
-6 1 4 5.416 3.987 0.608 13.903 o
-6 1 5 2.892 3.527 0.760 12.662 o
-6 1 6 6.618 9.470 1.183 4.329 o
-6 1 7 0.498 -0.047 0.237 149.367 o
-6 1 8 0.001 -0.026 0.272 115.061 o
-6 1 9 0.032 0.380 0.710 16.934 o
-6 2 1 2.851 2.008 0.289 57.055 o
-6 2 2 20.937 25.566 1.215 1.307 o
-6 2 3 7.862 8.354 0.709 7.444 o
-6 2 4 0.936 0.403 0.379 57.134 o
-6 2 5 0.008 0.002 0.136 460.047 o
-6 2 6 0.049 -0.037 0.147 395.446 o
-6 2 7 0.268 -0.505 0.385 57.565 o
-6 2 8 0.067 0.433 0.280 108.412 o
-6 2 9 0.001 0.594 0.495 34.750 o
-6 3 1 6.545 6.827 0.711 9.025 o
-6 3 2 3.111 1.215 0.617 19.301 o
-6 3 3 0.165 -0.067 0.365 64.174 o
-6 3 4 0.077 -0.072 0.315 86.273 o
-6 3 5 0.020 -0.517 0.248 138.961 o
-6 3 6 3.425 5.401 1.137 5.849 o
-6 3 7 2.447 3.919 1.031 7.432 o
-6 3 8 0.146 0.167 0.212 188.364 o
-6 4 1 1.770 1.535 0.377 50.103 o
-6 4 2 0.669 0.528 0.156 301.788 o
-6 4 3 2.405 1.953 0.390 42.061 o
-6 4 4 9.205 12.484 1.097 3.770 o
-6 4 5 0.754 0.993 0.307 84.490 o
-6 4 6 0.002 0.034 0.603 23.513 o
-6 4 7 0.372 0.450 0.470 38.291 o
-6 4 8 0.756 0.735 0.548 27.880 o
-6 5 1 2.521 2.499 0.486 28.497 o
-6 5 2 14.469 16.778 1.270 2.170 o
-6 5 3 0.907 0.673 0.292 92.454 o
-6 5 4 0.227 0.372 0.177 267.067 o
-6 5 5 0.474 0.463 0.103 670.032 o
-6 5 6 0.088 0.121 0.264 122.192 o
-6 5 7 0.168 -0.001 0.223 171.446 o
-6 5 8 0.007 -0.225 0.215 185.356 o
-6 6 1 0.315 -0.162 0.159 332.743 o
-6 6 2 0.070 -0.013 0.181 260.147 o
-6 6 3 0.006 -0.007 0.177 271.655 o
-6 6 4 1.835 2.047 0.464 33.926 o
-6 6 5 0.187 0.409 0.249 136.001 o
-6 6 6 0.492 0.263 0.474 37.633 o
-6 6 7 0.001 -0.031 0.244 143.022 o
-6 6 8 0.527 0.891 0.726 16.052 o
-6 7 1 0.478 0.217 0.250 133.136 o
-6 7 2 0.852 0.710 0.160 267.102 o
-6 7 3 0.598 0.274 0.250 131.906 o
-6 7 4 0.033 0.100 0.155 357.052 o
-6 7 5 1.404 0.525 0.238 123.842 o
-6 7 6 0.055 0.057 0.309 89.161 o
-6 7 7 0.056 -0.627 0.527 30.691 o
-6 8 1 0.001 0.045 0.170 294.980 o
-6 8 2 0.040 -0.412 0.221 174.715 o
-6 8 3 0.000 0.392 0.268 118.576 o
-6 8 4 0.397 0.505 0.298 94.237 o
-6 8 5 0.036 -0.189 0.245 141.915 o
-6 8 6 0.053 0.097 0.261 125.364 o
-6 9 1 0.308 0.081 0.646 20.457 o
-6 9 2 0.000 -0.310 0.464 39.702 o
-6 9 3 0.011 -0.345 0.581 25.321 o
-6 9 4 0.192 0.022 0.121 577.450 o
-6 10 1 0.212 0.527 0.371 61.430 o
-6 10 2 0.016 -1.078 0.610 22.955 o
-5 -9 1 5.945 7.518 1.707 2.561 o
-5 -9 2 0.878 0.842 0.875 11.043 o
-5 -8 1 0.000 -0.210 0.305 91.527 o
-5 -8 2 0.590 0.054 0.470 38.274 o
-5 -8 3 0.195 0.592 1.015 8.274 o
-5 -8 4 0.507 0.879 0.741 15.428 o
-5 -7 1 6.547 7.634 1.166 4.649 o
-5 -7 2 0.002 0.121 0.150 376.704 o
-5 -7 3 0.227 0.068 0.660 19.565 o
-5 -7 4 3.255 3.476 1.230 5.259 o
-5 -7 5 0.883 1.104 0.565 25.967 o
-5 -6 1 3.891 3.249 0.662 14.882 o
-5 -6 2 1.151 0.701 0.333 70.699 o
-5 -6 3 12.574 13.432 1.682 1.904 o
-5 -6 4 0.015 -0.055 0.173 284.120 o
-5 -6 5 1.667 1.666 0.835 11.787 o
-5 -6 6 0.097 0.084 0.469 38.725 o
-5 -5 1 26.079 26.541 1.834 0.833 o
-5 -5 2 5.618 3.889 0.725 10.958 o
-5 -5 3 0.020 0.083 0.230 160.790 o
-5 -5 4 4.766 2.096 1.062 6.676 o
-5 -5 5 0.486 0.728 0.427 46.076 o
-5 -5 6 0.050 -0.158 0.432 45.704 o
-5 -5 7 0.001 -0.178 0.377 60.130 o
-5 -4 1 2.832 2.497 0.434 32.568 o
-5 -4 2 44.424 51.301 2.540 0.302 o
-5 -4 3 2.373 1.932 0.474 31.082 o
-5 -4 4 1.409 1.114 0.411 45.973 o
-5 -4 5 0.820 0.852 0.387 54.591 o
-5 -4 6 0.105 0.318 0.380 59.089 o
-5 -4 7 1.594 2.543 1.017 7.967 o
-5 -4 8 0.261 0.724 0.726 16.128 o
-5 -3 1 105.941 123.371 2.620 0.065 o
-5 -3 2 92.250 99.184 7.000 0.062 o
-5 -3 3 38.130 36.932 3.696 0.306 o
-5 -3 4 0.975 0.548 0.184 208.915 o
-5 -3 5 0.765 0.883 0.289 94.712 o
-5 -3 6 0.500 0.385 0.300 92.445 o
-5 -3 7 1.134 1.347 0.618 21.513 o
-5 -3 8 0.297 0.886 0.517 31.676 o
-5 -2 1 1.015 0.509 0.121 392.388 o
-5 -2 2 23.233 23.731 1.540 1.088 o
-5 -2 3 1.837 1.901 0.399 43.977 o
-5 -2 4 0.155 -0.028 0.134 471.298 o
-5 -2 5 6.691 7.961 0.990 5.743 o
-5 -2 6 5.101 5.672 1.049 6.186 o
-5 -2 7 2.950 5.697 1.186 5.484 o
-5 -2 8 0.626 1.518 0.782 13.774 o
-5 -2 9 0.000 0.047 0.706 17.120 o
-5 -1 1 3.324 2.667 0.270 50.441 o
-5 -1 2 0.148 0.237 0.080 1256.890 o
-5 -1 3 35.313 34.614 2.452 0.466 o
-5 -1 4 13.871 14.637 1.255 2.390 o
-5 -1 5 6.681 7.209 1.080 5.214 o
-5 -1 6 3.220 3.288 0.682 14.980 o
-5 -1 7 0.803 1.303 0.473 36.605 o
-5 -1 8 0.223 -0.298 0.190 235.421 o
-5 -1 9 0.598 1.466 0.829 12.293 o
-5 0 1 9.838 7.793 0.553 7.458 o
-5 0 2 62.048 70.900 3.202 0.163 o
-5 0 3 32.912 37.418 2.304 0.498 o
-5 0 4 11.273 14.796 1.257 2.729 o
-5 0 5 0.295 0.248 0.017 8106.880 o
-5 0 6 8.384 11.025 1.227 3.613 o
-5 0 7 0.191 0.229 0.183 250.651 o
-5 0 8 0.116 0.068 0.117 616.887 o
-5 0 9 0.148 0.221 0.982 8.846 o
-5 1 1 10.528 9.745 0.662 5.719 o
-5 1 2 24.426 26.270 1.495 1.004 o
-5 1 3 0.517 0.429 0.074 1086.070 o
-5 1 4 0.994 0.201 0.233 143.766 o
-5 1 5 1.568 1.661 0.463 35.580 o
-5 1 6 7.158 9.081 1.048 5.000 o
-5 1 7 4.237 7.883 1.106 5.616 o
-5 1 8 2.732 4.145 0.882 9.704 o
-5 1 9 0.006 -0.330 0.206 200.836 o
-5 2 1 20.483 20.727 0.964 1.655 o
-5 2 2 0.336 0.001 0.165 309.498 o
-5 2 3 89.354 123.055 3.124 0.077 o
-5 2 4 1.035 0.487 0.173 230.433 o
-5 2 5 1.444 0.981 0.243 112.980 o
-5 2 6 0.017 -0.489 0.285 104.893 o
-5 2 7 3.209 4.636 0.816 10.640 o
-5 2 8 0.517 0.255 0.156 327.341 o
-5 2 9 0.820 1.278 0.618 21.788 o
-5 3 1 42.455 46.078 1.794 0.383 o
-5 3 2 24.971 28.596 1.273 1.007 o
-5 3 3 0.101 0.246 0.131 494.441 o
-5 3 4 17.846 17.677 1.342 1.719 o
-5 3 5 0.050 -0.073 0.168 303.443 o
-5 3 6 0.112 0.055 0.198 218.202 o
-5 3 7 0.511 -0.016 0.253 131.107 o
-5 3 8 4.150 7.349 1.364 4.004 o
-5 3 9 0.177 -0.357 0.446 42.940 o
-5 4 1 1.062 0.977 0.229 135.149 o
-5 4 2 11.287 12.354 0.950 3.779 o
-5 4 3 14.973 14.823 1.119 2.454 o
-5 4 4 0.509 0.087 0.147 373.044 o
-5 4 5 0.277 -0.006 0.154 356.855 o
-5 4 6 1.059 0.832 0.292 89.817 o
-5 4 7 1.225 1.668 0.618 21.281 o
-5 4 8 1.941 3.650 0.890 9.986 o
-5 4 9 0.061 0.014 0.426 47.047 o
-5 5 1 0.249 -0.032 0.198 216.738 o
-5 5 2 5.444 6.144 0.666 11.151 o
-5 5 3 2.148 2.110 0.422 38.123 o
-5 5 4 21.093 21.971 1.547 1.226 o
-5 5 5 0.993 0.396 0.169 244.447 o
-5 5 6 0.004 -0.088 0.126 535.513 o
-5 5 7 0.008 -0.018 0.446 42.970 o
-5 5 8 4.422 8.716 1.577 3.017 o
-5 5 9 1.056 2.988 1.304 4.935 o
-5 6 1 0.607 0.226 0.290 98.909 o
-5 6 2 1.785 2.274 0.398 43.494 o
-5 6 3 5.476 6.262 0.732 9.873 o
-5 6 4 0.027 0.104 0.131 496.247 o
-5 6 5 0.131 0.044 0.158 338.547 o
-5 6 6 1.079 0.657 0.251 119.147 o
-5 6 7 0.086 0.073 0.079 1354.180 o
-5 6 8 0.041 -0.088 0.336 75.562 o
-5 6 9 0.263 -0.594 0.314 86.502 o
-5 7 1 1.423 0.490 0.294 86.640 o
-5 7 2 0.831 0.372 0.164 272.354 o
-5 7 3 0.001 0.050 0.341 73.528 o
-5 7 4 9.007 9.627 1.053 4.359 o
-5 7 5 0.005 -0.184 0.219 178.788 o
-5 7 6 0.154 -0.024 0.145 402.078 o
-5 7 7 0.013 -0.089 0.312 87.617 o
-5 7 8 0.682 -0.165 0.413 49.520 o
-5 8 1 0.000 -0.469 0.319 83.924 o
-5 8 2 1.598 1.674 0.420 42.189 o
-5 8 3 0.045 0.001 0.410 50.822 o
-5 8 4 0.879 1.141 0.377 56.247 o
-5 8 5 0.731 0.238 0.262 118.717 o
-5 8 6 0.686 1.169 0.425 45.470 o
-5 8 7 0.291 -0.033 0.132 479.109 o
-5 8 8 0.066 -0.446 0.611 22.881 o
-5 9 1 0.048 -0.469 0.314 86.530 o
-5 9 2 0.030 -0.221 0.340 73.865 o
-5 9 3 0.249 0.153 0.361 65.360 o
-5 9 4 1.250 2.001 0.628 20.473 o
-5 9 5 0.001 0.480 0.448 42.488 o
-5 9 6 0.085 -0.757 0.363 64.706 o
-5 10 1 0.485 0.043 0.286 102.609 o
-5 10 2 0.024 -0.120 0.372 61.783 o
-5 10 3 0.219 0.456 0.471 38.284 o
-5 10 4 2.237 3.221 1.150 6.152 o
-5 10 5 2.657 3.556 1.170 5.865 o
-4 -9 1 0.856 1.301 0.684 17.863 o
-4 -9 2 0.021 0.286 0.611 22.875 o
-4 -9 3 0.878 0.351 0.677 18.436 o
-4 -8 1 0.718 0.224 0.415 48.742 o
-4 -8 2 3.261 3.652 1.035 7.194 o
-4 -8 3 0.274 0.301 0.636 21.092 o
-4 -8 4 0.270 0.067 0.299 94.878 o
-4 -8 5 0.044 0.344 0.557 27.494 o
-4 -7 1 2.628 1.722 0.469 31.111 o
-4 -7 2 0.005 -0.242 0.171 290.911 o
-4 -7 3 0.316 0.259 0.248 137.248 o
-4 -7 4 0.803 1.304 0.598 23.275 o
-4 -7 5 0.086 -0.590 0.507 33.170 o
-4 -7 6 0.599 1.083 0.630 21.180 o
-4 -6 1 25.339 29.605 1.905 0.791 o
-4 -6 2 2.350 1.786 0.433 36.493 o
-4 -6 3 0.377 0.075 0.253 131.747 o
-4 -6 4 0.216 -0.187 0.329 78.644 o
-4 -6 5 0.918 1.075 0.537 28.659 o
-4 -6 6 0.447 0.415 0.867 11.336 o
-4 -6 7 1.130 1.239 0.924 9.832 o
-4 -5 1 75.585 80.670 3.118 0.123 o
-4 -5 2 21.266 16.801 1.402 1.453 o
-4 -5 3 3.132 1.932 0.467 29.211 o
-4 -5 4 0.029 0.049 0.232 158.008 o
-4 -5 5 0.666 0.613 0.333 73.972 o
-4 -5 6 3.658 5.185 1.365 4.190 o
-4 -5 7 2.149 5.824 1.467 3.766 o
-4 -5 8 0.109 -0.047 0.131 497.911 o
-4 -4 1 0.000 0.099 0.109 718.023 o
-4 -4 2 15.556 20.375 1.423 1.717 o
-4 -4 3 4.570 4.017 0.614 15.001 o
-4 -4 4 1.820 1.325 0.380 49.596 o
-4 -4 5 10.392 9.714 1.069 3.922 o
-4 -4 6 0.072 0.131 0.216 182.377 o
-4 -4 7 2.183 3.619 1.050 7.271 o
-4 -4 8 0.083 0.087 0.381 58.840 o
-4 -3 1 1.397 1.219 0.183 166.083 o
-4 -3 2 0.185 1.088 0.281 105.336 o
-4 -3 3 43.780 42.501 2.089 0.369 o
-4 -3 4 40.855 44.154 3.581 0.281 o
-4 -3 5 0.052 -0.350 0.232 159.026 o
-4 -3 6 0.958 0.547 0.193 194.672 o
-4 -3 7 0.022 0.067 0.627 21.693 o
-4 -3 8 0.411 0.097 0.477 37.383 o
-4 -3 9 0.141 0.021 0.784 13.882 o
-4 -2 1 13.650 10.903 0.545 4.450 o
-4 -2 2 64.455 65.794 2.596 0.175 o
-4 -2 3 0.373 0.215 0.137 432.508 o
-4 -2 4 12.212 13.254 1.130 2.990 o
-4 -2 5 5.926 5.552 0.737 9.697 o
-4 -2 6 4.338 3.408 0.608 16.059 o
-4 -2 7 0.118 0.347 0.268 117.851 o
-4 -2 8 0.018 -0.122 0.270 117.369 o
-4 -2 9 0.140 -0.505 0.444 43.320 o
-4 -1 2 104.527 105.154 2.751 0.073 o
-4 -1 3 0.741 1.027 0.288 94.793 o
-4 -1 4 30.632 30.291 1.696 0.700 o
-4 -1 5 3.636 2.025 0.608 18.316 o
-4 -1 6 4.877 5.363 0.742 10.605 o
-4 -1 7 2.651 1.968 0.525 25.503 o
-4 -1 8 0.413 0.264 0.160 318.703 o
-4 -1 9 0.002 -0.458 0.467 39.062 o
-4 -1 10 0.061 0.400 0.107 722.456 o
-4 0 1 64.521 58.761 3.164 0.174 o
-4 0 2 138.314 150.968 2.700 0.041 o
-4 0 3 75.986 93.151 1.918 0.121 o
-4 0 4 3.288 2.600 0.349 39.622 o
-4 0 5 16.318 17.855 1.593 1.590 o
-4 0 6 3.413 2.401 0.586 19.488 o
-4 0 7 0.913 0.582 0.219 157.058 o
-4 0 8 0.373 0.392 0.324 80.237 o
-4 0 9 0.556 0.519 0.413 49.266 o
-4 0 10 0.365 0.220 0.924 9.977 o
-4 1 1 2.078 1.935 0.262 77.832 o
-4 1 2 19.041 17.421 0.784 2.115 o
-4 1 3 46.543 58.190 2.371 0.275 o
-4 1 4 23.370 24.887 1.018 1.267 o
-4 1 5 2.643 1.439 0.270 69.193 o
-4 1 6 1.063 1.201 0.371 56.951 o
-4 1 7 8.917 10.279 1.349 3.165 o
-4 1 8 0.431 0.339 0.179 252.679 o
-4 1 9 0.013 -0.317 0.396 54.384 o
-4 1 10 0.237 0.485 0.190 230.575 o
-4 2 1 90.542 100.770 3.467 0.085 o
-4 2 2 0.205 0.036 0.131 493.523 o
-4 2 3 18.084 20.064 0.961 1.924 o
-4 2 4 14.805 14.359 0.805 3.052 o
-4 2 5 0.053 0.100 0.077 1419.470 o
-4 2 6 1.968 0.991 0.380 49.886 o
-4 2 7 4.893 6.632 0.904 7.639 o
-4 2 8 0.254 0.087 0.194 224.586 o
-4 2 9 0.155 -0.070 0.157 345.602 o
-4 2 10 0.479 0.891 1.057 7.622 o
-4 3 1 5.668 4.607 0.450 17.602 o
-4 3 2 24.751 26.550 1.030 1.140 o
-4 3 3 36.979 37.872 1.385 0.540 o
-4 3 4 30.017 30.453 1.740 0.704 o
-4 3 5 2.007 1.624 0.371 49.392 o
-4 3 6 2.942 2.169 0.396 37.315 o
-4 3 7 16.262 22.880 1.730 1.333 o
-4 3 8 2.916 3.466 0.701 14.524 o
-4 3 9 0.535 0.436 0.352 67.694 o
-4 3 10 0.301 0.135 0.383 57.930 o
-4 4 1 0.011 -0.087 0.091 1025.250 o
-4 4 2 5.841 5.001 0.533 14.377 o
-4 4 3 2.117 2.055 0.366 47.894 o
-4 4 4 1.389 0.891 0.180 179.733 o
-4 4 5 0.894 0.580 0.219 157.073 o
-4 4 6 0.205 -0.032 0.145 400.348 o
-4 4 7 0.228 -0.093 0.133 473.343 o
-4 4 8 1.522 0.598 0.486 34.087 o
-4 4 9 0.617 0.782 0.426 45.909 o
-4 4 10 0.000 -0.330 0.314 86.774 o
-4 5 1 30.818 32.880 1.942 0.623 o
-4 5 2 0.586 0.320 0.241 140.591 o
-4 5 3 20.481 22.511 2.159 0.934 o
-4 5 4 0.035 0.027 0.139 439.729 o
-4 5 5 0.002 -0.103 0.111 698.867 o
-4 5 6 1.673 0.633 0.306 76.825 o
-4 5 7 3.242 2.028 0.476 27.764 o
-4 5 8 0.459 0.271 0.176 263.361 o
-4 5 9 1.317 2.640 0.864 10.973 o
-4 5 10 0.398 0.363 0.446 42.650 o
-4 6 1 0.578 0.719 0.189 215.756 o
-4 6 2 2.778 3.456 0.502 24.961 o
-4 6 3 5.778 7.168 0.765 8.764 o
-4 6 4 0.852 0.444 0.165 264.307 o
-4 6 5 3.792 3.162 0.552 19.739 o
-4 6 6 0.259 0.092 0.166 305.219 o
-4 6 7 0.581 0.322 0.242 139.610 o
-4 6 8 3.620 4.021 1.062 6.731 o
-4 6 9 0.041 0.182 0.297 96.599 o
-4 6 10 0.087 -0.330 0.132 488.517 o
-4 7 1 0.009 -0.006 0.165 314.267 o
-4 7 2 0.806 0.029 0.186 227.979 o
-4 7 3 2.350 1.824 0.531 25.899 o
-4 7 4 0.359 0.193 0.195 218.340 o
-4 7 5 0.002 0.013 0.229 162.941 o
-4 7 6 1.848 1.935 0.461 34.414 o
-4 7 7 1.565 1.094 0.411 45.282 o
-4 7 8 0.019 0.098 0.324 81.129 o
-4 7 9 0.058 -0.281 0.182 258.769 o
-4 8 1 0.951 0.917 0.312 80.396 o
-4 8 2 0.877 0.451 0.214 166.134 o
-4 8 3 19.826 25.670 2.783 0.684 o
-4 8 4 22.769 31.830 2.004 0.800 o
-4 8 5 0.038 0.262 0.257 129.262 o
-4 8 6 0.120 0.133 0.231 159.789 o
-4 8 7 0.788 0.847 0.276 103.236 o
-4 8 8 1.391 1.222 0.644 19.747 o
-4 8 9 0.032 -0.347 0.759 14.804 o
-4 9 1 0.098 0.180 0.467 39.059 o
-4 9 2 0.308 0.109 0.403 52.315 o
-4 9 3 0.987 0.903 0.349 65.224 o
-4 9 4 3.517 4.090 0.722 12.964 o
-4 9 5 0.062 -0.023 0.207 199.628 o
-4 9 6 0.016 0.187 0.232 158.620 o
-4 9 7 0.142 -0.109 0.205 203.462 o
-4 10 1 0.009 -0.131 0.175 277.744 o
-4 10 2 0.037 -0.031 0.368 62.953 o
-4 10 3 2.518 1.988 0.690 16.061 o
-4 10 4 8.409 11.763 1.597 2.470 o
-4 10 5 1.463 3.258 0.998 8.229 o
-4 10 6 0.535 0.609 0.132 414.853 o
-4 11 2 0.081 0.246 0.520 31.548 o
-4 11 3 0.037 0.173 0.510 32.862 o
-4 11 4 1.163 0.940 0.658 19.207 o
-3 -10 1 2.219 3.005 1.469 3.845 o
-3 -10 2 0.000 -0.281 0.957 9.312 o
-3 -9 1 0.000 -0.377 0.388 56.566 o
-3 -9 2 0.980 0.940 0.520 30.515 o
-3 -9 3 0.012 -0.219 0.237 151.360 o
-3 -9 4 0.011 -0.363 0.528 30.591 o
-3 -8 1 0.034 0.185 0.355 67.728 o
-3 -8 2 0.295 0.248 0.344 71.581 o
-3 -8 3 0.471 -0.477 0.170 284.099 o
-3 -8 4 0.038 -0.138 0.504 33.673 o
-3 -8 5 0.130 0.307 0.341 73.336 o
-3 -8 6 0.181 0.710 0.776 14.151 o
-3 -7 1 19.846 21.083 2.275 0.920 o
-3 -7 2 0.001 -0.014 0.291 100.723 o
-3 -7 3 1.303 0.285 0.313 79.459 o
-3 -7 4 0.013 -0.243 0.297 96.463 o
-3 -7 5 0.536 0.017 0.315 84.816 o
-3 -7 6 2.649 5.918 1.522 3.477 o
-3 -7 7 1.059 3.533 2.064 1.988 o
-3 -6 1 0.004 0.041 0.121 579.380 o
-3 -6 2 3.032 2.729 0.540 22.636 o
-3 -6 3 15.101 13.801 1.255 2.291 o
-3 -6 4 6.179 5.876 1.241 4.471 o
-3 -6 5 0.064 0.070 0.265 121.504 o
-3 -6 6 0.130 0.257 0.411 50.370 o
-3 -6 7 0.098 0.837 0.548 28.289 o
-3 -6 8 0.059 0.248 0.462 39.928 o
-3 -5 2 4.063 2.535 0.498 22.786 o
-3 -5 3 52.015 51.898 2.431 0.259 o
-3 -5 4 7.774 6.813 0.860 6.592 o
-3 -5 5 0.380 0.395 0.338 73.589 o
-3 -5 6 0.992 0.640 0.594 23.658 o
-3 -5 7 2.363 3.769 1.104 6.568 o
-3 -5 8 0.176 0.108 0.218 178.295 o
-3 -4 1 13.763 15.764 1.563 1.886 o
-3 -4 2 16.507 12.923 1.075 2.439 o
-3 -4 3 0.085 -0.094 0.173 284.578 o
-3 -4 4 2.547 1.051 0.183 113.338 o
-3 -4 5 0.468 -0.035 0.203 202.898 o
-3 -4 6 1.032 0.735 0.395 51.867 o
-3 -4 7 0.208 0.048 0.362 64.856 o
-3 -4 8 0.135 0.356 0.365 63.918 o
-3 -4 9 0.245 0.484 0.396 53.974 o
-3 -3 1 10.214 8.164 0.449 7.693 o
-3 -3 4 40.649 41.846 2.252 0.389 o
-3 -3 5 5.338 6.453 0.784 9.080 o
-3 -3 6 19.613 19.429 2.207 0.982 o
-3 -3 7 0.036 0.139 0.250 136.786 o
-3 -3 8 0.010 0.083 0.677 18.634 o
-3 -3 9 0.114 -0.072 0.545 28.760 o
-3 -3 10 0.352 0.231 0.594 24.104 o
-3 -2 1 151.320 170.146 3.707 0.033 o
-3 -2 2 15.779 20.197 1.147 1.989 o
-3 -2 3 25.330 22.370 1.304 1.120 o
-3 -2 4 17.329 16.491 1.156 2.012 o
-3 -2 5 50.185 61.003 4.213 0.183 o
-3 -2 6 2.823 2.927 0.752 13.188 o
-3 -2 7 5.149 5.445 0.776 9.722 o
-3 -2 8 0.001 -0.350 0.423 47.693 o
-3 -2 9 0.447 0.543 0.363 63.615 o
-3 -2 10 0.632 0.394 0.834 12.229 o
-3 -1 1 38.855 44.663 1.011 0.483 o
-3 -1 2 156.756 188.876 2.641 0.030 o
-3 -1 3 4.677 4.285 0.502 18.607 o
-3 -1 4 4.144 3.425 0.480 22.316 o
-3 -1 5 0.829 0.167 0.163 280.581 o
-3 -1 6 61.585 73.919 4.857 0.128 o
-3 -1 7 0.314 0.262 0.234 153.125 o
-3 -1 8 0.916 0.706 0.425 45.460 o
-3 -1 9 0.001 0.468 0.627 21.680 o
-3 -1 10 0.627 1.596 0.735 15.559 o
-3 0 2 18.462 11.763 0.547 2.911 o
-3 0 3 145.903 157.751 2.494 0.037 o
-3 0 4 59.079 70.095 1.735 0.201 o
-3 0 5 30.623 34.394 1.752 0.645 o
-3 0 6 29.752 37.810 2.322 0.537 o
-3 0 7 1.350 1.239 0.349 61.361 o
-3 0 8 2.950 3.678 0.652 16.204 o
-3 0 9 0.145 0.061 0.115 641.597 o
-3 0 10 1.830 4.055 1.154 6.107 o
-3 0 11 0.031 0.330 0.842 12.041 o
-3 1 2 183.520 183.916 3.027 0.025 o
-3 1 3 7.950 7.225 0.452 10.691 o
-3 1 4 41.762 45.441 1.286 0.424 o
-3 1 5 0.717 0.270 0.125 453.811 o
-3 1 6 92.725 120.312 6.261 0.060 o
-3 1 7 14.875 20.039 1.492 1.714 o
-3 1 8 0.004 0.028 0.134 478.589 o
-3 1 9 0.204 0.081 0.176 274.805 o
-3 1 10 1.809 3.988 1.154 6.115 o
-3 1 11 1.178 1.123 1.090 7.111 o
-3 2 1 244.270 246.261 4.546 0.014 o
-3 2 2 10.467 7.577 0.481 7.526 o
-3 2 3 0.847 0.686 0.126 384.842 o
-3 2 4 67.547 82.377 2.476 0.145 o
-3 2 5 0.466 0.372 0.116 552.506 o
-3 2 6 2.095 1.120 0.304 68.997 o
-3 2 7 25.628 38.297 2.121 0.637 o
-3 2 8 1.428 1.339 0.303 76.483 o
-3 2 9 1.096 1.580 0.492 33.153 o
-3 2 10 0.249 0.844 0.450 41.716 o
-3 3 1 15.223 16.825 1.096 2.317 o
-3 3 2 215.631 231.807 11.336 0.014 o
-3 3 3 39.722 43.696 1.935 0.415 o
-3 3 4 5.673 3.921 0.448 18.571 o
-3 3 5 0.196 0.118 0.083 1200.830 o
-3 3 6 16.121 13.796 2.221 1.171 o
-3 3 7 4.175 3.588 0.502 20.818 o
-3 3 8 0.895 0.427 0.382 56.432 o
-3 3 9 3.538 5.448 0.911 8.496 o
-3 3 10 0.000 -0.075 0.240 148.078 o
-3 4 2 50.364 68.622 4.587 0.161 o
-3 4 3 44.680 52.725 3.333 0.255 o
-3 4 4 65.289 76.210 2.246 0.162 o
-3 4 5 0.850 0.361 0.175 240.965 o
-3 4 6 2.841 1.667 0.354 45.983 o
-3 4 7 27.087 33.479 3.936 0.355 o
-3 4 8 2.400 2.004 0.426 36.684 o
-3 4 9 0.021 -0.295 0.202 209.958 o
-3 4 10 0.000 -0.391 0.817 12.784 o
-3 5 1 25.339 27.189 1.316 1.008 o
-3 5 2 36.206 41.063 2.347 0.431 o
-3 5 3 8.574 7.920 0.772 6.596 o
-3 5 4 4.413 4.025 0.526 18.544 o
-3 5 5 2.657 1.971 0.346 47.808 o
-3 5 6 10.094 8.186 0.780 5.682 o
-3 5 7 0.750 0.107 0.207 186.786 o
-3 5 8 0.416 0.271 0.223 167.690 o
-3 5 9 3.544 4.781 1.074 6.520 o
-3 5 10 1.592 3.483 1.304 4.878 o
-3 6 1 2.398 0.963 0.256 83.456 o
-3 6 2 95.683 143.024 4.376 0.060 o
-3 6 3 273.212 399.769 29.194 0.005 o
-3 6 4 0.000 0.180 0.188 240.680 o
-3 6 5 2.831 2.391 0.504 26.198 o
-3 6 6 0.146 0.083 0.113 659.793 o
-3 6 7 7.592 7.681 0.952 5.739 o
-3 6 8 1.053 0.298 0.322 77.682 o
-3 6 9 0.045 0.343 0.357 66.825 o
-3 6 10 0.011 -0.330 0.512 32.596 o
-3 7 1 3.810 2.556 0.495 23.698 o
-3 7 2 1.162 0.920 0.313 77.695 o
-3 7 3 22.401 26.833 1.678 1.002 o
-3 7 4 3.350 4.353 0.656 15.077 o
-3 7 5 0.738 0.327 0.165 277.135 o
-3 7 6 0.161 0.215 0.160 330.799 o
-3 7 7 0.037 0.280 0.231 158.976 o
-3 7 8 0.631 0.056 0.183 239.856 o
-3 7 9 0.949 1.139 0.759 14.545 o
-3 7 10 0.791 1.222 0.908 10.247 o
-3 8 1 2.560 2.287 0.480 29.312 o
-3 8 2 4.325 3.743 0.640 14.712 o
-3 8 3 81.065 128.554 5.116 0.071 o
-3 8 4 11.374 14.206 1.261 2.746 o
-3 8 5 2.097 2.336 0.533 25.723 o
-3 8 6 0.215 -0.064 0.264 121.681 o
-3 8 7 0.454 0.199 0.213 182.827 o
-3 8 8 0.396 0.188 0.149 364.932 o
-3 8 9 0.011 -0.132 0.347 71.032 o
-3 9 1 0.275 0.227 0.163 313.252 o
-3 9 2 0.426 0.329 0.124 502.547 o
-3 9 3 3.458 2.213 0.503 24.686 o
-3 9 4 3.007 3.378 0.686 15.024 o
-3 9 5 0.057 -0.134 0.188 241.035 o
-3 9 6 0.001 0.177 0.091 1034.850 o
-3 9 7 0.140 0.448 0.381 58.542 o
-3 9 8 0.919 2.098 0.683 17.675 o
-3 9 9 0.008 0.957 0.627 21.635 o
-3 10 1 0.187 0.347 0.230 160.218 o
-3 10 2 0.014 0.115 0.156 352.508 o
-3 10 3 4.557 5.698 1.105 5.825 o
-3 10 4 0.662 0.857 0.382 56.584 o
-3 10 5 0.283 0.058 0.300 94.257 o
-3 10 6 0.187 -0.236 0.400 53.381 o
-3 10 7 0.272 -0.640 0.430 46.121 o
-3 11 1 0.023 0.369 0.263 123.125 o
-3 11 2 0.063 0.077 0.376 60.348 o
-3 11 3 0.140 0.617 0.330 77.675 o
-3 11 4 0.132 0.475 0.314 86.241 o
-3 11 5 0.189 -0.725 0.570 26.303 o
-3 11 6 0.001 -0.298 0.572 26.126 o
-2 -10 1 0.032 0.033 0.479 37.246 o
-2 -10 2 0.742 0.264 0.297 93.099 o
-2 -10 3 0.714 1.057 0.941 9.567 o
-2 -9 1 0.906 0.536 0.404 50.303 o
-2 -9 2 0.011 0.095 0.355 67.831 o
-2 -9 3 0.001 0.077 0.248 139.208 o
-2 -9 4 0.844 1.585 0.957 9.193 o
-2 -9 5 0.642 0.710 1.024 8.115 o
-2 -8 1 0.209 -0.094 0.207 198.877 o
-2 -8 2 5.122 5.007 1.184 5.139 o
-2 -8 3 12.607 15.019 2.082 1.392 o
-2 -8 4 0.003 -0.393 0.412 50.355 o
-2 -8 5 0.642 1.062 0.650 19.934 o
-2 -8 6 0.072 0.149 0.149 385.062 o
-2 -7 1 15.573 12.309 1.054 2.661 o
-2 -7 2 13.949 17.337 2.048 1.320 o
-2 -7 3 3.306 3.276 0.934 8.708 o
-2 -7 4 0.602 0.605 0.246 133.158 o
-2 -7 5 3.146 2.441 0.837 10.878 o
-2 -7 6 0.217 0.824 0.470 38.313 o
-2 -7 7 1.019 1.579 0.769 14.077 o
-2 -6 1 10.807 8.349 0.751 5.469 o
-2 -6 2 8.939 8.104 1.354 3.304 o
-2 -6 3 8.538 8.806 1.459 2.973 o
-2 -6 4 1.054 0.907 0.466 37.490 o
-2 -6 5 0.734 0.763 0.420 46.879 o
-2 -6 6 1.136 0.387 0.451 40.352 o
-2 -6 7 0.040 -0.556 0.491 35.398 o
-2 -6 8 0.006 0.217 0.347 70.998 o
-2 -5 2 0.680 0.407 0.123 458.354 o
-2 -5 3 6.459 5.669 0.671 10.242 o
-2 -5 4 25.009 28.802 1.661 0.884 o
-2 -5 5 17.473 18.868 2.107 1.115 o
-2 -5 6 5.650 4.751 1.121 5.536 o
-2 -5 7 0.396 0.374 0.206 193.618 o
-2 -5 8 0.050 -0.947 0.706 17.148 o
-2 -5 9 0.044 0.322 0.539 29.322 o
-2 -4 1 74.385 114.564 4.496 0.088 o
-2 -4 2 0.003 -0.006 0.058 2501.090 o
-2 -4 3 1.775 0.928 0.229 114.208 o
-2 -4 4 26.902 26.386 1.506 0.907 o
-2 -4 5 39.739 43.809 3.238 0.312 o
-2 -4 6 4.024 4.099 0.956 7.915 o
-2 -4 7 1.845 2.131 0.773 13.448 o
-2 -4 8 0.038 0.240 0.337 74.907 o
-2 -4 9 0.387 -0.077 0.429 46.172 o
-2 -3 1 783.261 1078.840 14.602 0.001 o
-2 -3 2 36.202 23.369 6.908 0.147 o
-2 -3 3 32.471 29.815 1.447 0.707 o
-2 -3 4 1.010 0.708 0.199 178.516 o
-2 -3 5 42.197 38.100 1.798 0.429 o
-2 -3 6 13.460 11.946 1.005 3.175 o
-2 -3 7 1.800 1.796 0.643 19.124 o
-2 -3 8 2.232 3.642 1.042 7.363 o
-2 -3 9 0.363 0.948 0.501 33.617 o
-2 -3 10 0.424 0.066 0.242 143.708 o
-2 -2 1 85.476 84.908 1.422 0.114 o
-2 -2 2 24.833 24.513 1.583 0.990 o
-2 -2 3 121.420 141.963 3.388 0.049 o
-2 -2 4 2.926 3.417 0.470 26.947 o
-2 -2 5 119.789 123.850 4.672 0.051 o
-2 -2 6 0.278 -0.099 0.342 72.612 o
-2 -2 7 0.156 -0.005 0.110 696.942 o
-2 -2 8 0.076 -0.122 0.301 93.995 o
-2 -2 9 1.381 2.115 0.949 9.205 o
-2 -2 10 0.116 0.260 0.347 70.874 o
-2 -2 11 0.000 0.132 0.396 54.377 o
-2 -1 1 984.672 954.320 22.054 0.001 o
-2 -1 2 176.532 193.447 3.487 0.025 o
-2 -1 3 0.159 0.096 0.199 214.257 o
-2 -1 5 56.968 53.725 2.105 0.239 o
-2 -1 6 77.371 91.685 3.832 0.104 o
-2 -1 7 2.458 1.710 0.396 41.535 o
-2 -1 8 4.988 7.058 0.870 7.912 o
-2 -1 9 4.126 8.237 1.557 3.132 o
-2 -1 10 1.552 2.813 1.156 6.212 o
-2 -1 11 0.072 0.017 0.363 64.708 o
-2 0 1 442.995 408.995 4.646 0.005 o
-2 0 2 60.569 55.582 1.306 0.235 o
-2 0 3 54.803 56.434 1.369 0.263 o
-2 0 4 63.859 69.079 1.963 0.182 o
-2 0 5 14.149 9.167 1.418 2.392 o
-2 0 6 29.520 32.815 1.708 0.694 o
-2 0 7 1.416 0.437 0.230 131.806 o
-2 0 8 0.578 0.494 0.136 395.298 o
-2 0 9 0.259 0.153 0.079 1267.240 o
-2 0 10 0.479 0.700 0.494 34.483 o
-2 0 11 0.178 0.330 0.363 64.466 o
-2 1 1 866.409 812.142 8.610 0.001 o
-2 1 3 267.268 272.486 7.558 0.011 o
-2 1 4 24.279 24.620 1.103 1.191 o
-2 1 5 1.147 0.955 0.193 173.890 o
-2 1 6 12.866 10.528 1.661 2.023 o
-2 1 7 16.641 19.453 1.389 1.701 o
-2 1 8 8.895 11.392 1.139 3.804 o
-2 1 9 0.012 -0.050 0.171 291.547 o
-2 1 10 0.876 1.723 0.607 22.345 o
-2 1 11 0.443 0.891 0.611 22.669 o
-2 2 1 8.706 12.490 0.832 5.062 o
-2 2 2 592.412 682.355 11.402 0.002 o
-2 2 3 56.688 52.624 2.540 0.230 o
-2 2 4 56.716 63.192 1.688 0.228 o
-2 2 5 9.137 6.263 0.514 9.153 o
-2 2 6 24.828 21.469 1.690 1.007 o
-2 2 7 20.132 23.960 2.997 0.629 o
-2 2 8 5.598 7.182 0.904 7.158 o
-2 2 9 1.111 1.388 0.457 38.154 o
-2 2 10 0.024 0.017 0.315 85.866 o
-2 2 11 0.082 -0.363 0.644 20.594 o
-2 3 2 24.352 24.726 1.085 1.191 o
-2 3 3 36.893 39.934 1.261 0.535 o
-2 3 4 100.187 104.859 2.411 0.078 o
-2 3 5 12.519 10.289 1.300 2.774 o
-2 3 6 0.462 0.345 0.154 332.918 o
-2 3 7 0.015 -0.158 0.137 454.838 o
-2 3 8 13.573 16.143 1.412 2.095 o
-2 3 9 4.521 6.656 0.935 7.439 o
-2 3 10 1.364 2.344 0.635 19.767 o
-2 3 11 0.012 0.545 0.594 24.146 o
-2 4 1 258.456 377.898 5.880 0.009 o
-2 4 2 1793.710 2517.460 52.495 0.000 o
-2 4 3 91.054 126.165 8.683 0.047 o
-2 4 4 19.682 21.558 1.009 1.660 o
-2 4 5 13.498 14.642 0.914 3.092 o
-2 4 6 9.176 5.909 0.611 8.307 o
-2 4 7 1.821 1.239 0.290 77.414 o
-2 4 8 2.318 1.537 0.376 46.502 o
-2 4 9 1.061 1.624 0.463 37.186 o
-2 4 10 0.014 0.136 0.259 127.192 o
-2 4 11 0.215 0.512 0.446 42.758 o
-2 5 1 64.397 81.861 2.371 0.155 o
-2 5 2 40.143 51.117 1.858 0.377 o
-2 5 3 1.982 2.691 0.332 53.560 o
-2 5 4 0.027 0.027 0.098 880.471 o
-2 5 5 0.124 -0.031 0.104 787.562 o
-2 5 6 1.044 0.662 0.112 405.744 o
-2 5 7 0.913 0.469 0.211 169.452 o
-2 5 8 7.155 7.191 0.846 6.945 o
-2 5 9 1.402 1.150 0.322 70.481 o
-2 5 10 0.991 1.507 0.594 23.279 o
-2 5 11 0.012 0.017 0.594 24.171 o
-2 6 1 1.718 1.970 0.364 51.720 o
-2 6 2 304.457 436.791 7.338 0.007 o
-2 6 3 110.031 167.654 4.780 0.045 o
-2 6 4 20.778 23.525 1.398 1.282 o
-2 6 5 0.612 0.138 0.124 491.340 o
-2 6 6 0.289 -0.045 0.107 717.999 o
-2 6 7 0.248 -0.037 0.180 260.114 o
-2 6 8 0.703 0.386 0.196 203.726 o
-2 6 9 1.233 1.517 0.425 43.063 o
-2 6 10 0.718 0.033 0.165 287.903 o
-2 6 11 0.004 0.413 0.792 13.592 o
-2 7 1 0.429 -0.074 0.122 547.775 o
-2 7 2 2.701 2.435 0.486 28.012 o
-2 7 3 2.999 4.545 0.668 14.973 o
-2 7 4 0.019 0.187 0.211 192.387 o
-2 7 5 0.240 0.453 0.217 177.542 o
-2 7 6 4.372 3.892 0.625 15.044 o
-2 7 7 6.986 7.220 0.934 6.225 o
-2 7 8 0.007 0.163 0.148 389.173 o
-2 7 9 0.005 0.244 0.458 40.637 o
-2 7 10 0.242 0.149 0.248 138.220 o
-2 7 11 0.118 0.858 0.891 10.725 o
-2 8 1 0.346 0.023 0.241 145.965 o
-2 8 2 7.911 7.072 0.876 6.321 o
-2 8 3 1.967 2.697 0.582 22.009 o
-2 8 4 1.666 0.782 0.315 72.281 o
-2 8 5 0.180 -0.181 0.140 429.643 o
-2 8 6 1.958 1.903 0.478 32.043 o
-2 8 7 1.117 0.301 0.392 53.060 o
-2 8 8 0.079 -0.142 0.231 159.619 o
-2 8 9 0.001 0.018 0.347 70.734 o
-2 8 10 0.413 0.446 0.594 24.048 o
-2 9 1 0.029 0.144 0.214 185.500 o
-2 9 2 0.393 0.201 0.132 460.691 o
-2 9 3 0.065 -0.224 0.218 178.872 o
-2 9 4 2.141 1.400 0.374 48.569 o
-2 9 5 0.275 0.079 0.179 262.071 o
-2 9 6 0.000 -0.300 0.146 400.235 o
-2 9 7 0.324 0.148 0.214 183.541 o
-2 9 8 0.592 0.887 0.364 62.072 o
-2 9 9 0.775 1.209 0.561 26.437 o
-2 10 1 1.598 1.278 0.517 29.531 o
-2 10 2 1.314 1.084 0.370 56.008 o
-2 10 3 0.654 0.012 0.293 97.572 o
-2 10 4 0.022 0.105 0.379 59.466 o
-2 10 5 0.414 -0.164 0.182 251.703 o
-2 10 6 0.006 -0.377 0.186 246.154 o
-2 10 7 0.037 0.114 0.537 29.648 o
-2 10 8 0.005 0.534 0.360 65.585 o
-2 11 1 0.002 0.245 0.368 62.970 o
-2 11 2 0.491 0.569 0.465 38.969 o
-2 11 3 0.133 -0.420 0.447 42.789 o
-2 11 4 0.557 0.723 0.561 26.779 o
-2 11 5 0.173 0.592 1.007 8.410 o
-2 11 6 0.151 -0.249 0.606 23.231 o
-2 11 7 0.013 0.451 0.496 34.705 o
-1 -11 1 0.189 0.033 0.908 10.353 o
-1 -10 1 0.944 0.677 0.677 18.342 o
-1 -10 2 2.867 1.832 1.205 5.632 o
-1 -10 3 0.677 0.050 0.611 22.748 o
-1 -10 4 0.181 0.644 0.875 11.135 o
-1 -9 1 12.892 19.324 2.281 1.143 o
-1 -9 2 0.549 0.330 0.396 53.610 o
-1 -9 3 0.017 0.396 0.594 24.157 o
-1 -9 4 0.566 0.099 0.413 49.629 o
-1 -9 5 0.009 -0.743 1.337 4.774 o
-1 -8 1 2.283 2.063 0.287 65.150 o
-1 -8 2 0.142 0.266 0.361 65.359 o
-1 -8 3 1.407 1.127 0.618 21.363 o
-1 -8 4 0.055 -0.055 0.335 76.068 o
-1 -8 5 0.001 -0.154 0.396 54.384 o
-1 -8 6 0.033 0.215 0.264 122.210 o
-1 -8 7 0.101 -1.123 1.139 6.579 o
-1 -7 1 14.389 17.559 0.907 2.661 o
-1 -7 2 2.584 2.604 0.400 37.590 o
-1 -7 3 2.294 3.541 1.131 6.313 o
-1 -7 4 3.955 2.502 0.727 13.141 o
-1 -7 5 2.450 1.853 0.654 17.826 o
-1 -7 6 0.104 0.077 0.264 122.205 o
-1 -7 7 0.190 -0.156 0.277 110.757 o
-1 -7 8 0.426 1.519 1.024 8.101 o
-1 -6 1 23.051 32.090 1.834 0.841 o
-1 -6 2 14.681 11.163 1.174 2.665 o
-1 -6 3 20.669 25.648 3.153 0.572 o
-1 -6 4 17.907 20.974 2.185 1.022 o
-1 -6 5 0.006 -0.227 0.305 91.627 o
-1 -6 6 0.375 0.346 0.125 505.318 o
-1 -6 7 1.443 1.411 0.575 24.316 o
-1 -6 8 0.325 0.583 0.413 49.628 o
-1 -5 1 91.433 122.984 2.667 0.077 o
-1 -5 2 1.405 1.199 0.228 122.469 o
-1 -5 3 14.780 11.725 0.983 2.985 o
-1 -5 4 25.302 26.906 3.434 0.462 o
-1 -5 5 3.071 1.488 0.547 23.429 o
-1 -5 6 0.001 -0.230 0.168 301.857 o
-1 -5 7 1.588 2.028 0.694 16.687 o
-1 -5 8 3.047 4.735 1.134 6.024 o
-1 -5 9 0.476 0.289 0.206 192.737 o
-1 -4 1 192.563 279.099 4.633 0.017 o
-1 -4 2 41.646 58.006 2.230 0.314 o
-1 -4 3 0.073 -0.030 0.075 1527.930 o
-1 -4 4 37.430 38.064 1.781 0.492 o
-1 -4 5 1.137 0.656 0.132 316.401 o
-1 -4 6 6.203 6.533 1.156 4.923 o
-1 -4 7 2.515 3.092 0.867 10.355 o
-1 -4 8 3.872 6.971 1.436 3.707 o
-1 -4 9 0.015 -0.043 0.170 295.840 o
-1 -4 10 0.009 -0.100 0.520 31.570 o
-1 -3 1 123.535 185.317 4.937 0.037 o
-1 -3 2 85.241 84.100 5.151 0.087 o
-1 -3 3 32.258 29.845 1.233 0.748 o
-1 -3 4 92.487 92.764 2.613 0.092 o
-1 -3 5 34.215 33.241 1.542 0.616 o
-1 -3 6 11.261 9.835 1.344 2.876 o
-1 -3 7 0.004 -0.165 0.162 323.607 o
-1 -3 8 13.627 24.426 2.504 0.924 o
-1 -3 9 4.345 7.325 1.478 3.457 o
-1 -3 10 0.074 -0.303 0.480 37.059 o
-1 -2 2 27.314 27.242 1.417 0.903 o
-1 -2 3 3.551 2.327 0.299 45.404 o
-1 -2 4 0.857 0.641 0.163 261.478 o
-1 -2 5 114.739 124.028 3.193 0.057 o
-1 -2 6 0.746 0.045 0.195 210.030 o
-1 -2 7 0.012 -0.525 0.262 124.504 o
-1 -2 8 0.326 0.652 0.413 49.434 o
-1 -2 9 0.014 -0.005 0.218 179.176 o
-1 -2 10 0.244 0.978 0.373 60.381 o
-1 -2 11 0.176 0.132 0.660 19.567 o
-1 -1 1 256.990 241.036 4.754 0.013 o
-1 -1 3 215.230 203.422 5.311 0.018 o
-1 -1 4 30.847 24.080 6.402 0.174 o
-1 -1 5 1.186 1.083 0.263 103.762 o
-1 -1 6 18.563 16.592 1.090 1.943 o
-1 -1 7 85.435 106.169 3.814 0.086 o
-1 -1 8 0.188 0.084 0.120 579.929 o
-1 -1 9 4.516 6.728 1.282 4.450 o
-1 -1 10 0.010 0.050 0.439 44.233 o
-1 -1 11 0.779 1.321 0.924 9.882 o
-1 0 1 2084.950 1805.670 75.000 0.000 o
-1 0 2 351.393 299.488 4.409 0.008 o
-1 0 3 10.293 9.527 0.534 6.605 o
-1 0 4 15.482 13.819 0.669 3.190 o
-1 0 5 158.644 160.998 3.181 0.032 o
-1 0 6 9.603 8.357 0.709 6.341 o
-1 0 7 12.139 12.590 1.025 3.332 o
-1 0 8 0.248 0.422 0.266 118.805 o
-1 0 9 0.339 0.407 0.113 606.611 o
-1 0 10 0.057 0.454 0.369 62.672 o
-1 0 11 0.070 -0.594 0.446 42.965 o
-1 0 12 0.026 -0.215 0.611 22.882 o
-1 1 1 63.584 58.557 2.811 0.185 o
-1 1 2 101.922 97.793 2.523 0.079 o
-1 1 3 273.533 254.804 4.633 0.012 o
-1 1 4 316.401 334.380 9.572 0.008 o
-1 1 5 1.918 1.175 0.199 126.314 o
-1 1 6 23.966 24.681 1.167 1.182 o
-1 1 7 100.988 132.430 3.160 0.064 o
-1 1 8 20.319 25.112 1.594 1.162 o
-1 1 9 0.706 0.524 0.244 133.879 o
-1 1 10 0.954 2.112 0.532 28.321 o
-1 1 11 0.073 0.462 0.380 59.047 o
-1 1 12 0.538 0.809 0.644 20.401 o
-1 2 1 11906.900 15725.400 406.649 0.000 o
-1 2 2 322.338 427.488 7.516 0.006 o
-1 2 3 17.374 17.297 0.964 2.168 o
-1 2 4 42.389 49.628 1.784 0.367 o
-1 2 5 168.796 182.409 10.091 0.021 o
-1 2 6 0.543 0.304 0.079 1026.840 o
-1 2 7 0.985 1.297 0.239 123.789 o
-1 2 8 0.281 0.152 0.098 844.054 o
-1 2 9 0.059 0.230 0.181 260.692 o
-1 2 10 0.005 -0.019 0.249 137.289 o
-1 2 11 0.036 -0.231 0.165 313.188 o
-1 2 12 0.546 0.561 0.594 23.965 o
-1 3 1 507.370 734.942 17.588 0.002 o
-1 3 2 33.239 31.379 0.873 0.749 o
-1 3 3 148.936 160.955 3.739 0.034 o
-1 3 4 43.014 44.966 1.640 0.392 o
-1 3 5 1.391 1.879 0.297 75.954 o
-1 3 6 53.491 59.991 2.237 0.237 o
-1 3 7 46.845 66.617 2.316 0.252 o
-1 3 8 10.789 12.215 1.303 2.879 o
-1 3 9 0.099 0.127 0.224 169.694 o
-1 3 10 0.004 -0.092 0.187 245.139 o
-1 3 11 0.490 1.419 0.642 20.379 o
-1 3 12 0.000 -0.033 0.677 18.635 o
-1 4 1 1426.390 2119.650 40.383 0.000 o
-1 4 2 189.073 292.451 6.920 0.016 o
-1 4 3 185.206 247.812 5.228 0.019 o
-1 4 4 11.381 9.648 0.665 5.305 o
-1 4 5 25.804 21.126 1.573 1.022 o
-1 4 6 2.768 2.418 0.379 39.972 o
-1 4 7 1.827 1.608 0.308 67.987 o
-1 4 8 2.480 2.353 0.412 37.209 o
-1 4 9 3.791 3.900 0.562 18.452 o
-1 4 10 0.808 0.916 0.396 52.044 o
-1 4 11 0.154 0.102 0.231 159.264 o
-1 5 1 27.282 39.370 1.263 0.749 o
-1 5 2 14.976 23.329 0.986 2.068 o
-1 5 3 51.160 59.087 1.593 0.271 o
-1 5 4 22.135 25.928 1.037 1.303 o
-1 5 5 4.378 3.618 0.473 21.676 o
-1 5 6 94.786 114.929 3.884 0.072 o
-1 5 7 0.252 0.022 0.112 667.913 o
-1 5 8 1.111 0.719 0.240 126.605 o
-1 5 9 0.058 -0.128 0.111 698.291 o
-1 5 10 2.259 3.028 0.655 17.341 o
-1 5 11 0.014 -0.171 0.321 82.617 o
-1 6 1 43.923 63.924 3.059 0.244 o
-1 6 2 12.421 9.970 0.672 4.749 o
-1 6 3 0.707 0.610 0.207 180.597 o
-1 6 4 0.466 0.222 0.290 99.494 o
-1 6 5 4.137 3.617 0.379 28.402 o
-1 6 6 2.432 1.713 0.319 57.026 o
-1 6 7 1.418 0.772 0.188 171.845 o
-1 6 8 0.462 0.324 0.133 438.816 o
-1 6 9 0.482 0.697 0.201 195.802 o
-1 6 10 1.928 2.971 0.608 20.240 o
-1 6 11 0.457 -0.231 0.116 597.682 o
-1 7 1 5.456 4.550 0.476 17.351 o
-1 7 2 1.752 1.517 0.326 63.687 o
-1 7 3 43.801 51.621 2.216 0.323 o
-1 7 4 3.421 2.480 0.378 35.640 o
-1 7 5 6.996 7.016 0.700 8.702 o
-1 7 6 3.746 2.403 0.411 30.783 o
-1 7 7 7.327 7.767 0.773 7.388 o
-1 7 8 2.903 2.718 0.492 26.435 o
-1 7 9 0.468 0.270 0.176 260.995 o
-1 7 10 2.114 1.731 0.650 18.466 o
-1 7 11 0.010 0.380 0.248 138.822 o
-1 8 1 2.201 2.388 0.450 33.670 o
-1 8 2 10.460 9.640 0.973 4.303 o
-1 8 3 1.297 1.021 0.226 130.153 o
-1 8 4 0.162 -0.016 0.191 234.186 o
-1 8 5 0.408 0.224 0.207 193.242 o
-1 8 6 0.690 0.364 0.175 250.478 o
-1 8 7 0.127 -0.061 0.206 200.087 o
-1 8 8 0.078 -0.090 0.527 30.689 o
-1 8 9 0.012 -0.358 0.425 47.203 o
-1 8 10 0.685 0.576 0.506 32.758 o
-1 8 11 1.141 1.255 0.677 18.086 o
-1 9 1 3.625 2.660 0.502 23.663 o
-1 9 2 8.126 7.208 0.925 5.821 o
-1 9 3 4.609 4.700 0.730 11.411 o
-1 9 4 1.537 1.434 0.418 43.258 o
-1 9 5 0.055 0.101 0.203 207.862 o
-1 9 6 0.217 0.583 0.286 103.145 o
-1 9 7 0.486 0.265 0.247 135.932 o
-1 9 8 0.238 0.073 0.198 215.696 o
-1 9 9 0.114 0.002 0.158 343.029 o
-1 9 10 0.862 2.493 1.139 6.481 o
-1 10 1 2.308 2.491 0.588 21.243 o
-1 10 2 8.047 9.292 1.364 3.314 o
-1 10 3 1.763 1.192 0.386 49.176 o
-1 10 4 0.727 0.734 0.348 67.358 o
-1 10 5 0.307 0.106 0.203 205.230 o
-1 10 6 1.144 0.624 0.277 98.832 o
-1 10 7 1.393 1.279 0.484 33.823 o
-1 10 8 0.397 0.130 0.464 39.471 o
-1 10 9 0.040 0.717 0.358 66.233 o
-1 11 1 0.257 0.049 0.203 205.335 o
-1 11 2 0.531 0.449 0.195 211.374 o
-1 11 3 0.176 -0.107 0.239 148.760 o
-1 11 4 0.394 -0.166 0.297 95.715 o
-1 11 5 0.636 0.068 0.512 32.350 o
-1 11 6 0.113 0.255 0.321 82.779 o
-1 11 7 0.789 -0.186 0.286 101.081 o
-1 11 8 0.082 -0.062 0.380 58.964 o
0 -11 1 0.946 1.528 0.821 12.428 o
0 -11 2 0.004 -0.017 0.528 30.591 o
0 -10 1 0.004 0.069 0.388 56.721 o
0 -10 2 0.094 1.090 0.941 9.622 o
0 -10 3 0.061 0.132 0.363 64.686 o
0 -10 4 0.108 1.354 1.007 8.396 o
0 -9 1 3.080 4.153 0.614 17.228 o
0 -9 2 1.667 1.825 0.864 11.011 o
0 -9 3 3.707 3.483 1.618 3.105 o
0 -9 4 0.854 1.156 0.957 9.220 o
0 -9 5 0.099 -0.297 0.842 12.043 o
0 -9 6 0.009 -0.495 0.528 30.591 o
0 -8 1 0.018 -0.205 0.251 135.806 o
0 -8 2 18.340 23.327 1.333 1.478 o
0 -8 3 14.619 16.792 2.077 1.280 o
0 -8 4 0.876 0.929 0.433 43.685 o
0 -8 5 0.035 0.809 0.710 16.913 o
0 -8 6 0.251 -0.479 0.974 8.996 o
0 -8 7 0.994 0.099 0.941 9.589 o
0 -7 1 0.144 0.041 0.082 1258.230 o
0 -7 2 0.052 -0.044 0.187 243.736 o
0 -7 3 26.939 37.019 1.969 0.654 o
0 -7 4 5.936 4.425 1.015 6.444 o
0 -7 5 1.467 1.266 0.580 24.006 o
0 -7 6 0.503 -0.155 0.143 395.540 o
0 -7 7 1.328 1.007 0.924 9.818 o
0 -7 8 1.402 2.097 1.288 5.067 o
0 -6 1 91.263 142.819 5.234 0.059 o
0 -6 2 1.179 0.856 0.184 188.113 o
0 -6 3 47.045 63.868 3.422 0.216 o
0 -6 4 2.872 1.884 0.592 20.551 o
0 -6 5 1.414 1.131 0.477 34.867 o
0 -6 6 0.013 -0.299 0.408 51.231 o
0 -6 7 5.814 8.786 1.594 2.841 o
0 -6 8 0.439 0.845 0.710 16.832 o
0 -6 9 0.127 -0.380 0.528 30.583 o
0 -5 3 68.130 72.587 2.262 0.159 o
0 -5 4 71.682 75.427 3.607 0.129 o
0 -5 5 2.471 1.878 0.602 20.638 o
0 -5 6 0.932 0.528 0.331 73.515 o
0 -5 7 3.551 4.149 0.993 7.583 o
0 -5 8 7.869 12.634 1.883 1.922 o
0 -5 9 0.049 0.140 0.495 34.797 o
0 -4 1 118.058 177.939 8.847 0.032 o
0 -4 2 0.099 0.223 0.095 929.766 o
0 -4 3 37.723 38.105 1.929 0.473 o
0 -4 4 158.914 176.027 5.634 0.028 o
0 -4 5 11.746 12.818 1.479 2.337 o
0 -4 6 5.808 4.709 0.946 7.173 o
0 -4 7 0.052 -0.116 0.128 519.663 o
0 -4 8 2.201 2.953 0.843 11.068 o
0 -4 9 0.005 0.062 0.206 200.455 o
0 -4 10 0.038 0.408 0.618 22.312 o
0 -3 1 299.247 420.509 22.589 0.005 o
0 -3 2 15.604 23.007 1.655 1.422 o
0 -3 3 13.587 15.970 0.993 2.795 o
0 -3 4 41.833 37.143 1.568 0.457 o
0 -3 5 2.746 1.267 0.424 36.979 o
0 -3 6 93.049 110.898 4.749 0.071 o
0 -3 7 18.990 20.700 2.075 1.050 o
0 -3 8 4.021 5.950 1.808 2.450 o
0 -3 9 1.164 0.601 0.317 77.612 o
0 -3 10 0.307 -0.103 0.341 73.173 o
0 -3 11 0.202 -0.066 0.347 70.926 o
0 -2 1 435.161 532.038 11.995 0.004 o
0 -2 2 89.163 78.216 3.669 0.099 o
0 -2 3 317.675 325.946 7.251 0.008 o
0 -2 4 145.657 131.133 2.532 0.042 o
0 -2 5 112.011 124.178 2.893 0.060 o
0 -2 6 1.383 0.789 0.187 173.604 o
0 -2 7 3.381 2.680 0.680 15.188 o
0 -2 8 0.752 0.173 0.140 374.164 o
0 -2 9 0.274 0.516 0.413 49.752 o
0 -2 10 0.204 -0.121 0.227 164.744 o
0 -2 11 0.001 -0.231 0.644 20.595 o
0 -1 1 32.372 27.203 0.714 0.862 o
0 -1 4 172.070 161.251 4.079 0.028 o
0 -1 5 53.833 45.658 2.083 0.280 o
0 -1 6 65.564 64.194 1.747 0.188 o
0 -1 7 77.022 92.490 3.391 0.108 o
0 -1 8 6.812 7.439 0.998 5.737 o
0 -1 9 0.004 -0.091 0.303 93.091 o
0 -1 10 0.018 0.301 0.369 62.491 o
0 -1 11 0.216 0.215 0.396 54.224 o
0 -1 12 0.499 1.601 1.090 7.146 o
0 0 1 1492.710 1091.420 24.020 0.000 o
0 0 2 252.831 232.229 11.624 0.012 o
0 0 3 0.483 0.292 0.075 1156.720 o
0 0 4 135.010 125.511 7.049 0.038 o
0 0 5 51.816 49.867 1.540 0.299 o
0 0 6 17.377 18.174 1.052 2.024 o
0 0 7 35.081 44.548 1.570 0.500 o
0 0 8 0.392 0.452 0.243 140.429 o
0 0 9 0.413 0.377 0.187 232.690 o
0 0 10 0.432 0.455 0.404 51.578 o
0 0 11 1.306 1.321 0.858 11.321 o
0 0 12 0.212 -1.106 1.007 8.417 o
0 1 0 33.971 68.148 2.815 0.300 o
0 1 1 197.101 245.893 8.768 0.016 o
0 1 2 835.305 855.836 12.032 0.001 o
0 1 3 74.316 70.228 4.454 0.117 o
0 1 4 69.608 65.581 4.316 0.131 o
0 1 5 116.341 104.223 2.698 0.064 o
0 1 6 14.826 14.220 1.006 2.709 o
0 1 7 28.741 34.426 1.457 0.742 o
0 1 8 5.014 4.002 0.490 18.621 o
0 1 9 5.400 5.416 0.773 9.598 o
0 1 10 0.523 0.813 0.353 66.420 o
0 1 11 0.798 0.413 0.396 52.874 o
0 1 12 0.211 1.387 0.924 9.947 o
0 2 1 1044.510 1509.720 42.585 0.001 o
0 2 2 31.372 34.216 0.885 0.760 o
0 2 3 78.245 80.846 4.142 0.107 o
0 2 5 119.451 134.481 8.468 0.038 o
0 2 6 0.638 0.326 0.092 749.419 o
0 2 7 49.670 65.584 2.682 0.228 o
0 2 8 13.737 16.267 1.015 2.706 o
0 2 9 0.040 0.272 0.187 242.183 o
0 2 10 0.001 0.041 0.148 391.413 o
0 2 11 0.293 0.578 0.528 30.427 o
0 2 12 0.283 -0.083 0.479 37.190 o
0 3 0 138.863 194.234 12.709 0.021 o
0 3 1 385.027 588.526 19.952 0.003 o
0 3 3 1.301 1.083 0.184 174.840 o
0 3 4 0.002 -0.053 0.083 1232.740 o
0 3 5 236.284 276.988 13.861 0.010 o
0 3 6 60.848 77.588 4.542 0.132 o
0 3 7 0.192 0.150 0.105 745.901 o
0 3 8 7.449 8.587 0.728 7.472 o
0 3 9 14.690 18.367 1.401 1.899 o
0 3 10 0.820 0.374 0.243 134.821 o
0 3 11 0.449 0.446 0.322 80.816 o
0 3 12 0.000 -0.842 0.891 10.742 o
0 4 0 81.864 127.405 7.560 0.056 o
0 4 3 21.400 19.764 0.879 1.667 o
0 4 4 167.067 209.379 3.994 0.025 o
0 4 5 4.325 2.833 0.367 30.335 o
0 4 6 0.654 0.848 0.197 193.837 o
0 4 7 0.360 -0.165 0.119 577.264 o
0 4 8 2.145 1.505 0.273 76.362 o
0 4 9 0.631 0.621 0.194 205.825 o
0 4 10 3.196 4.009 0.759 12.256 o
0 4 11 0.164 0.299 0.287 103.335 o
0 4 12 0.014 -0.050 0.396 54.384 o
0 5 0 1.512 1.669 0.240 104.240 o
0 5 1 38.552 65.361 3.036 0.269 o
0 5 2 61.468 76.764 3.396 0.153 o
0 5 3 0.052 -0.003 0.070 1726.780 o
0 5 4 23.387 26.969 1.175 1.150 o
0 5 5 4.788 5.913 0.562 14.648 o
0 5 6 50.908 65.632 2.992 0.213 o
0 5 7 36.498 41.689 2.921 0.369 o
0 5 8 0.032 -0.159 0.174 282.980 o
0 5 9 8.244 11.315 0.925 4.979 o
0 5 10 0.299 0.108 0.281 107.366 o
0 5 11 0.248 0.587 0.403 52.192 o
0 6 0 34.415 57.463 3.371 0.294 o
0 6 2 14.462 17.665 0.792 2.809 o
0 6 3 15.124 17.130 0.964 2.494 o
0 6 4 1.193 0.580 0.201 170.648 o
0 6 5 2.258 1.410 0.265 78.210 o
0 6 6 3.792 3.522 0.479 23.292 o
0 6 7 0.557 0.230 0.139 402.307 o
0 6 8 0.692 0.386 0.160 292.542 o
0 6 9 0.019 0.030 0.226 166.588 o
0 6 10 5.241 8.068 1.019 6.012 o
0 6 11 0.350 0.508 0.322 80.836 o
0 7 0 3.863 3.035 0.365 32.569 o
0 7 1 39.885 53.615 2.709 0.315 o
0 7 2 0.018 -0.020 0.082 1262.770 o
0 7 3 8.196 7.966 0.593 8.443 o
0 7 4 12.016 10.186 0.693 4.792 o
0 7 5 10.935 11.036 0.899 4.245 o
0 7 6 0.488 0.008 0.117 576.793 o
0 7 7 3.353 2.820 0.459 27.410 o
0 7 8 0.001 -0.315 0.205 204.061 o
0 7 9 2.537 3.301 0.649 17.111 o
0 7 10 0.108 0.196 0.276 111.820 o
0 7 11 0.262 0.908 0.743 15.406 o
0 8 0 16.908 22.798 1.887 1.199 o
0 8 1 15.990 21.435 1.258 1.796 o
0 8 2 6.286 6.270 0.612 11.092 o
0 8 3 1.227 0.912 0.206 155.418 o
0 8 4 9.012 6.797 0.748 6.866 o
0 8 5 0.748 0.413 0.094 659.029 o
0 8 6 18.582 20.568 1.191 1.667 o
0 8 7 4.674 4.428 0.630 14.054 o
0 8 8 0.006 -0.125 0.156 351.295 o
0 8 9 0.265 -0.047 0.268 118.643 o
0 8 10 5.728 6.666 1.023 6.045 o
0 8 11 0.561 0.083 0.512 32.397 o
0 9 0 0.586 -0.056 0.617 22.332 o
0 9 1 0.344 0.154 0.176 267.803 o
0 9 2 0.027 0.200 0.258 128.265 o
0 9 3 0.458 0.093 0.133 450.794 o
0 9 4 9.349 8.943 1.184 3.792 o
0 9 5 0.145 -0.156 0.103 800.713 o
0 9 6 2.758 2.026 0.605 19.908 o
0 9 7 1.350 0.644 0.331 69.899 o
0 9 8 0.144 -0.297 0.217 180.354 o
0 9 9 0.048 -0.002 0.406 51.807 o
0 9 10 0.252 0.504 0.452 41.592 o
0 9 11 0.281 -0.297 0.710 16.930 o
0 10 0 0.032 -0.527 0.355 67.829 o
0 10 1 0.091 -0.458 0.336 75.798 o
0 10 2 1.595 0.766 0.249 107.641 o
0 10 3 0.600 0.584 0.114 513.606 o
0 10 4 0.693 0.264 0.224 160.055 o
0 10 5 0.213 0.197 0.401 53.066 o
0 10 6 2.969 2.908 0.743 13.355 o
0 10 7 0.736 0.668 0.457 39.842 o
0 10 8 0.420 0.456 0.204 196.789 o
0 10 9 0.288 0.772 0.340 72.772 o
0 10 10 0.762 1.799 1.156 6.335 o
0 11 0 2.148 1.803 0.959 8.891 o
0 11 1 0.495 0.050 0.528 30.460 o
0 11 2 0.169 0.564 0.215 181.875 o
0 11 3 0.138 0.229 0.421 48.097 o
0 11 4 3.038 3.209 0.980 8.087 o
0 11 5 0.947 -0.187 0.495 34.250 o
0 11 6 1.914 1.815 0.654 18.428 o
0 11 7 1.015 1.871 0.655 19.141 o
0 11 8 0.089 -0.057 0.340 73.713 o
0 12 5 0.012 0.274 0.710 16.938 o
0 12 6 0.434 -0.081 0.479 37.112 o
1 -11 0 0.077 -0.512 1.090 7.191 o
1 -11 1 0.584 0.032 0.406 51.250 o
1 -11 2 0.318 0.455 0.222 168.594 o
1 -10 0 0.046 -0.065 0.401 53.204 o
1 -10 1 1.659 2.972 1.667 3.023 o
1 -10 2 6.102 7.395 1.874 2.168 o
1 -10 3 0.000 -0.096 0.546 28.624 o
1 -10 4 0.308 -0.363 0.561 27.062 o
1 -9 0 1.033 0.595 0.339 69.652 o
1 -9 1 0.121 0.003 0.137 451.302 o
1 -9 2 3.343 4.211 0.791 11.276 o
1 -9 3 5.987 5.452 1.535 3.169 o
1 -9 4 0.002 0.545 0.726 16.170 o
1 -9 5 0.821 0.116 0.215 172.502 o
1 -9 6 0.731 0.132 0.792 13.535 o
1 -8 0 10.828 13.393 1.573 2.224 o
1 -8 1 2.133 1.335 0.453 35.499 o
1 -8 2 13.349 19.188 1.505 1.854 o
1 -8 3 0.005 -0.331 0.248 138.995 o
1 -8 4 0.072 0.066 0.347 71.004 o
1 -8 5 0.082 -1.090 0.991 8.701 o
1 -8 6 1.207 1.634 1.139 6.489 o
1 -8 7 0.566 0.809 1.255 5.409 o
1 -7 0 3.552 4.072 0.409 27.869 o
1 -7 1 0.572 0.361 0.152 334.883 o
1 -7 2 4.878 4.680 0.584 14.919 o
1 -7 3 40.241 55.155 2.183 0.339 o
1 -7 4 13.985 15.531 1.608 1.821 o
1 -7 5 0.886 0.844 0.504 32.663 o
1 -7 6 2.209 2.476 1.354 4.528 o
1 -7 7 2.503 3.995 1.816 2.520 o
1 -7 8 0.155 -0.380 0.875 11.150 o
1 -6 0 0.038 0.131 0.106 760.571 o
1 -6 1 9.829 12.386 0.706 5.208 o
1 -6 2 3.146 3.102 0.447 28.661 o
1 -6 3 25.075 32.170 1.511 0.870 o
1 -6 4 13.059 13.630 0.922 3.277 o
1 -6 5 0.080 -0.063 0.169 298.752 o
1 -6 6 1.329 0.678 0.373 56.281 o
1 -6 7 0.510 1.148 0.966 9.102 o
1 -6 8 0.577 0.316 0.418 48.117 o
1 -6 9 0.006 -0.165 0.182 258.885 o
1 -5 0 79.671 112.954 3.669 0.089 o
1 -5 1 80.337 119.755 2.447 0.091 o
1 -5 2 0.036 -0.001 0.060 2356.410 o
1 -5 3 7.461 6.260 0.601 9.933 o
1 -5 4 25.296 25.614 1.181 1.088 o
1 -5 5 75.355 92.437 2.530 0.118 o
1 -5 6 10.148 10.630 1.506 2.564 o
1 -5 7 0.049 0.138 0.146 398.862 o
1 -5 8 0.399 -0.388 0.272 114.466 o
1 -5 9 1.282 2.314 0.886 10.530 o
1 -4 0 28.012 43.773 2.281 0.525 o
1 -4 1 42.763 45.979 1.407 0.403 o
1 -4 2 9.746 7.934 1.064 4.339 o
1 -4 3 9.774 9.082 0.998 4.475 o
1 -4 4 39.435 41.676 1.762 0.443 o
1 -4 5 11.293 12.872 0.741 4.386 o
1 -4 6 9.905 10.774 1.425 2.781 o
1 -4 7 1.761 1.049 0.454 37.226 o
1 -4 8 0.210 -0.104 0.251 135.331 o
1 -4 9 0.065 0.023 0.347 71.017 o
1 -4 10 0.550 0.804 0.545 28.380 o
1 -3 0 135.642 168.374 7.815 0.031 o
1 -3 1 115.339 138.525 5.868 0.046 o
1 -3 2 74.255 93.365 3.391 0.112 o
1 -3 3 15.221 11.721 0.805 3.255 o
1 -3 5 81.678 88.888 2.189 0.113 o
1 -3 6 24.456 24.567 1.934 0.877 o
1 -3 7 12.354 14.313 1.940 1.565 o
1 -3 8 1.627 2.142 0.700 16.326 o
1 -3 9 0.271 0.133 0.462 39.861 o
1 -3 10 0.425 0.430 0.669 19.020 o
1 -3 11 0.168 0.380 0.446 42.848 o
1 -2 0 2444.180 3104.710 72.773 0.000 o
1 -2 1 5.736 4.709 0.346 20.782 o
1 -2 2 261.933 262.499 6.888 0.012 o
1 -2 4 0.246 0.151 0.052 2712.740 o
1 -2 6 39.741 44.092 2.199 0.392 o
1 -2 7 13.460 12.950 1.808 1.696 o
1 -2 8 2.309 2.883 0.752 13.584 o
1 -2 9 0.274 0.359 0.215 181.744 o
1 -2 10 5.557 11.287 1.764 2.327 o
1 -2 11 0.770 1.502 0.957 9.209 o
1 -1 0 50.930 36.932 1.102 0.377 o
1 -1 1 257.619 268.460 5.249 0.012 o
1 -1 2 9.360 8.849 0.436 8.250 o
1 -1 3 69.082 60.608 1.677 0.183 o
1 -1 4 184.217 175.444 3.816 0.025 o
1 -1 5 97.933 101.234 2.858 0.080 o
1 -1 6 0.164 0.161 0.029 7627.330 o
1 -1 7 0.567 0.131 0.135 423.965 o
1 -1 8 1.904 0.778 0.373 52.578 o
1 -1 9 0.000 -0.222 0.318 84.300 o
1 -1 10 0.255 0.525 0.435 44.868 o
1 -1 11 0.000 0.578 0.627 21.673 o
1 -1 12 0.165 -0.281 0.264 122.152 o
1 0 0 1340.140 1142.720 5.249 0.001 o
1 0 1 569.539 443.851 7.807 0.003 o
1 0 2 175.672 125.942 3.267 0.032 o
1 0 3 7.357 4.423 0.305 17.084 o
1 0 4 1.198 0.915 0.153 240.256 o
1 0 6 12.404 10.363 0.616 4.867 o
1 0 7 86.175 115.061 2.645 0.086 o
1 0 8 0.620 0.408 0.159 300.274 o
1 0 9 4.170 6.696 1.182 5.177 o
1 0 10 1.404 2.378 0.702 16.343 o
1 0 11 1.594 3.203 1.453 3.960 o
1 0 12 0.632 1.601 1.222 5.686 o
1 1 0 101.808 94.584 3.204 0.078 o
1 1 1 59.078 41.613 2.006 0.264 o
1 1 2 772.825 758.803 12.268 0.001 o
1 1 3 146.847 129.185 2.645 0.042 o
1 1 4 1098.600 1166.270 35.051 0.001 o
1 1 5 37.757 37.840 1.454 0.521 o
1 1 6 34.990 32.661 1.286 0.639 o
1 1 7 0.568 0.286 0.217 172.526 o
1 1 8 8.951 6.025 0.512 9.505 o
1 1 9 2.309 1.168 0.338 56.345 o
1 1 10 0.207 0.294 0.275 112.037 o
1 1 11 0.113 -0.512 0.363 64.694 o
1 1 12 0.211 -0.132 0.627 21.683 o
1 2 0 235.065 306.224 11.767 0.011 o
1 2 1 109.574 111.739 2.019 0.068 o
1 2 2 462.668 454.775 11.837 0.004 o
1 2 3 147.688 141.237 2.453 0.039 o
1 2 4 209.743 210.054 3.467 0.019 o
1 2 5 0.062 0.205 0.083 1223.700 o
1 2 6 112.067 140.153 3.545 0.053 o
1 2 7 12.972 12.475 0.844 3.629 o
1 2 8 4.761 3.734 0.441 21.902 o
1 2 9 1.091 0.371 0.196 187.552 o
1 2 10 0.414 0.407 0.486 35.901 o
1 2 11 0.263 0.297 0.446 42.808 o
1 2 12 0.043 -0.165 0.429 46.337 o
1 2 13 0.363 0.116 0.693 17.729 o
1 3 0 32.143 47.668 3.648 0.314 o
1 3 1 288.049 366.945 7.389 0.008 o
1 3 2 285.891 348.037 6.845 0.009 o
1 3 4 1.847 1.355 0.201 123.840 o
1 3 5 25.160 27.694 1.059 1.083 o
1 3 6 123.471 144.967 6.408 0.040 o
1 3 7 22.496 27.851 1.953 0.879 o
1 3 8 7.990 6.827 0.601 9.087 o
1 3 9 0.244 0.477 0.154 346.200 o
1 3 10 0.012 0.006 0.146 400.025 o
1 3 11 0.002 -0.240 0.139 441.115 o
1 3 12 0.021 0.017 0.314 86.770 o
1 3 13 0.003 0.231 0.974 8.998 o
1 4 0 60.538 88.866 3.431 0.141 o
1 4 1 11.933 17.749 1.094 2.736 o
1 4 2 5.052 6.507 0.463 16.397 o
1 4 3 42.017 47.972 1.589 0.390 o
1 4 4 0.334 0.129 0.099 816.969 o
1 4 6 58.454 65.934 3.269 0.178 o
1 4 7 1.609 1.212 0.253 99.538 o
1 4 8 1.766 0.511 0.196 150.551 o
1 4 9 10.593 11.243 0.997 3.949 o
1 4 10 0.388 0.451 0.233 151.961 o
1 4 11 0.406 0.257 0.446 42.697 o
1 4 12 0.002 0.380 0.446 42.935 o
1 5 0 111.917 195.316 4.732 0.039 o
1 5 1 4.985 5.101 0.498 17.064 o
1 5 2 2.796 2.226 0.285 57.239 o
1 5 3 97.881 121.593 3.929 0.067 o
1 5 4 0.682 0.378 0.118 496.361 o
1 5 5 6.572 4.704 0.493 14.306 o
1 5 6 0.576 0.167 0.131 445.747 o
1 5 7 3.311 3.261 0.442 28.120 o
1 5 8 6.406 6.352 0.904 6.965 o
1 5 9 0.218 0.143 0.234 155.190 o
1 5 10 0.353 0.727 0.190 222.324 o
1 5 11 0.039 -0.307 0.272 115.407 o
1 5 12 0.000 -0.132 0.677 18.635 o
1 6 0 110.754 175.098 7.994 0.036 o
1 6 1 8.561 11.094 0.595 6.893 o
1 6 2 52.821 73.145 2.465 0.205 o
1 6 3 11.430 11.532 0.792 4.396 o
1 6 4 0.132 0.267 0.108 715.284 o
1 6 5 43.080 54.847 1.865 0.334 o
1 6 6 44.934 52.936 2.074 0.317 o
1 6 7 0.881 0.361 0.154 298.118 o
1 6 8 4.020 4.279 0.646 14.572 o
1 6 9 26.968 49.742 2.788 0.433 o
1 6 10 1.187 1.976 0.552 26.207 o
1 6 11 0.390 0.405 0.138 413.202 o
1 6 12 0.021 0.561 0.215 183.747 o
1 7 0 0.403 0.473 0.153 338.485 o
1 7 1 11.901 16.232 0.867 3.370 o
1 7 3 18.956 21.492 1.171 1.613 o
1 7 4 16.390 15.810 1.015 2.337 o
1 7 5 14.425 15.585 1.005 2.665 o
1 7 6 0.120 0.110 0.091 1020.950 o
1 7 7 0.013 -0.268 0.182 256.704 o
1 7 8 0.047 -0.011 0.195 224.951 o
1 7 9 3.113 3.782 0.734 13.140 o
1 7 10 1.519 1.644 0.537 27.312 o
1 7 11 0.211 0.177 0.108 706.032 o
1 8 0 1.342 1.024 0.161 206.850 o
1 8 1 7.143 9.948 0.796 6.637 o
1 8 2 0.019 -0.042 0.161 329.850 o
1 8 3 0.033 -0.037 0.106 761.851 o
1 8 4 0.358 0.103 0.104 741.702 o
1 8 5 4.939 4.281 0.581 15.245 o
1 8 6 2.445 1.616 0.386 43.600 o
1 8 7 4.164 3.658 0.584 17.040 o
1 8 8 1.038 1.220 0.333 69.617 o
1 8 9 4.840 6.346 0.935 7.359 o
1 8 10 0.492 0.999 0.437 43.648 o
1 8 11 0.758 1.610 0.713 16.428 o
1 9 0 4.340 4.107 0.534 18.272 o
1 9 1 0.495 0.167 0.266 118.559 o
1 9 2 0.807 0.502 0.137 358.406 o
1 9 3 6.234 5.346 0.649 11.039 o
1 9 4 7.888 7.208 0.677 8.162 o
1 9 5 10.682 9.473 0.803 5.016 o
1 9 6 1.073 0.747 0.294 88.960 o
1 9 7 0.861 0.983 0.282 97.512 o
1 9 8 0.940 1.375 0.461 38.135 o
1 9 9 1.061 0.656 0.503 32.613 o
1 9 10 2.879 4.442 0.985 7.864 o
1 9 11 0.014 0.875 0.578 25.502 o
1 10 0 0.497 1.009 0.635 20.910 o
1 10 1 0.636 0.373 0.341 71.673 o
1 10 2 0.162 -0.089 0.213 188.109 o
1 10 3 0.205 0.289 0.181 256.093 o
1 10 4 0.261 0.297 0.133 463.821 o
1 10 5 2.515 1.756 0.530 25.715 o
1 10 6 0.272 0.413 0.215 181.424 o
1 10 7 0.050 0.303 0.323 81.927 o
1 10 8 0.869 0.497 0.281 101.169 o
1 10 9 0.236 0.399 0.272 113.901 o
1 10 10 0.977 1.560 0.465 37.157 o
1 11 0 0.944 0.858 1.024 8.084 o
1 11 1 2.769 2.630 0.930 9.086 o
1 11 2 3.823 3.446 1.019 7.266 o
1 11 3 0.819 0.266 0.153 310.120 o
1 11 4 0.902 1.101 0.469 37.273 o
1 11 5 6.099 6.131 1.061 5.694 o
1 11 6 0.893 0.783 0.363 61.337 o
1 11 7 0.042 0.521 0.348 70.458 o
1 11 8 0.223 1.091 0.425 46.647 o
1 11 9 0.015 0.113 0.603 23.512 o
1 12 5 0.009 0.023 0.268 119.103 o
1 12 6 0.801 0.895 0.759 14.628 o
2 -11 0 0.256 0.116 0.792 13.587 o
2 -11 1 1.237 1.535 0.875 10.898 o
2 -11 2 1.359 1.503 0.956 9.144 o
2 -10 0 0.007 0.344 0.398 53.815 o
2 -10 1 1.264 1.597 0.603 22.333 o
2 -10 2 0.061 -0.677 0.842 12.043 o
2 -10 3 0.059 0.023 0.534 29.986 o
2 -10 4 0.013 0.398 0.681 18.382 o
2 -9 0 0.759 0.565 0.299 90.747 o
2 -9 1 4.982 4.754 0.905 8.054 o
2 -9 2 9.869 10.700 1.302 3.132 o
2 -9 3 5.673 4.622 2.212 1.649 o
2 -9 4 3.395 3.246 1.246 5.126 o
2 -9 5 0.468 1.453 1.057 7.605 o
2 -9 6 1.643 2.196 1.486 3.810 o
2 -8 0 0.063 -0.010 0.212 190.543 o
2 -8 1 0.453 0.397 0.218 172.859 o
2 -8 2 13.351 17.633 1.628 1.766 o
2 -8 3 1.556 1.644 0.534 27.513 o
2 -8 4 0.560 0.077 0.262 121.822 o
2 -8 5 0.057 -0.462 0.842 12.043 o
2 -8 6 0.004 0.116 0.776 14.180 o
2 -8 7 0.024 0.182 0.248 139.091 o
2 -7 0 9.209 11.116 0.906 4.768 o
2 -7 1 10.308 11.427 1.255 3.143 o
2 -7 2 2.686 1.790 0.498 27.947 o
2 -7 3 2.630 3.204 0.651 16.947 o
2 -7 4 52.677 75.472 3.232 0.183 o
2 -7 5 9.170 9.758 1.886 1.926 o
2 -7 6 0.590 0.396 0.264 117.701 o
2 -7 7 0.026 1.123 1.090 7.182 o
2 -7 8 0.236 0.792 0.743 15.420 o
2 -6 0 0.024 -0.167 0.133 479.398 o
2 -6 1 4.007 2.754 0.384 30.920 o
2 -6 2 21.106 24.883 2.111 0.903 o
2 -6 3 5.839 6.303 0.637 11.150 o
2 -6 4 0.563 0.120 0.162 304.644 o
2 -6 5 1.334 0.534 0.200 166.744 o
2 -6 6 1.544 1.360 0.559 25.539 o
2 -6 7 0.479 0.479 0.289 99.554 o
2 -6 8 0.005 0.050 0.429 46.338 o
2 -6 9 0.265 0.413 0.149 370.201 o
2 -5 0 7.825 8.428 0.645 8.053 o
2 -5 1 84.811 116.073 3.314 0.084 o
2 -5 2 11.159 9.922 0.732 5.050 o
2 -5 3 40.386 46.645 1.873 0.396 o
2 -5 4 46.685 55.688 2.053 0.295 o
2 -5 5 28.074 36.437 1.511 0.723 o
2 -5 6 0.807 0.608 0.421 46.626 o
2 -5 7 0.626 0.612 0.479 36.630 o
2 -5 8 0.385 0.353 0.250 133.643 o
2 -5 9 0.888 1.616 0.684 17.741 o
2 -4 0 3.844 3.957 0.387 28.429 o
2 -4 2 94.302 109.310 3.504 0.077 o
2 -4 3 5.074 5.426 0.502 16.376 o
2 -4 4 41.438 41.884 1.624 0.428 o
2 -4 5 13.706 16.055 0.916 2.905 o
2 -4 6 5.557 5.558 0.567 13.532 o
2 -4 7 0.124 0.005 0.140 432.009 o
2 -4 8 0.523 1.078 0.537 29.088 o
2 -4 9 2.228 3.571 1.019 7.692 o
2 -4 10 2.210 3.212 1.023 7.681 o
2 -3 0 518.135 594.842 12.502 0.003 o
2 -3 1 6.214 5.344 0.369 17.538 o
2 -3 2 0.141 0.048 0.035 6418.610 o
2 -3 3 381.550 408.016 7.353 0.005 o
2 -3 4 12.316 11.970 0.896 3.726 o
2 -3 5 15.742 16.623 0.880 2.552 o
2 -3 6 3.650 2.750 0.383 32.949 o
2 -3 7 11.175 7.911 1.318 3.098 o
2 -3 8 1.925 2.250 0.749 14.167 o
2 -3 9 0.149 0.128 0.169 296.947 o
2 -3 10 0.525 0.770 0.488 35.327 o
2 -3 11 0.337 1.420 0.858 11.509 o
2 -2 1 112.922 132.159 2.707 0.057 o
2 -2 3 106.313 92.533 2.483 0.078 o
2 -2 4 21.143 17.270 0.821 1.850 o
2 -2 5 0.856 0.693 0.166 250.121 o
2 -2 6 22.366 24.559 1.167 1.275 o
2 -2 7 7.628 9.333 0.750 6.920 o
2 -2 8 1.198 0.844 0.338 67.910 o
2 -2 9 0.113 -0.050 0.155 355.921 o
2 -2 10 2.267 4.217 1.019 7.600 o
2 -2 11 2.431 5.266 1.783 2.593 o
2 -1 0 343.500 318.015 3.731 0.008 o
2 -1 1 603.284 578.928 6.829 0.002 o
2 -1 2 81.246 64.576 1.312 0.145 o
2 -1 3 1732.920 1768.510 27.009 0.000 o
2 -1 4 317.631 316.135 4.517 0.008 o
2 -1 5 0.067 0.059 0.065 1978.600 o
2 -1 6 0.280 0.017 0.070 1621.450 o
2 -1 7 43.135 46.165 2.285 0.346 o
2 -1 8 0.036 -0.021 0.119 601.198 o
2 -1 9 0.004 0.175 0.167 307.310 o
2 -1 10 0.660 1.117 0.453 40.226 o
2 -1 11 0.149 0.809 0.891 10.724 o
2 -1 12 0.820 2.196 1.255 5.368 o
2 0 0 715.971 642.741 13.548 0.002 o
2 0 1 2.787 2.539 0.185 79.578 o
2 0 2 138.611 112.984 2.495 0.049 o
2 0 4 72.363 64.198 2.741 0.152 o
2 0 5 121.650 127.621 4.673 0.049 o
2 0 6 15.160 15.844 0.807 2.828 o
2 0 7 4.631 3.438 0.392 25.652 o
2 0 8 17.261 14.227 0.862 2.524 o
2 0 9 0.137 0.199 0.121 574.662 o
2 0 10 0.016 -0.349 0.292 99.796 o
2 0 11 0.919 2.130 1.156 6.310 o
2 0 12 1.180 1.882 1.205 5.798 o
2 1 0 1059.920 1054.910 14.575 0.001 o
2 1 1 92.414 78.216 2.669 0.102 o
2 1 2 670.288 620.583 14.332 0.002 o
2 1 3 19.479 12.724 0.832 2.333 o
2 1 4 292.776 320.273 6.932 0.009 o
2 1 5 65.398 65.470 2.439 0.175 o
2 1 6 10.144 6.946 0.508 7.893 o
2 1 7 58.512 71.247 5.167 0.129 o
2 1 8 3.302 4.004 0.458 25.479 o
2 1 9 3.742 3.979 0.489 22.162 o
2 1 10 0.905 1.575 0.404 48.517 o
2 1 11 0.609 0.627 0.099 627.997 o
2 1 12 0.141 1.156 1.040 7.876 o
2 1 13 0.063 1.222 1.007 8.402 o
2 2 0 104.962 105.095 4.850 0.064 o
2 2 1 332.610 343.337 16.332 0.006 o
2 2 3 346.514 370.850 7.655 0.006 o
2 2 6 8.281 7.532 0.522 9.305 o
2 2 7 0.069 0.006 0.089 1072.840 o
2 2 8 70.026 85.587 4.665 0.109 o
2 2 9 0.447 0.191 0.133 452.062 o
2 2 10 0.001 -0.109 0.213 188.064 o
2 2 11 0.384 0.330 0.528 30.445 o
2 2 12 2.269 6.059 2.031 2.010 o
2 2 13 0.670 2.196 1.552 3.525 o
2 3 0 26.552 22.691 0.986 1.161 o
2 3 1 115.047 130.761 4.241 0.052 o
2 3 2 171.417 168.843 3.562 0.028 o
2 3 5 49.565 36.256 2.016 0.349 o
2 3 6 9.869 7.741 0.555 7.445 o
2 3 7 47.050 56.467 3.620 0.223 o
2 3 8 0.447 0.176 0.298 94.606 o
2 3 9 10.245 14.484 1.145 3.198 o
2 3 10 0.005 -0.244 0.305 91.773 o
2 3 11 0.360 0.062 0.174 275.964 o
2 3 12 0.002 0.099 0.116 638.734 o
2 3 13 1.226 4.523 1.915 2.294 o
2 4 0 267.830 370.847 16.508 0.007 o
2 4 1 173.503 221.441 9.556 0.019 o
2 4 2 281.505 340.045 21.164 0.006 o
2 4 3 27.461 27.987 2.106 0.707 o
2 4 4 249.512 309.315 7.017 0.011 o
2 4 5 32.747 32.627 2.223 0.546 o
2 4 6 10.240 9.172 0.606 6.351 o
2 4 7 0.044 -0.160 0.064 2094.620 o
2 4 8 141.150 204.179 9.245 0.025 o
2 4 9 8.117 7.995 0.863 6.111 o
2 4 10 0.022 0.182 0.227 165.488 o
2 4 11 0.004 0.151 0.236 152.901 o
2 4 12 0.901 0.165 0.627 21.459 o
2 4 13 0.450 1.519 1.403 4.321 o
2 5 0 17.634 24.188 1.183 1.602 o
2 5 1 28.511 35.979 1.308 0.754 o
2 5 2 37.866 49.783 2.200 0.382 o
2 5 3 13.282 16.195 1.125 2.590 o
2 5 4 160.747 185.290 4.614 0.028 o
2 5 5 3.516 2.926 0.355 36.115 o
2 5 6 10.448 8.019 0.806 5.408 o
2 5 7 0.134 -0.120 0.115 645.425 o
2 5 8 0.732 0.865 0.315 81.028 o
2 5 9 14.567 21.469 1.506 1.669 o
2 5 10 1.024 1.320 0.377 55.138 o
2 5 11 0.736 0.127 0.214 175.086 o
2 5 12 0.026 -0.066 0.132 489.370 o
2 6 0 59.741 87.534 3.154 0.148 o
2 6 1 14.697 16.514 0.978 2.589 o
2 6 2 3.577 3.924 0.467 24.072 o
2 6 3 0.000 0.007 0.068 1829.680 o
2 6 4 66.882 86.011 2.648 0.141 o
2 6 5 1.947 1.453 0.256 87.891 o
2 6 6 5.132 3.853 0.562 15.905 o
2 6 7 22.896 26.798 1.617 1.008 o
2 6 8 19.041 27.636 2.102 0.926 o
2 6 9 4.322 6.544 0.851 8.712 o
2 6 10 1.224 1.495 0.405 47.124 o
2 6 11 0.061 -0.044 0.254 132.130 o
2 6 12 0.154 0.240 0.495 34.759 o
2 7 0 1.191 0.725 0.226 138.332 o
2 7 1 18.481 24.640 1.161 1.535 o
2 7 2 23.572 29.928 1.354 1.012 o
2 7 3 3.021 3.231 0.404 32.961 o
2 7 4 38.575 45.957 2.041 0.406 o
2 7 5 10.313 11.247 0.873 4.516 o
2 7 6 0.123 -0.034 0.269 118.149 o
2 7 7 6.197 6.752 0.832 7.762 o
2 7 8 0.122 0.165 0.147 391.770 o
2 7 9 18.146 28.111 1.859 1.058 o
2 7 10 0.001 -0.210 0.264 122.651 o
2 7 11 0.307 0.380 0.407 51.098 o
2 7 12 0.010 0.050 0.561 27.098 o
2 8 0 3.619 5.004 0.549 18.226 o
2 8 1 7.166 12.638 0.781 6.020 o
2 8 2 0.006 -0.153 0.125 548.186 o
2 8 3 0.226 -0.035 0.152 365.668 o
2 8 4 37.776 46.469 2.434 0.380 o
2 8 5 2.944 2.809 0.519 24.165 o
2 8 6 1.916 1.659 0.343 56.453 o
2 8 7 6.735 7.351 0.879 6.810 o
2 8 8 2.437 2.585 0.503 27.157 o
2 8 9 4.201 5.416 0.848 9.161 o
2 8 10 0.513 0.883 0.391 54.513 o
2 8 11 0.033 0.167 0.371 61.850 o
2 9 0 17.009 19.122 1.224 1.842 o
2 9 1 14.460 18.976 1.037 2.356 o
2 9 2 3.887 4.780 0.554 17.715 o
2 9 3 0.004 0.030 0.132 491.947 o
2 9 4 19.391 21.495 1.621 1.281 o
2 9 5 8.067 9.144 0.991 5.047 o
2 9 6 2.539 1.933 0.415 37.614 o
2 9 7 0.151 -0.059 0.276 111.993 o
2 9 8 0.766 0.938 0.231 141.586 o
2 9 9 3.613 3.788 0.873 9.510 o
2 9 10 0.033 -0.155 0.625 21.853 o
2 9 11 0.002 0.410 0.341 73.441 o
2 10 0 1.080 1.073 0.957 9.195 o
2 10 1 11.991 18.100 1.552 1.951 o
2 10 2 0.637 0.616 0.193 206.336 o
2 10 3 2.734 2.868 0.524 24.279 o
2 10 4 0.316 0.097 0.167 300.097 o
2 10 5 3.689 3.663 0.615 16.634 o
2 10 6 1.487 1.719 0.665 18.296 o
2 10 7 0.626 0.677 0.187 218.631 o
2 10 8 2.371 2.716 0.729 14.401 o
2 10 9 4.680 7.276 1.244 4.604 o
2 10 10 1.858 2.406 0.832 11.622 o
2 11 3 8.231 7.500 1.371 3.392 o
2 11 4 0.077 -0.015 0.386 57.433 o
2 11 5 2.763 2.669 0.690 15.495 o
2 11 6 0.667 0.372 0.192 212.393 o
2 11 7 0.247 0.194 0.276 111.220 o
2 11 8 0.038 0.211 0.082 1254.170 o
2 11 9 0.975 0.693 0.159 259.623 o
3 -11 0 0.928 1.799 1.403 4.303 o
3 -11 1 3.665 2.773 1.799 2.547 o
3 -10 0 0.647 0.814 0.395 53.131 o
3 -10 1 1.677 2.213 0.718 15.529 o
3 -10 2 1.066 1.189 1.255 5.381 o
3 -10 3 0.580 0.099 0.611 22.774 o
3 -10 4 0.283 0.427 0.751 15.102 o
3 -9 0 0.864 -0.010 0.339 72.253 o
3 -9 1 4.067 2.958 0.686 14.046 o
3 -9 2 0.885 1.086 0.554 27.019 o
3 -9 3 9.160 8.898 2.856 0.951 o
3 -9 4 4.716 4.408 1.998 2.031 o
3 -9 5 0.000 -0.168 0.578 25.572 o
3 -9 6 0.172 0.099 0.825 12.526 o
3 -8 0 1.795 1.416 0.443 38.077 o
3 -8 1 1.204 0.243 0.267 108.055 o
3 -8 2 5.663 5.712 0.972 6.733 o
3 -8 3 0.753 1.364 0.595 23.538 o
3 -8 4 3.089 2.483 0.627 17.940 o
3 -8 5 0.317 0.258 0.685 18.154 o
3 -8 6 0.059 0.050 0.545 28.762 o
3 -8 7 0.149 -0.380 0.462 39.937 o
3 -7 0 0.841 0.322 0.169 258.062 o
3 -7 1 6.599 6.596 0.990 6.029 o
3 -7 2 7.353 7.548 1.083 4.956 o
3 -7 3 2.134 2.342 0.621 19.667 o
3 -7 4 9.381 12.578 1.326 2.997 o
3 -7 5 1.945 1.076 0.491 31.814 o
3 -7 6 0.025 0.079 0.333 76.752 o
3 -7 7 0.030 0.578 1.189 6.041 o
3 -7 8 0.068 -1.502 1.172 6.214 o
3 -6 0 0.490 0.144 0.210 188.168 o
3 -6 1 2.503 1.962 0.306 57.951 o
3 -6 2 15.404 17.433 1.429 1.844 o
3 -6 3 5.130 4.846 0.795 9.644 o
3 -6 4 16.873 23.075 1.715 1.307 o
3 -6 5 2.769 1.535 0.240 75.356 o
3 -6 6 0.604 0.371 0.487 35.580 o
3 -6 7 0.000 0.215 0.462 39.946 o
3 -6 8 1.752 2.212 1.255 5.301 o
3 -5 0 12.494 11.043 0.795 4.116 o
3 -5 1 0.167 0.031 0.079 1348.450 o
3 -5 2 64.909 76.265 2.900 0.154 o
3 -5 3 9.543 7.265 0.683 6.896 o
3 -5 4 0.533 0.448 0.126 466.347 o
3 -5 5 0.725 0.741 0.207 177.871 o
3 -5 6 8.257 8.430 0.752 6.793 o
3 -5 7 0.050 0.168 0.287 103.784 o
3 -5 8 0.710 0.496 0.353 66.371 o
3 -5 9 0.223 1.073 1.007 8.397 o
3 -4 1 29.767 31.235 1.377 0.773 o
3 -4 2 51.413 44.804 4.266 0.201 o
3 -4 3 11.052 11.659 0.782 4.545 o
3 -4 4 1.640 0.985 0.180 161.999 o
3 -4 5 18.736 20.787 1.200 1.638 o
3 -4 6 0.052 0.035 0.083 1241.610 o
3 -4 7 0.035 -0.167 0.217 180.536 o
3 -4 8 0.188 0.130 0.232 157.679 o
3 -4 9 0.319 0.583 0.202 202.002 o
3 -3 0 33.862 30.155 1.280 0.695 o
3 -3 2 176.463 199.433 3.448 0.024 o
3 -3 3 233.347 265.103 5.700 0.014 o
3 -3 4 31.387 31.199 1.317 0.739 o
3 -3 5 9.642 8.372 0.714 6.278 o
3 -3 6 14.332 12.635 0.856 3.249 o
3 -3 7 5.167 3.896 0.512 17.526 o
3 -3 8 0.284 -0.073 0.074 1468.170 o
3 -3 9 0.014 -0.170 0.239 148.988 o
3 -3 10 0.279 0.136 0.165 307.235 o
3 -2 0 56.811 46.014 1.324 0.284 o
3 -2 1 153.094 151.197 5.027 0.033 o
3 -2 2 14.126 13.085 0.635 3.709 o
3 -2 3 12.527 12.516 0.728 4.069 o
3 -2 4 87.035 98.293 3.717 0.089 o
3 -2 5 0.001 0.007 0.117 626.241 o
3 -2 6 4.011 2.513 0.354 34.307 o
3 -2 7 15.937 12.957 0.969 2.692 o
3 -2 8 3.741 4.004 0.573 17.987 o
3 -2 9 0.233 -0.180 0.248 138.678 o
3 -2 10 0.037 0.139 0.289 102.225 o
3 -2 11 0.637 0.891 0.726 16.022 o
3 -1 2 293.000 249.704 3.776 0.011 o
3 -1 3 46.726 49.145 1.452 0.346 o
3 -1 4 185.211 192.139 5.032 0.023 o
3 -1 6 9.998 8.019 0.994 4.589 o
3 -1 8 3.838 3.649 0.513 21.028 o
3 -1 9 0.316 0.201 0.212 187.583 o
3 -1 10 2.420 4.502 1.007 7.680 o
3 -1 11 0.000 -0.033 0.231 159.823 o
3 -1 12 0.002 -0.017 0.248 139.223 o
3 0 0 13.564 12.021 0.518 4.331 o
3 0 1 73.141 58.413 1.227 0.178 o
3 0 2 27.006 26.396 0.819 1.087 o
3 0 3 236.960 224.349 3.632 0.015 o
3 0 4 82.486 90.704 2.105 0.111 o
3 0 5 40.614 33.582 1.264 0.526 o
3 0 6 5.709 3.762 0.464 18.122 o
3 0 7 55.972 48.793 1.707 0.270 o
3 0 8 15.777 12.758 0.991 2.698 o
3 0 9 0.185 0.059 0.060 2256.230 o
3 0 10 0.240 -0.127 0.257 129.121 o
3 0 11 2.112 2.311 1.370 4.435 o
3 0 12 0.911 1.717 1.106 6.900 o
3 1 0 54.531 51.141 1.137 0.286 o
3 1 1 1350.760 1423.540 17.484 0.000 o
3 1 5 11.499 9.518 0.603 5.548 o
3 1 6 2.780 2.247 0.303 53.596 o
3 1 7 15.250 16.795 1.420 1.896 o
3 1 8 4.675 2.899 0.306 32.828 o
3 1 9 2.284 2.204 0.380 43.692 o
3 1 10 0.516 -0.114 0.299 94.530 o
3 1 11 0.171 -0.297 0.594 24.162 o
3 1 12 1.773 4.325 1.733 2.778 o
3 1 13 0.012 0.495 0.528 30.558 o
3 2 1 316.739 359.508 11.324 0.007 o
3 2 2 100.478 103.465 2.874 0.077 o
3 2 3 829.350 838.718 17.827 0.001 o
3 2 4 263.476 271.113 5.225 0.012 o
3 2 5 14.957 8.843 0.501 4.447 o
3 2 6 0.263 0.152 0.094 905.272 o
3 2 7 170.171 192.205 10.726 0.020 o
3 2 8 43.736 50.427 3.085 0.279 o
3 2 9 2.568 1.272 0.353 50.175 o
3 2 10 2.495 3.085 0.537 23.660 o
3 2 11 1.644 1.954 0.486 31.957 o
3 2 12 0.266 -0.875 0.974 8.996 o
3 2 13 0.061 -0.429 1.040 7.892 o
3 3 0 0.518 0.201 0.061 1562.180 o
3 3 1 392.955 460.371 19.985 0.004 o
3 3 3 71.497 73.534 3.530 0.132 o
3 3 4 71.885 81.611 2.503 0.136 o
3 3 5 1.354 1.081 0.258 103.587 o
3 3 6 14.664 12.509 0.916 3.066 o
3 3 7 0.116 0.490 0.236 151.706 o
3 3 8 12.579 12.098 0.963 3.456 o
3 3 9 0.621 0.487 0.135 395.652 o
3 3 10 0.754 1.182 0.336 70.741 o
3 3 11 0.038 -0.248 0.264 122.085 o
3 3 12 2.358 4.721 1.865 2.385 o
3 3 13 0.207 0.974 1.337 4.769 o
3 4 0 124.288 132.568 4.543 0.047 o
3 4 1 57.255 54.393 1.680 0.247 o
3 4 2 44.422 40.894 1.859 0.385 o
3 4 3 182.628 187.652 3.390 0.024 o
3 4 4 8.545 8.320 0.852 5.913 o
3 4 5 1.717 1.259 0.298 75.227 o
3 4 6 42.717 41.196 1.768 0.408 o
3 4 7 3.226 1.054 0.569 22.064 o
3 4 8 9.663 10.765 0.953 4.462 o
3 4 9 11.121 14.703 1.165 2.971 o
3 4 10 0.176 0.194 0.130 497.179 o
3 4 11 1.127 0.784 0.304 83.319 o
3 4 12 0.062 0.660 0.875 11.142 o
3 4 13 0.033 -0.033 0.578 25.571 o
3 5 0 0.039 0.056 0.079 1378.910 o
3 5 1 68.694 75.260 1.972 0.158 o
3 5 2 32.300 38.312 1.738 0.577 o
3 5 3 9.356 9.766 0.700 6.136 o
3 5 4 20.118 19.038 1.486 1.397 o
3 5 5 21.973 22.676 1.318 1.280 o
3 5 6 9.621 10.799 0.900 4.710 o
3 5 7 1.940 1.447 0.333 59.837 o
3 5 8 34.649 47.340 2.473 0.402 o
3 5 9 0.058 -0.611 0.337 74.985 o
3 5 10 0.015 -0.362 0.185 250.655 o
3 5 11 0.216 0.659 0.291 99.372 o
3 5 12 1.309 1.551 0.728 15.522 o
3 5 13 0.380 0.545 0.446 42.565 o
3 6 0 11.750 14.883 1.027 3.171 o
3 6 1 18.616 18.526 1.175 1.765 o
3 6 2 3.806 3.286 0.412 28.267 o
3 6 3 85.165 99.310 2.732 0.097 o
3 6 4 1.064 0.390 0.124 381.247 o
3 6 5 13.927 15.583 1.129 2.533 o
3 6 6 1.587 0.759 0.225 125.497 o
3 6 7 28.713 36.947 1.942 0.625 o
3 6 8 30.519 43.428 2.203 0.503 o
3 6 9 1.089 0.546 0.303 85.528 o
3 6 10 0.005 -0.469 0.277 111.423 o
3 6 11 0.091 0.141 0.145 401.879 o
3 6 12 0.025 0.292 0.374 60.854 o
3 7 0 83.235 101.560 4.205 0.088 o
3 7 1 32.364 43.234 2.463 0.449 o
3 7 2 2.110 1.062 0.257 87.769 o
3 7 3 23.686 27.511 1.460 1.021 o
3 7 4 12.979 11.073 0.758 4.069 o
3 7 5 3.246 2.540 0.462 28.110 o
3 7 6 0.033 0.008 0.136 461.139 o
3 7 7 0.835 0.983 0.522 30.476 o
3 7 8 10.623 12.148 1.127 3.403 o
3 7 9 0.013 -0.308 0.214 185.628 o
3 7 10 0.601 0.473 0.397 53.083 o
3 7 11 0.040 -0.112 0.152 367.141 o
3 7 12 0.000 -0.568 0.322 82.503 o
3 8 0 21.075 28.714 1.904 0.928 o
3 8 1 10.196 12.586 0.838 4.469 o
3 8 2 15.762 18.529 1.321 1.885 o
3 8 3 1.785 1.807 0.293 72.379 o
3 8 4 6.597 5.535 0.623 10.981 o
3 8 5 2.966 2.613 0.519 24.348 o
3 8 6 0.107 0.004 0.193 228.854 o
3 8 7 9.875 10.926 1.097 3.794 o
3 8 8 25.441 38.016 2.338 0.599 o
3 8 9 6.661 9.810 1.108 4.683 o
3 8 10 0.130 0.090 0.272 115.093 o
3 8 11 0.475 -0.055 0.295 96.680 o
3 9 0 10.542 10.842 1.797 1.958 o
3 9 1 31.812 41.663 1.691 0.562 o
3 9 2 21.879 24.836 1.173 1.293 o
3 9 3 0.124 0.061 0.210 192.334 o
3 9 4 7.020 8.022 0.902 6.303 o
3 9 5 1.024 0.942 0.389 52.830 o
3 9 6 0.830 0.983 0.359 62.582 o
3 9 7 1.623 2.482 0.546 25.533 o
3 9 8 6.541 8.072 1.038 5.419 o
3 9 9 0.126 0.198 0.307 90.142 o
3 9 10 0.102 -0.028 0.312 87.861 o
3 9 11 0.012 0.361 0.306 90.946 o
3 10 0 0.591 -0.081 0.305 90.027 o
3 10 1 3.381 2.677 0.841 10.579 o
3 10 2 0.117 0.030 0.144 410.753 o
3 10 3 2.440 1.958 0.384 42.826 o
3 10 4 13.862 15.031 1.195 2.469 o
3 10 5 8.662 8.388 1.018 4.820 o
3 10 6 2.708 2.653 0.619 18.718 o
3 10 7 0.253 0.528 0.163 306.822 o
3 10 8 6.197 7.890 1.253 4.212 o
3 10 9 2.434 2.847 0.828 11.351 o
3 10 10 0.064 0.565 0.404 52.090 o
3 11 4 0.008 0.044 0.188 241.126 o
3 11 5 2.706 2.727 0.524 24.499 o
3 11 6 0.490 0.646 0.287 100.078 o
3 11 7 0.299 0.648 0.395 54.029 o
3 11 8 0.734 1.172 0.583 24.578 o
3 11 9 0.110 -0.196 0.452 41.800 o
4 -10 0 0.217 0.182 0.377 59.977 o
4 -10 1 0.487 0.231 0.460 39.984 o
4 -10 2 0.040 -0.363 0.281 108.382 o
4 -10 3 0.538 0.792 0.413 49.005 o
4 -9 0 0.009 0.191 0.239 149.515 o
4 -9 1 1.595 1.043 0.514 30.051 o
4 -9 2 0.635 0.485 0.419 47.676 o
4 -9 3 0.926 0.889 0.334 71.236 o
4 -9 4 0.265 0.957 0.924 9.960 o
4 -9 5 0.060 0.341 0.287 103.587 o
4 -8 0 1.652 2.153 0.647 18.915 o
4 -8 1 1.364 0.758 0.408 47.486 o
4 -8 2 0.151 0.114 0.132 486.739 o
4 -8 3 1.015 0.316 0.330 74.108 o
4 -8 4 2.307 2.139 0.500 28.419 o
4 -8 5 0.025 0.149 0.908 10.355 o
4 -8 6 0.172 0.652 0.941 9.630 o
4 -7 0 3.433 2.785 0.488 24.965 o
4 -7 1 24.149 26.993 2.074 0.806 o
4 -7 2 1.150 0.239 0.327 74.951 o
4 -7 3 0.085 0.204 0.273 114.260 o
4 -7 4 0.092 -0.307 0.291 100.606 o
4 -7 5 0.582 0.447 0.310 86.151 o
4 -7 6 0.036 -0.161 0.570 26.318 o
4 -7 7 0.007 -0.578 0.297 96.683 o
4 -6 0 0.000 -0.008 0.142 422.439 o
4 -6 1 2.551 1.645 0.361 47.273 o
4 -6 2 2.852 2.242 0.513 25.598 o
4 -6 3 5.473 4.400 0.766 10.057 o
4 -6 4 7.074 7.526 1.076 5.082 o
4 -6 5 0.685 0.483 0.300 90.843 o
4 -6 6 0.520 0.481 0.422 47.201 o
4 -6 7 0.025 -0.293 0.456 41.112 o
4 -6 8 0.649 1.915 1.321 4.863 o
4 -5 0 0.045 -0.049 0.181 260.249 o
4 -5 1 55.886 64.290 2.717 0.204 o
4 -5 2 28.817 31.925 1.944 0.673 o
4 -5 3 8.478 8.036 0.959 5.292 o
4 -5 4 0.646 0.175 0.110 585.826 o
4 -5 5 0.916 0.920 0.318 77.719 o
4 -5 6 0.370 0.254 0.276 110.155 o
4 -5 7 0.410 0.294 0.158 323.672 o
4 -5 8 0.040 -0.462 0.743 15.469 o
4 -4 0 0.122 0.040 0.132 484.406 o
4 -4 1 11.036 12.367 1.026 3.600 o
4 -4 2 0.900 0.300 0.129 397.955 o
4 -4 3 81.622 90.683 5.442 0.084 o
4 -4 4 0.410 0.273 0.165 297.326 o
4 -4 5 1.303 1.897 1.060 7.444 o
4 -4 6 6.946 5.689 0.646 10.125 o
4 -4 7 0.969 0.881 0.202 172.391 o
4 -4 8 0.299 0.186 0.495 34.709 o
4 -4 9 0.005 0.050 0.116 639.102 o
4 -3 0 0.061 0.061 0.089 1067.420 o
4 -3 1 4.462 3.239 0.379 27.748 o
4 -3 2 0.815 0.523 0.120 438.091 o
4 -3 4 26.061 28.787 1.317 0.948 o
4 -3 5 5.090 4.221 0.492 18.067 o
4 -3 6 0.867 0.837 0.183 209.361 o
4 -3 7 0.409 0.093 0.200 207.989 o
4 -3 8 0.031 -0.087 0.074 1547.670 o
4 -3 9 0.273 1.017 0.587 24.599 o
4 -3 10 0.005 -0.297 0.479 37.248 o
4 -2 0 25.340 21.719 1.123 1.205 o
4 -2 1 16.063 12.929 0.960 2.686 o
4 -2 2 6.965 7.386 0.471 11.748 o
4 -2 3 66.120 65.095 4.875 0.127 o
4 -2 5 7.496 7.198 0.639 8.935 o
4 -2 6 56.620 52.140 1.945 0.250 o
4 -2 7 5.243 2.710 0.381 25.220 o
4 -2 8 2.836 2.959 0.540 22.834 o
4 -2 9 0.011 -0.016 0.180 263.861 o
4 -2 10 4.560 7.148 1.981 2.024 o
4 -2 11 1.045 1.799 1.139 6.495 o
4 -1 0 211.355 202.334 5.924 0.018 o
4 -1 1 88.994 80.797 1.757 0.110 o
4 -1 2 9.461 7.547 0.629 7.273 o
4 -1 3 110.211 92.788 2.517 0.074 o
4 -1 4 2.980 1.906 0.255 63.875 o
4 -1 5 16.125 16.760 0.990 2.339 o
4 -1 6 1.236 0.625 0.221 143.013 o
4 -1 7 2.354 1.293 0.304 64.413 o
4 -1 8 0.528 0.126 0.167 290.634 o
4 -1 9 0.079 0.011 0.169 299.109 o
4 -1 10 0.070 0.066 0.363 64.699 o
4 -1 11 4.556 12.134 2.625 1.155 o
4 -1 12 0.000 0.446 0.875 11.149 o
4 0 0 9.345 8.007 0.491 8.267 o
4 0 1 0.528 0.910 0.314 82.968 o
4 0 2 220.517 216.753 6.902 0.016 o
4 0 3 191.211 175.313 3.770 0.024 o
4 0 4 17.597 15.153 0.757 2.518 o
4 0 5 14.668 12.574 0.817 3.260 o
4 0 6 241.973 265.262 7.714 0.012 o
4 0 7 21.906 16.919 1.109 1.602 o
4 0 8 5.478 4.470 0.562 14.722 o
4 0 9 0.318 0.480 0.197 213.251 o
4 0 10 4.970 6.463 1.031 6.270 o
4 0 11 0.779 0.248 0.446 42.200 o
4 0 12 0.096 0.429 0.627 21.670 o
4 1 0 14.387 12.909 0.603 3.721 o
4 1 1 203.335 244.361 4.217 0.017 o
4 1 2 189.744 192.627 3.472 0.023 o
4 1 4 25.527 22.812 1.018 1.203 o
4 1 5 16.144 14.174 1.048 2.441 o
4 1 6 2.977 2.254 0.338 45.069 o
4 1 7 40.891 37.487 1.781 0.450 o
4 1 8 13.938 15.015 1.668 1.769 o
4 1 9 0.899 0.920 0.367 59.885 o
4 1 10 0.939 1.425 0.460 38.117 o
4 1 11 5.847 8.588 1.191 4.550 o
4 1 12 0.993 2.245 1.139 6.480 o
4 1 13 0.059 0.759 0.858 11.571 o
4 2 0 136.782 132.232 2.362 0.045 o
4 2 1 14.098 13.637 0.638 3.630 o
4 2 2 75.097 70.564 1.785 0.149 o
4 2 3 0.908 0.350 0.119 442.902 o
4 2 4 33.423 28.871 1.422 0.700 o
4 2 5 76.592 78.345 3.197 0.122 o
4 2 6 11.683 10.502 0.931 3.988 o
4 2 7 0.043 -0.215 0.174 281.806 o
4 2 8 8.204 7.462 0.754 7.106 o
4 2 9 1.571 1.018 0.392 49.304 o
4 2 10 3.466 4.584 0.700 13.389 o
4 2 11 1.240 1.792 0.540 27.349 o
4 2 12 0.795 1.585 0.842 11.856 o
4 2 13 0.203 0.413 0.446 42.809 o
4 3 0 1.708 1.528 0.205 123.623 o
4 3 1 45.691 57.579 2.136 0.292 o
4 3 2 104.608 116.546 3.881 0.064 o
4 3 3 3.797 2.447 0.266 46.696 o
4 3 4 4.178 4.139 0.548 18.031 o
4 3 5 127.447 138.206 6.697 0.039 o
4 3 6 8.173 9.234 0.888 5.630 o
4 3 7 138.305 158.435 5.945 0.035 o
4 3 8 1.057 0.283 0.450 40.809 o
4 3 9 0.208 -0.383 0.346 71.401 o
4 3 10 0.514 0.215 0.255 127.948 o
4 3 11 2.906 4.885 0.850 10.056 o
4 3 12 2.154 4.853 1.898 2.309 o
4 3 13 0.680 0.792 0.941 9.586 o
4 4 0 4.959 3.111 0.331 28.649 o
4 4 1 6.861 7.025 0.511 11.546 o
4 4 2 115.340 123.941 2.985 0.057 o
4 4 3 12.063 8.579 0.587 5.570 o
4 4 4 4.589 4.541 0.561 16.301 o
4 4 5 6.468 4.154 0.543 13.789 o
4 4 6 32.513 32.882 1.802 0.614 o
4 4 7 112.538 152.849 6.085 0.044 o
4 4 8 21.734 25.104 1.718 1.044 o
4 4 9 2.059 2.049 0.442 35.942 o
4 4 10 0.107 0.151 0.155 353.713 o
4 4 11 0.416 0.194 0.198 212.154 o
4 4 12 1.045 0.979 0.486 34.644 o
4 4 13 0.463 1.403 1.156 6.364 o
4 5 0 180.918 224.888 3.907 0.021 o
4 5 1 5.132 4.178 0.428 20.555 o
4 5 2 115.854 129.484 2.563 0.056 o
4 5 3 24.078 19.195 0.995 1.415 o
4 5 4 55.039 53.932 2.243 0.244 o
4 5 5 1.330 0.949 0.162 210.297 o
4 5 6 4.096 4.048 0.506 20.192 o
4 5 7 73.984 85.528 7.656 0.072 o
4 5 8 0.001 0.038 0.255 131.328 o
4 5 9 0.178 0.009 0.300 94.554 o
4 5 10 1.652 2.508 0.558 24.489 o
4 5 11 0.271 0.018 0.260 125.904 o
4 5 12 0.523 0.986 0.366 61.707 o
4 5 13 0.673 1.271 1.222 5.691 o
4 6 0 1.719 1.015 0.170 167.972 o
4 6 1 22.438 25.325 1.194 1.237 o
4 6 2 4.871 4.052 0.478 19.406 o
4 6 3 61.425 65.629 2.907 0.178 o
4 6 4 4.270 3.422 0.517 20.045 o
4 6 5 0.605 0.223 0.172 269.000 o
4 6 6 7.112 4.941 0.595 11.205 o
4 6 7 53.415 64.978 2.965 0.205 o
4 6 8 36.704 48.415 2.677 0.361 o
4 6 9 0.137 -0.022 0.141 429.643 o
4 6 10 0.541 0.094 0.190 227.965 o
4 6 11 0.642 1.639 0.515 31.126 o
4 6 12 0.448 0.436 0.326 79.100 o
4 7 0 64.286 78.208 4.402 0.128 o
4 7 1 83.612 97.407 3.792 0.093 o
4 7 2 0.132 0.167 0.264 121.782 o
4 7 3 34.397 40.970 1.799 0.514 o
4 7 4 13.256 15.459 1.290 2.357 o
4 7 5 0.795 0.440 0.184 221.730 o
4 7 6 1.367 0.593 0.265 103.612 o
4 7 7 45.270 58.941 3.310 0.239 o
4 7 8 2.579 2.792 0.519 25.111 o
4 7 9 0.035 -0.161 0.103 798.310 o
4 7 10 0.024 0.041 0.213 188.466 o
4 7 11 0.992 1.694 0.454 38.610 o
4 7 12 0.154 0.184 0.369 62.542 o
4 8 0 0.682 0.808 0.411 48.943 o
4 8 1 0.110 -0.117 0.141 425.355 o
4 8 2 1.226 1.095 0.312 76.693 o
4 8 3 55.101 67.983 2.750 0.199 o
4 8 4 35.016 42.329 2.356 0.436 o
4 8 5 4.479 2.975 0.542 18.864 o
4 8 6 0.133 -0.234 0.205 202.919 o
4 8 7 9.056 8.946 1.044 4.483 o
4 8 8 12.286 16.368 1.391 2.248 o
4 8 9 1.449 2.267 0.496 30.994 o
4 8 10 0.084 0.094 0.198 217.837 o
4 8 11 0.253 0.572 0.208 191.428 o
4 9 0 0.324 0.615 0.565 26.564 o
4 9 1 5.172 4.714 0.906 7.962 o
4 9 2 0.382 0.461 0.219 172.162 o
4 9 3 2.353 2.024 1.002 8.104 o
4 9 4 15.270 17.968 1.373 1.898 o
4 9 5 2.073 3.184 0.627 18.858 o
4 9 6 0.002 -0.062 0.211 191.394 o
4 9 7 3.641 3.914 0.699 13.597 o
4 9 8 1.292 1.747 0.420 43.247 o
4 9 9 0.085 -0.233 0.348 70.520 o
4 9 10 0.111 0.182 0.234 156.043 o
4 9 11 0.018 0.046 0.259 127.525 o
4 10 0 0.759 0.384 0.784 13.794 o
4 10 1 1.378 1.332 0.652 19.247 o
4 10 2 0.000 0.194 0.287 103.832 o
4 10 3 2.483 2.419 0.548 23.624 o
4 10 4 2.764 2.164 0.491 27.838 o
4 10 5 1.006 0.509 0.226 146.427 o
4 10 6 4.950 4.595 0.867 8.661 o
4 10 7 0.419 0.736 0.384 56.919 o
4 10 8 1.335 1.376 0.455 37.858 o
4 10 9 0.133 -0.326 0.351 69.312 o
4 10 10 0.150 -0.209 0.346 71.416 o
4 11 4 2.004 2.278 1.007 8.069 o
4 11 5 1.101 0.716 0.297 87.320 o
4 11 6 0.074 0.127 0.250 136.225 o
4 11 7 0.056 -0.085 0.370 62.491 o
4 11 8 0.008 -0.060 0.270 116.905 o
4 11 9 0.000 -0.538 0.373 61.347 o
5 -10 0 0.898 0.115 0.326 77.214 o
5 -10 1 0.038 -0.087 0.339 74.331 o
5 -10 2 0.069 1.255 1.321 4.889 o
5 -9 0 5.213 6.781 1.208 4.771 o
5 -9 1 1.432 1.034 0.430 42.384 o
5 -9 2 0.050 -0.285 0.241 147.259 o
5 -9 3 0.005 -0.565 0.622 22.081 o
5 -9 4 0.327 -0.248 0.974 8.994 o
5 -8 0 2.616 3.341 0.766 12.764 o
5 -8 1 0.193 -0.360 0.553 27.863 o
5 -8 2 0.846 -0.106 0.391 54.777 o
5 -8 3 0.109 -0.146 0.373 61.234 o
5 -8 4 0.273 -0.633 0.515 32.153 o
5 -8 5 0.078 -1.189 1.304 5.019 o
5 -8 6 0.011 0.145 0.797 13.437 o
5 -7 0 6.736 6.339 0.765 8.360 o
5 -7 1 12.570 16.725 1.707 1.756 o
5 -7 2 0.615 0.421 0.206 187.830 o
5 -7 3 0.000 -0.184 0.276 111.938 o
5 -7 4 1.307 0.586 0.617 21.786 o
5 -7 5 0.134 0.185 0.095 928.878 o
5 -7 6 0.003 -0.396 0.743 15.469 o
5 -7 7 0.191 -0.380 0.363 64.584 o
5 -6 0 0.979 0.906 0.236 131.623 o
5 -6 1 0.095 -0.024 0.167 306.417 o
5 -6 2 5.503 6.273 0.924 7.200 o
5 -6 3 1.533 1.068 0.234 115.713 o
5 -6 4 0.062 -0.079 0.144 410.328 o
5 -6 5 8.832 11.979 1.414 2.868 o
5 -6 6 0.602 1.057 0.844 11.880 o
5 -6 7 0.027 -0.221 0.374 61.142 o
5 -5 0 3.960 3.314 0.441 25.477 o
5 -5 1 1.969 0.710 0.307 72.053 o
5 -5 2 0.045 -0.533 0.262 124.250 o
5 -5 3 1.290 0.618 0.305 81.696 o
5 -5 4 7.109 7.484 1.028 5.403 o
5 -5 5 0.448 0.447 0.467 38.862 o
5 -5 6 2.084 2.440 0.651 18.050 o
5 -5 7 0.136 0.003 0.154 358.115 o
5 -5 8 0.677 1.123 1.238 5.544 o
5 -4 0 16.640 18.991 1.387 1.722 o
5 -4 1 14.667 16.200 1.423 1.972 o
5 -4 2 0.679 0.544 0.172 255.218 o
5 -4 3 0.079 -0.251 0.255 130.974 o
5 -4 4 0.002 1.012 0.870 11.253 o
5 -4 5 51.486 73.456 4.017 0.168 o
5 -4 6 8.744 7.809 0.786 6.423 o
5 -4 7 0.018 0.256 0.226 166.297 o
5 -4 8 0.001 0.285 0.254 131.974 o
5 -3 0 3.178 2.364 0.339 42.836 o
5 -3 1 4.371 3.163 0.418 25.689 o
5 -3 2 12.565 11.713 0.925 3.613 o
5 -3 3 4.050 2.578 0.319 37.416 o
5 -3 4 10.960 11.465 0.878 4.249 o
5 -3 5 17.139 20.693 1.365 1.635 o
5 -3 6 6.552 6.367 0.648 10.145 o
5 -3 7 0.221 -0.319 0.173 281.708 o
5 -3 8 0.745 0.345 0.222 161.132 o
5 -3 9 0.471 0.109 0.437 44.323 o
5 -2 0 0.143 0.132 0.048 3434.340 o
5 -2 1 206.024 204.336 4.287 0.019 o
5 -2 2 13.578 11.871 0.675 3.974 o
5 -2 3 2.098 1.690 0.258 81.445 o
5 -2 4 8.765 7.042 0.977 5.255 o
5 -2 5 123.238 162.829 4.272 0.042 o
5 -2 6 42.005 46.934 1.951 0.373 o
5 -2 7 0.354 -0.328 0.167 299.798 o
5 -2 8 0.725 0.875 0.225 151.078 o
5 -2 9 1.122 0.587 0.237 130.716 o
5 -2 10 1.490 1.816 0.957 9.059 o
5 -1 0 0.481 0.445 0.122 498.074 o
5 -1 1 70.603 64.684 2.493 0.160 o
5 -1 2 44.546 42.245 1.819 0.380 o
5 -1 3 0.275 -0.002 0.152 365.767 o
5 -1 4 3.896 3.356 0.374 30.741 o
5 -1 5 15.878 16.965 0.996 2.352 o
5 -1 6 55.977 64.673 2.382 0.212 o
5 -1 7 2.313 1.414 0.240 86.877 o
5 -1 8 6.412 7.179 0.792 7.965 o
5 -1 9 0.764 1.051 0.341 69.101 o
5 -1 10 2.358 2.827 0.995 8.102 o
5 -1 11 2.793 5.580 1.766 2.620 o
5 0 0 0.456 0.351 0.107 648.607 o
5 0 1 252.591 252.863 5.717 0.013 o
5 0 2 6.622 4.375 0.469 15.117 o
5 0 3 2.016 1.084 0.209 117.331 o
5 0 4 179.771 194.154 5.213 0.023 o
5 0 5 3.514 3.242 0.418 29.225 o
5 0 6 6.264 6.107 0.734 9.238 o
5 0 7 0.486 0.385 0.159 312.657 o
5 0 8 0.006 -0.139 0.232 159.024 o
5 0 9 0.490 0.230 0.475 37.564 o
5 0 10 1.765 1.958 0.584 22.779 o
5 0 11 0.245 -0.991 0.891 10.739 o
5 0 12 0.198 0.726 0.479 37.021 o
5 1 1 14.428 13.414 0.656 3.534 o
5 1 2 41.109 38.466 1.227 0.483 o
5 1 3 5.308 3.208 0.349 25.577 o
5 1 4 30.783 30.520 2.145 0.609 o
5 1 5 72.557 91.285 2.724 0.123 o
5 1 6 168.323 183.220 8.507 0.023 o
5 1 7 10.589 11.537 1.118 3.502 o
5 1 8 1.534 1.287 0.410 45.133 o
5 1 9 0.007 -0.065 0.097 911.081 o
5 1 10 0.486 0.554 0.158 309.360 o
5 1 11 3.888 7.673 1.505 3.374 o
5 1 12 2.387 8.089 2.361 1.483 o
5 2 0 30.819 26.416 0.978 0.892 o
5 2 1 217.410 241.334 3.825 0.016 o
5 2 2 3.885 2.985 0.318 37.144 o
5 2 3 101.170 108.764 2.301 0.076 o
5 2 4 27.156 19.704 1.001 1.204 o
5 2 5 121.419 137.077 4.620 0.047 o
5 2 6 82.595 93.163 3.855 0.096 o
5 2 7 45.156 54.760 4.291 0.204 o
5 2 8 0.069 0.071 0.125 541.020 o
5 2 9 0.135 0.011 0.167 305.895 o
5 2 10 0.169 -0.146 0.282 107.255 o
5 2 11 0.575 0.597 0.285 101.004 o
5 2 12 1.059 3.780 1.733 2.805 o
5 2 13 0.239 0.165 0.578 25.536 o
5 3 0 39.193 40.608 1.327 0.488 o
5 3 1 36.101 40.403 1.313 0.540 o
5 3 2 172.541 177.633 3.008 0.027 o
5 3 3 66.538 71.651 2.761 0.158 o
5 3 4 41.657 41.660 1.661 0.424 o
5 3 5 13.940 16.539 1.180 2.381 o
5 3 6 94.865 80.849 4.482 0.084 o
5 3 7 16.512 17.885 1.746 1.440 o
5 3 8 0.364 -0.148 0.255 129.928 o
5 3 9 0.192 0.069 0.175 275.328 o
5 3 10 3.686 5.602 0.818 9.969 o
5 3 11 0.218 0.533 0.358 65.978 o
5 3 12 2.147 4.256 0.972 8.321 o
5 3 13 0.315 1.139 1.007 8.390 o
5 4 0 116.194 136.844 2.768 0.054 o
5 4 2 46.336 43.967 1.374 0.377 o
5 4 3 73.757 78.576 2.157 0.139 o
5 4 4 0.019 -0.334 0.292 99.866 o
5 4 5 37.310 38.036 1.928 0.479 o
5 4 6 40.076 38.231 2.145 0.423 o
5 4 7 45.554 46.897 3.857 0.237 o
5 4 8 0.076 -0.174 0.149 385.499 o
5 4 9 0.657 0.777 0.276 105.524 o
5 4 10 0.243 -0.145 0.101 823.634 o
5 4 11 0.328 0.235 0.152 357.705 o
5 4 12 0.405 0.924 0.282 103.220 o
5 4 13 0.249 0.132 0.215 183.597 o
5 5 0 93.108 108.888 4.257 0.074 o
5 5 1 15.870 13.437 0.792 2.949 o
5 5 2 110.740 128.900 2.782 0.059 o
5 5 3 2.102 1.644 0.285 71.734 o
5 5 4 19.300 19.932 1.363 1.507 o
5 5 5 3.326 3.006 0.520 22.833 o
5 5 6 64.163 68.912 4.178 0.141 o
5 5 7 22.850 27.049 1.966 0.876 o
5 5 8 0.080 -0.293 0.325 80.700 o
5 5 9 3.586 3.780 0.631 16.071 o
5 5 10 2.823 5.138 0.781 11.550 o
5 5 11 1.790 3.723 0.742 14.003 o
5 5 12 0.003 -0.041 0.558 27.374 o
5 5 13 0.122 0.231 1.007 8.416 o
5 6 0 7.451 8.808 1.054 4.922 o
5 6 1 1.380 0.721 0.384 53.177 o
5 6 2 40.426 43.872 1.532 0.435 o
5 6 3 106.898 121.683 6.391 0.051 o
5 6 4 27.352 24.550 1.583 0.900 o
5 6 5 0.192 -0.134 0.256 129.516 o
5 6 6 7.152 4.831 0.717 9.266 o
5 6 7 12.808 10.842 1.005 3.433 o
5 6 8 4.056 5.697 0.789 10.236 o
5 6 9 0.211 0.434 0.212 186.289 o
5 6 10 0.000 -0.088 0.141 431.948 o
5 6 11 0.166 0.492 0.200 208.708 o
5 6 12 0.084 -0.175 0.472 38.340 o
5 7 0 0.120 -0.204 0.198 217.420 o
5 7 1 3.409 2.502 0.449 28.611 o
5 7 2 10.001 9.842 0.829 5.094 o
5 7 3 15.276 15.725 1.301 2.096 o
5 7 4 11.491 13.991 1.391 2.472 o
5 7 5 0.081 -0.306 0.233 157.678 o
5 7 6 0.710 0.779 0.359 63.461 o
5 7 7 3.471 4.340 0.705 13.371 o
5 7 8 1.013 1.348 0.349 63.505 o
5 7 9 1.938 2.381 0.627 19.570 o
5 7 10 0.040 -0.363 0.176 274.520 o
5 7 11 0.234 0.215 0.329 78.579 o
5 7 12 0.082 0.726 0.182 252.148 o
5 8 0 5.288 4.929 1.166 5.249 o
5 8 1 0.186 -0.025 0.305 91.390 o
5 8 2 0.000 0.062 0.209 194.869 o
5 8 3 4.311 4.359 0.697 12.696 o
5 8 4 4.773 3.459 0.842 9.514 o
5 8 5 10.081 9.680 1.091 3.915 o
5 8 6 2.372 2.271 0.455 32.576 o
5 8 7 0.907 0.364 0.149 309.611 o
5 8 8 0.429 -0.247 0.325 79.986 o
5 8 9 0.010 0.111 0.357 66.817 o
5 8 10 0.650 0.161 0.159 308.244 o
5 8 11 0.000 -0.545 0.336 75.631 o
5 9 0 0.698 0.802 0.537 29.114 o
5 9 1 0.209 0.417 0.376 60.189 o
5 9 2 2.341 1.651 0.924 9.494 o
5 9 3 1.502 1.099 0.352 59.930 o
5 9 4 3.418 3.037 0.654 15.944 o
5 9 5 1.149 1.132 0.382 53.731 o
5 9 6 0.239 -0.234 0.207 197.490 o
5 9 7 0.194 -0.332 0.258 128.370 o
5 9 8 0.000 0.268 0.396 54.439 o
5 9 9 0.147 -0.508 0.397 54.069 o
5 9 10 0.085 -0.593 0.338 74.719 o
5 9 11 0.000 -0.026 0.543 29.006 o
5 10 0 0.522 0.472 0.660 19.464 o
5 10 1 0.679 1.094 0.660 19.275 o
5 10 2 0.318 0.281 0.495 34.674 o
5 10 3 0.009 0.743 0.693 17.734 o
5 10 4 1.665 0.659 0.199 149.254 o
5 10 5 0.001 0.212 0.260 126.380 o
5 10 6 0.412 -0.169 0.120 561.988 o
5 10 7 0.433 0.616 0.380 58.276 o
5 10 8 0.193 -0.121 0.330 78.182 o
5 10 9 0.122 0.461 0.388 56.410 o
5 10 10 0.076 -0.034 0.367 63.221 o
5 11 5 0.494 0.264 0.743 15.421 o
5 11 6 0.581 1.403 1.222 5.693 o
5 11 8 0.234 -0.033 0.611 22.867 o
6 -10 0 0.197 0.264 1.106 6.975 o
6 -9 0 1.242 0.427 0.328 72.794 o
6 -9 2 0.009 -0.838 0.775 14.207 o
6 -9 3 0.057 0.165 0.165 312.264 o
6 -8 0 0.173 -0.347 0.410 50.864 o
6 -8 1 0.989 -0.103 0.295 93.589 o
6 -8 2 0.003 -0.723 0.582 25.195 o
6 -8 3 0.012 -0.251 0.466 39.324 o
6 -8 4 1.586 1.316 0.456 37.004 o
6 -8 5 0.752 0.066 0.644 20.460 o
6 -7 0 0.094 -0.245 0.562 27.041 o
6 -7 1 0.581 -0.087 0.338 73.754 o
6 -7 2 0.948 0.428 0.492 34.431 o
6 -7 3 0.462 0.172 0.406 51.272 o
6 -7 4 0.939 1.003 0.582 24.515 o
6 -7 5 0.034 0.354 0.348 70.326 o
6 -7 6 0.010 0.611 0.578 25.538 o
6 -6 0 5.742 5.503 0.724 10.101 o
6 -6 1 2.771 2.901 0.585 20.271 o
6 -6 2 0.946 0.402 0.316 80.775 o
6 -6 3 0.103 -0.309 0.388 56.664 o
6 -6 4 8.952 10.553 1.379 3.049 o
6 -6 5 6.021 9.087 1.391 3.511 o
6 -6 6 0.272 0.011 0.392 55.541 o
6 -6 7 0.214 0.842 0.974 8.982 o
6 -5 0 0.729 1.143 0.282 98.127 o
6 -5 1 0.309 0.091 0.141 420.105 o
6 -5 2 0.684 0.069 0.218 170.958 o
6 -5 3 0.379 0.458 0.281 106.032 o
6 -5 4 5.867 6.291 1.061 5.739 o
6 -5 5 0.132 0.480 0.320 82.672 o
6 -5 6 0.000 0.809 0.525 30.907 o
6 -5 7 0.043 0.023 0.098 887.560 o
6 -4 0 32.893 37.338 2.919 0.420 o
6 -4 1 21.642 23.232 1.980 0.966 o
6 -4 2 0.301 0.198 0.033 4742.120 o
6 -4 3 1.615 1.067 0.327 66.896 o
6 -4 4 12.092 14.238 1.410 2.353 o
6 -4 5 17.658 22.566 1.832 1.206 o
6 -4 6 2.535 2.639 0.699 15.396 o
6 -4 7 1.097 1.280 0.290 87.662 o
6 -4 8 1.322 1.183 0.488 33.601 o
6 -3 0 0.580 0.293 0.226 159.319 o
6 -3 1 8.084 6.727 0.666 8.315 o
6 -3 2 11.947 12.333 0.938 3.650 o
6 -3 3 0.008 0.161 0.177 273.206 o
6 -3 4 1.520 1.641 1.703 2.920 o
6 -3 5 14.610 15.783 1.121 2.435 o
6 -3 6 0.295 0.237 0.205 199.688 o
6 -3 7 0.509 0.147 0.206 194.172 o
6 -3 8 0.011 -0.214 0.300 94.709 o
6 -3 9 2.179 2.360 0.780 12.952 o
6 -2 0 30.947 29.191 1.211 0.799 o
6 -2 1 6.197 4.345 0.448 16.669 o
6 -2 2 0.055 0.183 0.107 732.717 o
6 -2 3 26.621 25.331 1.551 0.921 o
6 -2 4 29.235 34.227 2.012 0.628 o
6 -2 5 0.542 0.578 0.376 58.955 o
6 -2 6 2.440 2.075 0.293 61.092 o
6 -2 7 0.034 -0.114 0.291 101.016 o
6 -2 8 2.090 2.151 0.447 34.913 o
6 -2 9 0.652 0.497 0.222 161.394 o
6 -1 0 0.402 0.806 0.834 12.228 o
6 -1 1 3.031 2.319 0.445 30.883 o
6 -1 2 4.325 3.317 0.467 22.647 o
6 -1 3 7.213 8.419 1.710 2.436 o
6 -1 4 4.487 5.623 0.511 17.148 o
6 -1 5 91.768 102.321 6.742 0.063 o
6 -1 6 7.648 6.351 0.606 9.621 o
6 -1 7 1.122 0.832 0.211 155.645 o
6 -1 8 0.010 0.303 0.174 282.371 o
6 -1 9 1.146 1.992 0.553 26.153 o
6 -1 10 2.302 3.315 0.735 13.984 o
6 0 0 8.370 8.571 0.690 7.189 o
6 0 2 14.496 13.835 0.941 2.920 o
6 0 3 2.743 2.773 0.328 46.631 o
6 0 4 79.622 94.811 3.027 0.106 o
6 0 5 106.812 122.538 4.371 0.059 o
6 0 6 26.251 28.663 1.469 0.901 o
6 0 7 0.727 0.202 0.240 141.213 o
6 0 8 1.307 1.190 0.376 54.130 o
6 0 9 0.102 0.076 0.146 401.511 o
6 0 10 1.924 2.548 0.586 21.972 o
6 0 11 2.478 8.469 2.262 1.606 o
6 1 0 11.910 12.848 0.726 4.223 o
6 1 1 49.729 52.077 1.507 0.307 o
6 1 2 8.290 7.293 0.548 9.145 o
6 1 3 15.604 12.457 0.759 3.168 o
6 1 4 5.612 2.570 0.601 14.895 o
6 1 5 97.915 95.171 4.251 0.076 o
6 1 6 7.960 6.886 0.831 6.733 o
6 1 7 4.821 4.104 0.642 13.734 o
6 1 8 1.158 0.975 0.288 90.061 o
6 1 9 1.750 2.377 0.612 20.681 o
6 1 10 0.000 -0.146 0.209 194.699 o
6 1 11 0.814 1.247 0.554 26.985 o
6 1 12 0.883 2.674 1.387 4.390 o
6 2 0 49.880 56.578 1.649 0.286 o
6 2 1 40.167 40.331 1.392 0.471 o
6 2 2 21.516 19.287 0.952 1.635 o
6 2 3 20.122 19.627 0.964 1.738 o
6 2 4 7.401 6.720 0.556 10.357 o
6 2 5 63.633 63.200 5.040 0.130 o
6 2 6 34.466 31.348 2.561 0.481 o
6 2 7 7.673 9.500 1.047 4.793 o
6 2 8 3.984 5.356 0.751 11.212 o
6 2 9 1.181 1.769 0.465 36.264 o
6 2 10 2.155 2.867 0.693 15.887 o
6 2 11 0.683 1.556 0.580 24.690 o
6 2 12 0.928 3.038 1.634 3.165 o
6 3 0 4.230 4.000 0.367 27.765 o
6 3 1 45.529 52.613 1.636 0.333 o
6 3 2 0.004 -0.046 0.106 762.373 o
6 3 3 0.436 0.327 0.122 516.165 o
6 3 4 23.317 28.113 1.437 1.032 o
6 3 5 98.127 102.485 4.325 0.072 o
6 3 6 10.642 11.262 1.070 3.677 o
6 3 7 0.124 -0.042 0.169 297.009 o
6 3 8 2.240 1.780 0.443 35.561 o
6 3 9 0.745 1.460 0.441 41.804 o
6 3 10 2.859 4.088 0.717 13.754 o
6 3 11 1.164 1.711 0.704 16.617 o
6 3 12 0.292 0.303 0.328 78.551 o
6 4 0 5.954 5.928 0.513 13.854 o
6 4 1 41.518 47.175 1.599 0.399 o
6 4 2 63.020 65.468 1.829 0.194 o
6 4 3 55.259 55.666 1.744 0.253 o
6 4 4 15.010 11.861 0.934 3.026 o
6 4 5 13.667 11.954 1.128 2.858 o
6 4 6 23.444 17.923 1.577 1.193 o
6 4 7 25.631 32.295 2.289 0.657 o
6 4 8 0.159 0.027 0.174 282.084 o
6 4 9 0.324 0.242 0.158 329.866 o
6 4 10 0.019 -0.132 0.255 131.542 o
6 4 11 0.005 -0.033 0.140 435.614 o
6 4 12 0.171 0.448 0.463 39.697 o
6 4 13 0.125 -0.825 1.354 4.659 o
6 5 0 0.443 0.144 0.170 282.639 o
6 5 1 4.932 4.030 0.455 20.233 o
6 5 2 30.261 34.885 1.339 0.717 o
6 5 3 2.336 1.753 0.259 75.554 o
6 5 4 0.296 -0.252 0.276 111.550 o
6 5 5 2.783 2.738 0.568 21.405 o
6 5 6 0.011 -0.409 0.306 91.305 o
6 5 7 0.018 -0.154 0.340 73.977 o
6 5 8 0.818 0.361 0.189 213.099 o
6 5 9 1.132 0.601 0.248 121.045 o
6 5 10 0.015 -0.051 0.097 909.685 o
6 5 11 0.868 0.741 0.316 80.231 o
6 5 12 0.001 0.601 0.569 26.342 o
6 6 0 0.253 -0.008 0.247 139.568 o
6 6 1 0.301 0.078 0.094 916.931 o
6 6 2 0.138 -0.013 0.093 973.783 o
6 6 3 1.193 0.056 0.216 159.729 o
6 6 4 39.076 40.279 2.088 0.428 o
6 6 5 5.439 4.549 0.683 11.689 o
6 6 6 5.889 4.669 0.778 9.418 o
6 6 7 3.217 2.052 0.501 25.812 o
6 6 8 0.050 -0.086 0.231 160.449 o
6 6 9 0.119 0.101 0.387 57.085 o
6 6 10 0.089 -0.054 0.267 119.253 o
6 6 11 1.076 2.026 0.547 26.811 o
6 6 12 0.022 -0.102 0.348 70.679 o
6 7 0 0.295 0.061 0.277 110.286 o
6 7 1 2.555 1.516 0.421 37.837 o
6 7 2 7.900 7.047 0.827 6.750 o
6 7 3 1.839 1.296 0.344 58.471 o
6 7 4 0.863 0.531 0.128 388.690 o
6 7 5 0.042 -0.263 0.120 590.718 o
6 7 6 2.344 2.232 0.582 21.779 o
6 7 7 1.964 1.200 0.436 38.919 o
6 7 8 0.026 -0.017 0.205 203.287 o
6 7 9 0.183 0.137 0.198 216.703 o
6 7 10 0.144 -0.111 0.434 45.371 o
6 7 11 0.050 0.179 0.373 61.446 o
6 7 12 0.057 0.473 0.484 36.454 o
6 8 0 0.290 0.119 0.470 38.472 o
6 8 1 2.565 2.011 0.924 9.368 o
6 8 2 0.044 -0.069 0.396 54.381 o
6 8 3 9.433 9.392 1.069 4.205 o
6 8 4 0.110 -0.585 0.389 56.326 o
6 8 5 0.522 0.035 0.345 71.105 o
6 8 6 0.004 0.092 0.200 213.219 o
6 8 7 0.909 0.224 0.396 52.996 o
6 8 8 0.295 0.365 0.295 96.666 o
6 8 9 0.063 -0.349 0.198 218.720 o
6 8 10 0.001 0.019 0.206 202.085 o
6 8 11 2.043 4.052 0.848 10.767 o
6 9 0 0.100 0.182 0.429 46.298 o
6 9 1 1.781 1.849 0.822 12.043 o
6 9 2 6.064 7.165 2.278 1.523 o
6 9 3 0.143 0.578 0.149 372.710 o
6 9 4 3.720 4.789 0.862 9.383 o
6 9 5 0.784 0.377 0.369 60.777 o
6 9 6 0.000 0.061 0.295 97.785 o
6 9 7 0.084 -0.298 0.221 175.067 o
6 9 8 1.067 1.281 0.497 32.881 o
6 9 9 0.076 0.026 0.176 275.579 o
6 9 10 0.044 -0.205 0.387 57.131 o
6 9 11 0.305 1.436 1.189 6.023 o
6 10 1 0.447 0.097 0.759 14.776 o
6 10 2 0.507 1.024 0.644 20.369 o
6 10 3 0.597 -0.281 0.330 77.191 o
6 10 4 0.000 -1.090 0.974 8.999 o
6 10 5 0.175 0.704 0.281 106.794 o
6 10 6 0.319 0.040 0.258 127.460 o
6 10 7 0.078 0.115 0.187 242.779 o
6 10 8 0.049 -0.173 0.218 180.284 o
6 10 9 0.003 -0.176 0.437 44.759 o
6 11 6 0.734 0.644 0.611 22.582 o
6 11 7 0.011 1.585 1.156 6.379 o
7 -9 0 0.001 -0.987 0.529 30.450 o
7 -9 1 0.342 -0.252 0.564 26.801 o
7 -9 2 0.261 -0.330 0.429 46.263 o
7 -8 0 0.559 -0.301 1.163 6.310 o
7 -8 1 0.047 -0.722 1.258 5.396 o
7 -8 2 0.071 -0.347 0.595 24.105 o
7 -8 3 2.045 1.413 0.430 39.109 o
7 -8 4 1.036 1.799 1.651 3.113 o
7 -7 0 0.360 0.534 0.410 50.268 o
7 -7 1 0.236 -0.750 0.539 29.329 o
7 -7 2 0.684 0.266 0.644 20.459 o
7 -7 3 0.602 1.103 0.587 24.372 o
7 -7 4 0.173 0.981 0.689 17.932 o
7 -7 5 0.130 0.207 0.535 29.787 o
7 -6 0 2.979 1.521 0.246 69.704 o
7 -6 1 2.319 2.159 0.447 34.035 o
7 -6 2 1.160 0.518 0.353 64.082 o
7 -6 3 2.662 4.456 1.002 7.690 o
7 -6 4 2.909 4.586 1.073 6.716 o
7 -6 5 0.357 0.490 0.779 14.014 o
7 -6 6 0.003 0.824 1.016 8.266 o
7 -5 0 0.272 -0.420 0.202 207.270 o
7 -5 1 0.720 0.157 0.267 115.242 o
7 -5 2 1.215 1.410 0.425 43.318 o
7 -5 3 0.061 0.465 0.351 69.013 o
7 -5 4 11.011 15.337 1.685 1.945 o
7 -5 5 0.064 1.341 0.672 18.827 o
7 -5 6 0.300 0.270 0.385 57.136 o
7 -5 7 0.230 0.002 0.575 25.768 o
7 -4 0 0.000 -0.267 0.202 209.943 o
7 -4 1 1.013 0.372 0.281 99.719 o
7 -4 2 12.415 13.272 1.149 2.911 o
7 -4 3 5.584 7.666 1.145 5.006 o
7 -4 4 1.006 2.353 1.181 6.031 o
7 -4 5 0.146 0.510 0.529 30.453 o
7 -4 6 0.844 1.569 0.548 27.382 o
7 -4 7 0.439 0.509 0.396 53.654 o
7 -4 8 1.331 0.696 0.735 15.460 o
7 -3 0 2.412 2.157 0.418 37.358 o
7 -3 1 1.045 1.216 0.312 78.140 o
7 -3 2 3.072 3.320 0.545 21.549 o
7 -3 3 1.187 2.153 0.466 35.579 o
7 -3 4 63.321 91.554 6.125 0.094 o
7 -3 5 5.815 6.690 1.019 6.050 o
7 -3 6 0.018 -0.085 0.260 126.060 o
7 -3 7 0.922 0.528 0.218 158.881 o
7 -3 8 0.108 -0.431 0.495 34.769 o
7 -3 9 2.507 3.985 1.074 6.870 o
7 -2 0 3.555 3.870 0.579 18.178 o
7 -2 1 4.487 5.360 0.877 8.561 o
7 -2 2 0.441 0.497 0.748 15.193 o
7 -2 3 10.463 12.445 1.423 2.618 o
7 -2 4 25.725 29.572 1.519 0.889 o
7 -2 5 30.349 40.174 2.072 0.547 o
7 -2 6 1.477 1.102 0.240 112.837 o
7 -2 7 0.001 -0.243 0.192 231.856 o
7 -2 8 1.003 0.889 0.644 20.142 o
7 -2 9 0.883 0.460 0.425 45.841 o
7 -1 0 43.532 57.759 1.821 0.321 o
7 -1 1 15.136 18.204 1.442 1.821 o
7 -1 2 4.298 4.268 0.485 20.370 o
7 -1 3 0.013 0.052 0.301 94.417 o
7 -1 4 89.390 109.973 3.449 0.082 o
7 -1 5 12.955 10.696 0.996 3.441 o
7 -1 6 0.025 -0.173 0.527 30.786 o
7 -1 7 1.490 0.727 0.350 61.844 o
7 -1 8 4.094 7.605 1.092 5.813 o
7 -1 9 0.066 -0.074 0.150 379.979 o
7 -1 10 0.230 -0.356 0.210 192.228 o
7 0 0 42.961 52.599 1.943 0.340 o
7 0 1 30.897 30.783 1.375 0.748 o
7 0 2 0.543 0.161 0.113 590.735 o
7 0 3 0.004 -0.416 0.218 179.069 o
7 0 4 3.658 1.636 0.446 29.688 o
7 0 5 40.494 41.331 2.547 0.369 o
7 0 6 5.863 6.856 0.670 10.262 o
7 0 7 0.001 -0.206 0.121 585.917 o
7 0 8 2.241 4.800 0.816 11.205 o
7 0 9 0.622 0.299 0.110 576.465 o
7 0 10 0.000 -0.083 0.269 118.335 o
7 1 0 59.228 80.119 4.956 0.125 o
7 1 1 7.159 6.545 0.493 11.748 o
7 1 2 1.737 0.786 0.159 187.250 o
7 1 3 0.001 -0.068 0.175 277.506 o
7 1 4 67.917 81.797 3.458 0.132 o
7 1 5 20.776 25.897 1.302 1.265 o
7 1 6 4.682 5.289 0.764 10.378 o
7 1 7 3.670 4.390 0.724 12.618 o
7 1 8 2.605 3.821 0.783 12.132 o
7 1 9 1.644 2.469 0.605 21.219 o
7 1 10 1.204 2.050 0.536 27.563 o
7 1 11 0.004 0.106 0.421 48.170 o
7 2 0 20.849 25.322 1.151 1.351 o
7 2 1 84.098 103.071 4.309 0.085 o
7 2 2 14.671 11.987 0.794 3.377 o
7 2 3 14.829 12.671 0.838 3.170 o
7 2 4 0.928 1.130 0.261 109.392 o
7 2 5 34.690 32.873 1.775 0.578 o
7 2 6 10.901 14.154 1.267 2.807 o
7 2 7 3.886 5.921 0.848 9.206 o
7 2 8 0.123 0.257 0.136 451.739 o
7 2 9 0.459 0.904 0.294 94.910 o
7 2 10 0.429 0.278 0.619 22.174 o
7 2 11 0.006 -0.359 0.201 212.276 o
7 2 12 0.359 1.271 1.238 5.553 o
7 3 0 21.663 26.679 1.184 1.247 o
7 3 1 34.574 47.616 1.670 0.476 o
7 3 2 14.690 16.419 0.946 2.646 o
7 3 3 5.458 4.354 0.450 18.492 o
7 3 4 0.042 -0.070 0.194 225.738 o
7 3 5 2.266 2.934 0.487 28.504 o
7 3 6 4.198 3.695 0.628 15.328 o
7 3 7 3.512 3.071 0.678 14.912 o
7 3 8 0.088 0.105 0.228 164.241 o
7 3 9 0.000 0.049 0.097 907.376 o
7 3 10 0.162 0.257 0.473 38.083 o
7 3 11 0.018 0.127 0.429 46.344 o
7 3 12 0.318 0.193 0.685 18.159 o
7 4 0 0.359 0.214 0.136 436.263 o
7 4 1 6.473 6.683 0.588 11.027 o
7 4 2 1.188 1.275 0.269 97.897 o
7 4 3 20.362 19.710 1.220 1.539 o
7 4 4 25.327 29.220 1.590 0.888 o
7 4 5 7.524 6.660 0.784 7.502 o
7 4 6 0.206 0.207 0.340 73.458 o
7 4 7 0.016 0.058 0.138 447.034 o
7 4 8 0.611 0.849 0.335 73.157 o
7 4 9 0.175 0.008 0.186 246.170 o
7 4 10 2.960 5.091 0.891 9.186 o
7 4 11 0.550 0.517 0.703 17.175 o
7 4 12 0.240 0.826 0.144 377.298 o
7 5 0 6.821 5.398 0.906 6.976 o
7 5 1 7.738 9.154 0.743 6.964 o
7 5 2 12.132 14.268 0.870 3.548 o
7 5 3 0.182 0.135 0.307 90.092 o
7 5 4 1.200 0.326 0.243 126.795 o
7 5 5 0.022 -0.141 0.159 336.061 o
7 5 6 4.926 4.002 0.739 11.239 o
7 5 7 0.302 0.540 0.421 47.716 o
7 5 8 0.052 0.017 0.231 159.454 o
7 5 9 0.004 -0.203 0.251 135.310 o
7 5 10 1.094 1.380 0.504 31.789 o
7 5 11 0.200 0.829 0.630 21.448 o
7 5 12 0.024 -0.474 0.449 42.274 o
7 6 0 0.785 0.505 0.308 85.788 o
7 6 1 5.616 7.098 1.070 5.623 o
7 6 2 12.301 11.680 0.922 3.690 o
7 6 3 2.834 3.617 0.509 24.080 o
7 6 4 1.060 0.501 0.147 291.401 o
7 6 5 0.083 -0.060 0.279 109.805 o
7 6 6 0.015 -0.288 0.234 156.066 o
7 6 7 0.710 0.700 0.235 141.749 o
7 6 8 0.011 0.010 0.248 139.356 o
7 6 9 0.425 -0.011 0.247 137.939 o
7 6 10 3.688 5.508 0.884 8.836 o
7 6 11 2.527 6.002 1.186 5.539 o
7 6 12 0.020 0.339 0.417 49.049 o
7 7 0 1.391 1.470 0.525 28.915 o
7 7 1 6.624 6.902 1.171 4.682 o
7 7 2 0.954 1.139 0.436 42.604 o
7 7 3 7.905 7.288 0.993 5.406 o
7 7 4 5.893 4.610 0.767 9.619 o
7 7 5 0.682 0.834 0.290 95.594 o
7 7 6 0.975 0.865 0.233 135.009 o
7 7 7 1.510 1.074 0.413 45.139 o
7 7 8 0.614 1.137 0.389 54.096 o
7 7 9 0.179 -0.497 0.411 50.382 o
7 7 10 1.810 3.343 0.783 12.800 o
7 7 11 0.043 0.438 0.354 68.079 o
7 8 0 0.035 -0.325 0.436 44.944 o
7 8 1 2.878 4.424 1.321 4.590 o
7 8 2 0.083 0.231 0.578 25.558 o
7 8 3 0.413 0.297 0.462 39.696 o
7 8 4 0.492 0.354 0.344 70.863 o
7 8 5 0.078 -0.135 0.302 93.524 o
7 8 6 0.856 0.827 0.168 240.213 o
7 8 7 0.203 0.250 0.386 57.070 o
7 8 8 0.403 0.263 0.144 387.161 o
7 8 9 0.011 -0.629 0.352 69.021 o
7 8 10 1.821 3.062 0.795 12.520 o
7 8 11 1.745 1.362 0.900 10.216 o
7 9 0 0.001 -0.875 0.686 18.143 o
7 9 1 1.294 0.657 0.601 22.878 o
7 9 2 1.387 0.825 0.693 17.242 o
7 9 3 1.966 1.849 1.337 4.677 o
7 9 4 7.012 6.158 2.262 1.533 o
7 9 5 1.505 1.255 1.106 6.865 o
7 9 6 0.038 0.083 0.199 214.638 o
7 9 7 0.587 -0.304 0.338 73.586 o
7 9 8 1.397 1.706 0.543 26.858 o
7 9 9 1.010 0.600 0.579 24.897 o
7 9 10 0.746 0.543 0.600 23.435 o
7 10 2 0.001 0.495 0.660 19.566 o
7 10 3 0.043 0.231 0.759 14.801 o
7 10 4 0.002 0.446 0.495 34.774 o
7 10 5 0.483 0.050 0.776 14.154 o
7 10 6 0.059 0.270 0.328 79.402 o
7 10 7 0.239 -0.464 0.495 34.847 o
7 10 8 0.000 -0.314 0.611 22.882 o
8 -8 0 0.250 -0.374 0.873 11.200 o
8 -8 1 0.612 1.020 0.483 35.683 o
8 -8 2 0.087 0.867 0.562 26.915 o
8 -7 0 0.029 -0.670 1.188 6.045 o
8 -7 1 0.002 -0.937 0.489 35.750 o
8 -7 2 0.026 0.157 0.469 38.782 o
8 -7 3 2.516 5.710 1.255 5.012 o
8 -7 4 0.291 0.784 0.949 9.453 o
8 -6 0 0.013 -0.259 0.682 18.344 o
8 -6 1 2.748 3.571 0.779 12.234 o
8 -6 2 2.559 4.989 1.046 7.068 o
8 -6 3 0.004 0.534 0.644 20.538 o
8 -6 4 0.068 2.808 1.762 2.740 o
8 -6 5 0.025 1.229 0.696 17.553 o
8 -6 6 0.021 1.885 0.904 10.386 o
8 -5 0 0.030 -0.450 0.398 53.913 o
8 -5 1 0.205 0.168 0.259 127.022 o
8 -5 2 0.113 1.835 0.768 14.363 o
8 -5 3 12.655 25.157 2.365 1.014 o
8 -5 4 5.436 11.157 1.574 2.831 o
8 -5 5 0.093 0.462 0.782 13.941 o
8 -5 6 0.068 1.274 0.823 12.574 o
8 -5 7 0.020 -0.120 0.322 82.097 o
8 -4 0 4.812 5.357 0.788 9.813 o
8 -4 1 0.021 0.512 0.337 74.823 o
8 -4 2 4.738 8.155 1.180 4.914 o
8 -4 3 2.771 6.008 1.116 6.129 o
8 -4 4 6.072 12.714 1.607 2.610 o
8 -4 5 0.004 1.143 1.447 4.076 o
8 -4 6 0.005 0.171 0.360 65.686 o
8 -4 7 0.039 -1.144 0.772 14.331 o
8 -4 8 0.111 -0.989 0.619 22.273 o
8 -3 0 0.092 0.273 0.386 57.288 o
8 -3 1 4.911 7.535 0.872 7.794 o
8 -3 2 0.291 0.605 0.722 16.329 o
8 -3 3 16.326 23.564 1.906 1.195 o
8 -3 4 9.019 12.687 1.401 2.833 o
8 -3 5 0.059 0.338 0.314 86.271 o
8 -3 6 0.000 -0.453 0.566 26.606 o
8 -3 7 1.987 2.803 0.769 13.277 o
8 -3 8 0.225 -0.444 0.558 27.380 o
8 -2 0 19.900 27.467 2.071 0.916 o
8 -2 1 4.777 6.154 0.837 8.753 o
8 -2 2 0.349 0.054 0.240 146.310 o
8 -2 3 0.178 0.259 0.305 91.361 o
8 -2 4 7.741 9.431 1.182 4.092 o
8 -2 5 0.628 0.067 0.269 115.223 o
8 -2 6 0.119 -0.449 0.437 44.779 o
8 -2 7 0.060 -1.433 0.822 12.622 o
8 -2 8 0.251 -0.305 0.571 26.189 o
8 -2 9 0.015 0.622 0.460 40.260 o
8 -1 0 0.094 0.975 0.345 70.758 o
8 -1 1 2.678 3.129 0.449 30.316 o
8 -1 2 0.461 0.299 0.289 100.440 o
8 -1 3 7.126 8.369 0.738 7.665 o
8 -1 4 7.725 8.783 0.769 6.863 o
8 -1 5 0.504 0.127 0.358 65.965 o
8 -1 6 4.596 5.429 0.764 10.386 o
8 -1 7 0.192 -0.292 0.334 76.446 o
8 -1 8 2.576 4.573 1.085 6.654 o
8 -1 9 0.943 1.276 0.669 18.635 o
8 -1 10 0.087 -0.427 0.561 27.095 o
8 0 0 32.717 41.009 2.428 0.462 o
8 0 1 19.466 23.397 1.239 1.459 o
8 0 2 3.784 2.907 0.394 30.790 o
8 0 3 0.108 0.049 0.142 422.246 o
8 0 4 8.214 7.237 0.679 7.883 o
8 0 5 2.521 2.392 0.215 79.304 o
8 0 6 0.016 -0.225 0.381 58.954 o
8 0 7 0.274 0.587 0.280 106.906 o
8 0 8 0.013 0.439 0.325 80.788 o
8 0 9 0.090 -0.400 0.331 77.862 o
8 0 10 0.027 0.376 0.453 41.475 o
8 1 0 4.041 4.660 0.459 21.832 o
8 1 1 9.113 10.107 0.750 5.870 o
8 1 2 0.093 -0.412 0.234 156.119 o
8 1 3 3.429 2.557 0.325 41.814 o
8 1 4 0.089 -0.004 0.195 223.715 o
8 1 5 0.550 0.251 0.206 191.581 o
8 1 6 1.949 1.768 0.377 48.036 o
8 1 7 1.566 0.552 0.461 37.462 o
8 1 8 0.292 0.056 0.212 187.448 o
8 1 9 0.125 0.259 0.305 91.624 o
8 1 10 0.240 0.233 0.246 140.274 o
8 1 11 0.322 0.759 0.686 18.054 o
8 2 0 1.622 0.916 0.176 170.329 o
8 2 1 0.272 0.133 0.144 401.650 o
8 2 2 7.420 6.949 0.653 8.950 o
8 2 3 4.458 3.728 0.474 21.215 o
8 2 4 1.447 0.909 0.193 160.171 o
8 2 5 0.128 0.332 0.205 200.513 o
8 2 6 4.010 5.277 0.738 11.531 o
8 2 7 0.641 0.786 0.285 99.248 o
8 2 8 0.156 0.035 0.248 138.223 o
8 2 9 1.931 3.081 0.780 12.911 o
8 2 10 0.548 0.960 0.540 28.790 o
8 2 11 0.009 0.609 0.179 261.723 o
8 3 0 1.406 2.066 0.536 27.222 o
8 3 1 4.266 3.896 0.465 22.010 o
8 3 2 1.376 1.270 0.277 89.891 o
8 3 3 1.547 1.194 0.257 98.768 o
8 3 4 1.418 0.972 0.248 110.223 o
8 3 5 0.785 0.097 0.200 198.066 o
8 3 6 0.303 0.177 0.229 160.767 o
8 3 7 0.381 0.203 0.203 201.161 o
8 3 8 0.347 0.216 0.063 1729.970 o
8 3 9 0.775 1.444 0.556 26.761 o
8 3 10 1.180 2.369 0.748 14.606 o
8 3 11 0.000 -0.699 0.312 87.736 o
8 4 0 2.613 3.502 0.772 12.538 o
8 4 1 3.332 3.472 0.421 29.329 o
8 4 2 1.788 2.421 0.378 46.750 o
8 4 3 1.681 1.857 0.446 37.187 o
8 4 4 0.160 -0.091 0.232 158.758 o
8 4 5 0.809 0.208 0.211 176.353 o
8 4 6 2.952 5.193 0.890 9.192 o
8 4 7 0.036 -0.031 0.236 153.272 o
8 4 8 0.026 -0.023 0.300 94.889 o
8 4 9 3.724 5.579 1.089 6.210 o
8 4 10 2.391 4.345 0.884 9.774 o
8 4 11 0.290 0.315 0.627 21.687 o
8 5 0 5.022 6.718 1.094 5.659 o
8 5 1 0.049 -0.207 0.196 222.423 o
8 5 2 4.420 4.067 0.595 15.844 o
8 5 3 4.917 4.578 0.660 12.807 o
8 5 4 0.082 -0.066 0.286 104.379 o
8 5 5 2.972 3.604 0.699 14.456 o
8 5 6 7.715 9.659 1.209 3.949 o
8 5 7 0.180 -0.098 0.083 1226.960 o
8 5 8 0.449 0.261 0.272 112.795 o
8 5 9 1.942 3.016 0.697 15.861 o
8 5 10 0.310 -0.174 0.295 97.360 o
8 5 11 0.001 -0.218 0.194 227.924 o
8 6 0 1.179 0.581 0.520 30.502 o
8 6 1 0.018 -0.510 0.416 49.395 o
8 6 2 0.055 -0.192 0.330 78.303 o
8 6 3 3.040 3.239 0.540 22.005 o
8 6 4 0.333 -0.003 0.143 407.844 o
8 6 5 0.000 -0.007 0.227 165.054 o
8 6 6 0.240 0.116 0.420 48.253 o
8 6 7 0.183 0.382 0.309 88.952 o
8 6 8 0.759 0.713 0.272 107.652 o
8 6 9 3.103 3.501 0.710 14.020 o
8 6 10 1.908 2.411 0.642 18.765 o
8 6 11 0.477 0.850 0.293 95.733 o
8 7 0 1.083 1.184 0.555 26.683 o
8 7 1 0.330 0.064 0.273 114.010 o
8 7 2 1.867 0.776 0.520 29.134 o
8 7 3 5.507 5.783 1.221 4.731 o
8 7 4 5.005 3.911 0.748 11.020 o
8 7 5 0.015 -0.671 0.212 189.196 o
8 7 6 1.947 1.810 0.557 24.671 o
8 7 7 1.173 0.994 0.408 47.762 o
8 7 8 1.475 1.252 0.472 35.245 o
8 7 9 1.137 2.685 0.651 18.907 o
8 7 10 0.045 0.136 0.621 22.151 o
8 7 11 0.016 -0.448 0.458 40.630 o
8 8 0 0.072 -0.781 0.626 21.802 o
8 8 1 0.094 -0.401 0.239 149.622 o
8 8 2 0.023 -0.594 1.024 8.149 o
8 8 3 0.200 1.288 1.420 4.229 o
8 8 4 0.301 0.825 0.842 12.005 o
8 8 5 0.191 -0.215 0.561 27.084 o
8 8 6 0.090 0.176 0.551 28.080 o
8 8 7 0.183 0.011 0.563 26.939 o
8 8 8 0.054 0.201 0.184 250.666 o
8 8 9 1.605 1.943 0.510 29.431 o
8 8 10 1.442 1.980 1.059 7.442 o
8 9 1 0.106 -0.314 0.772 14.323 o
8 9 2 0.570 -0.017 0.611 22.794 o
8 9 3 0.549 1.238 1.354 4.643 o
8 9 4 1.374 -0.050 0.578 24.945 o
8 9 5 1.257 -0.066 0.462 38.684 o
8 9 6 2.740 4.342 2.031 2.018 o
8 9 7 0.940 2.014 1.205 5.811 o
8 9 8 0.160 -0.345 0.834 12.281 o
8 9 9 0.013 1.073 0.693 17.709 o
9 -7 0 0.016 -0.169 0.310 88.891 o
9 -7 1 0.070 1.663 1.013 8.290 o
9 -7 2 2.081 4.863 1.649 3.037 o
9 -6 0 0.155 0.162 0.545 28.671 o
9 -6 1 0.244 0.401 0.684 18.226 o
9 -6 2 0.665 1.973 0.757 14.597 o
9 -6 3 1.149 1.724 1.936 2.267 o
9 -6 4 0.041 6.561 1.913 2.303 o
9 -6 5 0.008 0.991 1.255 5.419 o
9 -5 0 0.174 0.972 0.464 39.324 o
9 -5 1 0.301 1.706 0.944 9.512 o
9 -5 2 3.609 7.508 1.433 3.720 o
9 -5 3 1.196 3.112 1.722 2.847 o
9 -5 4 0.015 2.099 1.529 3.646 o
9 -5 5 0.104 1.964 1.015 8.248 o
9 -5 6 0.257 0.559 0.475 37.555 o
9 -4 0 1.813 3.645 0.746 13.887 o
9 -4 1 0.380 1.486 0.555 27.202 o
9 -4 2 0.175 1.739 1.139 6.560 o
9 -4 3 3.182 6.566 1.289 4.619 o
9 -4 4 0.398 2.026 0.748 15.039 o
9 -4 5 0.045 1.601 0.846 11.868 o
9 -4 6 0.128 -0.191 0.454 41.407 o
9 -4 7 0.281 -1.459 0.845 11.957 o
9 -3 0 0.005 1.081 1.532 3.635 o
9 -3 1 0.040 1.559 2.054 2.022 o
9 -3 2 2.544 6.467 2.516 1.317 o
9 -3 3 0.622 2.041 1.702 2.935 o
9 -3 4 0.695 1.976 0.676 18.171 o
9 -3 5 0.280 0.779 0.431 45.379 o
9 -3 6 0.005 -0.783 0.517 31.939 o
9 -3 7 0.356 -1.482 0.904 10.431 o
9 -3 8 0.774 0.654 0.776 14.055 o
9 -2 0 3.282 8.782 2.740 1.099 o
9 -2 1 4.635 7.843 0.976 6.682 o
9 -2 2 0.062 0.332 0.553 27.915 o
9 -2 3 6.689 9.774 1.035 5.124 o
9 -2 4 0.763 1.472 0.490 34.118 o
9 -2 5 0.010 -1.768 0.898 10.590 o
9 -2 6 0.038 -1.134 0.667 19.161 o
9 -2 7 0.057 -0.641 0.712 16.832 o
9 -2 8 0.394 -0.062 0.218 177.827 o
9 -2 9 0.005 -0.015 0.627 21.693 o
9 -1 0 1.300 1.777 0.531 28.117 o
9 -1 1 0.065 0.019 0.396 54.557 o
9 -1 2 0.016 -0.241 0.163 323.083 o
9 -1 3 0.267 -0.009 0.187 240.997 o
9 -1 4 2.090 1.291 0.386 46.840 o
9 -1 5 0.036 -0.251 0.493 35.080 o
9 -1 6 0.408 -2.482 1.050 7.741 o
9 -1 7 0.090 -0.811 0.557 27.510 o
9 -1 8 0.049 -0.288 0.381 58.865 o
9 -1 9 0.065 0.042 0.520 31.566 o
9 0 0 0.719 0.329 0.226 157.026 o
9 0 1 4.150 4.517 0.583 16.337 o
9 0 2 2.109 2.020 0.334 55.106 o
9 0 3 3.834 4.250 0.558 18.203 o
9 0 4 0.015 -0.099 0.179 265.549 o
9 0 5 0.570 0.106 0.212 182.921 o
9 0 6 0.040 -0.374 0.450 42.219 o
9 0 7 0.091 0.098 0.058 2492.380 o
9 0 8 2.710 4.860 1.203 5.456 o
9 0 9 0.204 -0.362 0.281 108.138 o
9 0 10 0.041 -0.455 0.221 175.265 o
9 1 0 1.217 0.269 0.218 153.673 o
9 1 1 0.148 -0.151 0.165 312.930 o
9 1 2 0.113 -0.303 0.223 170.766 o
9 1 3 0.009 -0.569 0.295 98.112 o
9 1 4 2.533 2.003 0.362 45.836 o
9 1 5 1.972 2.459 0.507 28.245 o
9 1 6 0.137 0.193 0.202 208.869 o
9 1 7 0.004 0.045 0.281 107.935 o
9 1 8 1.088 1.815 0.566 25.241 o
9 1 9 0.415 0.367 0.429 45.942 o
9 1 10 0.048 -0.566 0.578 25.546 o
9 2 0 4.373 6.118 0.923 7.784 o
9 2 1 0.538 0.681 0.222 161.773 o
9 2 2 0.171 0.176 0.256 129.235 o
9 2 3 0.794 0.147 0.381 57.413 o
9 2 4 0.326 -0.008 0.178 265.717 o
9 2 5 0.008 0.442 0.301 93.778 o
9 2 6 0.144 0.628 0.310 87.872 o
9 2 7 0.007 -0.037 0.338 74.932 o
9 2 8 4.841 7.700 1.188 4.885 o
9 2 9 2.012 3.493 0.863 10.580 o
9 2 10 0.076 0.308 0.660 19.568 o
9 2 11 0.063 0.710 0.688 18.030 o
9 3 0 0.373 0.504 0.138 410.591 o
9 3 1 8.434 13.197 1.368 2.970 o
9 3 2 1.867 1.126 0.314 68.483 o
9 3 3 0.304 0.195 0.248 137.415 o
9 3 4 0.255 0.222 0.168 297.849 o
9 3 5 6.886 9.746 1.060 4.913 o
9 3 6 1.772 2.108 0.529 27.062 o
9 3 7 0.130 0.224 0.150 377.135 o
9 3 8 3.830 7.570 1.235 4.791 o
9 3 9 0.045 -0.208 0.371 62.029 o
9 3 10 0.011 -0.154 0.289 102.286 o
9 3 11 0.035 -0.119 0.900 10.546 o
9 4 0 0.446 0.098 0.400 52.914 o
9 4 1 0.003 0.115 0.199 216.163 o
9 4 2 0.267 -0.284 1.164 6.301 o
9 4 3 0.732 -0.006 0.161 302.024 o
9 4 4 0.134 0.101 0.135 464.129 o
9 4 5 0.634 0.572 0.272 109.504 o
9 4 6 0.275 0.306 0.243 142.268 o
9 4 7 0.233 0.014 0.258 127.561 o
9 4 8 4.349 7.680 1.271 4.461 o
9 4 9 2.927 4.742 1.029 7.211 o
9 4 10 0.188 -0.571 0.449 42.299 o
9 4 11 0.082 0.442 0.581 25.302 o
9 5 0 0.936 0.829 0.309 82.637 o
9 5 1 3.946 5.462 1.083 6.229 o
9 5 2 4.450 4.285 1.109 6.003 o
9 5 3 2.165 1.693 0.433 37.479 o
9 5 4 0.964 0.764 0.263 110.880 o
9 5 5 0.179 0.212 0.143 408.544 o
9 5 6 1.852 2.048 0.639 19.197 o
9 5 7 1.601 2.147 0.643 19.174 o
9 5 8 3.285 6.587 1.122 5.880 o
9 5 9 0.014 -0.390 0.527 30.760 o
9 5 10 0.102 0.133 0.273 113.953 o
9 5 11 0.032 0.197 0.314 86.707 o
9 6 0 0.527 0.523 0.380 57.931 o
9 6 1 0.256 -0.040 0.220 175.204 o
9 6 2 0.000 -0.053 0.347 71.032 o
9 6 3 0.288 -0.100 0.098 857.710 o
9 6 4 0.000 -0.369 0.184 252.927 o
9 6 5 0.092 -0.043 0.317 84.659 o
9 6 6 0.092 0.123 0.267 119.311 o
9 6 7 0.146 -0.205 0.345 71.804 o
9 6 8 1.526 1.714 0.563 24.929 o
9 6 9 3.146 4.518 1.114 6.226 o
9 6 10 0.025 -0.174 0.204 204.842 o
9 7 0 0.022 -0.854 0.738 15.665 o
9 7 1 1.097 0.652 0.364 60.393 o
9 7 2 0.881 0.165 0.357 65.030 o
9 7 3 0.441 0.039 0.974 8.990 o
9 7 5 7.764 13.999 3.582 0.619 o
9 7 6 2.111 2.771 0.717 15.010 o
9 7 7 0.178 0.024 0.402 52.657 o
9 7 8 0.357 0.555 0.371 61.294 o
9 7 9 0.291 0.116 0.089 998.474 o
9 7 10 0.130 0.885 0.564 26.725 o
9 8 1 0.025 -0.891 1.090 7.191 o
9 8 2 0.114 -0.347 0.693 17.756 o
9 8 3 0.094 -0.149 0.281 108.337 o
9 8 4 0.213 0.314 0.710 16.921 o
9 8 5 0.094 0.116 0.908 10.354 o
9 8 6 0.019 1.601 1.387 4.433 o
9 8 7 1.019 2.641 1.601 3.298 o
9 8 8 0.218 0.165 0.347 70.795 o
9 9 4 0.065 -0.924 1.040 7.892 o
9 9 5 3.879 5.877 2.476 1.347 o
9 9 6 2.731 4.655 2.113 1.864 o
10 -5 1 0.204 6.106 1.823 2.532 o
10 -5 2 0.335 6.196 1.889 2.357 o
10 -5 3 0.252 3.893 1.490 3.809 o
10 -5 4 0.087 1.780 0.846 11.853 o
10 -4 0 0.451 0.915 1.123 6.755 o
10 -4 1 0.250 1.607 2.115 1.905 o
10 -4 2 1.375 2.186 0.875 10.771 o
10 -4 3 0.067 2.849 1.110 6.871 o
10 -4 4 0.028 1.089 0.801 13.262 o
10 -4 5 0.012 -0.816 0.571 26.158 o
10 -4 6 0.000 -0.111 1.279 5.215 o
10 -3 0 0.067 1.349 1.487 3.857 o
10 -3 1 0.093 1.068 1.215 5.774 o
10 -3 2 0.060 0.634 0.759 14.788 o
10 -3 3 0.483 2.854 1.041 7.765 o
10 -3 4 0.008 0.132 0.850 11.810 o
10 -3 5 0.010 -1.212 0.724 16.300 o
10 -3 6 0.005 -2.229 1.027 8.090 o
10 -3 7 0.062 -1.557 0.795 13.508 o
10 -2 0 0.037 0.236 0.505 33.441 o
10 -2 1 0.776 1.238 0.565 26.069 o
10 -2 2 0.302 0.278 0.241 145.228 o
10 -2 3 0.365 0.340 0.404 51.785 o
10 -2 4 0.081 -1.734 0.916 10.178 o
10 -2 5 0.099 -1.502 0.832 12.339 o
10 -2 6 0.004 -1.352 1.012 8.330 o
10 -2 7 0.712 -0.348 1.057 7.632 o
10 -2 8 0.300 1.051 0.690 17.840 o
10 -1 0 0.051 -0.165 0.350 69.692 o
10 -1 1 0.125 -0.031 0.159 336.307 o
10 -1 2 0.242 0.186 0.314 86.319 o
10 -1 3 0.144 -0.278 0.444 43.261 o
10 -1 4 0.283 -0.785 0.510 32.788 o
10 -1 5 0.125 -0.919 0.701 17.363 o
10 -1 6 0.119 -1.165 0.832 12.331 o
10 -1 7 1.233 0.843 0.991 8.595 o
10 -1 8 0.368 -0.004 0.248 137.871 o
10 -1 9 0.007 -0.512 0.825 12.530 o
10 0 0 1.317 2.634 0.924 9.648 o
10 0 1 0.167 -0.447 0.531 30.256 o
10 0 2 0.026 -0.220 0.562 26.997 o
10 0 3 0.002 -0.952 0.593 24.303 o
10 0 4 0.016 -1.779 0.793 13.584 o
10 0 5 0.283 -0.324 0.488 35.813 o
10 0 6 0.011 -1.684 0.858 11.599 o
10 0 7 1.207 1.563 0.656 19.046 o
10 0 8 1.723 3.598 1.137 6.333 o
10 0 9 0.161 0.560 0.314 85.567 o
10 1 0 1.999 4.548 1.075 6.907 o
10 1 1 2.582 4.077 1.109 6.441 o
10 1 2 0.041 -0.882 0.473 38.155 o
10 1 3 0.684 0.347 0.362 63.467 o
10 1 4 1.556 2.802 0.636 19.261 o
10 1 5 0.375 0.230 0.179 257.167 o
10 1 6 0.683 0.292 0.368 61.808 o
10 1 7 3.061 5.773 1.276 4.780 o
10 1 8 0.327 -0.055 0.726 16.166 o
10 1 9 0.148 -0.687 0.891 10.741 o
10 2 0 0.362 0.232 0.388 56.343 o
10 2 1 0.520 0.639 0.726 16.085 o
10 2 2 0.066 0.338 0.244 143.247 o
10 2 3 0.049 0.203 0.312 87.528 o
10 2 4 0.016 -0.223 0.228 164.643 o
10 2 5 0.699 0.663 0.248 129.099 o
10 2 6 0.520 0.059 0.279 107.979 o
10 2 7 1.204 0.763 0.425 44.511 o
10 2 8 2.669 3.613 1.073 6.881 o
10 2 9 0.454 0.846 0.348 68.574 o
10 2 10 0.043 1.039 0.565 26.594 o
10 3 0 0.721 0.330 0.494 34.456 o
10 3 1 3.651 4.170 1.199 5.393 o
10 3 2 2.570 2.791 0.933 9.083 o
10 3 3 0.188 0.321 0.224 167.896 o
10 3 4 0.163 0.554 0.193 223.244 o
10 3 5 0.006 -0.010 0.295 98.371 o
10 3 6 1.957 2.671 0.605 20.607 o
10 3 7 2.200 3.741 0.868 10.317 o
10 3 8 0.342 0.525 0.806 13.098 o
10 3 9 0.185 1.093 0.669 18.988 o
10 3 10 0.152 1.010 0.638 20.857 o
10 4 0 0.423 0.519 0.302 91.537 o
10 4 1 0.450 1.157 0.660 19.416 o
10 4 2 0.586 0.376 0.421 47.460 o
10 4 3 0.074 0.046 0.403 52.656 o
10 4 4 0.151 0.143 0.274 113.364 o
10 4 5 0.141 -0.125 0.204 203.760 o
10 4 6 0.040 -0.076 0.297 97.014 o
10 4 7 0.132 -0.208 0.404 52.155 o
10 4 8 2.722 5.143 1.105 6.344 o
10 4 9 0.165 0.627 1.288 5.146 o
10 4 10 0.205 0.071 1.065 7.528 o
10 5 0 0.092 0.052 0.483 36.623 o
10 5 1 0.561 0.942 0.900 10.485 o
10 5 2 1.001 0.854 0.448 40.728 o
10 5 3 0.360 0.181 0.949 9.465 o
10 5 4 6.988 15.384 2.371 1.298 o
10 5 5 5.427 10.757 1.271 3.999 o
10 5 6 0.134 0.228 0.229 162.265 o
10 5 7 0.090 0.180 0.375 60.766 o
10 5 8 0.071 -0.337 0.321 82.674 o
10 5 9 0.167 -0.110 0.190 235.021 o
10 6 1 0.416 -0.147 0.817 12.770 o
10 6 2 0.071 0.438 0.378 59.538 o
10 6 3 0.076 -0.475 0.351 69.207 o
10 6 4 0.139 0.215 0.949 9.472 o
10 6 5 0.029 0.693 1.106 6.975 o
10 6 6 0.690 0.132 0.825 12.484 o
10 6 7 1.023 1.220 0.478 35.499 o
10 6 8 0.182 0.705 0.376 59.980 o
10 7 2 0.179 0.899 0.941 9.622 o
10 7 3 0.010 0.458 0.641 20.740 o
10 7 4 2.678 4.391 2.278 1.612 o
10 7 5 4.168 7.330 2.872 1.002 o
10 7 6 0.201 -0.479 0.578 25.558 o
10 7 7 0.003 -0.627 1.337 4.774 o
11 -3 4 0.000 -1.601 0.899 10.567 o
11 -2 3 0.027 -1.559 0.602 23.521 o
11 -2 4 0.017 -2.157 0.927 9.942 o
11 -2 5 0.161 -1.560 1.032 8.017 o
11 -2 6 0.393 0.074 1.065 7.524 o
11 -1 0 0.311 2.064 1.436 4.123 o
11 -1 1 0.137 -0.743 0.281 108.278 o
11 -1 3 0.739 -0.111 0.418 48.282 o
11 -1 4 0.029 -1.370 0.836 12.228 o
11 -1 5 0.044 -1.394 0.698 17.534 o
11 -1 6 0.781 -0.534 0.734 15.788 o
11 -1 7 0.159 0.428 0.505 33.383 o
11 0 0 0.247 -1.189 0.792 13.590 o
11 0 1 0.038 -0.215 0.660 19.578 o
11 0 2 0.044 -0.941 0.858 11.585 o
11 0 3 0.026 -0.779 0.610 22.938 o
11 0 4 0.000 -1.736 0.887 10.852 o
11 0 5 0.328 -0.144 0.432 45.590 o
11 0 6 0.632 0.332 0.323 79.511 o
11 0 7 0.919 1.253 0.711 16.522 o
11 1 0 0.455 -0.149 0.578 25.501 o
11 1 1 1.439 1.898 0.792 13.068 o
11 1 2 0.703 1.832 1.189 5.993 o
11 1 3 0.084 1.453 0.792 13.533 o
11 1 4 0.037 0.343 0.212 188.491 o
11 1 5 0.224 0.325 0.519 31.604 o
11 1 6 0.633 0.912 0.693 17.566 o
11 1 7 0.078 -0.343 1.469 3.955 o
11 1 8 0.011 -0.627 0.644 20.584 o
11 2 0 0.134 -0.017 0.594 24.165 o
11 2 1 0.005 -0.050 0.429 46.339 o
11 2 2 0.059 -1.156 1.090 7.191 o
11 2 3 0.018 -0.380 1.024 8.149 o
11 2 4 0.821 1.585 0.908 10.212 o
11 2 5 0.182 0.487 0.644 20.542 o
11 2 6 0.065 -0.902 0.559 27.335 o
11 2 7 1.225 2.660 0.925 9.644 o
11 2 8 0.030 0.028 0.249 137.138 o
11 3 0 0.009 0.066 0.561 27.097 o
11 3 1 0.357 -0.182 0.165 306.892 o
11 3 2 0.589 0.891 0.693 17.584 o
11 3 3 3.082 7.610 2.311 1.538 o
11 3 4 2.706 7.495 2.212 1.681 o
11 3 5 0.028 -0.215 0.413 50.119 o
11 3 6 0.025 0.559 0.603 23.486 o
11 3 7 0.269 -0.341 0.530 30.326 o
11 3 8 0.091 -0.174 0.858 11.584 o
11 4 1 0.278 0.479 0.545 28.651 o
11 4 2 0.143 -0.182 0.429 46.316 o
11 4 3 0.046 0.231 0.330 78.230 o
11 4 4 0.273 -0.743 0.991 8.699 o
11 4 5 0.954 -0.116 0.677 18.472 o
11 4 6 0.628 1.370 0.974 8.927 o
11 5 2 0.002 0.974 0.776 14.156 o
11 5 3 1.382 0.875 0.891 10.547 o
11 5 4 1.703 3.946 1.865 2.412 o
11 5 5 0.191 0.545 0.561 27.016 o
11 6 4 0.011 0.726 0.462 39.839 o
;
_olex2_submission_special_instructions 'No special instructions were received'
_oxdiff_exptl_absorpt_empirical_details
;
Empirical correction (ABSPACK) includes:
- Absorption correction using spherical harmonics
- Frame scaling
;
_oxdiff_exptl_absorpt_empirical_full_max 1.594
_oxdiff_exptl_absorpt_empirical_full_min 0.587
loop_
_space_group_symop_id
_space_group_symop_operation_xyz
1 x,y,z
2 -x,-y,-z
loop_
_atom_site_label
_atom_site_type_symbol
_atom_site_fract_x
_atom_site_fract_y
_atom_site_fract_z
_atom_site_U_iso_or_equiv
_atom_site_adp_type
_atom_site_occupancy
_atom_site_refinement_flags_posn
O001 O 0.64899(19) 0.79387(19) 0.19492(16) 0.0673(5) Uani 1.000000 .
O002 O 0.2431(2) 0.54825(18) 0.68157(18) 0.0699(5) Uani 1.000000 .
C003 C 0.5107(3) 0.7023(2) 0.6204(2) 0.0539(5) Uani 1.000000 .
C004 C 0.3686(3) 0.7263(2) 0.4112(2) 0.0542(5) Uani 1.000000 .
C005 C 0.6154(3) 0.8021(2) 0.4790(2) 0.0554(5) Uani 1.000000 .
C006 C 0.3576(2) 0.6465(2) 0.5852(2) 0.0533(5) Uani 1.000000 .
C007 C 0.5327(3) 0.8328(2) 0.3368(2) 0.0563(5) Uani 1.000000 .
C008 C 0.2483(3) 0.6998(2) 0.3406(2) 0.0575(5) Uani 1.000000 .
C009 C 0.2413(3) 0.7727(3) 0.1744(3) 0.0611(5) Uani 1.000000 .
C00A C 0.1145(3) 0.7332(3) 0.1181(3) 0.0632(5) Uani 1.000000 .
C00B C 0.5564(3) 0.6618(3) 0.7674(3) 0.0673(6) Uani 1.000000 .
C00C C 0.7750(3) 0.8594(3) 0.4801(3) 0.0677(6) Uani 1.000000 .
C00D C 0.8210(3) 0.8167(3) 0.6260(3) 0.0765(7) Uani 1.000000 .
C00E C 0.7123(4) 0.7225(3) 0.7685(3) 0.0760(7) Uani 1.000000 .
C00F C 0.0952(3) 0.8043(4) -0.0500(3) 0.0767(7) Uani 1.000000 .
H00C H 0.8485(3) 0.9243(3) 0.3855(3) 0.0812(7) Uiso 1.000000 R
H00D H 0.9281(3) 0.8525(3) 0.6285(3) 0.0918(8) Uiso 1.000000 R
H00E H 0.7447(4) 0.7000(3) 0.8656(3) 0.0912(8) Uiso 1.000000 R
H00B H 0.4840(3) 0.5958(3) 0.8619(3) 0.0808(7) Uiso 1.000000 R
H001 H 0.682(3) 0.6942(11) 0.2172(10) 0.1009(7) Uiso 1.000000 GR
H007 H 0.4951(3) 0.9521(2) 0.3084(2) 0.0675(6) Uiso 1.000000 R
H008 H 0.1591(3) 0.6259(2) 0.4062(2) 0.0690(6) Uiso 1.000000 R
H009 H 0.3266(3) 0.8489(3) 0.1050(3) 0.0733(6) Uiso 1.000000 R
H00A H 0.0320(3) 0.6553(3) 0.1897(3) 0.0759(7) Uiso 1.000000 R
H00f H 0.1895(17) 0.880(2) -0.1124(8) 0.1151(10) Uiso 1.000000 GR
H00g H 0.100(3) 0.7141(4) -0.1006(10) 0.1151(10) Uiso 1.000000 GR
H00h H -0.0165(13) 0.865(2) -0.0456(3) 0.1151(10) Uiso 1.000000 GR
loop_
_atom_site_aniso_label
_atom_site_aniso_U_11
_atom_site_aniso_U_22
_atom_site_aniso_U_33
_atom_site_aniso_U_12
_atom_site_aniso_U_13
_atom_site_aniso_U_23
O001 0.0676(9) 0.0675(10) 0.0610(9) -0.0094(7) -0.0106(7) -0.0113(7)
O002 0.0705(10) 0.0595(9) 0.0733(10) -0.0169(7) -0.0097(7) -0.0109(7)
C003 0.0607(10) 0.0433(9) 0.0599(10) -0.0010(7) -0.0188(8) -0.0141(8)
C004 0.0576(10) 0.0478(9) 0.0586(10) -0.0002(8) -0.0166(8) -0.0151(8)
C005 0.0573(10) 0.0452(9) 0.0658(11) -0.0036(8) -0.0175(9) -0.0157(8)
C006 0.0564(10) 0.0448(9) 0.0587(11) -0.0040(7) -0.0137(8) -0.0140(8)
C007 0.0627(11) 0.0456(9) 0.0589(11) -0.0095(8) -0.0172(9) -0.0069(8)
C008 0.0552(10) 0.0528(10) 0.0660(12) -0.0053(8) -0.0157(9) -0.0169(9)
C009 0.0588(11) 0.0595(11) 0.0667(12) -0.0054(8) -0.0184(9) -0.0159(9)
C00A 0.0607(11) 0.0633(12) 0.0708(13) -0.0023(9) -0.0210(9) -0.0217(10)
C00B 0.0802(14) 0.0609(12) 0.0619(12) -0.0011(10) -0.0247(11) -0.0120(9)
C00C 0.0656(12) 0.0621(12) 0.0763(14) -0.0118(10) -0.0201(10) -0.0145(10)
C00D 0.0742(14) 0.0763(15) 0.0895(16) -0.0088(11) -0.0350(12) -0.0223(12)
C00E 0.0858(16) 0.0726(15) 0.0807(15) -0.0008(12) -0.0406(13) -0.0192(12)
C00F 0.0762(15) 0.0890(17) 0.0742(14) 0.0009(12) -0.0294(12) -0.0275(12)
loop_
_atom_type_symbol
_atom_type_scat_dispersion_real
_atom_type_scat_dispersion_imag
_atom_type_scat_Cromer_Mann_a1
_atom_type_scat_Cromer_Mann_a2
_atom_type_scat_Cromer_Mann_a3
_atom_type_scat_Cromer_Mann_a4
_atom_type_scat_Cromer_Mann_b1
_atom_type_scat_Cromer_Mann_b2
_atom_type_scat_Cromer_Mann_b3
_atom_type_scat_Cromer_Mann_b4
_atom_type_scat_Cromer_Mann_c
_atom_type_scat_source
_atom_type_scat_dispersion_source
H 0.00000 0.00000 0.49300 0.32291 0.14019 0.04081 10.51090 26.12570 3.14236
57.79970 0.0030380000826
'International Tables Volume C Table 6.1.1.4 (pp. 500-502)'
'Henke, Gullikson and Davis, At. Data and Nucl. Data Tables, 1993, 54, 2'
C 0.00347 0.00161 2.31000 1.02000 1.58860 0.86500 20.84390 10.20750 0.56870
51.65120 0.215599998832
'International Tables Volume C Table 6.1.1.4 (pp. 500-502)'
'Henke, Gullikson and Davis, At. Data and Nucl. Data Tables, 1993, 54, 2'
O 0.01158 0.00611 3.04850 2.28680 1.54630 0.86700 13.27710 5.70110 0.32390
32.90890 0.250800013542
'International Tables Volume C Table 6.1.1.4 (pp. 500-502)'
'Henke, Gullikson and Davis, At. Data and Nucl. Data Tables, 1993, 54, 2'
loop_
_geom_angle_atom_site_label_1
_geom_angle_atom_site_label_2
_geom_angle_atom_site_label_3
_geom_angle
H001 O001 C007 109.5
C006 C003 C005 109.58(17)
C00B C003 C005 121.9(2)
C00B C003 C006 128.44(19)
C007 C004 C006 108.84(16)
C008 C004 C006 121.95(18)
C008 C004 C007 129.21(18)
C007 C005 C003 111.61(17)
C00C C005 C003 119.8(2)
C00C C005 C007 128.54(18)
C003 C006 O002 126.68(17)
C004 C006 O002 126.10(18)
C004 C006 C003 107.19(16)
C004 C007 O001 114.40(16)
C005 C007 O001 113.86(16)
C005 C007 C004 102.62(15)
H007 C007 O001 108.55(10)
H007 C007 C004 108.55(10)
H007 C007 C005 108.55(9)
C009 C008 C004 127.4(2)
H008 C008 C004 116.31(12)
H008 C008 C009 116.31(12)
C00A C009 C008 121.4(2)
H009 C009 C008 119.30(12)
H009 C009 C00A 119.30(14)
C00F C00A C009 125.1(2)
H00A C00A C009 117.47(14)
H00A C00A C00F 117.47(14)
C00E C00B C003 117.9(2)
H00B C00B C003 121.05(13)
H00B C00B C00E 121.05(15)
C00D C00C C005 117.9(2)
H00C C00C C005 121.04(13)
H00C C00C C00D 121.04(14)
C00E C00D C00C 122.0(2)
H00D C00D C00C 119.02(14)
H00D C00D C00E 119.02(14)
C00D C00E C00B 120.4(2)
H00E C00E C00B 119.82(15)
H00E C00E C00D 119.82(14)
H00f C00F C00A 109.5
H00g C00F C00A 109.5
H00g C00F H00f 109.5
H00h C00F C00A 109.5
H00h C00F H00f 109.5
H00h C00F H00g 109.5
loop_
_geom_bond_atom_site_label_1
_geom_bond_atom_site_label_2
_geom_bond_distance
O001 C007 1.425(3)
O001 H001 0.8200
O002 C006 1.238(2)
C003 C005 1.383(3)
C003 C006 1.472(3)
C003 C00B 1.390(3)
C004 C006 1.480(3)
C004 C007 1.520(3)
C004 C008 1.337(3)
C005 C007 1.525(3)
C005 C00C 1.391(3)
C007 H007 0.9800
C008 C009 1.442(3)
C008 H008 0.9300
C009 C00A 1.338(3)
C009 H009 0.9300
C00A C00F 1.486(3)
C00A H00A 0.9300
C00B C00E 1.377(3)
C00B H00B 0.9300
C00C C00D 1.382(3)
C00C H00C 0.9300
C00D C00E 1.383(4)
C00D H00D 0.9300
C00E H00E 0.9300
C00F H00f 0.9600
C00F H00g 0.9600
C00F H00h 0.9600
