#------------------------------------------------------------------------------
#$Date: 2017-08-22 04:24:44 +0300 (Tue, 22 Aug 2017) $
#$Revision: 199866 $
#$URL: file:///home/coder/svn-repositories/cod/cif/7/12/05/7120584.cif $
#------------------------------------------------------------------------------
#
# This file is available in the Crystallography Open Database (COD),
# http://www.crystallography.net/
#
# All data on this site have been placed in the public domain by the
# contributors.
#
data_7120584
loop_
_publ_author_name
'Dharmarwardana, Madushani'
'Welch, Raymond Patrick'
'Kwon, Sunah'
'Nguyen, Victoria K.'
'McCandless, Gregory T.'
'Omary, Mohammad A.'
'Gassensmith, Jeremiah J.'
_publ_section_title
;
 Thermo-Mechanically Responsive Crystalline Organic Cantilever
;
_journal_name_full               'Chem. Commun.'
_journal_paper_doi               10.1039/C7CC04346E
_journal_year                    2017
_chemical_formula_moiety         'C34 H30 N2 O6'
_chemical_formula_sum            'C34 H30 N2 O6'
_chemical_formula_weight         562.60
_chemical_melting_point          635
_chemical_name_common            BNDI
_chemical_name_systematic
'butoxyphenyl N-substituted naphthalene diimide '
_space_group_crystal_system      triclinic
_space_group_IT_number           2
_space_group_name_Hall           '-P 1'
_space_group_name_H-M_alt        'P -1'
_symmetry_space_group_name_Hall  '-P 1'
_symmetry_space_group_name_H-M   'P -1'
_atom_sites_solution_hydrogens   geom
_audit_creation_method           SHELXL-2014/7
_audit_update_record
;
2016-08-03 deposited with the CCDC.
2017-08-10 downloaded from the CCDC.
;
_cell_angle_alpha                100.182(11)
_cell_angle_beta                 93.124(14)
_cell_angle_gamma                94.102(14)
_cell_formula_units_Z            1
_cell_length_a                   4.1636(8)
_cell_length_b                   8.1371(18)
_cell_length_c                   20.104(5)
_cell_measurement_reflns_used    6075
_cell_measurement_temperature    100(2)
_cell_measurement_theta_max      30.44
_cell_measurement_theta_min      2.57
_cell_volume                     667.1(3)
_computing_cell_refinement       'Bruker SAINT'
_computing_data_collection       'Bruker APEX2'
_computing_data_reduction        'Bruker SAINT'
_computing_molecular_graphics    'ORTEP-3 for Windows (Farrugia, 2012)'
_computing_publication_material  'publCIF (Westrip, 2010)'
_computing_structure_refinement  'SHELXL-2014/7 (Sheldrick, 2014)'
_computing_structure_solution    'SHELXTL Intrinsic Phasing (Sheldrick, 2014)'
_diffrn_ambient_temperature      100(2)
_diffrn_measured_fraction_theta_full 0.993
_diffrn_measured_fraction_theta_max 0.912
_diffrn_measurement_device_type
;
Bruker Kappa D8 Quest CMOS diffractometer (with an Oxford Cryosystems cryostream
cooler)
;
_diffrn_measurement_method       '\f and \w scans'
_diffrn_radiation_monochromator  'HELIOS optics'
_diffrn_radiation_type           MoK\a
_diffrn_radiation_wavelength     0.71073
_diffrn_reflns_av_R_equivalents  0.0337
_diffrn_reflns_av_unetI/netI     0.0379
_diffrn_reflns_Laue_measured_fraction_full 0.993
_diffrn_reflns_Laue_measured_fraction_max 0.912
_diffrn_reflns_limit_h_max       5
_diffrn_reflns_limit_h_min       -5
_diffrn_reflns_limit_k_max       11
_diffrn_reflns_limit_k_min       -11
_diffrn_reflns_limit_l_max       28
_diffrn_reflns_limit_l_min       -28
_diffrn_reflns_number            14793
_diffrn_reflns_point_group_measured_fraction_full 0.993
_diffrn_reflns_point_group_measured_fraction_max 0.912
_diffrn_reflns_theta_full        25.242
_diffrn_reflns_theta_max         30.537
_diffrn_reflns_theta_min         2.552
_diffrn_source                   'I\mS microfocus tube'
_exptl_absorpt_coefficient_mu    0.097
_exptl_absorpt_correction_T_max  0.7461
_exptl_absorpt_correction_T_min  0.6984
_exptl_absorpt_correction_type   multi-scan
_exptl_absorpt_process_details   'SADABS (Sheldrick, 2002)'
_exptl_crystal_colour            orange
_exptl_crystal_density_diffrn    1.400
_exptl_crystal_description       fragment
_exptl_crystal_F_000             296
_exptl_crystal_recrystallization_method
'Re-crystallisation from solvent: Chloroform'
_exptl_crystal_size_max          0.260
_exptl_crystal_size_mid          0.080
_exptl_crystal_size_min          0.060
_refine_diff_density_max         0.372
_refine_diff_density_min         -0.250
_refine_diff_density_rms         0.054
_refine_ls_extinction_method     none
_refine_ls_goodness_of_fit_ref   1.019
_refine_ls_hydrogen_treatment    constr
_refine_ls_matrix_type           full
_refine_ls_number_parameters     191
_refine_ls_number_reflns         3710
_refine_ls_number_restraints     0
_refine_ls_restrained_S_all      1.019
_refine_ls_R_factor_all          0.0660
_refine_ls_R_factor_gt           0.0449
_refine_ls_shift/su_max          0.001
_refine_ls_shift/su_mean         0.000
_refine_ls_structure_factor_coef Fsqd
_refine_ls_weighting_details
'w=1/[\s^2^(Fo^2^)+(0.0555P)^2^+0.2578P] where P=(Fo^2^+2Fc^2^)/3'
_refine_ls_weighting_scheme      calc
_refine_ls_wR_factor_gt          0.1057
_refine_ls_wR_factor_ref         0.1148
_reflns_Friedel_coverage         0.000
_reflns_number_gt                2854
_reflns_number_total             3710
_reflns_threshold_expression     'I > 2\s(I)'
_cod_data_source_file            c7cc04346e2.cif
_cod_data_source_block           scd0497_Triclinic_100K
_cod_database_code               7120584
_publcif_datablock.id            {dc48d5fa-6034-47e2-beca-65b2ac4106b6}
_shelx_shelxl_version_number     2014/7
_shelx_space_group_comment
;
The symmetry employed for this shelxl refinement is uniquely defined
by the following loop, which should always be used as a source of
symmetry information in preference to the above space-group names.
They are only intended as comments.
;
_shelx_estimated_absorpt_t_min   0.975
_shelx_estimated_absorpt_t_max   0.994
_shelx_res_file
;

    shelx.res created by SHELXL-2014/7


TITL scd0497_a.res in P-1
CELL  0.71073   4.16364    8.13711   20.10398  100.1823   93.1236   94.1015
ZERR    1.000   0.00075    0.00181    0.00498    0.0113    0.0144    0.0141
rem
rem  Component                Vol
rem     1.1(1)             667.11
rem                          0.39
rem
LATT 1
SFAC C  H  N  O
UNIT 34  30  2  6
ACTA
CONF
BOND $H
FMAP 2
SIZE 0.06 0.08 0.26
TEMP -173
rem
EQIV $1 -x+1, -y+2, -z+1
MPLA 16 C1 N1 C2 C3 C4 C5 C6 C7 C1_$1 N1_$1 C2_$1 C3_$1 C4_$1 C5_$1 C6_$1 C7_$1
MPLA 6 C8 C9 C10 C11 C12 C13
rem

L.S. 100
PLAN 5
rem  PLAT031_ALERT_4_A Refined Extinction Parameter within Range ...0.000 Sigma
WGHT    0.055500    0.257800
FVAR       0.84847
O1    4    0.625223    1.013649    0.709239    11.00000    0.01987    0.01401 =
         0.01089    0.00306    0.00054    0.00015
O2    4   -0.072310    0.632258    0.570434    11.00000    0.01773    0.01431 =
         0.01455    0.00482    0.00184   -0.00284
O3    4    0.145311    0.414763    0.837586    11.00000    0.02115    0.01357 =
         0.01227    0.00748    0.00591    0.00452
N1    3    0.314411    0.805669    0.638429    11.00000    0.01530    0.01083 =
         0.00936    0.00414    0.00232    0.00099
C1    1    0.516896    0.954194    0.652156    11.00000    0.01248    0.00923 =
         0.01222    0.00322    0.00280    0.00308
C2    1    0.141493    0.744070    0.575768    11.00000    0.01371    0.01005 =
         0.01120    0.00279    0.00236    0.00310
C3    1    0.234174    0.821182    0.517395    11.00000    0.01178    0.00914 =
         0.01197    0.00314    0.00251    0.00238
C4    1    0.101364    0.754099    0.453154    11.00000    0.01394    0.00936 =
         0.01393    0.00283    0.00168    0.00008
AFIX  43
H4    2   -0.049863    0.658576    0.446454    11.00000   -1.20000
AFIX   0
C5    1    0.188761    0.826425    0.397579    11.00000    0.01442    0.01127 =
         0.01032    0.00148    0.00098    0.00198
AFIX  43
H5    2    0.098988    0.778369    0.353372    11.00000   -1.20000
AFIX   0
C6    1    0.403809    0.966592    0.406759    11.00000    0.01216    0.01036 =
         0.01029    0.00325    0.00252    0.00296
C7    1    0.542019    1.036809    0.472097    11.00000    0.01106    0.00889 =
         0.01096    0.00299    0.00201    0.00308
C8    1    0.278392    0.706534    0.691399    11.00000    0.01356    0.01200 =
         0.00945    0.00516    0.00051   -0.00083
C9    1    0.126199    0.764813    0.749611    11.00000    0.01603    0.01153 =
         0.01327    0.00242    0.00163    0.00296
AFIX  43
H9    2    0.047152    0.872768    0.756189    11.00000   -1.20000
AFIX   0
C10   1    0.090424    0.664815    0.797917    11.00000    0.01775    0.01517 =
         0.00990    0.00239    0.00446    0.00290
AFIX  43
H10   2   -0.011501    0.704727    0.838101    11.00000   -1.20000
AFIX   0
C11   1    0.202941    0.505634    0.788094    11.00000    0.01329    0.01297 =
         0.01022    0.00505    0.00010   -0.00155
C12   1    0.361299    0.448865    0.730157    11.00000    0.01365    0.01010 =
         0.01267    0.00232    0.00084    0.00068
AFIX  43
H12   2    0.442871    0.341506    0.723612    11.00000   -1.20000
AFIX   0
C13   1    0.398689    0.551034    0.682007    11.00000    0.01363    0.01361 =
         0.01034    0.00230    0.00281    0.00066
AFIX  43
H13   2    0.507496    0.513600    0.642493    11.00000   -1.20000
AFIX   0
C14   1    0.278526    0.255214    0.831777    11.00000    0.01936    0.01164 =
         0.01271    0.00461    0.00228    0.00227
AFIX  23
H14A  2    0.514950    0.268946    0.828441    11.00000   -1.20000
H14B  2    0.182032    0.178540    0.790641    11.00000   -1.20000
AFIX   0
C15   1    0.202542    0.184341    0.894442    11.00000    0.02016    0.01376 =
         0.01461    0.00719    0.00202    0.00133
AFIX  23
H15A  2    0.298838    0.075929    0.892364    11.00000   -1.20000
H15B  2   -0.034262    0.162736    0.894957    11.00000   -1.20000
AFIX   0
C16   1    0.329561    0.301314    0.959676    11.00000    0.02194    0.02142 =
         0.01295    0.00536    0.00245    0.00197
AFIX  23
H16A  2    0.227790    0.408345    0.962212    11.00000   -1.20000
H16B  2    0.565099    0.326014    0.958204    11.00000   -1.20000
AFIX   0
C17   1    0.265968    0.230563    1.023505    11.00000    0.03143    0.03965 =
         0.01500    0.01186    0.00331    0.00448
AFIX 137
H17A  2    0.032710    0.212031    1.026875    11.00000   -1.50000
H17B  2    0.360053    0.310166    1.063337    11.00000   -1.50000
H17C  2    0.364266    0.124015    1.021330    11.00000   -1.50000
AFIX   0
HKLF 4

REM  scd0497_a.res in P-1
REM R1 =  0.0449 for    2854 Fo > 4sig(Fo)  and  0.0660 for all    3710 data
REM    191 parameters refined using      0 restraints

END

WGHT      0.0555      0.2578

REM Highest difference peak  0.372,  deepest hole -0.250,  1-sigma level  0.054
Q1    1   0.2065  0.7896  0.5455  11.00000  0.05    0.37
Q2    1   0.2357  0.2132  0.8636  11.00000  0.05    0.36
Q3    1   0.3243  0.8978  0.5224  11.00000  0.05    0.35
Q4    1   0.5000  1.0000  0.5000  10.50000  0.05    0.35
Q5    1   0.3162  0.8971  0.4039  11.00000  0.05    0.34
;
_shelx_res_checksum              78988
_shelx_hkl_file
;
  -1   0   0    4.30    0.70
  -1   0   0    6.80    0.60
  -1   0   0    6.60    0.70
  -1   0   0    7.20    0.70
  -1   0   0    6.80    0.80
  -1   0   0    6.50    0.40
  -1   0   0    5.20    0.70
   1   0   0    6.90    0.80
   1   0   0    6.80    0.40
   1   0   0    7.00    0.70
   1   0   0    7.30    0.70
   1   0   0    6.50    0.80
   1   0   0    6.50    0.60
  -2   0   0  271.57    9.10
   2   0   0  281.97    8.50
   2   0   0  271.57    8.90
  -3   0   0   25.90    2.80
  -3   0   0   25.70    2.40
   3   0   0   29.40    2.60
   3   0   0   29.70    2.60
  -4   0   0   58.79    4.10
  -4   0   0   54.49    4.40
  -4   0   0   55.49    3.60
   4   0   0   58.59    4.50
   4   0   0   60.79    4.30
   4   0   0   51.79    4.20
  -5   0   0    7.90    2.90
   5   0   0   10.40    4.60
   5  -1   0    2.70    3.60
   5  -1   0    6.90    3.00
  -5   1   0    7.40    4.50
  -5   1   0    7.80    3.00
  -5   1   0   11.90    3.40
   4  -1   0   61.59    4.40
   4  -1   0   53.69    4.30
  -4   1   0   53.59    4.20
  -4   1   0   54.59    4.60
  -4   1   0   55.79    3.80
   3  -1   0   53.59    2.50
  -3   1   0   52.29    3.40
  -3   1   0   52.29    3.40
   2  -1   0   28.60    1.50
   1  -1   0 1684.63   49.80
   1  -1   0 1662.93   50.09
   1  -1   0 1655.03   50.09
   1  -1   0 1629.14   49.90
   1  -1   0 1605.94   49.70
   1  -1   0 1693.63   50.09
  -1   1   0 1665.03   49.70
  -1   1   0 1664.93   49.99
  -1   1   0 1637.54   49.99
  -1   1   0 1691.73   50.09
  -1   1   0 1700.03   49.99
  -1   1   0 1622.24   49.80
   0  -1   0   -0.90    0.10
   0  -1   0   -0.80    0.10
   0  -1   0   -0.90    0.10
   0  -1   0   -1.00    0.10
   0  -1   0   -0.90    0.20
   0  -1   0   -0.70    0.10
   0  -1   0   -0.80    0.20
   0  -1   0   -0.90    0.20
   0  -1   0   -1.00    0.20
   0   1   0   -0.60    0.20
   0   1   0   -0.70    0.10
   0   1   0   -0.80    0.30
   0   1   0   -0.90    0.20
   0   1   0   -0.80    0.20
   0   1   0   -0.80    0.10
   0   1   0   -0.70    0.10
  -1  -1   0  364.56   11.40
  -1  -1   0  352.56   11.00
  -1  -1   0  358.36   11.00
  -1  -1   0  348.97   11.10
  -1  -1   0  347.17   11.30
  -1  -1   0  350.96   11.30
  -1  -1   0  361.76   11.40
  -1  -1   0  365.86   11.00
  -1  -1   0  353.66   10.90
   1   1   0  376.36   11.40
   1   1   0  343.57   11.00
   1   1   0  353.76   11.10
   1   1   0  355.86   11.00
   1   1   0  359.66   11.30
   1   1   0  362.36   10.90
  -2  -1   0  247.58    7.80
  -2  -1   0  242.88    8.00
   2   1   0  246.88    8.10
   2   1   0  243.58    7.80
   2   1   0  235.58    7.80
  -3  -1   0   20.90    2.60
  -3  -1   0   20.30    2.10
   3   1   0   24.90    2.60
   3   1   0   20.50    2.30
  -4  -1   0   14.70    2.10
  -4  -1   0   11.60    2.10
  -4  -1   0   10.10    2.70
   4   1   0   15.10    3.20
   4   1   0   12.70    2.50
   4   1   0   14.10    2.70
  -5  -1   0   -2.70    4.60
   5   1   0   -2.10    3.60
   5  -2   0  173.38    8.50
   5  -2   0  179.48    9.00
   5  -2   0  164.18    9.10
  -5   2   0  180.68    8.20
  -5   2   0  189.78   11.80
   4  -2   0   31.20    3.20
   4  -2   0   29.00    3.30
  -4   2   0   31.80    3.20
  -4   2   0   29.00    3.20
  -4   2   0   24.90    3.40
   3  -2   0   30.00    3.10
   3  -2   0   32.00    2.30
  -3   2   0   29.90    2.70
  -3   2   0   27.00    2.90
  -3   2   0   32.60    2.50
   2  -2   0  474.35   14.70
   2  -2   0  455.65   14.40
   2  -2   0  474.35   14.80
  -2   2   0  454.15   14.70
  -2   2   0  473.15   14.50
   1  -2   0 3729.83  117.29
   1  -2   0 3792.32  117.19
   1  -2   0 3928.31  117.39
   1  -2   0 4150.98  117.09
  -1   2   0 4206.68  117.19
  -1   2   0 3976.00  117.29
  -1   2   0 3770.82  117.29
  -1   2   0 3768.82  117.29
   0  -2   0  649.43   20.20
   0  -2   0  678.43   20.50
   0  -2   0  652.63   20.20
   0  -2   0  676.93   20.50
   0  -2   0  685.03   20.40
   0  -2   0  675.23   20.30
   0  -2   0  678.23   20.40
   0  -2   0  684.03   20.30
   0  -2   0  667.03   20.30
   0   2   0  683.73   20.50
   0   2   0  682.33   20.80
   0   2   0  658.03   20.30
   0   2   0  693.03   20.50
   0   2   0  665.83   20.30
   0   2   0  682.13   20.40
   0   2   0  666.73   20.30
   0   2   0  658.93   20.40
   0   2   0  659.33   20.30
  -1  -2   0  327.27   10.80
  -1  -2   0  331.07   10.60
  -1  -2   0  326.67   10.60
  -1  -2   0  354.76   10.20
  -1  -2   0  305.37   10.80
  -1  -2   0  345.27   10.30
  -1  -2   0  318.37   10.70
  -1  -2   0  347.77   10.10
   1   2   0  337.47   10.80
   1   2   0  333.97   10.80
   1   2   0  354.56   10.70
   1   2   0  353.06   10.70
   1   2   0  317.87   10.20
  -2  -2   0  736.23   23.40
  -2  -2   0  756.52   23.10
  -2  -2   0  750.22   23.20
  -2  -2   0  763.52   23.10
   2   2   0  794.62   23.50
   2   2   0  759.72   23.20
   2   2   0  747.53   23.00
  -3  -2   0   12.40    2.30
  -3  -2   0   11.40    1.40
   3   2   0    9.60    1.90
   3   2   0   14.40    1.40
   3   2   0   15.30    1.70
   3   2   0    9.80    1.80
   3   2   0   13.70    1.50
  -4  -2   0    5.60    2.50
  -4  -2   0    7.10    1.70
   4   2   0    2.60    2.30
   4   2   0    7.50    2.60
  -5  -2   0   65.79    4.40
   5   2   0   69.79    6.20
   5  -3   0  188.28    9.60
  -5   3   0  178.48    9.80
  -5   3   0  192.78    9.60
   4  -3   0    0.60    2.50
   4  -3   0    2.10    1.80
   4  -3   0    2.70    2.30
  -4   3   0   -2.00    2.30
  -4   3   0    5.10    2.60
   3  -3   0  201.58    7.90
   3  -3   0  188.48    6.60
   3  -3   0  192.58    8.00
  -3   3   0  196.28    8.00
  -3   3   0  200.08    7.60
  -3   3   0  200.88    7.60
   2  -3   0 2393.26   74.19
   2  -3   0 2534.35   73.89
   2  -3   0 2572.34   74.59
   2  -3   0 2187.48   75.39
  -2   3   0 2546.75   74.39
  -2   3   0 2409.26   73.79
  -2   3   0 2435.76   74.59
  -2   3   0 2598.14   74.29
   1  -3   0    4.20    0.90
   1  -3   0    4.00    1.00
  -1   3   0    5.00    0.60
  -1   3   0    1.80    0.80
   0  -3   0   31.70    1.70
   0  -3   0   28.70    1.10
   0  -3   0   29.70    1.30
   0  -3   0   28.30    1.20
   0  -3   0   24.20    1.70
   0  -3   0   28.40    1.60
   0  -3   0   22.80    2.10
   0  -3   0   29.10    1.30
   0  -3   0   29.40    1.20
   0  -3   0   28.70    1.50
   0   3   0   29.00    1.20
   0   3   0   26.70    1.30
   0   3   0   28.90    1.40
   0   3   0   28.30    1.80
   0   3   0   29.70    1.30
   0   3   0   27.70    1.30
   0   3   0   27.40    1.80
  -1  -3   0  492.85   16.30
  -1  -3   0  502.55   16.00
   1   3   0  507.35   16.30
   1   3   0  513.95   15.60
   1   3   0  528.85   15.50
   1   3   0  542.05   16.90
  -2  -3   0   -0.60    1.10
  -2  -3   0    1.50    0.60
   2   3   0   -1.00    1.00
   2   3   0    0.30    0.70
   2   3   0    0.30    1.20
  -3  -3   0    1.70    1.00
  -3  -3   0    5.20    1.90
  -3  -3   0    1.70    0.70
  -3  -3   0    1.30    0.80
   3   3   0   -0.70    1.50
   3   3   0    3.90    1.80
   3   3   0    0.30    1.20
   3   3   0    0.10    1.50
  -4  -3   0   52.09    4.80
  -4  -3   0   46.10    2.70
   4   3   0   48.80    4.30
   4   3   0   41.40    4.70
  -5  -3   0    2.80    2.40
   5   3   0    5.20    3.90
   5  -4   0   -2.00    3.90
  -5   4   0   -1.60    3.30
  -5   4   0   10.80    5.90
   4  -4   0    3.10    2.50
   4  -4   0    4.30    2.60
   4  -4   0    1.30    2.60
  -4   4   0    3.60    2.90
  -4   4   0   -0.70    2.30
   3  -4   0   29.60    2.20
   3  -4   0   31.90    3.20
   3  -4   0   30.60    3.30
  -3   4   0   30.10    2.50
  -3   4   0   33.80    3.00
  -3   4   0   27.80    3.00
  -3   4   0   26.50    2.80
   2  -4   0  124.59    5.30
   2  -4   0  124.09    5.40
   2  -4   0  128.79    4.00
  -2   4   0  115.49    4.60
  -2   4   0  116.99    5.50
  -2   4   0  128.49    5.20
   1  -4   0  381.26   12.50
  -1   4   0  387.36   11.70
   0  -4   0 1054.49   32.00
   0  -4   0 1002.20   31.60
   0  -4   0 1032.00   31.60
   0  -4   0 1073.79   31.70
   0  -4   0 1023.50   31.50
   0   4   0 1091.39   31.70
   0   4   0 1073.29   31.70
   0   4   0 1033.80   31.90
  -1  -4   0  245.38    7.90
   1   4   0  247.48    8.30
   1   4   0  248.98    7.50
   1   4   0  224.08    7.80
  -2  -4   0   27.40    2.40
  -2  -4   0   24.10    1.50
  -2  -4   0   23.10    1.80
   2   4   0   26.90    2.20
   2   4   0   21.40    2.50
   2   4   0   23.10    2.50
  -3  -4   0   12.80    1.80
  -3  -4   0   15.00    1.40
  -3  -4   0   19.50    2.80
   3   4   0   16.40    2.20
   3   4   0   13.90    2.60
   3   4   0   17.10    2.40
  -4  -4   0   15.50    1.50
  -4  -4   0   19.30    3.30
   4   4   0   17.50    2.90
   5   4   0    8.40    4.00
  -5   5   0   13.10    4.70
   4  -5   0    0.00    2.80
  -4   5   0   -7.00    3.90
  -4   5   0   -0.70    2.50
   3  -5   0  353.66   12.90
   3  -5   0  349.96   12.70
   3  -5   0  360.76   13.00
  -3   5   0  345.57   12.20
  -3   5   0  346.77   12.60
  -3   5   0  350.86   13.10
   2  -5   0   25.90    2.60
  -2   5   0   21.40    1.80
  -2   5   0   23.10    2.60
  -2   5   0   18.90    2.20
  -2   5   0   21.30    2.30
   1  -5   0   -0.80    1.00
   1  -5   0   -2.60    1.10
  -1   5   0    1.50    1.30
  -1   5   0   -0.20    0.70
   0  -5   0  454.65   14.00
   0  -5   0  443.46   14.50
   0  -5   0  442.86   13.90
   0   5   0  443.16   14.60
   0   5   0  449.26   14.30
   0   5   0  448.46   15.40
   0   5   0  477.85   14.10
   1   5   0    3.60    1.60
   1   5   0    3.10    1.10
   1   5   0    3.10    0.70
  -2  -5   0    6.50    1.40
  -2  -5   0    4.20    1.60
  -2  -5   0    6.70    1.80
   2   5   0    8.50    1.90
   2   5   0    5.60    0.80
   2   5   0    4.50    1.90
   2   5   0    7.40    1.60
   2   5   0    5.60    1.40
  -3  -5   0   84.79    4.30
  -3  -5   0   93.09    5.50
   3   5   0   80.99    4.80
   3   5   0   93.59    5.40
   3   5   0   76.79    5.30
  -4  -5   0   38.00    4.50
  -4  -5   0   32.30    3.40
   4   5   0   39.90    4.30
   5   5   0    8.60    7.40
   4  -6   0   20.80    4.00
   4  -6   0   29.10    5.50
  -4   6   0   27.20    4.20
   3  -6   0    0.20    2.40
   3  -6   0    2.20    2.40
   3  -6   0    0.90    2.10
  -3   6   0    3.30    2.00
  -3   6   0    1.40    2.30
  -3   6   0    1.20    2.20
   2  -6   0   71.99    4.20
   2  -6   0   69.59    4.60
   2  -6   0   72.49    4.30
  -2   6   0   68.29    4.50
  -2   6   0   75.79    4.50
  -2   6   0   75.79    4.30
  -2   6   0   73.69    3.00
   1  -6   0   85.69    4.10
   1  -6   0   93.69    3.20
  -1   6   0   93.89    5.00
  -1   6   0   94.09    4.30
   0  -6   0   17.70    1.10
   0  -6   0   16.60    1.30
   0  -6   0   15.50    1.40
   0  -6   0   18.40    1.70
   0   6   0   17.60    1.90
   0   6   0   15.90    1.70
   0   6   0   17.10    2.30
  -1  -6   0    2.20    1.20
   1   6   0    0.00    1.70
   1   6   0    0.80    1.20
   1   6   0    0.60    1.00
  -2  -6   0  116.49    5.50
  -2  -6   0  123.49    4.90
   2   6   0  121.89    5.80
   2   6   0  115.69    5.60
   2   6   0  119.89    5.40
   2   6   0  121.39    6.30
  -3  -6   0   18.90    2.30
   3   6   0   16.10    3.40
   3   6   0   15.70    2.80
   4   6   0   23.20    4.30
   4  -7   0   16.70    5.00
  -4   7   0    7.50    4.20
   3  -7   0   31.40    4.30
   3  -7   0   39.70    4.30
  -3   7   0   38.80    4.70
  -3   7   0   34.70    4.70
  -3   7   0   37.70    4.50
   2  -7   0   13.90    2.70
   2  -7   0   25.40    3.00
   2  -7   0   23.50    2.90
  -2   7   0   23.30    3.00
  -2   7   0   22.60    2.70
  -2   7   0   17.80    2.80
  -2   7   0   15.20    1.80
   1  -7   0  295.47   10.40
   1  -7   0  303.67   10.60
  -1   7   0  286.57   11.40
   0  -7   0    3.40    1.10
   0  -7   0    1.20    0.70
   0  -7   0    0.70    1.10
   0  -7   0    1.50    0.90
   0   7   0   -0.10    1.90
   0   7   0    1.40    1.40
   0   7   0    0.70    1.60
  -1  -7   0    1.20    1.10
   1   7   0    1.60    1.60
   1   7   0    1.80    2.20
   1   7   0    1.30    1.50
  -2  -7   0   78.59    4.40
   2   7   0   73.09    5.80
   2   7   0   76.39    4.50
  -3  -7   0    6.20    3.20
  -3  -7   0   11.50    2.90
   3   7   0    9.90    2.80
   3   7   0    9.10    3.90
  -4  -7   0   24.00    4.70
   4   7   0   20.90    4.10
   4  -8   0    0.60    8.00
   3  -8   0   -0.60    3.40
  -3   8   0    0.80    1.60
  -3   8   0    1.60    3.40
  -3   8   0    1.20    3.30
   2  -8   0  109.39    7.30
   2  -8   0  106.59    6.20
  -2   8   0  111.39    4.40
  -2   8   0  111.59    6.60
  -2   8   0  111.39    6.70
   1  -8   0   49.30    3.60
   1  -8   0   47.40    3.80
  -1   8   0   52.89    2.70
  -1   8   0   52.59    4.90
   0  -8   0   17.90    2.10
   0  -8   0   13.40    1.50
   0   8   0   12.20    2.90
   0   8   0   10.10    2.20
   0   8   0   10.40    1.70
  -1  -8   0  100.19    4.60
   1   8   0  106.59    5.10
   1   8   0  103.39    5.20
   1   8   0   98.39    6.70
  -2  -8   0   10.10    1.90
  -2  -8   0    7.20    3.00
  -2  -8   0   13.40    2.40
   2   8   0   12.30    3.80
  -3  -8   0    8.90    3.30
  -3  -8   0    4.00    3.60
   3   8   0    5.70    4.30
  -4   9   0   10.50    6.50
   3  -9   0   10.40    4.80
  -3   9   0    9.20    4.50
  -3   9   0   20.00    5.90
   2  -9   0    2.10    2.90
   1  -9   0   14.20    2.20
  -1   9   0    8.20    3.50
   0  -9   0   12.80    1.40
  -1  -9   0    4.40    1.90
   1   9   0   -3.40    3.60
  -2  -9   0   40.90    4.20
  -2  -9   0   47.90    3.90
  -2  -9   0   42.40    5.00
   2   9   0   63.79    8.00
  -3  -9   0  196.18   10.30
   3   9   0  201.38   12.20
   3 -10   0   41.20    5.90
  -3  10   0   19.90    5.90
   2 -10   0   49.10    5.10
  -2  10   0   37.90    5.80
   1 -10   0    4.60    3.40
   1 -10   0    7.80    2.40
   0 -10   0   30.60    6.10
  -1 -10   0   -1.70    2.40
  -2 -10   0   96.99    5.80
  -2 -10   0   89.49    8.50
   1 -11   0    2.30    4.30
   0 -11   0    8.50    4.00
  -2  11  -1  163.88   16.30
  -2 -10   1   15.50    3.00
  -2 -10   1   16.20    5.10
   1  10  -1   15.20    3.60
  -1 -10   1   15.00    2.80
   0 -10   1   41.10    3.80
   1 -10   1   -4.40    3.00
  -2  10  -1   26.50    5.10
   2 -10   1   25.90    4.10
  -3  10  -1   35.20    5.90
   3 -10   1   43.40    5.90
   3   9  -1  450.35   16.50
   3   9  -1  428.96   18.00
  -3  -9   1  401.56   16.60
  -3  -9   1  455.05   15.40
   2   9  -1   20.70    6.40
  -2  -9   1   16.80    2.40
  -2  -9   1   14.20    3.10
   1   9  -1   70.59    7.70
  -1  -9   1   62.89    5.90
  -1  -9   1   77.69    4.20
   0  -9   1   33.90    3.50
   0  -9   1   32.10    4.30
  -1   9  -1   13.60    3.70
   1  -9   1   12.10    2.60
   1  -9   1    6.10    2.10
   2  -9   1    2.60    2.90
  -3   9  -1   -3.10    4.00
  -3   9  -1    4.30    4.50
   3  -9   1   -3.50    4.00
  -4   9  -1    6.20    5.70
   3   8  -1   13.50    3.60
   3   8  -1    8.70    4.50
  -3  -8   1   12.30    3.60
   2   8  -1   94.89    5.80
   2   8  -1   87.49   10.40
  -2  -8   1   96.79    6.30
  -2  -8   1   94.89    5.00
  -2  -8   1   98.69    4.60
   1   8  -1  161.48    7.10
   1   8  -1  166.78    8.40
   1   8  -1  149.99    6.60
   0   8  -1   83.89    4.00
   0   8  -1   79.19    4.60
   0   8  -1   88.69    5.90
   0  -8   1   84.69    3.40
   0  -8   1   85.79    4.30
   0  -8   1   86.99    3.40
  -1   8  -1   75.99    5.70
  -1   8  -1   81.59    3.60
   1  -8   1   84.89    4.20
   1  -8   1   83.19    6.00
   1  -8   1   85.59    4.70
  -2   8  -1   10.70    1.50
  -2   8  -1   14.90    3.00
  -2   8  -1   20.50    3.30
   2  -8   1   12.50    2.50
   2  -8   1   10.10    3.30
  -3   8  -1    0.00    3.30
  -3   8  -1    3.40    3.70
  -3   8  -1    1.90    1.70
   3  -8   1    7.50    3.70
   3  -8   1    5.50    3.30
   3  -8   1    1.90    3.80
   4   7  -1   31.30    4.60
  -4  -7   1   28.80    5.20
   3   7  -1    1.20    2.50
   3   7  -1    0.20    3.60
  -3  -7   1    2.20    2.80
  -3  -7   1    8.30    3.00
   2   7  -1  112.19    6.90
   2   7  -1  119.29    5.80
   2   7  -1  116.99    5.90
  -2  -7   1  117.29    5.00
  -2  -7   1  122.69    7.00
  -2  -7   1  124.59    5.60
   1   7  -1   13.80    2.00
   1   7  -1   13.60    2.00
   1   7  -1   12.40    2.70
  -1  -7   1   16.00    1.70
   0   7  -1   22.50    2.20
   0   7  -1   19.20    2.80
   0   7  -1   22.60    2.40
   0  -7   1   21.60    2.20
   0  -7   1   25.00    1.70
   0  -7   1   20.00    1.40
  -1   7  -1   34.80    3.70
   1  -7   1   34.70    2.80
   1  -7   1   31.90    2.90
  -2   7  -1   10.90    2.60
  -2   7  -1   13.00    1.40
  -2   7  -1   14.00    2.70
   2  -7   1    9.70    2.60
   2  -7   1   14.20    2.40
   2  -7   1   12.00    2.20
  -3   7  -1    3.40    2.50
  -3   7  -1    0.50    2.80
   3  -7   1    2.80    2.60
   3  -7   1    1.20    2.90
  -4   7  -1    3.40    4.10
   4  -7   1    6.50    5.40
   4   6  -1    2.80    3.20
  -4  -6   1    1.60    3.70
   3   6  -1   18.60    3.40
   3   6  -1   21.20    2.90
  -3  -6   1   22.00    3.00
  -3  -6   1   17.60    3.40
   2   6  -1   50.29    3.30
   2   6  -1   58.89    3.90
   2   6  -1   55.39    4.50
   2   6  -1   52.29    3.80
  -2  -6   1   61.99    3.00
  -2  -6   1   55.09    3.70
   1   6  -1   37.60    3.50
   1   6  -1   39.30    2.80
   1   6  -1   40.30    2.10
   1   6  -1   37.20    2.60
   1   6  -1   40.00    2.80
  -1  -6   1   41.70    3.10
  -1  -6   1   42.20    2.20
   0   6  -1   24.70    2.20
   0   6  -1   23.10    2.20
   0   6  -1   25.40    2.90
   0  -6   1   27.30    1.20
   0  -6   1   27.20    1.50
   0  -6   1   25.30    1.60
   0  -6   1   26.40    1.80
  -1   6  -1    2.10    1.60
   1  -6   1    2.00    1.50
   1  -6   1    0.60    1.30
  -2   6  -1   50.09    3.60
  -2   6  -1   46.70    3.90
  -2   6  -1   46.20    3.20
   2  -6   1   43.10    3.40
   2  -6   1   48.00    3.60
   2  -6   1   46.40    3.80
  -3   6  -1   53.99    3.90
  -3   6  -1   59.89    4.80
  -3   6  -1   55.69    4.10
   3  -6   1   54.89    4.70
   3  -6   1   56.79    4.60
   3  -6   1   50.69    6.90
  -4   6  -1   53.79    6.10
   4  -6   1   46.80    5.00
   5   5  -1    7.80    4.40
  -5  -5   1    1.80    5.00
   4   5  -1    1.20    2.70
  -4  -5   1   -1.60    3.20
   3   5  -1  457.35   15.90
   3   5  -1  427.46   15.20
   3   5  -1  428.86   15.30
  -3  -5   1  436.76   14.70
  -3  -5   1  432.26   15.50
   2   5  -1   40.80    2.70
   2   5  -1   39.10    1.70
   2   5  -1   41.50    3.60
   2   5  -1   41.90    3.10
   2   5  -1   39.20    3.20
  -2  -5   1   43.40    3.10
   1   5  -1    7.10    1.20
   1   5  -1    6.10    0.80
   1   5  -1    4.90    1.50
  -1  -5   1    6.20    1.30
   0   5  -1  298.87   11.00
   0   5  -1  308.67   10.10
   0   5  -1  304.27   10.40
   0  -5   1  306.57    9.60
   0  -5   1  315.87    9.80
   0  -5   1  311.87    9.40
   0  -5   1  303.87   10.20
  -1   5  -1   71.99    3.70
  -1   5  -1   68.09    3.90
   1  -5   1   55.99    3.30
   1  -5   1   66.99    3.20
  -2   5  -1   88.69    4.70
  -2   5  -1   82.59    3.40
  -2   5  -1   86.79    4.30
  -2   5  -1   88.89    4.40
   2  -5   1   86.79    5.40
   2  -5   1   87.69    4.40
  -3   5  -1    6.60    1.90
  -3   5  -1   13.30    2.80
  -3   5  -1    6.80    2.00
   3  -5   1    5.10    2.30
   3  -5   1    8.30    2.50
   3  -5   1    9.80    2.40
  -4   5  -1   33.30    3.40
   4  -5   1   26.90    3.70
  -5   5  -1   -3.10    5.40
   5   4  -1    1.00    3.90
   4   4  -1   28.30    3.50
  -4  -4   1   22.10    3.60
   3   4  -1    1.20    1.60
   3   4  -1   -1.90    1.70
   3   4  -1   -2.20    1.60
  -3  -4   1    0.10    1.40
  -3  -4   1   -2.70    1.80
   2   4  -1    1.10    0.50
   2   4  -1    0.50    1.10
   2   4  -1    0.30    1.50
   2   4  -1   -1.30    1.10
   2   4  -1    2.10    1.30
  -2  -4   1    1.60    1.30
  -2  -4   1    0.90    0.90
   1   4  -1  421.96   12.80
   1   4  -1  423.96   12.80
   0   4  -1   23.30    1.50
   0   4  -1   25.50    1.30
   0   4  -1   25.30    1.40
   0  -4   1   24.60    1.00
   0  -4   1   24.60    1.70
   0  -4   1   22.20    1.20
   0  -4   1   24.90    1.20
   0  -4   1   23.40    1.30
  -1   4  -1  161.68    5.00
   1  -4   1  149.19    5.70
  -2   4  -1  169.78    6.50
   2  -4   1  173.88    6.80
   2  -4   1  174.08    6.80
  -3   4  -1   12.70    2.50
  -3   4  -1   12.40    2.20
  -3   4  -1   15.70    2.10
  -3   4  -1   12.10    1.80
  -3   4  -1   11.40    1.80
   3  -4   1   16.40    2.60
   3  -4   1   14.30    2.30
   3  -4   1   12.60    2.40
  -4   4  -1  103.79    5.90
  -4   4  -1  113.99    6.80
   4  -4   1  117.19    7.20
   4  -4   1  109.39    5.90
   4  -4   1  113.39    6.50
  -5   4  -1    5.80    4.50
  -5   4  -1    0.80    3.40
   5  -4   1    6.00    3.90
   5   3  -1    8.40    3.80
  -5  -3   1    7.30    2.60
   4   3  -1   83.39    5.20
   4   3  -1   75.09    5.70
  -4  -3   1   89.09    5.80
  -4  -3   1   85.69    3.70
   3   3  -1   10.90    1.90
   3   3  -1   18.60    1.80
   3   3  -1   16.60    2.10
  -3  -3   1   17.70    2.40
  -3  -3   1   13.90    1.40
  -3  -3   1   16.40    1.30
   2   3  -1   53.79    3.10
   2   3  -1   49.99    3.20
   2   3  -1   54.49    3.10
  -2  -3   1   55.39    2.70
  -2  -3   1   56.09    2.30
  -2  -3   1   55.89    1.90
   1   3  -1  690.43   20.70
   1   3  -1  674.73   20.70
  -1  -3   1  704.43   21.00
   0   3  -1  309.97    9.70
   0   3  -1  325.57   10.50
   0   3  -1  320.17    9.90
   0   3  -1  316.17    9.90
   0   3  -1  321.47    9.80
   0  -3   1  322.47    9.90
   0  -3   1  318.57    9.70
   0  -3   1  294.37   10.00
   0  -3   1  310.57    9.60
   0  -3   1  302.37    9.70
   0  -3   1  324.47    9.80
  -1   3  -1 1714.53   49.60
  -1   3  -1 1561.74   49.20
  -1   3  -1 1602.54   48.90
   1  -3   1 1562.94   49.50
   1  -3   1 1689.63   49.40
   1  -3   1 1653.03   49.50
  -2   3  -1    1.00    1.00
  -2   3  -1    0.50    1.20
  -2   3  -1   -1.40    0.90
  -2   3  -1   -0.20    0.70
   2  -3   1    1.50    0.70
   2  -3   1    0.00    1.00
   2  -3   1    1.30    1.30
   2  -3   1   -0.50    1.00
  -3   3  -1    6.90    1.60
  -3   3  -1    6.10    1.80
  -3   3  -1    6.40    1.70
   3  -3   1    7.80    1.80
   3  -3   1    6.30    1.30
   3  -3   1    6.50    1.80
  -4   3  -1   13.00    2.70
  -4   3  -1    9.80    2.80
  -4   3  -1    8.70    2.60
   4  -3   1    9.30    2.00
   4  -3   1   11.30    2.50
  -5   3  -1    7.60    4.80
  -5   3  -1   10.10    3.70
   5  -3   1    7.40    4.20
   5   2  -1   61.99    5.90
  -5  -2   1   58.99    4.30
   4   2  -1    6.00    2.40
   4   2  -1   11.60    2.70
  -4  -2   1    9.00    1.70
  -4  -2   1    0.50    2.40
   3   2  -1   52.59    3.30
   3   2  -1   53.79    2.60
   3   2  -1   52.39    3.00
   3   2  -1   50.49    3.60
  -3  -2   1   50.09    2.80
  -3  -2   1   47.50    3.60
  -3  -2   1   55.49    2.70
   2   2  -1  386.56   12.40
   2   2  -1  396.86   12.60
   2   2  -1  419.16   12.80
  -2  -2   1  401.56   12.30
  -2  -2   1  407.16   12.30
  -2  -2   1  387.16   12.70
   1   2  -1  444.86   13.50
   1   2  -1  419.76   13.00
   1   2  -1  434.46   13.60
   1   2  -1  433.56   14.10
   1   2  -1  429.76   13.00
   1   2  -1  436.76   13.50
  -1  -2   1  419.06   13.50
  -1  -2   1  425.06   13.40
  -1  -2   1  436.16   13.10
  -1  -2   1  416.56   13.50
  -1  -2   1  423.76   13.70
   0   2  -1  344.37   10.40
   0   2  -1  361.36   10.50
   0   2  -1  333.27   10.40
   0   2  -1  337.27   10.40
   0   2  -1  345.97   10.90
   0   2  -1  345.07   10.50
   0   2  -1  338.17   10.50
   0  -2   1  334.87   10.40
   0  -2   1  334.87   10.40
   0  -2   1  339.67   10.30
   0  -2   1  334.87   10.80
   0  -2   1  338.17   10.60
   0  -2   1  341.67   10.40
   0  -2   1  344.67   10.40
   0  -2   1  342.67   10.50
   0  -2   1  350.26   10.40
   0  -2   1  328.47   10.60
  -1   2  -1  568.64   17.20
  -1   2  -1  568.64   16.70
  -1   2  -1  567.94   17.00
  -1   2  -1  521.95   17.20
  -1   2  -1  547.95   17.10
   1  -2   1  562.54   16.70
   1  -2   1  551.84   17.30
   1  -2   1  509.45   17.20
   1  -2   1  568.44   17.30
   1  -2   1  583.54   17.30
   1  -2   1  550.04   17.20
  -2   2  -1   10.30    1.20
   2  -2   1   11.20    1.20
   2  -2   1   11.10    1.30
   2  -2   1   13.40    1.20
  -3   2  -1   27.70    3.20
  -3   2  -1   30.60    2.80
  -3   2  -1   27.30    2.90
   3  -2   1   29.60    2.60
   3  -2   1   29.00    3.00
  -4   2  -1   87.59    4.70
  -4   2  -1   82.29    5.40
  -4   2  -1   92.39    5.50
   4  -2   1   87.79    4.70
   4  -2   1   87.29    5.30
  -5   2  -1    2.50    2.70
  -5   2  -1    2.10    3.30
   5  -2   1    2.60    3.80
   5  -2   1    0.00    3.70
  -5  -1   1   72.29    9.10
   4   1  -1   31.40    3.50
   4   1  -1   30.30    3.30
  -4  -1   1   26.80    2.80
  -4  -1   1   30.00    3.70
  -4  -1   1   28.70    2.70
   3   1  -1  695.03   22.20
   3   1  -1  689.13   21.80
  -3  -1   1  668.13   22.20
  -3  -1   1  654.23   21.30
   2   1  -1   23.40    1.50
   2   1  -1   23.30    1.30
   2   1  -1   22.20    1.60
  -2  -1   1   24.30    1.60
  -2  -1   1   23.60    1.30
   1   1  -1   31.00    1.40
   1   1  -1   31.30    1.30
   1   1  -1   31.10    1.60
   1   1  -1   33.00    1.50
   1   1  -1   30.10    1.40
   1   1  -1   33.20    1.60
   1   1  -1   32.40    1.30
  -1  -1   1   31.10    1.50
  -1  -1   1   34.00    1.30
  -1  -1   1   32.90    1.30
  -1  -1   1   33.20    1.60
  -1  -1   1   30.70    1.40
  -1  -1   1   29.90    1.70
   0   1  -1  247.68    7.70
   0   1  -1  242.68    7.50
   0   1  -1  266.37    7.70
   0   1  -1  257.77    7.80
   0   1  -1  247.38    7.60
   0   1  -1  245.38    7.60
   0   1  -1  256.07    7.70
   0  -1   1  250.27    7.60
   0  -1   1  246.78    7.60
   0  -1   1  251.27    7.80
   0  -1   1  259.27    7.60
   0  -1   1  233.78    7.70
   0  -1   1  236.88    7.60
   0  -1   1  253.07    7.80
   0  -1   1  257.07    7.60
   0  -1   1  250.47    7.60
  -1   1  -1 2077.29   61.89
  -1   1  -1 2057.09   61.79
  -1   1  -1 2102.99   62.09
  -1   1  -1 2125.59   61.89
  -1   1  -1 2074.69   61.99
  -1   1  -1 2043.20   61.69
  -1   1  -1 1988.70   61.99
   1  -1   1 2079.29   62.09
   1  -1   1 2101.29   61.79
   1  -1   1 2080.89   61.89
   1  -1   1 2079.89   61.99
   1  -1   1 2027.30   61.69
   1  -1   1 2019.50   61.89
   1  -1   1 2013.40   62.09
  -2   1  -1  207.88    8.10
   2  -1   1  210.58    7.40
   2  -1   1  237.18    7.20
  -3   1  -1   77.79    4.10
  -3   1  -1   82.09    4.20
   3  -1   1   76.49    3.30
  -4   1  -1    1.20    2.30
  -4   1  -1    4.10    2.00
  -4   1  -1    0.10    1.70
   4  -1   1    0.70    1.90
   4  -1   1    0.80    2.30
  -5   1  -1   17.90    4.50
  -5   1  -1   15.00    3.70
   5  -1   1   19.70    3.90
   5  -1   1   21.90    3.90
   5   0  -1   12.90    3.70
  -5   0   1    9.60    2.80
   4   0  -1    3.80    2.20
   4   0  -1    0.70    1.90
   4   0  -1    6.10    2.10
  -4   0   1    3.20    2.20
  -4   0   1    0.60    1.90
  -4   0   1    2.40    1.70
   3   0  -1  116.29    5.30
   3   0  -1  119.69    5.10
  -3   0   1  121.59    5.10
  -3   0   1  113.19    5.40
   2   0  -1  666.73   20.70
   2   0  -1  633.74   20.10
  -2   0   1  651.13   20.30
   1   0  -1 1751.52   51.79
   1   0  -1 1745.43   51.79
   1   0  -1 1670.93   51.69
   1   0  -1 1720.13   51.89
   1   0  -1 1782.22   51.89
   1   0  -1 1635.64   51.39
  -1   0   1 1716.23   51.89
  -1   0   1 1766.82   51.79
  -1   0   1 1691.13   51.89
  -1   0   1 1735.33   51.69
  -1   0   1 1776.62   51.79
  -1   0   1 1678.63   51.89
  -1   0  -1 2496.05   73.99
  -1   0  -1 2480.45   74.09
  -1   0  -1 2557.64   73.99
  -1   0  -1 2455.85   73.79
  -1   0  -1 2451.75   74.09
  -1   0  -1 2416.46   73.69
  -1   0  -1 2546.15   74.09
   1   0   1 2572.54   74.09
   1   0   1 2327.27   73.99
   1   0   1 2422.96   74.09
   1   0   1 2490.35   73.79
   1   0   1 2452.25   73.89
   1   0   1 2401.36   73.79
  -2   0  -1   28.80    2.00
  -2   0  -1   30.20    1.40
   2   0   1   31.20    1.40
   2   0   1   28.80    1.70
  -3   0  -1    0.20    1.40
  -3   0  -1    0.30    1.20
   3   0   1   -0.20    1.30
   3   0   1    1.30    1.50
  -4   0  -1   25.30    2.80
  -4   0  -1   23.70    2.70
  -4   0  -1   29.40    3.50
   4   0   1   20.20    2.80
   4   0   1   27.20    3.40
   4   0   1   27.10    3.10
  -5   0  -1    8.30    3.00
   5   0   1    6.10    3.80
   5  -1  -1   -0.70    3.60
   5  -1  -1    4.40    3.50
   5  -1  -1    5.00    3.00
  -5   1   1    0.80    2.80
  -5   1   1    2.20    4.90
  -5   1   1   -1.30    3.00
   4  -1  -1   29.30    3.10
   4  -1  -1   32.00    3.40
  -4   1   1   39.40    3.90
  -4   1   1   38.30    3.90
  -4   1   1   39.80    3.30
   3  -1  -1   10.30    1.90
   3  -1  -1    9.90    1.10
   3  -1  -1    7.90    1.30
  -3   1   1   10.10    1.90
  -3   1   1   10.60    1.90
   2  -1  -1  204.28    6.60
   1  -1  -1 9999.00  287.97
   1  -1  -1 9514.35  285.77
   1  -1  -1 9356.36  286.17
   1  -1  -1 9186.18  285.97
   1  -1  -1 9455.75  286.77
  -1   1   1 9524.65  286.67
  -1   1   1 9836.22  286.27
  -1   1   1 9509.75  286.97
  -1   1   1 9717.03  288.77
  -1   1   1 9404.56  285.87
   0  -1  -1 1463.75   42.70
   0  -1  -1 1446.26   42.60
   0  -1  -1 1384.66   42.50
   0  -1  -1 1476.45   42.70
   0  -1  -1 1383.46   42.60
   0  -1  -1 1475.25   42.70
   0  -1  -1 1400.76   42.60
   0  -1  -1 1481.05   42.40
   0  -1  -1 1428.56   42.40
   0   1   1 1350.66   42.40
   0   1   1 1476.45   42.50
   0   1   1 1353.16   42.40
   0   1   1 1397.36   42.40
   0   1   1 1381.16   42.60
   0   1   1 1365.66   42.50
   0   1   1 1440.66   42.60
   0   1   1 1351.06   42.40
  -1  -1  -1 4917.11  149.19
  -1  -1  -1 5276.77  149.09
  -1  -1  -1 5272.27  149.99
  -1  -1  -1 4796.42  148.79
  -1  -1  -1 4598.14  149.09
  -1  -1  -1 4756.22  149.19
  -1  -1  -1 5139.29  149.88
  -1  -1  -1 4645.64  148.99
   1   1   1 4845.52  149.19
   1   1   1 5260.27  149.39
   1   1   1 4702.83  149.19
   1   1   1 5122.79  149.49
   1   1   1 5367.56  150.58
   1   1   1 4903.91  149.19
   1   1   1 5159.78  148.99
   1   1   1 5012.50  149.59
  -2  -1  -1   30.60    1.40
  -2  -1  -1   31.20    1.50
  -2  -1  -1   33.20    2.00
   2   1   1   32.70    1.50
   2   1   1   34.00    1.90
   2   1   1   33.20    1.70
   2   1   1   30.40    1.50
  -3  -1  -1   14.80    2.10
  -3  -1  -1   18.00    2.20
   3   1   1   17.30    2.20
   3   1   1   16.70    2.00
   3   1   1   11.60    1.40
  -4  -1  -1   64.19    3.80
  -4  -1  -1   57.59    4.70
   4   1   1   58.99    4.50
   4   1   1   58.09    4.30
   4   1   1   54.09    4.40
   5   1   1   98.49    7.20
   5  -2  -1   28.40    4.60
   5  -2  -1   36.20    4.60
   5  -2  -1   26.60    3.80
  -5   2   1   32.90    3.90
  -5   2   1   27.30    6.90
   4  -2  -1    4.30    1.90
   4  -2  -1   -0.30    2.20
  -4   2   1    0.30    2.30
  -4   2   1   -1.40    2.20
  -4   2   1    1.40    2.00
   3  -2  -1   11.90    1.40
   3  -2  -1    5.30    1.80
  -3   2   1   13.70    1.80
  -3   2   1   10.20    1.80
  -3   2   1   12.40    2.00
   2  -2  -1   83.09    3.20
   2  -2  -1  101.09    3.60
  -2   2   1   80.79    3.40
  -2   2   1   86.49    3.20
   1  -2  -1 4867.11  147.09
   1  -2  -1 5095.89  147.09
   1  -2  -1 4646.14  146.99
   1  -2  -1 4784.22  146.99
  -1   2   1 4778.82  146.79
  -1   2   1 5364.46  148.29
  -1   2   1 5138.89  147.09
  -1   2   1 4633.44  146.99
   0  -2  -1   43.30    1.60
   0  -2  -1   43.40    1.70
   0  -2  -1   43.40    1.60
   0  -2  -1   43.50    2.00
   0  -2  -1   43.80    1.70
   0  -2  -1   43.80    1.80
   0  -2  -1   44.00    1.60
   0  -2  -1   40.80    1.80
   0  -2  -1   48.30    1.50
   0   2   1   44.20    2.00
   0   2   1   42.30    1.70
   0   2   1   45.00    1.70
   0   2   1   42.10    1.60
   0   2   1   44.20    1.60
   0   2   1   42.40    1.60
   0   2   1   43.20    1.50
   0   2   1   40.80    1.80
  -1  -2  -1   46.10    2.10
  -1  -2  -1   47.70    1.60
  -1  -2  -1   44.90    2.20
  -1  -2  -1   40.80    2.60
  -1  -2  -1   45.60    2.00
   1   2   1   45.10    1.70
   1   2   1   44.60    1.60
   1   2   1   44.10    2.10
   1   2   1   45.70    2.20
   1   2   1   43.00    2.20
  -2  -2  -1   35.60    1.50
  -2  -2  -1   33.10    1.90
  -2  -2  -1   35.20    1.90
   2   2   1   34.80    1.80
   2   2   1   32.40    1.40
   2   2   1   27.80    2.40
   2   2   1   36.00    2.10
  -3  -2  -1   30.60    2.10
  -3  -2  -1   35.10    2.70
  -3  -2  -1   34.10    2.80
   3   2   1   29.10    2.80
   3   2   1   30.90    1.90
   3   2   1   35.70    2.40
   3   2   1   34.80    2.60
   3   2   1   31.30    2.90
  -4  -2  -1   65.29    3.60
  -4  -2  -1   61.79    4.80
   4   2   1   64.69    4.80
   4   2   1   67.09    4.90
  -5  -2  -1   17.00    2.60
   5   2   1   16.10    4.00
   5  -3  -1   11.60    4.20
  -5   3   1   12.00    3.40
  -5   3   1   15.60    3.90
   4  -3  -1  339.67   12.90
   4  -3  -1  340.57   12.00
   4  -3  -1  335.57   13.20
  -4   3   1  339.47   12.90
  -4   3   1  326.97   12.40
  -4   3   1  347.97   12.70
   3  -3  -1  111.69    5.60
   3  -3  -1  109.09    5.40
  -3   3   1  108.09    5.00
  -3   3   1  106.49    4.00
  -3   3   1  103.79    5.30
  -3   3   1  112.99    5.00
   2  -3  -1 1638.14   47.10
   2  -3  -1 1513.85   47.30
   2  -3  -1 1416.26   48.20
  -2   3   1 1659.53   47.40
  -2   3   1 1566.14   47.70
  -2   3   1 1543.05   46.90
   1  -3  -1   25.90    1.80
   1  -3  -1   27.40    1.10
   1  -3  -1   28.70    2.10
  -1   3   1   25.90    1.20
   0  -3  -1   32.40    1.30
   0  -3  -1   30.10    1.30
   0  -3  -1   32.80    1.20
   0  -3  -1   29.70    1.60
   0  -3  -1   30.30    1.70
   0   3   1   31.30    1.50
   0   3   1   32.10    2.00
   0   3   1   31.00    1.40
   0   3   1   31.60    1.30
   0   3   1   31.00    1.40
   0   3   1   32.80    1.40
  -1  -3  -1   62.29    2.30
  -1  -3  -1   59.89    3.10
  -1  -3  -1   62.69    2.10
  -1  -3  -1   62.19    2.60
   1   3   1   67.89    2.80
   1   3   1   59.09    2.20
   1   3   1   62.79    3.70
  -2  -3  -1   -0.90    1.10
  -2  -3  -1   -0.50    0.50
  -2  -3  -1    1.10    0.70
   2   3   1    0.00    0.70
   2   3   1    1.00    1.20
   2   3   1    1.50    1.10
  -3  -3  -1   10.60    1.50
  -3  -3  -1   12.30    1.30
  -3  -3  -1   12.90    1.40
  -3  -3  -1    9.90    2.10
  -3  -3  -1   12.80    1.80
   3   3   1   11.30    2.00
   3   3   1   11.30    2.10
   3   3   1   16.20    1.60
  -4  -3  -1    9.20    1.40
   4   3   1    8.40    2.70
  -5  -3  -1    6.00    1.80
   5   3   1    4.70    3.80
   5  -4  -1   -0.10    3.80
  -5   4   1    2.10    3.80
   4  -4  -1   45.00    4.30
   4  -4  -1   48.20    4.20
   4  -4  -1   30.60    4.80
   4  -4  -1   40.70    3.30
  -4   4   1   45.70    4.90
  -4   4   1   37.70    3.80
   3  -4  -1  623.24   20.90
   3  -4  -1  656.33   20.10
   3  -4  -1  628.34   21.30
  -3   4   1  615.74   21.40
  -3   4   1  675.73   20.40
  -3   4   1  640.34   20.80
  -3   4   1  645.64   21.40
   2  -4  -1  532.15   15.90
   2  -4  -1  482.75   17.60
   2  -4  -1  509.35   17.00
  -2   4   1  523.55   17.00
  -2   4   1  540.75   17.30
   1  -4  -1  586.64   18.90
   1  -4  -1  614.84   18.30
  -1   4   1  605.04   18.30
   0  -4  -1  322.37    9.80
   0  -4  -1  309.97    9.90
   0  -4  -1  309.17   10.30
   0  -4  -1  315.27    9.80
   0  -4  -1  325.17   10.00
   0   4   1  314.77   10.00
   0   4   1  329.97    9.90
   0   4   1  311.97   10.20
  -1  -4  -1  204.98    7.00
  -1  -4  -1  225.38    7.40
  -1  -4  -1  214.88    6.60
   1   4   1  212.68    7.50
  -2  -4  -1  125.09    5.30
  -2  -4  -1  126.19    4.20
  -2  -4  -1  118.19    4.90
  -2  -4  -1  120.49    4.20
   2   4   1  123.79    5.50
   2   4   1  126.69    5.60
   2   4   1  121.39    5.20
  -3  -4  -1    3.00    1.10
  -3  -4  -1    3.20    0.70
  -3  -4  -1    2.20    1.50
  -3  -4  -1    5.20    2.10
   3   4   1    0.20    1.70
   3   4   1    4.90    1.90
   3   4   1    2.60    2.00
  -4  -4  -1    2.80    1.00
  -4  -4  -1    0.50    2.90
   5   4   1   11.70    4.40
  -5   5   1    5.60    4.20
   4  -5  -1    2.20    4.60
   4  -5  -1    1.90    2.70
  -4   5   1    5.70    3.80
  -4   5   1   -0.10    2.60
  -4   5   1   -6.50    3.30
   3  -5  -1  252.67   10.40
   3  -5  -1  273.27   10.40
   3  -5  -1  264.97   10.20
  -3   5   1  268.97    9.60
  -3   5   1  261.67   10.60
  -3   5   1  262.57   10.00
  -3   5   1  268.17    9.60
   2  -5  -1   21.70    2.40
   2  -5  -1   17.30    2.10
  -2   5   1   19.00    1.80
  -2   5   1   28.80    2.90
  -2   5   1   23.00    2.60
  -2   5   1   23.50    2.50
   1  -5  -1  511.65   15.40
   1  -5  -1  499.85   16.20
   1  -5  -1  488.35   16.10
  -1   5   1  499.95   16.80
  -1   5   1  488.45   15.20
  -1   5   1  523.45   15.50
   0  -5  -1   66.89    3.90
   0  -5  -1   85.89    3.10
   0  -5  -1   80.69    3.00
   0   5   1   79.69    3.40
   0   5   1   81.39    4.30
   0   5   1   82.99    3.70
   0   5   1   81.19    3.20
   0   5   1   85.29    3.10
  -1  -5  -1   47.90    2.40
   1   5   1   45.70    3.30
   1   5   1   46.40    2.60
   1   5   1   46.20    2.80
  -2  -5  -1    0.50    1.20
  -2  -5  -1    0.20    1.30
  -2  -5  -1   -1.40    0.90
   2   5   1   -0.10    0.70
   2   5   1    1.70    1.60
   2   5   1    1.80    1.80
   2   5   1    0.20    1.30
  -3  -5  -1   34.90    2.80
   3   5   1   27.70    3.40
   3   5   1   31.80    3.30
   3   5   1   26.30    3.30
  -4  -5  -1   23.20    4.30
  -4  -5  -1   20.30    3.80
   4   5   1   22.50    3.50
   4  -6  -1  115.99    7.40
  -4   6   1  133.79    8.20
   3  -6  -1   -0.20    2.70
   3  -6  -1    2.40    2.40
   3  -6  -1   -0.60    2.30
  -3   6   1    1.60    2.20
  -3   6   1    1.20    2.60
  -3   6   1   -0.40    2.20
   2  -6  -1    5.60    2.10
   2  -6  -1    2.80    1.80
  -2   6   1    2.30    1.80
  -2   6   1    5.00    2.00
  -2   6   1    5.30    1.80
  -2   6   1    6.70    1.30
   1  -6  -1  188.08    6.20
   1  -6  -1  175.48    6.80
   1  -6  -1  200.18    7.20
  -1   6   1  190.88    7.20
  -1   6   1  178.28    7.70
   0  -6  -1   32.30    1.80
   0  -6  -1   31.90    2.10
   0  -6  -1   33.50    1.80
   0   6   1   32.40    2.40
   0   6   1   33.20    2.50
   0   6   1   33.40    2.20
   0   6   1   27.10    3.00
   0   6   1   36.20    2.00
  -1  -6  -1   31.80    2.80
  -1  -6  -1   29.90    2.50
   1   6   1   33.80    3.40
   1   6   1   35.60    2.60
  -2  -6  -1   33.90    2.50
  -2  -6  -1   32.90    3.00
   2   6   1   37.40    3.60
   2   6   1   36.60    3.90
   3   6   1    7.20    3.40
   3   6   1   10.00    3.00
   4  -7  -1  125.39    8.80
  -4   7   1  123.79    9.60
  -4   7   1  119.19    8.70
   3  -7  -1    0.80    2.60
   3  -7  -1    1.50    2.40
   3  -7  -1    2.40    3.00
  -3   7   1    5.50    3.30
  -3   7   1    0.50    2.70
   2  -7  -1   23.70    2.90
   2  -7  -1   29.40    3.20
  -2   7   1   23.50    3.00
  -2   7   1   28.80    3.30
  -2   7   1   24.60    1.90
   1  -7  -1   76.49    4.30
   1  -7  -1   85.79    4.30
  -1   7   1   82.19    5.10
   0  -7  -1    4.00    1.20
   0  -7  -1    5.40    1.00
   0  -7  -1    5.00    1.20
   0   7   1    7.00    2.20
   0   7   1    6.50    1.70
   0   7   1    5.50    1.30
   0   7   1    5.60    1.60
  -1  -7  -1    1.80    1.10
   1   7   1    2.10    2.20
   1   7   1    1.70    1.80
   1   7   1   -1.10    1.50
  -2  -7  -1   46.60    3.60
   2   7   1   38.90    4.70
   2   7   1   44.70    3.80
  -3  -7  -1    4.30    2.90
  -3  -7  -1    9.30    2.80
   3   7   1    5.50    3.10
   3   7   1   14.20    3.90
  -4  -7  -1   -5.40    4.30
   4  -8  -1   -0.60    6.00
   3  -8  -1   45.90    5.20
   3  -8  -1   46.50    6.80
  -3   8   1   48.30    5.50
  -3   8   1   49.40    4.90
  -2   8   1  108.79    6.70
  -2   8   1  108.69    6.90
  -2   8   1  111.89    4.40
   1  -8  -1   37.40    3.40
   1  -8  -1   37.00    3.50
  -1   8   1   37.40    4.30
   0  -8  -1   45.00    3.30
   0  -8  -1   43.60    2.70
   0   8   1   47.60    4.70
   0   8   1   48.20    3.80
  -1  -8  -1  176.98    6.90
  -1  -8  -1  186.18    7.80
   1   8   1  178.08    7.10
   1   8   1  177.08    9.10
   1   8   1  174.08    8.60
  -2  -8  -1   -1.00    2.40
  -2  -8  -1    2.20    2.10
   2   8   1    1.20    2.40
   2   8   1    5.20    3.30
  -3  -8  -1   51.79    5.20
  -3  -8  -1   36.80    4.80
   3   8   1   45.40    5.90
  -3   9   1   10.50    8.10
  -3   9   1   16.00    4.50
   2  -9  -1   21.50    3.40
   1  -9  -1   68.49    4.30
   1  -9  -1   65.69    4.90
  -1   9   1   61.69    7.20
   0  -9  -1   16.60    2.60
   0  -9  -1   19.60    2.10
  -1  -9  -1    5.20    2.00
   1   9   1   -0.50    3.80
   1   9   1    9.00    3.10
  -2  -9  -1    2.70    3.70
   2   9   1    4.50    4.60
   2   9   1    2.50    3.50
  -3  -9  -1   33.00    5.20
   3   9   1   33.50    6.50
   3 -10  -1   80.09    8.80
  -3  10   1   67.09    7.10
  -2  10   1    2.20    4.50
   1 -10  -1   28.30    3.10
   1 -10  -1   15.50    3.60
   0 -10  -1   75.19    5.40
  -2 -10  -1   77.99    8.20
  -2 -10  -1   66.59    5.20
   1 -11  -1   16.80    4.70
   0 -11  -1   21.20    4.40
  -1 -11  -1    6.00    3.70
  -2 -10   2    3.90    2.70
  -2 -10   2    1.60    4.90
  -1 -10   2   20.60    3.20
   0 -10   2   17.10    3.00
   1 -10   2   -1.00    1.90
   1 -10   2   -6.50    2.80
  -2  10  -2    6.20    4.90
   2 -10   2    9.60    3.80
  -3  10  -2   53.39    6.80
   3 -10   2   42.90    5.70
   3   9  -2   12.00    5.70
  -3  -9   2    3.70    2.60
  -3  -9   2    5.90    3.90
   2   9  -2  113.69    9.50
   2   9  -2  111.79    9.20
   2   9  -2  107.19    6.40
  -2  -9   2  101.09    6.30
  -2  -9   2  102.69    8.30
   1   9  -2   18.20    2.80
   1   9  -2   13.20    2.80
  -1  -9   2   14.80    2.20
   0   9  -2   10.70    2.00
   0  -9   2   11.40    2.40
   0  -9   2   13.70    3.50
  -1   9  -2   22.20    4.20
  -1   9  -2   22.70    2.20
   1  -9   2   20.30    3.00
   1  -9   2   22.90    2.40
  -2   9  -2    7.10    1.70
   2  -9   2    5.90    3.00
  -3   9  -2    3.10    4.30
  -3   9  -2    3.10    4.10
   3  -9   2   -0.20    3.60
  -4   9  -2   40.40    7.30
   4  -9   2   32.50    6.50
   3   8  -2   62.29    6.90
  -3  -8   2   45.50    5.20
  -3  -8   2   51.59    4.10
  -3  -8   2   39.50    4.50
   2   8  -2  265.77   10.70
   2   8  -2  269.37   10.70
  -2  -8   2  281.87   10.10
  -2  -8   2  269.77   11.20
   1   8  -2    1.30    2.00
   1   8  -2    3.10    1.80
   1   8  -2   -4.50    2.60
  -1  -8   2    1.70    1.40
  -1  -8   2    4.00    2.80
   0   8  -2    9.80    1.70
   0   8  -2   10.50    2.30
   0   8  -2   14.40    3.10
   0  -8   2   10.90    1.70
   0  -8   2   13.40    1.20
   0  -8   2   13.90    2.90
  -1   8  -2   -1.20    2.70
  -1   8  -2    1.90    1.20
   1  -8   2    3.60    1.50
   1  -8   2    0.70    2.40
   1  -8   2   -0.20    1.80
  -2   8  -2   40.50    2.60
  -2   8  -2   40.30    4.30
  -2   8  -2   32.90    3.80
   2  -8   2   43.80    3.90
   2  -8   2   42.00    4.90
  -3   8  -2    3.60    3.70
  -3   8  -2    4.30    3.40
  -3   8  -2    6.20    1.90
   3  -8   2    7.60    3.60
   3  -8   2    1.90    3.20
   3  -8   2    6.60    3.60
   4  -8   2   19.70    4.90
   4   7  -2   50.79    5.80
  -4  -7   2   35.20    5.50
  -4  -7   2   50.49    4.80
   3   7  -2   25.20    4.30
   3   7  -2   21.80    4.20
  -3  -7   2   21.80    3.00
  -3  -7   2   27.10    3.60
  -3  -7   2   25.20    3.90
   2   7  -2   -1.10    1.80
   2   7  -2    3.30    2.10
   2   7  -2    0.60    2.10
   2   7  -2    0.10    2.60
  -2  -7   2   -1.00    1.50
  -2  -7   2    0.10    1.30
  -2  -7   2    2.00    1.90
   1   7  -2   44.90    3.30
   1   7  -2   41.40    3.30
   1   7  -2   52.29    4.40
   1   7  -2   45.40    3.10
  -1  -7   2   46.10    2.60
  -1  -7   2   46.70    4.30
   0   7  -2    8.00    1.50
   0   7  -2   10.00    1.30
   0   7  -2    9.80    2.20
   0   7  -2    9.10    1.80
   0  -7   2    9.80    1.10
   0  -7   2    9.60    1.00
   0  -7   2   10.10    1.20
  -1   7  -2   92.39    3.60
  -1   7  -2   92.09    5.30
   1  -7   2   85.09    4.10
   1  -7   2   81.69    5.10
  -2   7  -2    2.10    1.10
  -2   7  -2    7.50    2.50
  -2   7  -2    5.10    2.50
   2  -7   2    5.20    2.30
   2  -7   2    3.70    1.80
   2  -7   2    6.20    2.10
  -3   7  -2   26.90    3.70
  -3   7  -2   27.80    3.60
   3  -7   2   32.90    3.90
   3  -7   2   25.40    3.70
  -4   7  -2   -1.20    4.20
   4  -7   2   -0.80    4.50
   4  -7   2    5.60    3.80
   4   6  -2   -2.20    3.10
  -4  -6   2    2.30    3.50
   3   6  -2   -1.50    2.60
   3   6  -2    2.20    2.20
  -3  -6   2    2.40    3.20
   2   6  -2   74.69    4.70
   2   6  -2   75.79    4.40
   2   6  -2   75.49    4.90
   2   6  -2   81.19    4.20
  -2  -6   2   80.69    4.50
  -2  -6   2   77.59    3.60
  -2  -6   2   82.49    4.40
   1   6  -2   48.60    2.90
   1   6  -2   44.30    3.60
   1   6  -2   42.90    3.10
   1   6  -2   46.00    2.90
   1   6  -2   42.50    2.20
  -1  -6   2   47.80    2.30
   0   6  -2   10.30    1.50
   0   6  -2    5.80    1.30
   0   6  -2    7.00    1.80
   0  -6   2    8.30    1.00
   0  -6   2    8.80    1.10
  -1   6  -2    4.90    1.80
   1  -6   2    5.30    1.60
   1  -6   2    4.50    1.80
  -2   6  -2    2.00    1.90
  -2   6  -2    2.00    1.80
  -2   6  -2    0.50    1.60
   2  -6   2    1.60    1.60
   2  -6   2    1.30    1.50
   2  -6   2   -0.10    2.00
  -3   6  -2   31.90    3.60
  -3   6  -2   33.80    3.30
  -3   6  -2   30.70    3.70
   3  -6   2   33.10    3.40
   3  -6   2   31.10    3.60
   4  -6   2    5.20    3.50
   5   5  -2    9.00    4.50
  -5  -5   2    9.70    5.10
   4   5  -2  132.09    7.70
  -4  -5   2  138.09    7.80
  -4  -5   2  129.79    7.70
   3   5  -2   32.40    3.20
   3   5  -2   34.90    3.80
   3   5  -2   38.30    4.00
  -3  -5   2   38.40    3.90
  -3  -5   2   39.00    3.00
   2   5  -2   37.60    2.70
   2   5  -2   32.60    3.20
   2   5  -2   29.40    3.20
   2   5  -2   36.40    2.90
  -2  -5   2   35.00    3.00
   1   5  -2   22.50    1.90
   1   5  -2   25.10    2.60
   1   5  -2   20.90    1.50
   1   5  -2   22.00    1.30
  -1  -5   2   22.20    2.00
   0   5  -2   -0.10    1.10
   0   5  -2    1.00    0.70
   0   5  -2    1.00    0.80
   0   5  -2    1.00    0.80
   0  -5   2    1.20    1.10
   0  -5   2    0.90    0.60
   0  -5   2    1.10    0.40
   0  -5   2    1.10    0.60
  -1   5  -2  209.78    6.40
  -1   5  -2  193.68    7.60
   1  -5   2  182.78    7.00
   1  -5   2  203.18    7.00
   1  -5   2  185.68    7.60
  -2   5  -2    3.10    1.50
  -2   5  -2    2.90    1.50
  -2   5  -2    2.50    1.50
  -2   5  -2    2.10    1.00
  -2   5  -2    3.40    1.50
   2  -5   2    0.80    1.30
  -3   5  -2    3.40    2.30
  -3   5  -2    6.10    1.80
   3  -5   2    2.70    2.00
   3  -5   2    3.50    2.00
   3  -5   2    3.10    2.00
  -4   5  -2    5.10    2.40
   4  -5   2    2.20    2.80
   4  -5   2   10.60    4.80
   5   4  -2    3.10    4.10
  -5  -4   2    5.90    4.40
   4   4  -2   82.39    5.40
  -4  -4   2   92.89    6.40
   3   4  -2   16.40    2.20
   3   4  -2   15.10    2.50
   3   4  -2   16.60    2.20
  -3  -4   2   15.50    1.50
  -3  -4   2   15.30    2.60
   2   4  -2   87.29    2.90
   2   4  -2   81.59    4.20
   2   4  -2   88.29    3.90
   2   4  -2   85.39    4.40
  -2  -4   2   80.89    4.10
  -2  -4   2   85.09    3.70
  -2  -4   2   89.69    4.30
  -1  -4   2   13.10    1.60
   0   4  -2    0.30    0.50
   0   4  -2    0.10    0.60
   0   4  -2    0.10    0.60
   0  -4   2    0.50    0.80
   0  -4   2   -0.60    0.30
   0  -4   2   -0.30    0.50
   0  -4   2    0.00    0.40
   0  -4   2   -0.10    0.50
  -1   4  -2  246.68    9.80
  -1   4  -2  266.87    7.90
   1  -4   2  241.48    8.60
  -2   4  -2   63.49    3.30
   2  -4   2   68.09    3.70
   2  -4   2   66.89    3.60
  -3   4  -2   29.80    2.70
  -3   4  -2   34.40    3.60
  -3   4  -2   32.60    3.00
   3  -4   2   30.10    3.30
   3  -4   2   33.10    3.20
   3  -4   2   33.60    3.40
  -4   4  -2    2.30    2.30
  -4   4  -2    7.30    2.90
   4  -4   2    4.80    2.80
   4  -4   2    4.00    2.50
   4  -4   2    2.20    2.50
  -5   4  -2    4.70    3.10
  -5   4  -2    3.70    4.00
   5  -4   2    3.00    4.20
   5   3  -2   -0.60    3.50
  -5  -3   2    1.70    2.20
   4   3  -2   83.19    5.00
   4   3  -2   87.39    5.80
  -4  -3   2   84.29    3.70
  -4  -3   2   81.79    5.70
   3   3  -2   35.00    3.00
   3   3  -2   32.90    2.40
   3   3  -2   29.30    2.60
  -3  -3   2   31.10    3.10
  -3  -3   2   31.60    1.90
  -3  -3   2   33.60    1.70
   2   3  -2   -0.40    1.00
   2   3  -2    2.10    1.10
   2   3  -2    1.00    1.10
  -2  -3   2    0.10    1.00
  -1  -3   2   76.89    3.20
   0   3  -2    4.80    0.60
   0   3  -2    4.90    0.70
   0   3  -2    4.00    0.50
   0   3  -2    4.40    0.50
   0   3  -2    6.00    1.00
   0   3  -2    4.20    0.60
   0   3  -2    5.30    0.60
   0  -3   2    3.40    0.40
   0  -3   2    5.00    0.70
   0  -3   2    3.80    0.50
   0  -3   2    4.20    0.50
   0  -3   2    2.00    0.60
   0  -3   2    3.10    0.40
   0  -3   2    5.40    0.60
  -1   3  -2  198.08    6.60
  -1   3  -2  182.08    6.20
  -1   3  -2  186.68    5.80
   1  -3   2  177.28    6.60
   1  -3   2  185.08    6.50
  -2   3  -2  190.98    7.00
  -2   3  -2  187.38    6.40
  -2   3  -2  175.08    5.90
   2  -3   2  164.18    6.30
   2  -3   2  180.28    6.80
  -3   3  -2  427.36   14.40
  -3   3  -2  441.46   15.10
  -3   3  -2  425.66   14.50
   3  -3   2  426.06   14.10
   3  -3   2  430.06   15.00
   3  -3   2  442.76   14.80
  -4   3  -2   41.80    4.20
  -4   3  -2   42.30    3.60
  -4   3  -2   45.20    4.40
   4  -3   2   43.20    4.40
  -5   3  -2    9.80    3.10
  -5   3  -2    9.80    3.80
   5  -3   2    8.00    4.00
   5   2  -2   18.20    3.90
  -5  -2   2   17.20    2.70
   4   2  -2    2.80    2.30
   4   2  -2    1.80    2.20
  -4  -2   2    2.10    2.60
  -4  -2   2    3.80    1.80
  -4  -2   2    1.90    1.60
   3   2  -2   10.60    1.70
   3   2  -2   10.90    1.70
   3   2  -2    4.60    1.50
   3   2  -2    9.90    1.30
  -3  -2   2    7.70    1.40
  -3  -2   2    8.60    2.10
  -3  -2   2   10.10    1.30
   2   2  -2  360.16   11.30
   2   2  -2  354.96   11.10
   2   2  -2  344.07   11.00
  -2  -2   2  361.06   10.90
  -2  -2   2  351.86   10.80
  -2  -2   2  349.07   10.80
  -2  -2   2  333.27   11.20
   1   2  -2  140.09    5.60
   1   2  -2  148.29    4.70
   1   2  -2  152.48    5.20
   1   2  -2  154.88    5.00
   1   2  -2  147.69    4.60
  -1  -2   2  141.19    5.10
  -1  -2   2  156.98    5.00
  -1  -2   2  146.59    5.40
  -1  -2   2  158.18    4.90
  -1  -2   2  148.99    5.20
  -1  -2   2  140.09    5.10
   0   2  -2  402.66   12.50
   0   2  -2  409.16   12.40
   0   2  -2  402.76   12.30
   0   2  -2  398.56   12.50
   0   2  -2  415.06   12.80
   0   2  -2  404.66   12.40
   0   2  -2  402.26   12.40
   0   2  -2  441.66   12.50
   0  -2   2  408.76   12.80
   0  -2   2  396.16   12.80
   0  -2   2  412.36   12.50
   0  -2   2  409.66   12.40
   0  -2   2  388.96   12.50
   0  -2   2  395.66   12.40
   0  -2   2  395.56   12.30
   0  -2   2  410.16   12.30
   0  -2   2  412.96   12.40
   0  -2   2  403.46   12.30
  -1   2  -2  106.59    3.40
  -1   2  -2  102.69    3.90
  -1   2  -2  103.09    3.80
  -1   2  -2  107.99    3.60
  -1   2  -2  111.79    3.90
   1  -2   2  107.09    4.00
   1  -2   2  104.89    3.80
   1  -2   2  107.79    3.90
   1  -2   2  106.99    3.80
   1  -2   2  101.99    4.00
  -2   2  -2   -0.80    0.80
   2  -2   2    1.40    0.90
   2  -2   2    1.70    0.80
   2  -2   2    2.10    0.70
  -3   2  -2   28.60    2.80
  -3   2  -2   23.30    2.50
   3  -2   2   33.80    2.80
  -4   2  -2    9.60    2.50
  -4   2  -2   13.50    2.20
  -4   2  -2    8.60    2.30
   4  -2   2    9.10    2.80
   4  -2   2    9.50    2.30
  -5   2  -2   95.19    6.90
  -5   2  -2   87.09    5.60
   5  -2   2   80.19    7.20
   5  -2   2   94.29    7.20
   5   1  -2   48.50    4.90
   4   1  -2   14.70    2.60
   4   1  -2   14.50    2.60
  -4  -1   2    8.40    2.90
  -4  -1   2   15.50    2.10
  -4  -1   2   14.70    2.20
   3   1  -2  170.68    6.30
   3   1  -2  154.58    6.50
  -3  -1   2  152.98    6.00
  -3  -1   2  148.19    6.70
   2   1  -2  787.12   24.80
   2   1  -2  816.02   24.50
   2   1  -2  815.22   24.90
  -2  -1   2  818.22   24.80
  -2  -1   2  809.12   24.50
   1   1  -2  160.38    5.40
   1   1  -2  154.18    5.00
   1   1  -2  157.28    5.00
   1   1  -2  154.78    5.10
   1   1  -2  153.08    5.30
   1   1  -2  154.38    5.00
   1   1  -2  158.38    5.10
  -1  -1   2  161.88    5.10
  -1  -1   2  154.58    4.90
  -1  -1   2  155.68    4.90
  -1  -1   2  149.99    5.40
  -1  -1   2  158.08    5.10
  -1  -1   2  155.88    5.00
  -1  -1   2  154.68    5.10
  -1  -1   2  149.19    5.20
   0   1  -2  167.78    5.20
   0   1  -2  164.18    5.40
   0   1  -2  162.48    5.10
   0   1  -2  168.58    5.10
   0   1  -2  165.08    5.10
   0   1  -2  162.28    5.10
   0   1  -2  166.08    5.30
   0  -1   2  167.38    5.30
   0  -1   2  167.98    5.10
   0  -1   2  159.68    5.30
   0  -1   2  168.18    5.20
   0  -1   2  167.08    5.10
   0  -1   2  165.58    5.10
   0  -1   2  171.28    5.20
   0  -1   2  162.08    5.20
   0  -1   2  164.88    5.10
  -1   1  -2  136.39    5.50
  -1   1  -2  142.79    4.60
  -1   1  -2  140.49    4.60
  -1   1  -2  132.49    4.70
  -1   1  -2  137.19    4.60
  -1   1  -2  139.39    4.50
  -1   1  -2  132.89    4.70
   1  -1   2  130.99    4.70
   1  -1   2  131.99    4.60
   1  -1   2  139.19    4.70
   1  -1   2  130.49    4.60
   1  -1   2  138.49    4.50
   1  -1   2  143.99    4.80
   1  -1   2  140.29    4.70
  -2   1  -2  223.08    7.20
  -2   1  -2  205.48    8.00
  -2   1  -2  189.38    7.80
   2  -1   2  233.08    6.90
   2  -1   2  233.48    7.30
  -3   1  -2   19.30    2.30
  -3   1  -2   18.30    2.20
  -4   1  -2   -0.60    2.10
  -4   1  -2    0.30    1.90
  -4   1  -2   -0.70    1.60
   4  -1   2    3.00    2.20
   4  -1   2   -0.10    1.80
  -5   1  -2   57.79    5.80
   5  -1   2   56.39    6.00
   5  -1   2   51.69    5.10
   5   0  -2    3.80    3.40
  -5   0   2    6.50    3.10
  -5   0   2    3.40    2.80
   4   0  -2  115.29    6.00
   4   0  -2  121.39    5.80
   4   0  -2  109.09    5.90
  -4   0   2  114.29    6.20
  -4   0   2  120.19    5.30
  -4   0   2  117.69    5.80
   3   0  -2  103.49    4.50
   3   0  -2   95.19    4.70
  -3   0   2  101.79    4.60
  -3   0   2   93.29    4.90
   2   0  -2  257.17    9.70
   2   0  -2  319.37    9.80
  -2   0   2  293.87    9.50
   1   0  -2  325.07   10.40
   1   0  -2  328.77   10.20
   1   0  -2  321.77   10.30
   1   0  -2  329.67   10.00
   1   0  -2  332.07   10.40
   1   0  -2  325.77   10.40
   1   0  -2  325.67   10.20
  -1   0   2  315.37   10.30
  -1   0   2  330.07   10.20
  -1   0   2  332.87   10.00
  -1   0   2  321.57   10.30
  -1   0   2  332.37   10.20
  -1   0   2  335.17   10.40
  -1   0  -2 1037.70   31.60
  -1   0  -2 1029.10   31.70
  -1   0  -2 1070.89   31.80
  -1   0  -2 1030.80   31.70
  -1   0  -2 1034.60   31.50
   1   0   2 1110.59   31.80
   1   0   2 1033.40   31.70
   1   0   2 1070.89   31.70
   1   0   2 1045.80   31.50
   1   0   2 1032.50   31.80
   1   0   2 1031.20   31.90
  -2   0  -2  429.46   14.00
  -2   0  -2  431.16   13.50
  -2   0  -2  455.55   13.60
   2   0   2  440.16   13.50
   2   0   2  414.76   13.50
   2   0   2  438.96   13.40
  -3   0  -2   17.20    2.00
  -3   0  -2   15.30    2.20
   3   0   2   15.10    2.00
   3   0   2   12.80    1.60
   3   0   2   16.30    2.30
  -4   0  -2    7.50    1.70
  -4   0  -2    7.60    2.20
  -4   0  -2    5.90    2.20
   4   0   2    2.70    2.20
   4   0   2   10.40    2.30
   4   0   2    9.90    2.30
  -5   0  -2   -4.60    2.70
   5   0   2    5.10    3.80
   5  -1  -2   -0.20    3.20
   5  -1  -2   -2.00    3.40
   5  -1  -2   -2.00    3.10
  -5   1   2   -1.30    3.30
  -5   1   2   -6.90    4.50
  -5   1   2    1.80    3.00
   4  -1  -2  207.08    8.60
   4  -1  -2  203.68    8.50
  -4   1   2  202.28    8.60
  -4   1   2  207.98    9.00
  -4   1   2  208.28    8.10
   3  -1  -2   28.20    1.70
   3  -1  -2   25.00    2.00
   3  -1  -2   26.60    2.80
  -3   1   2   28.10    2.70
  -3   1   2   25.90    2.70
   2  -1  -2   -0.50    0.70
  -2   1   2    0.40    0.90
   1  -1  -2   13.00    1.00
   1  -1  -2   12.30    0.90
   1  -1  -2   13.40    1.10
   1  -1  -2    9.70    1.00
   1  -1  -2   12.40    1.00
  -1   1   2   11.40    1.00
  -1   1   2   12.10    1.00
  -1   1   2   12.50    0.80
  -1   1   2   11.10    0.80
  -1   1   2   12.50    1.00
   0  -1  -2 4181.28  126.79
   0  -1  -2 4198.18  126.79
   0  -1  -2 4222.48  126.89
   0  -1  -2 4218.68  126.89
   0  -1  -2 4118.19  126.99
   0  -1  -2 4310.17  127.09
   0  -1  -2 4250.97  126.99
   0   1   2 4229.68  126.79
   0   1   2 4338.37  127.39
   0   1   2 4108.99  126.59
   0   1   2 4405.16  128.09
   0   1   2 4201.88  126.89
   0   1   2 4228.38  126.69
   0   1   2 4125.99  126.89
  -1  -1  -2  329.47   10.30
  -1  -1  -2  331.67   10.40
  -1  -1  -2  308.07   10.50
  -1  -1  -2  319.87   10.60
   1   1   2  317.27   10.30
   1   1   2  335.57   10.60
   1   1   2  353.56   10.60
   1   1   2  337.87   10.40
   1   1   2  336.37   10.20
   1   1   2  333.87   10.40
   1   1   2  323.17   10.60
  -2  -1  -2  967.80   30.50
  -2  -1  -2 1006.30   30.90
  -2  -1  -2 1026.10   30.40
   2   1   2 1016.20   30.80
   2   1   2  976.10   30.30
   2   1   2 1031.30   30.60
   2   1   2 1020.70   30.70
  -3  -1  -2    9.10    1.90
  -3  -1  -2    5.30    1.70
  -3  -1  -2    7.40    1.80
  -3  -1  -2    7.70    0.90
   3   1   2    6.40    1.20
   3   1   2    4.10    1.60
   3   1   2    6.30    1.60
   3   1   2    7.50    1.10
  -4  -1  -2   65.89    4.70
  -4  -1  -2   68.89    4.10
   4   1   2   67.89    4.40
   4   1   2   68.29    4.80
   4   1   2   66.19    4.70
   5   1   2   -3.60    3.50
   5  -2  -2  104.29    6.40
   5  -2  -2  104.59    7.30
   5  -2  -2   99.39    7.30
  -5   2   2  105.39    6.40
  -5   2   2   97.29    8.70
   4  -2  -2   85.99    5.60
   4  -2  -2   82.89    5.30
   4  -2  -2   80.89    4.80
  -4   2   2   83.69    5.40
  -4   2   2   80.29    4.70
  -4   2   2   80.49    5.30
   3  -2  -2   13.80    2.20
   3  -2  -2   14.50    1.60
  -3   2   2   11.70    1.90
  -3   2   2   15.80    2.00
  -3   2   2   16.10    2.20
   2  -2  -2  148.09    5.20
  -2   2   2  137.19    5.00
  -2   2   2  139.59    4.80
   1  -2  -2  551.74   17.20
   1  -2  -2  559.74   17.10
   1  -2  -2  553.54   17.40
   1  -2  -2  549.65   17.50
  -1   2   2  533.35   17.40
  -1   2   2  572.44   17.00
  -1   2   2  580.94   17.50
  -1   2   2  598.44   17.60
  -1   2   2  551.14   17.20
   0  -2  -2 1751.82   51.89
   0  -2  -2 1743.73   51.89
   0  -2  -2 1751.62   51.19
   0  -2  -2 1662.33   51.49
   0  -2  -2 1694.73   51.59
   0  -2  -2 1725.63   51.29
   0  -2  -2 1668.83   51.29
   0  -2  -2 1735.23   51.39
   0   2   2 1757.22   51.59
   0   2   2 1677.03   51.39
   0   2   2 1696.83   51.39
   0   2   2 1685.63   51.59
   0   2   2 1665.93   51.39
   0   2   2 1735.83   51.19
   0   2   2 1739.03   51.49
  -1  -2  -2  116.99    3.60
  -1  -2  -2  116.99    3.80
  -1  -2  -2  110.29    4.30
  -1  -2  -2  116.09    4.10
  -1  -2  -2  111.89    4.30
  -1  -2  -2  116.19    3.50
   1   2   2  117.79    4.60
   1   2   2  111.29    3.80
   1   2   2  116.79    4.20
   1   2   2  113.89    3.70
   1   2   2  107.89    4.30
  -2  -2  -2   38.60    2.20
  -2  -2  -2   42.40    1.50
  -2  -2  -2   40.30    2.20
   2   2   2   41.20    2.00
   2   2   2   43.40    2.60
   2   2   2   39.00    2.60
   2   2   2   43.80    2.40
  -3  -2  -2    0.30    1.70
  -3  -2  -2    4.50    1.00
  -3  -2  -2    7.20    1.90
  -3  -2  -2    3.60    1.00
  -3  -2  -2    3.30    0.90
   3   2   2    3.50    0.80
   3   2   2    4.30    1.60
   3   2   2    0.60    1.50
   3   2   2    3.90    1.40
  -4  -2  -2   80.99    4.10
  -4  -2  -2   83.39    5.40
   4   2   2   85.89    5.40
   4   2   2   86.39    5.40
  -5  -2  -2   12.30    2.60
   5   2   2    9.10    4.10
   5  -3  -2    7.00    3.60
  -5   3   2    1.40    3.60
  -5   3   2    1.90    3.30
   4  -3  -2  117.69    5.60
   4  -3  -2  120.59    6.60
   4  -3  -2  112.99    6.60
  -4   3   2  125.89    6.70
  -4   3   2  122.59    6.50
   3  -3  -2  264.17   10.20
   3  -3  -2  274.57   10.20
  -3   3   2  257.57   10.20
  -3   3   2  266.67    9.80
  -3   3   2  279.57    8.90
  -3   3   2  278.87    9.90
   2  -3  -2 1418.36   41.50
   2  -3  -2 1321.27   41.70
   2  -3  -2 1334.67   42.20
   2  -3  -2 1321.17   42.20
  -2   3   2 1388.06   42.10
  -2   3   2 1416.86   41.70
   1  -3  -2   28.00    2.30
   1  -3  -2   31.50    2.00
  -1   3   2   34.80    1.50
   0  -3  -2   22.30    1.40
   0  -3  -2   22.60    1.10
   0  -3  -2   23.40    1.10
   0  -3  -2   23.40    0.90
   0  -3  -2   21.50    1.40
   0   3   2   21.10    1.20
   0   3   2   20.70    1.20
   0   3   2   22.60    1.00
   0   3   2   20.90    1.30
  -1  -3  -2  224.98    8.50
  -1  -3  -2  251.97    7.70
  -1  -3  -2  246.78    8.00
   1   3   2  251.67    7.60
   1   3   2  241.88    7.80
  -2  -3  -2   -0.50    1.30
  -2  -3  -2    0.60    0.80
  -2  -3  -2   -1.20    1.10
  -2  -3  -2    1.20    0.80
   2   3   2   -0.90    0.90
   2   3   2    1.00    1.20
   2   3   2    0.10    0.60
  -3  -3  -2    1.70    1.80
  -3  -3  -2    5.50    1.50
   3   3   2    2.40    1.20
   3   3   2    3.20    1.70
   3   3   2    2.40    1.70
  -4  -3  -2   11.80    5.00
  -4  -3  -2    7.60    1.40
   4   3   2    8.60    3.50
   4   3   2   10.40    2.70
  -5  -3  -2    2.20    1.90
   5  -4  -2   95.49    8.20
  -5   4   2   94.89    7.00
   4  -4  -2  145.79    7.80
   4  -4  -2  148.69    7.60
   4  -4  -2  151.08    6.30
   4  -4  -2  139.99    6.60
  -4   4   2  144.59    7.70
  -4   4   2  142.09    7.10
   3  -4  -2   40.10    3.30
   3  -4  -2   41.00    3.60
   3  -4  -2   41.80    2.60
  -3   4   2   36.60    3.00
  -3   4   2   42.30    3.20
  -3   4   2   40.50    3.90
  -3   4   2   43.30    2.90
   2  -4  -2  450.05   13.50
   2  -4  -2  448.96   15.40
   2  -4  -2  421.66   14.50
  -2   4   2  425.46   13.40
  -2   4   2  432.06   14.70
  -2   4   2  422.36   14.40
   1  -4  -2  149.29    5.60
  -1   4   2  152.18    4.90
   0  -4  -2  338.77   11.20
   0  -4  -2  349.77   10.90
   0   4   2  359.76   10.80
   0   4   2  347.37   11.10
   0   4   2  343.37   11.00
  -1  -4  -2  169.88    5.50
  -1  -4  -2  171.78    5.80
   1   4   2  177.08    5.60
   1   4   2  175.98    6.90
   1   4   2  171.08    6.30
  -2  -4  -2   25.80    1.50
  -2  -4  -2   21.30    1.40
  -2  -4  -2   25.70    1.20
  -2  -4  -2   25.40    2.40
   2   4   2   22.60    1.40
   2   4   2   25.70    2.70
   2   4   2   25.30    2.50
   2   4   2   21.40    2.10
  -3  -4  -2   21.20    2.60
  -3  -4  -2   24.10    2.50
  -3  -4  -2   20.20    1.40
   3   4   2   25.90    2.90
   3   4   2   19.40    2.60
   3   4   2   17.40    2.80
  -4  -4  -2    3.80    3.20
  -4  -4  -2   -0.80    2.00
  -4  -4  -2    1.50    1.10
   4   4   2   -2.30    2.70
   5   4   2    9.30    4.40
  -5   5   2    2.20    4.20
   4  -5  -2  142.79    7.30
   4  -5  -2  155.88    8.50
   4  -5  -2  130.29    8.40
  -4   5   2  152.08    8.30
  -4   5   2  140.99    7.30
  -4   5   2  142.19    7.20
   3  -5  -2  518.55   18.40
   3  -5  -2  538.15   18.30
   3  -5  -2  516.85   18.00
   3  -5  -2  540.95   16.50
  -3   5   2  533.25   18.00
  -3   5   2  529.55   17.50
  -3   5   2  542.35   18.60
  -3   5   2  537.95   17.50
  -3   5   2  517.75   16.70
   2  -5  -2  208.98    6.80
   2  -5  -2  181.88    8.20
   2  -5  -2  202.48    7.80
  -2   5   2  198.58    8.00
  -2   5   2  187.18    7.60
  -2   5   2  204.18    7.70
   1  -5  -2   54.49    2.40
   1  -5  -2   57.39    3.10
  -1   5   2   53.39    3.00
  -1   5   2   55.99    3.50
  -1   5   2   55.79    2.20
  -1   5   2   59.59    2.20
   0  -5  -2  144.29    4.90
   0  -5  -2  146.29    4.90
   0   5   2  150.08    4.90
   0   5   2  138.09    6.10
   0   5   2  140.79    5.20
   0   5   2  134.79    5.00
   0   5   2  139.89    5.50
  -1  -5  -2   75.39    3.20
  -1  -5  -2   72.99    2.60
  -1  -5  -2   67.69    3.50
   1   5   2   76.09    2.90
   1   5   2   71.99    4.20
   1   5   2   75.39    3.60
  -2  -5  -2   23.20    2.50
  -2  -5  -2   23.30    1.70
  -2  -5  -2   21.80    2.00
   2   5   2   23.00    2.20
   2   5   2   25.40    2.90
   3   5   2    0.00    1.90
   3   5   2   -1.30    2.30
  -4  -5  -2   55.99    5.90
   4   5   2   54.09    5.40
   5   5   2    1.60    5.20
   4  -6  -2  191.28   10.10
   4  -6  -2  203.18    9.60
  -4   6   2  205.08   10.20
   3  -6  -2   24.40    3.20
   3  -6  -2   23.20    3.20
   3  -6  -2   19.80    3.10
  -3   6   2   18.10    3.10
  -3   6   2   24.10    3.50
  -3   6   2   18.70    2.90
   2  -6  -2   18.10    2.40
   2  -6  -2   17.00    2.30
  -2   6   2   13.60    2.10
  -2   6   2   16.00    2.60
  -2   6   2   21.30    2.70
   1  -6  -2    3.40    1.40
   1  -6  -2    1.90    1.60
   1  -6  -2    2.20    1.10
  -1   6   2    2.60    1.40
  -1   6   2    2.70    0.80
  -1   6   2    3.10    1.80
   0  -6  -2    3.70    0.90
   0  -6  -2    2.80    0.80
   0  -6  -2    2.50    1.00
   0   6   2    2.80    1.30
   0   6   2    0.50    1.20
   0   6   2    3.20    1.70
   0   6   2    1.50    1.20
  -1  -6  -2   25.90    1.80
  -1  -6  -2   24.30    1.90
   1   6   2   21.90    2.00
   1   6   2   25.10    3.00
   1   6   2   24.90    2.40
  -2  -6  -2    1.30    1.20
  -2  -6  -2    0.00    1.10
  -2  -6  -2    1.10    1.60
   2   6   2    3.00    2.20
   2   6   2    2.60    1.60
  -3  -6  -2   13.90    2.90
   3   6   2    8.30    3.30
   3   6   2    6.40    2.30
   4  -7  -2   86.89    7.80
  -4   7   2  102.69    8.20
   3  -7  -2    1.40    3.00
   3  -7  -2    5.20    2.80
  -3   7   2    3.40    3.20
  -3   7   2   -0.90    2.60
   2  -7  -2   42.00    4.00
   2  -7  -2   44.60    4.00
  -2   7   2   41.50    2.30
  -2   7   2   40.90    4.10
  -2   7   2   37.90    4.20
   1  -7  -2   11.90    2.00
   1  -7  -2   15.40    2.30
  -1   7   2   12.90    2.70
  -1   7   2   12.10    2.10
   0  -7  -2   47.20    2.40
   0  -7  -2   51.69    3.00
   0  -7  -2   55.19    3.10
   0   7   2   55.59    2.80
   0   7   2   49.80    3.40
   0   7   2   50.49    4.30
   0   7   2   51.49    3.50
  -1  -7  -2   12.80    1.70
   1   7   2   12.30    2.90
   1   7   2   11.60    2.10
  -2  -7  -2   13.40    1.90
  -2  -7  -2   14.30    2.30
   2   7   2   14.10    2.50
   2   7   2   10.10    3.20
  -3  -7  -2   41.10    5.00
  -3  -7  -2   37.70    4.40
   3   7   2   48.50    5.10
   3   7   2   44.10    4.70
   4   7   2    2.00    4.70
   4  -8  -2   18.10    5.60
  -4   8   2   11.00    5.60
   3  -8  -2   39.80    5.10
   3  -8  -2   44.60    5.70
  -3   8   2   41.80    4.80
  -3   8   2   42.10    4.70
  -2   8   2   34.40    4.50
  -2   8   2   32.10    4.20
   1  -8  -2    3.20    1.80
  -1   8   2   -0.40    2.60
   0  -8  -2   10.70    1.70
   0   8   2    8.60    2.00
   0   8   2   13.20    3.30
  -1  -8  -2  103.89    4.50
   1   8   2   85.19    7.60
   1   8   2   94.39    8.30
  -2  -8  -2   17.20    2.40
  -2  -8  -2   12.90    3.00
  -2  -8  -2   17.60    2.60
   2   8   2   20.00    4.40
  -3  -8  -2    0.70    3.60
  -3  -8  -2    2.50    3.20
   3   8   2    5.30    4.50
   3   8   2   11.60    4.20
  -3   9   2   19.60    4.60
  -3   9   2   15.40    4.90
   2  -9  -2   29.00    3.80
  -2   9   2   28.90    5.90
   1  -9  -2   22.40    3.50
   0  -9  -2  128.19    5.20
   0  -9  -2  141.09    6.40
   0   9   2  138.49    6.90
   1   9   2   -3.60    3.50
   1   9   2    0.20    2.50
   2   9   2   -1.40    3.40
   2   9   2    2.60    4.60
  -3  -9  -2    9.40    4.70
  -3  10   2    4.80    5.50
   2 -10  -2    9.60    4.50
  -2  10   2   -2.30    4.70
   1 -10  -2    4.60    3.00
   1 -10  -2    3.50    2.50
   0 -10  -2   39.70    4.10
  -1 -10  -2   26.20    4.10
  -2 -10  -2    4.20    4.80
   1 -11  -2  238.68   11.60
   0 -11  -2    5.50    3.60
  -2 -10   3   21.10    5.00
   1  10  -3   61.49    8.30
  -1 -10   3   52.49    4.70
   1 -10   3    8.70    2.00
  -2  10  -3   94.39   11.00
   2 -10   3   82.69    7.40
  -3  10  -3  105.09    9.00
   3   9  -3   -4.00    4.20
   3   9  -3    2.10    5.00
  -3  -9   3    4.70    2.70
  -3  -9   3    0.40    3.90
   2   9  -3   60.19    6.30
   2   9  -3   54.69    5.60
   2   9  -3   51.99    5.10
  -2  -9   3   52.59    6.20
  -2  -9   3   50.89    4.90
  -2  -9   3   51.49    3.90
   1   9  -3   10.90    2.50
  -1  -9   3   11.90    2.00
   0   9  -3   76.29    4.40
   0  -9   3   82.29    6.30
   0  -9   3   80.89    4.60
  -1   9  -3    2.10    3.00
  -1   9  -3    0.40    1.60
   1  -9   3   -2.80    1.50
   1  -9   3    0.90    2.30
  -2   9  -3    0.90    1.60
   2  -9   3   -3.50    2.80
  -3   9  -3    2.50    2.00
  -3   9  -3    4.50    4.30
  -3   9  -3   -1.20    4.00
   3  -9   3    2.70    4.00
  -4   9  -3    5.00    5.70
   4  -9   3   17.80    5.60
  -4  -8   3   22.20    5.20
  -4  -8   3   21.40    6.60
   3   8  -3   69.49    7.10
   3   8  -3   71.79    6.20
  -3  -8   3   52.29    5.80
  -3  -8   3   63.59    5.90
  -3  -8   3   66.69    4.30
   2   8  -3  172.58    8.10
   2   8  -3  188.18    8.10
   2   8  -3  186.28    8.20
   2   8  -3  185.78   11.40
  -2  -8   3  181.98    7.00
  -2  -8   3  182.98    7.50
  -2  -8   3  197.18    8.80
  -2  -8   3  185.88    7.20
  -2  -8   3  180.28    8.00
   1   8  -3  150.88    6.70
   1   8  -3  146.49    6.50
   1   8  -3  141.09    7.90
  -1  -8   3  155.88    5.80
  -1  -8   3  152.18    7.90
   0   8  -3   63.49    5.40
   0   8  -3   70.49    3.70
   0  -8   3   66.89    3.70
   0  -8   3   70.39    2.60
   0  -8   3   56.39    5.00
  -1   8  -3   10.20    1.50
  -1   8  -3    8.20    3.90
   1  -8   3    9.10    1.60
   1  -8   3    7.70    1.80
   1  -8   3    3.90    2.40
  -2   8  -3   39.80    2.60
  -2   8  -3   35.40    3.90
  -2   8  -3   36.10    4.10
   2  -8   3   37.70    3.50
   2  -8   3   42.50    4.40
   2  -8   3   32.10    3.60
  -3   8  -3   16.50    3.80
  -3   8  -3   26.00    4.00
  -3   8  -3   15.60    2.20
   3  -8   3   22.80    4.80
   3  -8   3   27.30    4.10
   3  -8   3   16.00    3.60
   4   7  -3    1.50    3.60
  -4  -7   3    3.00    2.70
  -4  -7   3   11.60    4.50
   3   7  -3   15.20    3.70
   3   7  -3    1.90    2.50
  -3  -7   3    7.00    3.00
  -3  -7   3    6.80    2.80
   2   7  -3   42.10    4.40
   2   7  -3   35.30    4.00
   2   7  -3   42.20    3.50
   2   7  -3   37.70    3.90
  -2  -7   3   37.40    2.80
  -2  -7   3   38.00    2.70
  -2  -7   3   39.50    3.60
   1   7  -3  103.29    4.80
   1   7  -3  109.29    6.10
   1   7  -3  103.09    5.00
   1   7  -3  101.19    5.00
  -1  -7   3  111.99    5.80
   0   7  -3    2.00    1.10
   0   7  -3    0.00    1.20
   0   7  -3   -1.20    1.50
   0   7  -3   -3.40    1.80
   0  -7   3    0.10    0.70
   0  -7   3   -0.60    0.80
   0  -7   3    0.40    0.70
  -1   7  -3    2.00    0.90
  -1   7  -3    1.90    2.00
   1  -7   3   -0.10    1.80
   1  -7   3    0.90    1.30
   1  -7   3    1.10    1.50
  -2   7  -3   93.19    5.50
  -2   7  -3   96.49    5.70
  -2   7  -3   99.19    4.10
   2  -7   3  100.59    5.00
   2  -7   3   95.99    5.20
   2  -7   3   94.79    5.80
  -3   7  -3   91.89    5.80
  -3   7  -3   92.39    6.30
   3  -7   3   99.69    7.30
   3  -7   3   76.19    6.20
   3  -7   3   97.09    6.10
  -4   7  -3    9.10    4.10
   4  -7   3    4.10    4.20
   4   6  -3    4.60    3.10
  -4  -6   3   -3.50    3.30
   3   6  -3   22.40    2.90
   3   6  -3   21.20    3.50
  -3  -6   3   21.80    3.50
  -3  -6   3   20.60    3.40
   2   6  -3   48.70    4.20
   2   6  -3   47.50    3.80
   2   6  -3   49.70    3.40
   2   6  -3   46.30    3.50
  -2  -6   3   48.10    2.70
  -2  -6   3   51.79    3.60
  -2  -6   3   54.49    4.20
  -2  -6   3   47.70    2.80
   1   6  -3    7.30    1.50
   1   6  -3    3.90    2.00
   1   6  -3    4.80    1.60
   1   6  -3    4.20    0.90
   1   6  -3    4.00    1.20
   0   6  -3  100.89    4.10
   0   6  -3   99.59    4.10
   0   6  -3   92.39    4.20
   0   6  -3   96.39    4.40
   0   6  -3   94.29    5.10
   0  -6   3  105.69    4.70
   0  -6   3   92.59    3.50
   0  -6   3   99.49    3.70
  -1   6  -3    0.00    0.60
  -1   6  -3   -0.80    1.00
  -1   6  -3   -1.60    1.40
   1  -6   3   -1.30    1.40
   1  -6   3    0.10    1.50
  -2   6  -3   31.50    3.40
  -2   6  -3   28.80    3.00
   2  -6   3   26.80    2.90
   2  -6   3   29.80    3.30
  -3   6  -3   25.20    3.50
  -3   6  -3   26.60    3.10
  -3   6  -3   21.90    2.70
   3  -6   3   24.00    2.80
   3  -6   3   17.90    2.90
   3  -6   3   27.30    3.40
   4  -6   3    3.00    3.50
   4  -6   3    4.70    3.60
   5   5  -3   -2.50    4.20
  -5  -5   3   -3.00    4.60
   4   5  -3    9.60    2.90
  -4  -5   3   12.00    3.50
  -4  -5   3    6.30    3.10
   3   5  -3   32.10    3.50
   3   5  -3   33.10    3.80
   3   5  -3   35.50    3.10
  -3  -5   3   32.60    2.90
  -3  -5   3   31.70    3.60
  -3  -5   3   26.40    3.20
   2   5  -3    2.00    1.20
   2   5  -3    2.80    1.50
   2   5  -3    0.50    1.60
   2   5  -3    2.10    1.40
  -2  -5   3    2.70    1.60
  -2  -5   3   -1.90    0.90
   1   5  -3   86.99    4.50
   1   5  -3   89.79    3.90
  -1  -5   3   87.19    3.90
   0   5  -3   -2.10    1.10
   0   5  -3   -0.40    0.80
   0   5  -3   -0.40    0.80
   0   5  -3   -0.20    0.70
   0  -5   3    0.30    1.00
   0  -5   3    0.10    1.10
   0  -5   3    0.10    0.60
  -1   5  -3   63.69    3.70
  -1   5  -3   67.09    2.70
   1  -5   3   63.99    3.40
   1  -5   3   70.09    3.20
   1  -5   3   64.59    3.60
  -2   5  -3   12.70    1.50
  -2   5  -3   16.50    2.10
  -2   5  -3   14.30    2.10
  -2   5  -3   12.30    1.90
   2  -5   3   13.10    1.90
  -3   5  -3    2.60    2.40
  -3   5  -3    0.10    1.70
   3  -5   3    2.10    2.00
   3  -5   3   -1.10    2.10
   3  -5   3    0.20    1.90
  -4   5  -3    7.10    2.60
  -4   5  -3    5.30    5.30
   4  -5   3    7.60    3.00
   4  -5   3   12.70    3.30
   4  -5   3    4.60    3.50
   5  -5   3   20.30    5.10
   5   4  -3   27.70    4.60
  -5  -4   3   37.80    5.60
   4   4  -3    4.60    2.50
  -4  -4   3    3.50    3.10
   3   4  -3  374.06   13.70
   3   4  -3  363.76   12.70
   3   4  -3  376.86   12.90
  -3  -4   3  377.66   13.60
  -3  -4   3  370.56   11.80
   2   4  -3    2.60    1.00
   2   4  -3    1.90    1.40
   2   4  -3    3.10    0.60
   2   4  -3    2.00    1.20
  -2  -4   3    4.50    1.40
  -1  -4   3    2.00    0.80
   0   4  -3  102.09    3.50
   0   4  -3  102.09    3.80
   0   4  -3  109.79    3.90
   0  -4   3  106.09    3.60
   0  -4   3  107.09    3.70
   0  -4   3  103.89    3.40
   0  -4   3   99.89    3.80
   0  -4   3  103.39    3.40
  -1   4  -3  127.29    4.20
  -1   4  -3  122.09    5.10
   1  -4   3  118.89    4.90
  -2   4  -3   28.10    3.80
  -2   4  -3   25.70    2.10
   2  -4   3   29.40    2.40
   2  -4   3   28.00    2.60
  -3   4  -3   24.00    2.90
  -3   4  -3   24.50    2.50
  -3   4  -3   26.20    2.80
   3  -4   3   27.90    2.90
   3  -4   3   28.70    3.10
   3  -4   3   26.10    2.80
  -4   4  -3    0.80    2.20
  -4   4  -3    3.40    2.30
  -4   4  -3    1.30    2.80
   4  -4   3    3.90    2.50
   4  -4   3   -0.10    2.50
  -5   4  -3    3.20    3.60
  -5   4  -3   -4.30    3.90
  -5   4  -3    9.70    6.70
   5  -4   3   -5.20    4.40
   5   3  -3    1.00    3.40
  -5  -3   3   -1.10    3.80
   4   3  -3   21.10    3.10
   4   3  -3   17.00    2.60
  -4  -3   3   20.50    3.20
  -4  -3   3   19.70    2.40
  -4  -3   3   18.60    2.00
   3   3  -3   43.10    2.70
   3   3  -3   39.20    3.00
   3   3  -3   40.10    3.30
  -3  -3   3   44.40    2.00
  -3  -3   3   43.60    3.60
   2   3  -3   73.69    3.50
   2   3  -3   68.99    3.60
   2   3  -3   76.99    3.90
  -1  -3   3   -0.10    0.70
   0   3  -3  273.77    8.70
   0   3  -3  276.27    8.60
   0   3  -3  279.97    8.90
   0   3  -3  279.57    9.40
   0   3  -3  275.47    8.80
   0  -3   3  281.87    8.70
   0  -3   3  282.27    8.50
   0  -3   3  266.97    8.70
   0  -3   3  289.77    8.80
   0  -3   3  273.87    9.30
   0  -3   3  278.17    8.80
   0  -3   3  285.57    8.60
  -1   3  -3    8.70    0.70
  -1   3  -3    9.40    1.30
  -1   3  -3    9.50    1.00
   1  -3   3    9.20    1.30
  -2   3  -3  380.76   11.90
  -2   3  -3  356.16   11.50
   2  -3   3  343.47   11.90
   2  -3   3  370.76   12.20
  -3   3  -3   88.49    4.20
  -3   3  -3   96.29    4.30
  -3   3  -3   91.79    4.90
   3  -3   3   86.29    4.60
   3  -3   3   81.19    3.90
   3  -3   3   90.39    4.80
  -4   3  -3   -2.70    1.90
  -4   3  -3    3.60    2.30
  -4   3  -3    1.50    2.60
   4  -3   3   -0.40    2.30
   4  -3   3    1.50    2.40
  -5   3  -3   -3.10    3.40
  -5   3  -3    1.00    2.90
   5  -3   3    2.40    3.60
  -5  -2   3   43.80    4.20
   4   2  -3   -1.00    1.90
   4   2  -3   -2.20    2.10
  -4  -2   3    0.70    1.80
  -4  -2   3    0.90    1.60
  -4  -2   3   -1.60    2.30
   3   2  -3    6.80    1.50
   3   2  -3    8.90    1.60
   3   2  -3    9.70    2.00
  -3  -2   3    7.70    1.40
  -3  -2   3    7.40    1.30
  -3  -2   3    9.30    1.30
  -3  -2   3    8.50    1.90
   2   2  -3   12.50    2.60
   2   2  -3   21.40    1.70
   2   2  -3   19.90    1.60
   2   2  -3   19.10    1.50
  -2  -2   3   22.30    1.70
  -2  -2   3   21.90    1.10
  -2  -2   3   20.10    1.10
  -2  -2   3   20.40    1.20
   1   2  -3  344.07   10.90
   1   2  -3  347.17   10.70
   1   2  -3  361.36   11.00
   1   2  -3  358.66   11.30
   1   2  -3  351.46   10.60
  -1  -2   3  366.56   11.00
  -1  -2   3  341.67   11.00
  -1  -2   3  329.17   11.10
  -1  -2   3  367.16   11.00
  -1  -2   3  332.87   11.30
  -1  -2   3  351.86   11.30
   0   2  -3   18.60    0.90
   0   2  -3   19.60    1.20
   0   2  -3   19.40    1.00
   0   2  -3   20.40    0.90
   0   2  -3   20.10    1.30
   0   2  -3   20.60    0.70
   0   2  -3   21.40    1.00
   0  -2   3   22.30    1.00
   0  -2   3   21.00    0.80
   0  -2   3   19.30    1.00
   0  -2   3   18.70    1.30
   0  -2   3   19.60    1.00
   0  -2   3   20.00    1.00
   0  -2   3   21.30    0.90
   0  -2   3   20.90    1.30
   0  -2   3   20.10    0.90
  -1   2  -3  247.48    7.60
  -1   2  -3  235.28    8.10
  -1   2  -3  255.07    7.80
  -1   2  -3  240.78    8.10
  -1   2  -3  260.07    8.10
  -1   2  -3  237.48    7.90
   1  -2   3  248.98    8.20
   1  -2   3  238.38    8.00
   1  -2   3  250.77    8.00
   1  -2   3  245.48    7.80
   1  -2   3  244.08    8.10
  -2   2  -3  403.16   12.90
   2  -2   3  406.16   12.80
  -3   2  -3   57.69    3.20
  -3   2  -3   49.90    3.30
  -3   2  -3   58.29    3.70
   3  -2   3   55.49    3.50
   3  -2   3   51.69    2.50
  -4   2  -3    4.70    2.30
  -4   2  -3    4.50    2.00
  -4   2  -3    3.90    2.20
   4  -2   3    7.80    2.40
  -5   2  -3   19.00    3.90
  -5   2  -3   11.50    3.00
   5  -2   3    9.40    3.50
   5  -2   3   12.90    4.30
   5   1  -3   18.80    3.90
   4   1  -3    5.10    2.20
   4   1  -3    4.50    2.20
  -4  -1   3    4.00    1.80
  -4  -1   3   -1.60    2.30
  -4  -1   3    5.40    1.80
   3   1  -3   51.89    3.10
   3   1  -3   58.39    3.50
  -3  -1   3   50.89    3.00
  -3  -1   3   52.09    3.50
   2   1  -3   11.80    1.40
   2   1  -3   13.50    1.40
  -2  -1   3   12.80    1.10
  -2  -1   3   13.10    1.30
   1   1  -3   42.50    1.70
   1   1  -3   42.20    1.70
   1   1  -3   42.60    2.00
   1   1  -3   43.50    1.60
   1   1  -3   44.50    2.10
   1   1  -3   42.60    1.70
   1   1  -3   42.50    1.80
   1   1  -3   43.80    1.60
  -1  -1   3   42.70    1.90
  -1  -1   3   41.80    1.60
  -1  -1   3   43.30    1.60
  -1  -1   3   44.00    1.80
  -1  -1   3   44.00    1.70
  -1  -1   3   39.70    1.90
  -1  -1   3   43.00    1.70
  -1  -1   3   43.00    1.80
  -1  -1   3   43.80    2.00
   0   1  -3    2.70    0.30
   0   1  -3    2.90    0.40
   0   1  -3    3.00    0.30
   0   1  -3    3.10    0.50
   0   1  -3    3.20    0.40
   0   1  -3    2.60    0.30
   0  -1   3    3.30    0.50
   0  -1   3    3.50    0.40
   0  -1   3    2.80    0.30
   0  -1   3    2.60    0.30
   0  -1   3    2.40    0.30
   0  -1   3    2.40    0.50
  -1   1  -3  178.38    5.90
  -1   1  -3  177.38    5.80
  -1   1  -3  172.68    5.90
  -1   1  -3  180.08    5.90
  -1   1  -3  176.18    5.80
   1  -1   3  182.78    6.00
   1  -1   3  183.28    6.00
   1  -1   3  169.08    6.00
   1  -1   3  181.98    5.80
   1  -1   3  170.78    5.90
  -2   1  -3   13.10    1.40
   2  -1   3   10.00    1.20
   2  -1   3   11.40    1.30
   2  -1   3   12.50    1.30
  -3   1  -3   48.10    3.20
  -3   1  -3   47.30    3.20
   3  -1   3   51.09    2.90
   3  -1   3   47.60    3.40
   3  -1   3   48.80    3.30
  -4   1  -3    1.50    1.60
  -4   1  -3    2.30    2.10
  -4   1  -3   -1.10    2.00
   4  -1   3    1.10    2.20
  -5   1  -3    3.50    3.50
   5  -1   3    3.00    3.40
   5  -1   3    0.70    3.40
   5   0  -3    8.30    5.30
   5   0  -3   12.30    3.40
  -5   0   3    7.30    3.10
  -5   0   3    9.00    3.00
   4   0  -3    1.80    2.00
   4   0  -3    1.70    2.20
   4   0  -3    1.10    2.20
  -4   0   3    2.40    1.80
  -4   0   3   -0.40    1.90
  -4   0   3   -0.10    2.20
   3   0  -3  869.61   27.40
  -3   0   3  854.31   27.20
  -3   0   3  841.92   27.50
   2   0  -3  161.08    6.50
   2   0  -3  170.08    5.20
  -2   0   3  163.28    5.80
   1   0  -3  793.02   23.90
   1   0  -3  767.12   24.00
   1   0  -3  794.02   23.80
   1   0  -3  798.32   24.10
   1   0  -3  813.92   24.10
   1   0  -3  787.42   24.10
   1   0  -3  766.82   23.90
  -1   0   3  798.82   24.00
  -1   0   3  779.12   23.90
  -1   0   3  780.82   23.80
  -1   0   3  779.02   24.00
  -1   0   3  800.12   24.00
  -1   0   3  771.52   24.00
   0   0  -3   22.30    0.90
   0   0  -3   21.80    0.90
   0   0  -3   22.10    0.80
   0   0  -3   22.40    0.80
   0   0  -3   23.50    0.90
   0   0   3   23.40    0.90
   0   0   3   21.90    0.80
   0   0   3   24.00    1.20
   0   0   3   22.30    0.90
   0   0   3   23.10    0.90
   0   0   3   21.40    0.80
   0   0   3   22.00    0.90
  -1   0  -3 3124.89   95.89
  -1   0  -3 3301.97   95.89
  -1   0  -3 3182.38   95.99
  -1   0  -3 3171.58   95.89
   1   0   3 3212.68   95.59
   1   0   3 3166.28   95.99
   1   0   3 3088.29   95.89
   1   0   3 3230.48   95.79
   1   0   3 3336.07   95.99
  -2   0  -3  194.08    6.60
  -2   0  -3  204.88    6.50
  -2   0  -3  189.18    6.90
   2   0   3  189.78    6.50
   2   0   3  210.38    6.70
  -3   0  -3   36.80    2.60
  -3   0  -3   34.20    2.80
  -3   0  -3   30.30    2.10
   3   0   3   32.90    2.20
   3   0   3   33.60    1.80
   3   0   3   33.40    3.00
   3   0   3   33.90    2.80
  -4   0  -3    8.70    2.60
  -4   0  -3   11.30    2.40
  -4   0  -3    9.10    2.00
   4   0   3    7.60    2.40
   4   0   3   16.40    2.50
   5   0   3    3.30    3.70
   5  -1  -3   -0.70    3.40
   5  -1  -3    2.80    4.30
   5  -1  -3    3.90    3.50
  -5   1   3    0.90    3.40
  -5   1   3    1.40    2.90
  -5   1   3   -0.90    3.90
   4  -1  -3   45.60    4.10
   4  -1  -3   51.69    4.40
   4  -1  -3   42.30    4.10
  -4   1   3   52.19    3.70
  -4   1   3   52.39    4.40
  -4   1   3   56.79    4.70
   3  -1  -3   74.49    3.20
   3  -1  -3   74.89    4.30
   3  -1  -3   72.29    2.90
  -3   1   3   76.49    4.20
  -3   1   3   75.69    3.70
  -3   1   3   70.89    3.90
   2  -1  -3    3.10    0.90
  -2   1   3    1.70    1.00
  -2   1   3    2.90    0.50
   1  -1  -3   12.00    1.00
   1  -1  -3   11.80    0.90
   1  -1  -3   13.00    1.10
   1  -1  -3   11.30    1.00
   1  -1  -3   10.80    1.00
   1  -1  -3   10.50    1.00
  -1   1   3   11.10    1.00
  -1   1   3   11.60    0.80
  -1   1   3   10.70    0.90
  -1   1   3   10.70    0.90
  -1   1   3   10.60    0.90
  -1   1   3   11.30    1.10
  -1   1   3   10.70    1.00
  -1   1   3   11.20    1.20
   0  -1  -3  816.62   24.80
   0  -1  -3  842.52   24.80
   0  -1  -3  821.42   24.90
   0  -1  -3  836.52   24.80
   0  -1  -3  830.82   24.80
   0  -1  -3  833.42   25.20
   0  -1  -3  823.62   24.80
   0   1   3  825.32   24.80
   0   1   3  808.72   24.80
   0   1   3  809.82   24.80
   0   1   3  795.82   24.80
   0   1   3  814.22   24.80
   0   1   3  808.02   24.80
   0   1   3  847.22   25.20
  -1  -1  -3 1764.12   53.39
  -1  -1  -3 1754.52   52.99
  -1  -1  -3 1721.43   53.39
  -1  -1  -3 1737.33   53.19
   1   1   3 1809.92   52.99
   1   1   3 1625.14   53.19
   1   1   3 1891.21   53.29
   1   1   3 1806.62   53.29
  -2  -1  -3  117.39    3.70
  -2  -1  -3  110.19    4.40
  -2  -1  -3  110.59    4.10
   2   1   3  111.39    3.70
   2   1   3  114.19    4.20
   2   1   3  113.19    4.20
  -3  -1  -3   82.09    3.40
  -3  -1  -3   81.19    4.50
  -3  -1  -3   81.49    4.40
  -3  -1  -3   86.49    3.90
   3   1   3   86.79    3.50
   3   1   3   91.29    4.50
   3   1   3   81.09    4.40
   3   1   3   82.49    3.40
   3   1   3   89.79    3.50
  -4  -1  -3    1.50    2.30
  -4  -1  -3    1.60    1.70
   4   1   3    5.70    2.50
   4   1   3    3.80    2.20
   5   1   3    5.00    3.70
   5  -2  -3   30.50    3.90
   5  -2  -3   31.50    4.50
   5  -2  -3   34.00    4.60
  -5   2   3   30.00    5.10
  -5   2   3   24.80    4.70
   4  -2  -3  176.78    7.60
   4  -2  -3  177.88    8.50
   4  -2  -3  189.58    8.20
  -4   2   3  179.98    8.10
  -4   2   3  184.28    8.20
   3  -2  -3   28.30    3.20
   3  -2  -3   32.20    3.00
   3  -2  -3   31.90    2.20
  -3   2   3   24.50    2.70
  -3   2   3   26.90    2.60
   2  -2  -3   73.69    3.70
   2  -2  -3   83.89    3.40
  -2   2   3   79.29    3.10
  -2   2   3   75.39    3.20
   1  -2  -3  187.48    5.90
   1  -2  -3  190.38    6.30
   1  -2  -3  177.98    6.50
   1  -2  -3  171.98    6.20
   1  -2  -3  177.48    6.00
  -1   2   3  192.08    6.30
  -1   2   3  181.88    6.00
  -1   2   3  183.08    5.70
   0  -2  -3  297.87    9.10
   0  -2  -3  294.47    9.60
   0  -2  -3  293.37    9.10
   0  -2  -3  290.87    9.00
   0  -2  -3  285.57    9.10
   0  -2  -3  280.97    9.20
   0  -2  -3  282.17    9.50
   0   2   3  292.67    9.90
   0   2   3  284.27    9.00
   0   2   3  292.17    9.10
   0   2   3  286.87    9.20
   0   2   3  302.57    9.50
   0   2   3  282.47    9.10
   0   2   3  294.37    9.10
   0   2   3  286.17    9.10
  -1  -2  -3    2.30    0.50
  -1  -2  -3    2.60    0.90
  -1  -2  -3    2.90    0.70
   1   2   3    1.20    0.80
   1   2   3    3.00    0.50
  -2  -2  -3  216.08    7.80
  -2  -2  -3  219.48    7.70
  -2  -2  -3  217.58    8.50
   2   2   3  234.28    8.40
   2   2   3  232.08    8.20
   2   2   3  242.78    7.90
   2   2   3  237.68    8.00
   2   2   3  233.48    7.60
  -3  -2  -3    0.50    1.00
  -3  -2  -3    0.20    1.40
  -3  -2  -3   -0.80    1.20
  -3  -2  -3    1.90    1.70
   3   2   3    1.80    1.70
   3   2   3    1.10    1.70
   3   2   3    1.60    1.60
  -4  -2  -3   -0.40    2.20
  -4  -2  -3    1.40    1.50
   4   2   3    1.10    2.60
  -5  -2  -3    9.00    2.30
   5   2   3   14.10    4.20
   5  -3  -3  218.78   10.80
  -5   3   3  221.58   10.60
  -5   3   3  221.58    9.80
  -5   3   3  202.58    9.60
   4  -3  -3  127.29    6.90
   4  -3  -3  119.89    7.00
   4  -3  -3  125.89    5.80
  -4   3   3  122.99    6.40
  -4   3   3  123.39    6.80
   3  -3  -3   66.79    4.10
   3  -3  -3   56.69    4.00
  -3   3   3   55.69    3.60
  -3   3   3   54.09    3.90
  -3   3   3   63.89    2.80
   2  -3  -3  311.07   11.50
   2  -3  -3  279.97   10.00
   2  -3  -3  291.37    9.40
  -2   3   3  284.97    9.60
  -2   3   3  279.87    9.90
  -2   3   3  276.97    9.20
   1  -3  -3  298.57    9.60
  -1   3   3  287.47    9.20
   0  -3  -3   78.79    2.80
   0  -3  -3   75.99    3.10
   0   3   3   80.49    3.00
   0   3   3   79.79    2.60
   0   3   3   76.39    2.90
  -1  -3  -3    1.50    0.50
  -1  -3  -3    1.50    0.50
  -1  -3  -3    0.50    0.70
   1   3   3    1.50    0.50
  -2  -3  -3   58.79    2.90
  -2  -3  -3   61.29    3.30
  -2  -3  -3   64.69    2.80
   2   3   3   59.19    2.50
   2   3   3   62.29    3.20
  -3  -3  -3    6.00    1.90
   3   3   3   14.20    2.60
   3   3   3    7.90    1.90
  -4  -3  -3    2.60    2.70
  -4  -3  -3    1.50    1.20
   4   3   3    4.30    2.70
  -5  -3  -3    6.60    2.00
   5   3   3    4.10    4.10
   5  -4  -3   40.20    6.80
   4  -4  -3   83.29    5.90
   4  -4  -3   80.49    4.80
   4  -4  -3   86.99    6.20
   4  -4  -3   86.89    5.40
  -4   4   3   90.19    6.20
  -4   4   3   91.09    6.80
  -4   4   3   88.69    5.60
   3  -4  -3  358.86   13.00
   3  -4  -3  377.56   13.50
  -3   4   3  383.66   13.30
  -3   4   3  388.76   12.60
  -3   4   3  381.26   13.70
  -3   4   3  368.96   12.30
   2  -4  -3    1.00    0.80
   2  -4  -3    0.90    1.20
  -2   4   3    2.10    1.50
  -2   4   3    1.10    1.30
  -2   4   3    0.50    0.60
   1  -4  -3   -0.30    0.90
  -1   4   3    0.30    0.60
   0  -4  -3  119.49    4.00
   0  -4  -3   96.49    4.60
   0   4   3  114.69    4.20
   0   4   3  116.79    3.80
   0   4   3  118.09    4.10
  -1  -4  -3  199.58    6.90
  -1  -4  -3  208.78    7.00
  -1  -4  -3  205.78    6.80
  -1  -4  -3  210.48    6.70
   1   4   3  210.58    6.80
   1   4   3  212.48    7.90
  -2  -4  -3    3.20    1.00
  -2  -4  -3    5.10    1.40
   2   4   3    5.10    0.80
   2   4   3    4.70    1.80
   2   4   3    1.80    1.40
  -3  -4  -3   86.59    4.30
  -3  -4  -3   74.39    5.50
  -3  -4  -3   89.79    3.30
   3   4   3   81.39    4.80
   3   4   3   90.29    5.00
  -4  -4  -3   -0.10    1.10
  -4  -4  -3   -0.20    2.20
  -4  -4  -3   -0.30    3.70
   4   4   3   -0.60    2.90
   5  -5  -3   -1.90    5.40
  -5   5   3    3.70    4.10
   4  -5  -3   12.00    3.10
   4  -5  -3   14.60    3.40
   4  -5  -3   17.10    3.40
  -4   5   3    3.10    2.70
  -4   5   3    5.60    3.40
  -4   5   3    9.30    2.90
   3  -5  -3  134.09    6.70
   3  -5  -3  137.39    5.10
   3  -5  -3  131.19    6.70
  -3   5   3  139.59    6.00
  -3   5   3  132.99    4.90
  -3   5   3  135.89    6.50
  -3   5   3  145.49    7.00
  -3   5   3  135.39    6.00
   2  -5  -3   98.09    4.90
   2  -5  -3  101.99    3.70
   2  -5  -3   99.69    5.00
  -2   5   3  106.09    4.90
  -2   5   3   95.39    5.10
  -2   5   3  101.69    5.00
   1  -5  -3   46.20    2.80
   1  -5  -3   43.70    2.70
   1  -5  -3   43.90    2.30
  -1   5   3   48.80    1.90
  -1   5   3   47.40    2.90
  -1   5   3   48.00    2.10
  -1   5   3   48.20    3.30
   0  -5  -3    8.60    1.00
   0  -5  -3   11.50    1.80
   0   5   3    9.60    1.40
   0   5   3   11.30    1.40
   0   5   3   10.80    2.00
   0   5   3    8.50    1.10
   0   5   3   13.10    1.10
  -1  -5  -3   92.49    3.80
  -1  -5  -3   83.89    3.50
   1   5   3   88.09    3.40
   1   5   3   84.09    4.60
   1   5   3   80.89    3.90
  -2  -5  -3    0.40    1.10
  -2  -5  -3    0.00    1.40
  -2  -5  -3    1.30    0.70
   2   5   3    0.10    1.50
   2   5   3    1.20    1.90
   2   5   3    1.00    0.90
  -3  -5  -3   -0.20    1.50
   3   5   3    5.60    2.20
   3   5   3    1.90    2.50
  -4  -5  -3    9.30    3.40
   4   5   3   13.40    3.40
   4  -6  -3  236.18   10.90
   4  -6  -3  255.07   11.60
  -4   6   3  287.17   12.30
   3  -6  -3    9.60    2.60
  -3   6   3    6.30    2.40
  -3   6   3    6.20    2.10
  -3   6   3    6.90    2.60
   2  -6  -3    4.10    1.70
   2  -6  -3    7.20    2.00
  -2   6   3    7.50    2.10
  -2   6   3    9.10    2.10
  -2   6   3    7.30    2.00
   1  -6  -3    4.70    1.40
   1  -6  -3    3.90    1.40
   1  -6  -3    2.60    1.30
  -1   6   3    3.50    0.70
  -1   6   3    4.60    1.90
  -1   6   3    3.80    1.70
  -1   6   3    1.20    1.00
   0  -6  -3   -0.20    0.80
   0  -6  -3    0.10    1.00
   0  -6  -3    1.60    1.00
   0  -6  -3   -0.80    0.80
   0   6   3   -1.30    1.10
   0   6   3   -0.80    0.80
   0   6   3    0.80    1.60
   0   6   3    1.30    1.20
  -1  -6  -3    2.30    1.10
  -1  -6  -3   -0.50    0.70
   1   6   3   -2.50    1.60
   1   6   3   -0.40    1.10
   1   6   3    1.60    1.30
  -2  -6  -3   42.70    3.10
  -2  -6  -3   45.70    2.90
   2   6   3   40.40    3.50
   2   6   3   41.30    4.10
  -3  -6  -3    1.50    1.90
  -3  -6  -3    3.10    2.40
   3   6   3    3.40    3.10
   4  -7  -3   10.10    4.40
   3  -7  -3   12.20    3.20
   3  -7  -3   15.00    3.60
  -3   7   3   20.50    4.00
  -3   7   3   19.50    3.80
  -3   7   3   15.90    3.20
   2  -7  -3   44.10    4.30
   2  -7  -3   50.69    4.20
  -2   7   3   45.30    4.30
  -2   7   3   51.39    4.40
  -2   7   3   47.90    4.10
   1  -7  -3    2.90    1.60
  -1   7   3   -0.20    0.80
  -1   7   3    2.10    2.00
  -1   7   3    0.00    1.70
   0  -7  -3   49.00    2.30
   0  -7  -3   43.80    2.80
   0  -7  -3   48.20    3.10
   0   7   3   50.29    4.50
   0   7   3   49.70    2.60
   0   7   3   52.79    3.50
   0   7   3   47.80    3.20
  -1  -7  -3   22.90    1.50
  -1  -7  -3   20.90    2.30
  -1  -7  -3   23.00    2.30
   1   7   3   20.40    3.40
   1   7   3   20.50    2.50
  -2  -7  -3    1.70    1.80
  -2  -7  -3    2.20    1.50
   2   7   3    3.70    3.20
  -3  -7  -3   27.30    4.30
  -3  -7  -3   22.40    2.90
   4  -8  -3   -0.40    4.90
  -4   8   3    1.80    5.50
   3  -8  -3   -0.20    3.50
   3  -8  -3    2.20    3.80
   3  -8  -3    0.10    3.50
  -3   8   3    1.30    3.80
  -3   8   3   -0.20    3.90
  -3   8   3    1.40    3.50
   2  -8  -3    4.30    2.50
   2  -8  -3    5.20    2.70
  -2   8   3    1.40    2.80
  -2   8   3    2.10    3.00
  -2   8   3    0.10    2.70
   1  -8  -3    0.20    1.90
  -1   8   3   -0.20    2.70
  -1   8   3   -4.70    2.50
   0  -8  -3   32.20    2.80
   0   8   3   32.90    4.10
   0   8   3   34.60    3.40
  -1  -8  -3    5.40    1.70
  -1  -8  -3    6.00    1.70
   1   8   3    5.90    2.10
   1   8   3    8.40    3.80
  -2  -8  -3    8.50    2.90
  -2  -8  -3    9.40    2.40
   2   8   3    3.20    3.70
  -3  -8  -3    1.30    3.10
  -3  -8  -3    0.90    3.80
   3   8   3    6.40    4.50
   3   8   3   -1.80    4.60
  -3   9   3   45.80    5.90
  -3   9   3   49.20    6.10
   2  -9  -3   11.00    3.00
  -2   9   3    5.20    4.10
   0  -9  -3    1.10    1.70
   0   9   3   -0.70    2.30
   1   9   3   42.60    9.00
   2   9   3   34.10    5.90
   2   9   3   39.00    4.70
  -3  10   3    1.60    5.30
   2 -10  -3    5.60    4.20
  -2  10   3   -1.90    4.90
   1 -10  -3   -4.00    3.10
  -1 -10  -3   55.49    4.90
   1  10   3   51.69    5.90
   1 -11  -3   34.60    5.20
   0 -11  -3   -3.80    3.70
   2  10  -4   10.60    3.70
  -2 -10   4   19.70    5.20
   1  10  -4    3.40    4.40
  -1 -10   4   -1.50    4.70
  -1 -10   4    9.50    3.50
   1 -10   4    0.70    1.80
  -3  10  -4  158.48   10.70
   3   9  -4   12.50    5.50
  -3  -9   4    6.10    3.90
  -3  -9   4   11.60    2.80
   2   9  -4   -2.10    3.00
   2   9  -4    0.00    4.00
   2   9  -4   -1.50    2.80
  -2  -9   4   -2.20    3.70
  -2  -9   4    1.10    2.70
  -2  -9   4   -3.20    1.90
   1   9  -4    6.40    2.30
  -1  -9   4    3.70    3.40
  -1  -9   4    3.10    1.80
   0   9  -4   16.30    2.30
   0   9  -4   19.70    5.80
   0  -9   4   19.50    3.80
  -1   9  -4   27.60    2.80
  -1   9  -4   29.60    4.10
   1  -9   4   26.90    2.70
  -2   9  -4    1.40    1.60
   2  -9   4   -1.20    2.70
  -3   9  -4    4.10    4.80
  -3   9  -4    1.50    2.40
  -3   9  -4    0.00    4.20
  -4   9  -4   93.29    9.90
  -4   9  -4   62.39    5.50
   4  -9   4   74.99    9.00
  -4  -8   4    7.50    6.10
  -4  -8   4   -0.10    4.40
  -4  -8   4   12.00    3.20
   3   8  -4  147.79    7.40
   3   8  -4  147.59    8.90
  -3  -8   4  144.19    7.70
  -3  -8   4  136.89    7.80
  -3  -8   4  151.68    6.40
   2   8  -4  193.38    8.40
   2   8  -4  179.48    8.30
   2   8  -4  194.28   10.40
   2   8  -4  183.48    9.00
  -2  -8   4  187.28    7.70
  -2  -8   4  189.08    7.10
  -2  -8   4  197.98    7.50
  -2  -8   4  196.18    9.00
  -2  -8   4  180.58    8.00
   1   8  -4  252.47    9.70
   1   8  -4  247.98   11.10
   1   8  -4  243.08    9.50
   1   8  -4  257.97    9.60
  -1  -8   4  265.07    8.90
  -1  -8   4  269.37   11.90
   0   8  -4  116.49    5.00
   0   8  -4  122.49    6.80
   0  -8   4  109.29    6.50
  -1   8  -4   34.60    2.40
   1  -8   4   33.10    2.70
   1  -8   4   33.80    3.90
  -2   8  -4   94.89    6.20
  -2   8  -4   98.59    6.30
  -2   8  -4   93.49    4.30
   2  -8   4   99.89    6.70
   2  -8   4  101.59    5.60
   2  -8   4   99.59    5.60
  -3   8  -4   -4.80    3.60
  -3   8  -4   -0.70    1.70
  -3   8  -4    5.00    3.40
   3  -8   4   -8.70    3.80
   3  -8   4    2.10    3.10
   3  -8   4    5.40    3.80
   4   7  -4    6.50    3.70
  -4  -7   4   16.50    4.30
  -4  -7   4   16.30    4.80
   3   7  -4   31.90    4.10
   3   7  -4   33.70    4.50
  -3  -7   4   30.50    4.10
  -3  -7   4   31.50    3.20
  -3  -7   4   39.30    4.10
   2   7  -4   88.89    5.40
   2   7  -4   96.39    5.20
   2   7  -4   89.89    4.80
   2   7  -4   87.99    5.90
  -2  -7   4   89.89    4.10
  -2  -7   4   91.69    4.40
  -2  -7   4   93.99    5.00
   1   7  -4  159.78    6.60
   1   7  -4  155.98    6.60
   1   7  -4  161.08    6.50
   1   7  -4  164.38    7.70
  -1  -7   4  158.18    7.60
   0   7  -4   17.80    3.00
   0   7  -4   22.80    2.10
   0   7  -4   21.60    2.00
   0  -7   4   16.80    1.30
   0  -7   4   20.70    2.00
   0  -7   4   22.20    1.70
  -1   7  -4    9.90    2.20
  -1   7  -4   10.30    1.30
   1  -7   4   13.00    2.60
   1  -7   4   13.70    1.80
   1  -7   4   12.00    1.70
  -2   7  -4   -3.20    2.10
  -2   7  -4    1.70    1.00
  -2   7  -4    3.60    2.10
   2  -7   4    1.20    1.80
   2  -7   4   -0.40    2.40
   2  -7   4    1.60    1.70
  -3   7  -4   12.30    2.90
  -3   7  -4   15.30    3.50
   3  -7   4   16.00    3.20
  -4   7  -4    9.50    4.00
   4  -7   4    8.50    4.10
   4   6  -4    0.00    3.00
  -4  -6   4   -0.40    3.40
   3   6  -4   52.99    4.70
   3   6  -4   48.20    4.90
   3   6  -4   56.39    4.00
  -3  -6   4   51.29    4.60
  -3  -6   4   50.29    3.40
  -3  -6   4   49.10    3.40
   2   6  -4   10.60    2.00
   2   6  -4   13.50    2.30
   2   6  -4    6.80    2.30
   2   6  -4   12.60    2.00
  -2  -6   4   11.60    1.40
  -2  -6   4   12.10    2.20
   1   6  -4   11.00    1.70
   1   6  -4   10.30    2.20
   1   6  -4   11.20    1.90
   1   6  -4   16.30    1.90
   1   6  -4   12.10    1.20
   0   6  -4   12.30    1.30
   0   6  -4   16.20    1.60
   0   6  -4   14.60    1.60
   0   6  -4   11.90    2.20
   0  -6   4   11.80    1.20
   0  -6   4   12.90    1.80
   0  -6   4   14.00    1.40
  -1   6  -4   13.50    1.40
  -1   6  -4   19.20    2.40
  -1   6  -4   16.80    1.60
   1  -6   4   13.20    2.30
   1  -6   4   16.10    2.00
  -2   6  -4    2.00    1.80
  -2   6  -4   -0.70    1.80
   2  -6   4    3.00    1.80
   2  -6   4    4.20    1.50
  -3   6  -4   76.29    5.70
  -3   6  -4   74.89    4.10
  -3   6  -4   86.29    4.90
   3  -6   4   82.49    5.10
   3  -6   4   87.39    5.50
   3  -6   4   77.79    5.20
   4  -6   4   -1.40    3.60
   5   5  -4   24.70    5.20
  -5  -5   4   17.00    5.40
   4   5  -4    0.80    2.70
  -4  -5   4   -6.70    3.30
  -4  -5   4    3.90    3.20
   3   5  -4    6.30    2.30
   3   5  -4    2.80    2.20
   3   5  -4    4.00    1.90
   3   5  -4    4.30    2.30
  -3  -5   4    1.20    2.20
  -3  -5   4   -0.10    2.40
  -3  -5   4    1.70    1.70
   2   5  -4   17.40    1.90
   2   5  -4   15.60    2.00
   2   5  -4   10.80    2.00
   2   5  -4   20.20    2.50
  -2  -5   4   16.90    1.70
  -2  -5   4   15.10    2.30
   1   5  -4   22.30    1.90
   1   5  -4   21.20    2.50
   1   5  -4   25.30    2.10
  -1  -5   4   27.90    2.10
   0   5  -4   67.99    2.90
   0   5  -4   65.59    2.60
   0   5  -4   71.59    3.00
   0   5  -4   66.99    3.20
   0   5  -4   61.69    3.70
   0  -5   4   67.99    2.30
   0  -5   4   69.59    2.30
   0  -5   4   73.79    3.80
   0  -5   4   64.59    3.00
   0  -5   4   71.09    2.80
  -1   5  -4    9.50    1.70
   1  -5   4    7.70    1.60
   1  -5   4    7.60    1.50
   1  -5   4    9.50    1.30
  -2   5  -4  112.59    5.40
  -2   5  -4  115.09    5.30
   2  -5   4  107.89    5.30
   2  -5   4  114.79    5.10
  -3   5  -4    2.90    2.30
   3  -5   4    1.40    2.10
   3  -5   4    2.30    1.80
   3  -5   4    0.60    2.10
  -4   5  -4    1.20    3.40
  -4   5  -4    5.00    2.40
   4  -5   4    4.40    3.10
   4  -5   4    4.50    2.70
   5  -5   4    6.90    5.30
   5   4  -4    4.60    3.60
  -5  -4   4    2.60    4.20
   4   4  -4   26.50    2.90
  -4  -4   4   25.90    4.00
   3   4  -4    1.90    1.60
   3   4  -4    1.30    2.10
   3   4  -4    1.40    1.80
  -3  -4   4    0.20    1.10
  -3  -4   4    0.10    1.70
  -3  -4   4    3.90    2.20
   2   4  -4  210.08    7.90
   2   4  -4  208.18    7.40
   2   4  -4  204.38    6.50
   2   4  -4  202.68    8.10
  -2  -4   4  217.58    8.00
   0   4  -4   -0.20    0.70
   0   4  -4   -0.30    0.40
   0   4  -4   -0.30    0.60
   0  -4   4    0.40    0.50
   0  -4   4   -0.40    0.40
   0  -4   4    1.00    0.60
   0  -4   4   -0.30    0.70
   0  -4   4   -0.30    0.40
  -1   4  -4  100.29    4.20
  -1   4  -4   97.89    3.10
  -1   4  -4  104.39    3.50
  -1   4  -4   94.49    3.60
   1  -4   4  100.19    4.30
  -2   4  -4    5.50    1.50
  -2   4  -4    7.70    0.80
  -2   4  -4    8.00    1.50
   2  -4   4    6.90    1.50
   2  -4   4    8.90    1.60
  -3   4  -4    1.90    1.80
  -3   4  -4    7.70    1.60
  -3   4  -4    6.90    1.70
   3  -4   4    5.50    2.00
   3  -4   4    3.50    2.10
   3  -4   4    7.60    1.90
  -4   4  -4    5.30    3.00
  -4   4  -4    4.60    2.40
  -4   4  -4    7.90    2.40
   4  -4   4    8.30    2.70
   4  -4   4    9.80    2.80
  -5   4  -4   -1.40    4.00
  -5   4  -4    2.00    3.90
   5   3  -4    1.70    3.40
  -5  -3   4   10.00    4.00
   4   3  -4   91.79    5.00
   4   3  -4  106.09    6.50
  -4  -3   4   95.89    4.00
  -4  -3   4   97.89    4.80
  -4  -3   4   94.09    6.30
  -4  -3   4   91.49    5.90
   3   3  -4    0.10    1.40
   3   3  -4    2.50    1.30
   3   3  -4   -0.20    1.50
  -3  -3   4   -0.80    1.70
  -3  -3   4    0.30    0.70
   2   3  -4   12.00    1.60
   2   3  -4   11.10    1.70
   2   3  -4   16.30    2.00
  -1  -3   4   15.80    1.40
  -1  -3   4   15.30    1.30
   0   3  -4    0.70    0.50
   0   3  -4    0.30    0.50
   0   3  -4   -0.20    0.20
   0   3  -4    1.00    1.10
   0   3  -4    0.20    0.50
   0  -3   4   -0.10    0.30
   0  -3   4   -0.40    0.40
   0  -3   4    0.20    0.30
   0  -3   4    1.00    0.60
   0  -3   4    0.00    0.50
   0  -3   4    0.40    0.50
  -1   3  -4   59.49    2.20
  -1   3  -4   61.59    2.50
  -1   3  -4   62.59    3.40
   1  -3   4   61.99    2.60
   1  -3   4   55.19    2.90
   1  -3   4   60.29    2.30
  -2   3  -4   44.90    2.20
   2  -3   4   45.40    2.70
   2  -3   4   35.90    2.60
  -3   3  -4  128.59    5.30
  -3   3  -4  125.69    5.90
  -3   3  -4  124.59    5.40
   3  -3   4  133.89    5.80
   3  -3   4  115.69    5.00
  -4   3  -4   17.50    2.50
  -4   3  -4   10.90    2.50
  -4   3  -4   12.00    3.20
   4  -3   4   11.50    2.70
   4  -3   4   16.80    2.70
  -5   3  -4   29.50    4.20
   5  -3   4   35.70    4.80
   5   2  -4    7.10    3.20
  -5  -2   4   -2.10    3.50
  -5  -2   4    4.50    2.50
   4   2  -4    9.60    2.50
   4   2  -4   11.60    2.40
  -4  -2   4   14.60    1.90
  -4  -2   4   11.60    3.00
  -4  -2   4   16.00    2.30
   3   2  -4   17.80    2.40
   3   2  -4   19.90    1.90
   3   2  -4   18.60    2.00
  -3  -2   4   21.40    2.00
  -3  -2   4   16.30    2.50
  -3  -2   4   16.60    1.70
  -3  -2   4   19.40    1.90
   2   2  -4   12.40    1.30
   2   2  -4   12.40    1.20
   2   2  -4   10.30    1.60
  -2  -2   4   12.20    1.40
  -2  -2   4   11.00    1.00
  -2  -2   4   11.20    1.00
   1   2  -4   55.09    2.30
   1   2  -4   57.59    2.20
   1   2  -4   55.29    1.90
   1   2  -4   51.99    2.20
   1   2  -4   60.39    2.60
  -1  -2   4   48.00    2.30
  -1  -2   4   54.89    2.20
  -1  -2   4   53.89    2.40
  -1  -2   4   57.59    1.80
  -1  -2   4   58.09    2.40
  -1  -2   4   60.39    1.90
  -1  -2   4   55.49    2.50
  -1  -2   4   52.59    2.50
   0   2  -4  144.89    4.70
   0   2  -4  146.49    4.70
   0   2  -4  146.49    4.80
   0   2  -4  148.99    5.20
   0   2  -4  138.49    5.10
   0   2  -4  149.99    4.70
   0   2  -4  139.89    4.60
   0  -2   4  151.28    4.60
   0  -2   4  148.49    5.10
   0  -2   4  150.08    4.60
   0  -2   4  146.59    4.70
   0  -2   4  138.69    4.70
   0  -2   4  136.99    5.10
   0  -2   4  144.09    4.70
   0  -2   4  142.29    4.80
  -1   2  -4   19.30    1.60
  -1   2  -4   22.30    1.10
  -1   2  -4   19.30    1.30
   1  -2   4   21.80    1.60
   1  -2   4   21.10    1.30
   1  -2   4   21.70    1.20
   1  -2   4   20.10    1.60
   1  -2   4   21.20    1.40
  -2   2  -4   37.00    2.20
   2  -2   4   35.10    2.10
  -3   2  -4   88.49    4.50
  -3   2  -4   87.89    4.30
   3  -2   4   83.69    3.60
  -4   2  -4   -1.30    2.10
  -4   2  -4    2.00    2.20
  -4   2  -4   -0.10    1.70
   4  -2   4    2.80    2.20
  -5   2  -4    3.10    3.60
   5  -2   4   -0.90    3.90
   5  -2   4    2.10    4.10
   5   1  -4   10.50    3.30
  -5  -1   4    4.50    3.60
   4   1  -4   19.50    2.60
   4   1  -4   17.50    2.90
  -4  -1   4   17.30    2.40
  -4  -1   4   17.00    3.00
  -4  -1   4   16.70    2.40
   3   1  -4  103.89    5.00
  -3  -1   4   99.19    4.30
  -3  -1   4   99.19    5.10
   2   1  -4   74.69    3.10
   2   1  -4   74.79    3.00
  -2  -1   4   76.69    3.00
  -2  -1   4   74.99    2.90
   1   1  -4    0.60    0.50
   1   1  -4    1.00    0.50
   1   1  -4    0.30    0.60
   1   1  -4    1.00    0.50
   1   1  -4    0.80    0.40
   1   1  -4    0.70    0.30
   1   1  -4    0.20    0.40
   1   1  -4    0.70    0.50
  -1  -1   4    0.30    0.40
  -1  -1   4    1.20    0.40
  -1  -1   4   -0.30    0.60
  -1  -1   4    0.10    0.50
  -1  -1   4    1.10    0.50
  -1  -1   4    0.80    0.50
  -1  -1   4    1.40    0.30
  -1  -1   4    1.20    0.60
  -1  -1   4    0.80    0.50
   0   1  -4   11.20    0.70
   0   1  -4   14.30    1.00
   0   1  -4   13.00    0.70
   0   1  -4   12.80    0.50
   0   1  -4   12.60    0.70
   0   1  -4   12.60    0.70
   0   1  -4   14.10    0.80
   0  -1   4   12.70    1.00
   0  -1   4   12.10    0.70
   0  -1   4   12.40    0.70
   0  -1   4   13.40    0.60
   0  -1   4   12.40    0.50
   0  -1   4   12.40    0.70
   0  -1   4   12.40    0.70
  -1   1  -4   72.59    2.90
  -1   1  -4   66.79    2.80
  -1   1  -4   73.09    2.90
   1  -1   4   77.99    3.00
   1  -1   4   72.99    2.70
   1  -1   4   70.89    2.80
   1  -1   4   70.99    2.90
  -2   1  -4    8.70    1.20
   2  -1   4   10.60    1.30
   2  -1   4    8.80    1.20
  -3   1  -4   98.99    4.60
  -3   1  -4   89.59    4.60
   3  -1   4  100.89    4.30
   3  -1   4   90.99    3.70
   3  -1   4  101.69    4.60
  -4   1  -4   11.10    2.40
  -4   1  -4    6.20    1.80
  -4   1  -4   10.70    2.60
   4  -1   4   12.20    2.50
  -5   1  -4   72.09    6.20
   5  -1   4   57.19    5.30
   5  -1   4   56.69    6.30
   5   0  -4   -0.10    3.20
   5   0  -4   -0.70    5.20
  -5   0   4   -0.70    3.40
  -5   0   4   -0.10    2.90
  -5   0   4    2.80    2.90
   4   0  -4   73.09    4.90
   4   0  -4   68.89    6.30
   4   0  -4   75.19    4.50
  -4   0   4   72.59    4.70
  -4   0   4   70.99    4.30
  -4   0   4   71.39    5.10
   3   0  -4    1.60    1.40
   3   0  -4    0.90    1.40
  -3   0   4    2.20    2.10
   2   0  -4   86.89    3.10
  -2   0   4   83.49    3.40
  -2   0   4   86.99    3.00
   1   0  -4    6.20    0.70
   1   0  -4    5.90    0.80
   1   0  -4    5.00    0.70
   1   0  -4    6.50    0.80
   1   0  -4    5.30    0.70
   1   0  -4    6.10    0.70
   1   0  -4    4.70    0.60
  -1   0   4    5.90    0.70
  -1   0   4    3.70    0.60
  -1   0   4    6.50    0.80
  -1   0   4    4.20    0.80
  -1   0   4    5.30    0.80
  -1   0   4    4.50    0.60
  -1   0   4    5.10    0.70
  -1   0   4    4.30    0.60
   0   0  -4   45.40    1.80
   0   0  -4   50.49    1.70
   0   0  -4   51.79    1.90
   0   0  -4   48.70    1.80
   0   0  -4   48.00    1.70
   0   0  -4   48.00    1.80
   0   0   4   49.50    1.80
   0   0   4   50.09    1.90
   0   0   4   49.99    1.70
   0   0   4   50.09    1.70
   0   0   4   51.09    2.10
   0   0   4   50.49    1.80
   0   0   4   51.89    1.80
  -1   0  -4   27.30    1.40
  -1   0  -4   27.20    1.50
   1   0   4   26.30    1.40
   1   0   4   25.80    1.50
   1   0   4   30.10    1.60
   1   0   4   28.10    1.20
   1   0   4   27.30    1.40
  -2   0  -4   90.89    4.00
  -2   0  -4   89.89    3.70
   2   0   4   95.79    3.40
   2   0   4  102.99    3.80
  -3   0  -4   57.69    3.00
  -3   0  -4   56.89    3.30
  -3   0  -4   58.99    3.60
   3   0   4   53.89    3.10
   3   0   4   63.49    2.70
   3   0   4   60.99    3.90
   3   0   4   60.79    3.40
  -4   0  -4   24.30    2.80
  -4   0  -4   21.60    3.10
   4   0   4   19.30    2.80
   4   0   4   19.30    3.00
   5   0   4   -1.50    3.80
   5  -1  -4   -1.20    3.90
   5  -1  -4   -3.90    3.30
  -5   1   4   -1.60    5.00
  -5   1   4    2.30    3.10
  -5   1   4    7.60    3.70
   4  -1  -4    4.70    2.20
   4  -1  -4    1.50    2.10
   4  -1  -4    1.60    2.30
  -4   1   4    8.90    2.30
  -4   1   4    4.90    2.00
  -4   1   4    2.80    2.40
   3  -1  -4    1.30    0.90
   3  -1  -4    1.20    1.50
   3  -1  -4    3.30    1.60
   3  -1  -4    1.30    1.20
   3  -1  -4    2.60    1.60
  -3   1   4    3.50    1.40
  -3   1   4    2.10    1.30
   2  -1  -4  387.96   12.40
  -2   1   4  396.66   12.00
  -2   1   4  378.26   12.50
   1  -1  -4  365.26   11.20
   1  -1  -4  339.47   11.50
   1  -1  -4  343.37   11.50
   1  -1  -4  397.06   11.40
   1  -1  -4  379.56   11.50
   1  -1  -4  357.16   11.70
  -1   1   4  373.16   11.30
  -1   1   4  348.77   11.50
  -1   1   4  382.16   11.60
  -1   1   4  371.26   11.40
  -1   1   4  352.66   11.50
  -1   1   4  363.56   11.50
   0  -1  -4  190.48    5.90
   0  -1  -4  191.58    6.00
   0  -1  -4  187.88    6.00
   0  -1  -4  184.28    5.90
   0  -1  -4  188.18    6.00
   0  -1  -4  171.18    6.30
   0  -1  -4  196.18    5.70
   0   1   4  186.78    6.00
   0   1   4  189.48    6.00
   0   1   4  182.18    6.00
   0   1   4  186.88    5.90
   0   1   4  188.48    6.00
  -1  -1  -4  158.18    5.40
  -1  -1  -4  155.78    5.70
  -1  -1  -4  168.08    5.50
   1   1   4  165.08    5.30
   1   1   4  163.28    5.70
  -2  -1  -4 1804.02   56.09
  -2  -1  -4 1761.92   55.99
   2   1   4 1793.52   57.09
   2   1   4 1942.01   56.09
   2   1   4 1814.02   55.29
   2   1   4 1990.20   56.19
  -3  -1  -4   33.80    2.50
  -3  -1  -4   34.30    2.40
  -3  -1  -4   32.80    2.80
  -3  -1  -4   30.30    3.10
   3   1   4   37.70    2.50
   3   1   4   36.20    2.50
   3   1   4   33.00    1.90
   3   1   4   34.20    2.80
  -4  -1  -4  104.99    6.00
  -4  -1  -4   99.09    4.90
   4   1   4  100.29    6.00
   4   1   4   95.69    5.20
   5   1   4    2.60    4.10
   5  -2  -4   27.10    4.00
   5  -2  -4   29.60    5.10
   5  -2  -4   21.10    3.70
  -5   2   4   22.10    3.80
  -5   2   4   26.90    4.60
  -5   2   4   22.70    4.00
   4  -2  -4   20.70    3.00
   4  -2  -4   12.80    2.50
   4  -2  -4   11.10    3.20
  -4   2   4   18.40    3.10
  -4   2   4   14.20    2.90
  -4   2   4   14.90    2.70
   3  -2  -4    4.90    1.60
  -3   2   4    3.70    1.60
  -3   2   4    5.90    1.70
   2  -2  -4   22.90    3.20
   2  -2  -4   25.00    2.30
   2  -2  -4   20.50    2.10
  -2   2   4   23.00    1.60
  -2   2   4   25.00    1.60
   1  -2  -4   15.70    1.30
   1  -2  -4   18.00    1.70
   1  -2  -4   16.50    1.10
  -1   2   4   17.10    1.40
  -1   2   4   15.60    1.10
  -1   2   4   15.60    0.80
  -1   2   4   16.40    1.20
   0  -2  -4   66.79    2.60
   0  -2  -4   63.29    3.10
   0  -2  -4   68.79    2.50
   0  -2  -4   61.09    2.50
   0  -2  -4   65.89    2.40
   0   2   4   68.59    2.50
   0   2   4   63.69    2.50
   0   2   4   67.39    2.90
   0   2   4   61.29    2.50
   0   2   4   66.59    2.50
  -1  -2  -4  457.25   14.00
  -1  -2  -4  437.86   14.60
  -1  -2  -4  464.45   14.30
   1   2   4  457.35   14.00
  -2  -2  -4  335.97   11.10
  -2  -2  -4  320.97   10.50
  -2  -2  -4  300.37   10.70
   2   2   4  330.37   11.10
   2   2   4  338.47   10.80
   2   2   4  307.47   11.30
  -3  -2  -4    0.40    1.60
  -3  -2  -4   -0.60    0.90
  -3  -2  -4    2.60    1.80
  -3  -2  -4   -0.30    1.60
   3   2   4   -0.60    1.60
   3   2   4   -1.70    1.60
  -4  -2  -4    3.20    2.90
  -4  -2  -4    0.50    1.50
   4   2   4   -0.90    2.40
  -5  -2  -4   64.39    4.50
   5  -3  -4   87.49    7.70
  -5   3   4   85.19    6.60
  -5   3   4   80.29    7.60
  -5   3   4   86.49    6.30
   4  -3  -4   -1.30    1.90
   4  -3  -4    0.30    2.70
  -4   3   4    2.30    2.70
  -4   3   4   -0.10    2.40
   3  -3  -4  295.47   11.10
   3  -3  -4  297.27   11.30
  -3   3   4  310.87   10.00
  -3   3   4  309.87   10.90
  -3   3   4  295.47   11.20
  -3   3   4  305.37   10.30
   2  -3  -4  113.39    5.60
   2  -3  -4  110.19    4.80
  -2   3   4  112.69    4.40
  -2   3   4  106.79    4.70
  -2   3   4  103.89    3.90
   1  -3  -4    3.90    1.10
  -1   3   4    7.00    0.80
   0  -3  -4  134.49    4.80
   0  -3  -4  137.49    4.60
   0   3   4  142.99    4.80
   0   3   4  132.99    4.70
  -1  -3  -4    0.80    0.80
  -1  -3  -4    0.90    0.60
  -1  -3  -4    1.00    0.50
   1   3   4    1.10    0.50
  -2  -3  -4    0.80    0.90
  -2  -3  -4    0.70    1.00
   2   3   4    0.60    1.20
   2   3   4    1.00    0.70
  -3  -3  -4   -0.20    0.90
  -3  -3  -4   -0.90    1.70
   3   3   4    0.50    1.40
   3   3   4    0.50    1.60
   3   3   4   -0.50    1.80
  -4  -3  -4   26.20    2.50
  -4  -3  -4   26.60    3.80
  -5  -3  -4    5.20    2.10
   5   3   4   -3.60    4.20
   4  -4  -4  210.58    8.50
   4  -4  -4  209.88    8.20
   4  -4  -4  201.38    9.50
  -4   4   4  210.78    9.10
   3  -4  -4   58.09    4.20
   3  -4  -4   59.59    4.10
  -3   4   4   57.39    3.90
  -3   4   4   49.80    4.20
  -3   4   4   52.79    2.90
   2  -4  -4   74.19    3.90
   2  -4  -4   76.89    3.20
   2  -4  -4   65.59    3.80
  -2   4   4   78.59    4.10
  -2   4   4   71.49    2.50
  -2   4   4   66.19    3.60
   1  -4  -4  214.58    7.50
   1  -4  -4  207.28    7.40
  -1   4   4  203.88    6.80
   0  -4  -4  514.55   15.70
   0   4   4  491.65   16.70
   0   4   4  522.45   15.90
   0   4   4  488.35   15.80
  -1  -4  -4    7.60    1.00
  -1  -4  -4    8.20    1.00
  -1  -4  -4    8.30    0.90
  -1  -4  -4    6.10    0.90
   1   4   4    5.60    1.20
   1   4   4    8.10    0.90
   1   4   4   10.40    1.80
  -2  -4  -4   60.49    3.40
  -2  -4  -4   57.49    3.00
  -2  -4  -4   58.49    2.70
  -2  -4  -4   57.99    2.40
   2   4   4   60.99    3.90
   2   4   4   57.29    2.60
   2   4   4   56.89    3.30
  -3  -4  -4    1.60    0.90
   3   4   4   -2.00    1.90
   3   4   4    1.00    2.10
  -4  -4  -4   20.60    2.10
   4   4   4   29.30    3.70
   5  -5  -4    0.70    4.70
  -5   5   4    5.30    4.60
   4  -5  -4   19.70    3.50
   4  -5  -4   19.80    3.70
   4  -5  -4   23.20    3.80
  -4   5   4   16.90    3.40
  -4   5   4   19.40    3.80
   3  -5  -4   11.80    2.50
   3  -5  -4   10.10    1.70
   3  -5  -4    8.60    2.30
  -3   5   4   10.40    2.50
  -3   5   4    7.90    2.10
  -3   5   4   11.70    2.10
   2  -5  -4   95.09    4.60
   2  -5  -4   87.39    3.50
  -2   5   4   87.89    4.80
  -2   5   4   88.89    4.60
  -2   5   4   86.99    4.70
   1  -5  -4    6.50    1.50
  -1   5   4    7.50    1.70
  -1   5   4   10.70    1.80
  -1   5   4    5.70    1.00
  -1   5   4    7.80    0.70
   0  -5  -4  554.84   17.30
   0   5   4  556.24   17.90
   0   5   4  536.25   18.60
   0   5   4  579.24   17.00
  -1  -5  -4   63.49    3.10
  -1  -5  -4   65.79    2.70
  -1  -5  -4   65.49    4.40
   1   5   4   68.49    2.90
   1   5   4   75.19    4.40
   1   5   4   65.99    3.60
  -2  -5  -4  135.49    4.60
  -2  -5  -4  132.19    4.70
  -2  -5  -4  138.59    5.70
  -2  -5  -4  132.99    5.30
   2   5   4  127.19    5.90
   2   5   4  130.09    6.40
   2   5   4  135.09    4.80
  -3  -5  -4    6.10    0.90
   3   5   4    1.30    2.10
   3   5   4    3.70    2.70
  -4  -5  -4    8.30    4.40
   4   5   4    7.90    3.60
   4  -6  -4   41.50    5.80
   4  -6  -4   39.90    4.70
  -4   6   4   62.79    7.00
   3  -6  -4   -2.00    3.50
   3  -6  -4    3.80    2.50
  -3   6   4   -0.70    2.50
  -3   6   4    0.90    2.20
  -3   6   4   -2.10    2.70
   2  -6  -4    7.00    1.20
   2  -6  -4    7.30    2.10
   2  -6  -4    4.90    1.80
  -2   6   4    6.20    1.90
  -2   6   4   11.30    2.20
  -2   6   4    6.70    2.20
   1  -6  -4   24.30    2.50
  -1   6   4   27.20    2.70
  -1   6   4   25.40    1.30
  -1   6   4   26.40    3.20
  -1   6   4   20.70    2.00
   0  -6  -4   22.90    1.80
   0  -6  -4   29.70    3.30
   0  -6  -4   23.80    2.10
   0  -6  -4   25.60    1.80
   0   6   4   22.90    2.30
   0   6   4   27.00    1.60
   0   6   4   24.60    2.40
   0   6   4   22.60    3.10
  -1  -6  -4   22.90    1.70
  -1  -6  -4   23.60    2.20
  -1  -6  -4   28.90    2.10
  -1  -6  -4   25.50    1.90
   1   6   4   27.70    3.20
   1   6   4   25.30    2.30
   1   6   4   23.60    2.70
  -2  -6  -4   14.70    2.20
   2   6   4   16.00    3.10
   2   6   4   12.00    2.00
  -3  -6  -4    0.90    2.50
   3   6   4    5.50    3.40
   3   6   4    2.70    2.30
   4  -7  -4   35.90    5.10
   3  -7  -4  213.48    9.30
  -3   7   4  192.18    9.00
  -3   7   4  188.08    8.80
  -3   7   4  193.48    9.60
   2  -7  -4   -1.20    2.00
   2  -7  -4   -0.20    2.00
  -2   7   4    0.20    2.30
  -2   7   4   -1.00    2.30
  -2   7   4    4.30    2.50
   1  -7  -4    9.70    2.00
   1  -7  -4    6.30    1.80
  -1   7   4    5.30    2.00
  -1   7   4    2.40    2.20
  -1   7   4    5.50    3.20
  -1   7   4    5.30    1.40
   0  -7  -4   20.20    1.80
   0  -7  -4   19.40    2.20
   0  -7  -4   25.40    2.40
   0   7   4   24.70    2.60
   0   7   4   24.90    3.30
   0   7   4   23.80    2.50
  -1  -7  -4   19.90    1.80
  -1  -7  -4   21.20    2.30
  -1  -7  -4   19.20    2.00
   1   7   4   21.80    3.20
   1   7   4   24.90    2.60
  -2  -7  -4   25.50    2.80
   2   7   4   22.10    2.90
   2   7   4   24.50    3.70
  -3  -7  -4    1.60    2.80
   3   7   4   -1.00    3.80
   4  -8  -4    7.70    5.50
  -4   8   4   -4.00    5.50
   3  -8  -4   32.70    5.80
   3  -8  -4   27.30    4.80
  -3   8   4   27.20    4.90
  -3   8   4   29.10    4.60
   2  -8  -4   18.90    3.20
  -2   8   4   19.30    3.70
  -2   8   4   25.40    3.60
  -2   8   4   17.60    3.60
   1  -8  -4   16.70    2.60
   1  -8  -4   15.50    2.60
  -1   8   4   13.80    3.40
  -1   8   4   13.80    2.90
   0  -8  -4    2.70    1.60
   0  -8  -4    2.50    1.60
   0   8   4    2.50    3.20
   0   8   4    4.50    2.10
  -1  -8  -4   69.29    3.80
   1   8   4   71.09    6.20
  -2  -8  -4    9.00    3.00
  -2  -8  -4   10.20    2.70
   2   8   4    7.50    4.10
  -3  -8  -4    0.10    3.10
   3   8   4   -1.60    4.90
  -3   9   4   25.80    5.70
  -3   9   4   24.10    4.90
   2  -9  -4   32.30    4.60
   2  -9  -4   23.00    4.60
  -2   9   4   29.30    4.70
   0  -9  -4   82.49    4.40
   0   9   4   86.39    6.10
  -1  -9  -4   19.80    2.90
   1   9   4   16.40    3.00
   2   9   4   14.70    4.90
   2 -10  -4   10.80    4.20
  -2  10   4    5.40    5.20
  -1 -10  -4   14.00    3.20
   2  10  -5    6.50    8.00
  -2 -10   5   -1.40    4.80
  -1 -10   5   15.60    4.50
   0  10  -5    5.70    2.80
  -1  10  -5    9.40    2.70
   1 -10   5    5.10    1.80
   2 -10   5   12.20    7.10
  -3  10  -5   29.10    5.80
   3   9  -5    0.60    5.00
   3   9  -5   14.80    3.90
   3   9  -5    5.70    4.50
  -3  -9   5    9.20    3.90
   2   9  -5   11.70    5.90
   2   9  -5   15.30    4.60
   2   9  -5   14.80    3.20
  -2  -9   5   16.30    3.30
  -2  -9   5   16.70    4.20
   1   9  -5   12.50    2.70
   1   9  -5    7.30    2.60
  -1  -9   5   11.20    4.10
  -1  -9   5    8.50    2.00
   0   9  -5    2.20    1.80
   0   9  -5    7.40    4.00
   0  -9   5    0.90    1.80
   0  -9   5    0.50    2.90
  -1   9  -5    4.70    3.20
  -1   9  -5    3.30    1.60
   1  -9   5    4.80    1.60
   1  -9   5    2.20    2.40
  -2   9  -5    5.10    1.60
   2  -9   5    7.90    3.00
  -3   9  -5   18.70    4.40
  -3   9  -5   25.10    5.30
   3  -9   5   20.40    4.20
  -4   9  -5   91.79   10.10
   4   8  -5    3.90    4.30
  -4  -8   5   15.00    6.90
  -4  -8   5    9.90    4.70
  -4  -8   5    6.70    3.20
   3   8  -5    0.90    3.10
   3   8  -5    6.40    4.10
   3   8  -5    2.20    3.40
  -3  -8   5   -4.10    3.30
  -3  -8   5    1.00    2.90
   2   8  -5   45.50    4.60
   2   8  -5   55.39    5.80
   2   8  -5   45.90    4.70
  -2  -8   5   48.10    4.40
  -2  -8   5   54.59    4.30
  -2  -8   5   52.69    3.80
  -2  -8   5   46.50    3.10
  -2  -8   5   46.10    5.10
   1   8  -5    2.70    1.90
   1   8  -5    0.30    1.80
   1   8  -5    0.40    1.90
   1   8  -5   -2.40    2.40
  -1  -8   5    1.90    1.50
  -1  -8   5   -0.30    2.90
   0   8  -5  100.89    4.60
   0   8  -5   93.99    6.10
   0  -8   5  102.69    6.20
   0  -8   5  102.29    4.50
  -1   8  -5    6.00    1.40
  -1   8  -5    9.60    3.40
   1  -8   5   11.20    2.00
   1  -8   5    6.60    1.50
   1  -8   5    2.80    3.60
  -2   8  -5    7.50    3.00
  -2   8  -5    6.10    1.40
  -2   8  -5   10.20    2.80
   2  -8   5    6.30    3.10
   2  -8   5    5.10    2.40
  -3   8  -5   21.40    4.10
  -3   8  -5   27.50    2.60
  -3   8  -5   20.60    4.00
   3  -8   5   30.70    4.60
   3  -8   5   25.30    3.80
  -4   8  -5   -0.30    5.90
   4  -8   5    7.00    7.60
   4   7  -5   -3.00    3.50
  -4  -7   5    0.40    3.90
   3   7  -5   51.79    5.10
   3   7  -5   44.00    4.80
  -3  -7   5   43.80    3.40
  -3  -7   5   46.90    5.00
  -3  -7   5   45.20    5.20
   2   7  -5  109.09    5.90
   2   7  -5  121.39    5.60
   2   7  -5  114.79    6.30
   2   7  -5  117.99    6.60
  -2  -7   5  117.39    5.80
  -2  -7   5  119.49    5.80
  -2  -7   5  120.79    5.20
  -2  -7   5  120.09    4.80
   1   7  -5   70.79    5.20
   1   7  -5   75.19    4.10
   1   7  -5   78.79    4.10
   1   7  -5   76.79    4.30
  -1  -7   5   65.89    6.70
   0   7  -5  637.84   20.20
   0   7  -5  611.54   21.60
   0   7  -5  625.64   20.10
   0   7  -5  652.33   20.10
   0  -7   5  642.94   19.40
  -1   7  -5    1.20    0.90
  -1   7  -5    2.80    2.00
   1  -7   5   -0.10    1.10
   1  -7   5   -0.10    2.00
  -2   7  -5    7.10    2.60
  -2   7  -5   10.10    1.50
  -2   7  -5    9.20    2.50
   2  -7   5    8.10    2.60
   2  -7   5    9.50    2.10
   2  -7   5    8.50    2.20
  -3   7  -5   48.70    4.50
  -3   7  -5   53.79    5.50
   3  -7   5   53.29    4.90
   3  -7   5   47.70    5.20
  -4   7  -5   72.09    6.80
   4  -7   5   78.09    7.30
   4  -7   5   75.59    7.80
   4   6  -5   25.70    3.60
  -4  -6   5   25.90    4.40
   3   6  -5    1.80    2.70
   3   6  -5    1.10    2.00
   3   6  -5    2.60    2.40
  -3  -6   5    5.20    2.60
  -3  -6   5    4.60    1.90
   2   6  -5    9.80    1.80
   2   6  -5    7.00    2.40
   2   6  -5    7.50    2.00
   2   6  -5    8.30    2.20
  -2  -6   5    9.60    1.50
  -2  -6   5   12.90    2.30
   1   6  -5   16.50    2.60
   1   6  -5   14.70    1.70
   1   6  -5   14.60    2.00
   1   6  -5   16.40    1.90
   0   6  -5   22.20    2.10
   0   6  -5   22.60    1.70
   0   6  -5   20.30    2.60
   0  -6   5   19.70    1.60
   0  -6   5   23.40    1.50
  -1   6  -5   69.39    3.10
  -1   6  -5   74.79    4.40
   1  -6   5   64.69    5.10
   1  -6   5   73.09    4.00
  -2   6  -5   91.39    5.20
  -2   6  -5   99.39    5.30
   2  -6   5  102.09    4.90
   2  -6   5  101.99    5.60
  -3   6  -5    0.10    1.90
  -3   6  -5    0.10    2.40
   3  -6   5    0.40    2.50
   3  -6   5    0.20    2.30
   3  -6   5    3.20    2.20
   4  -6   5   20.60    4.10
  -5  -5   5   75.29    8.10
   4   5  -5   34.70    3.50
  -4  -5   5   33.40    4.50
  -4  -5   5   26.90    4.40
   3   5  -5    3.10    2.30
   3   5  -5    4.90    2.30
   3   5  -5    2.70    1.70
   3   5  -5    2.80    2.30
  -3  -5   5    2.70    2.10
  -3  -5   5    7.80    2.60
  -3  -5   5    2.00    1.60
   2   5  -5   27.00    2.90
   2   5  -5   24.60    2.60
   2   5  -5   23.80    2.80
   2   5  -5   23.00    2.20
  -2  -5   5   27.60    1.90
  -2  -5   5   26.80    2.90
   1   5  -5  102.99    4.30
   1   5  -5  106.49    4.40
   1   5  -5  104.69    5.10
   0   5  -5   32.40    2.00
   0   5  -5   30.80    1.60
   0   5  -5   29.70    1.90
   0   5  -5   31.20    2.60
   0  -5   5   30.40    2.10
   0  -5   5   32.40    1.50
   0  -5   5   32.70    2.40
   0  -5   5   32.70    1.40
   0  -5   5   32.20    1.80
  -1   5  -5    0.30    0.60
  -1   5  -5    0.30    0.70
  -1   5  -5    2.90    1.30
   1  -5   5    0.10    0.80
   1  -5   5    0.00    1.40
  -2   5  -5   67.09    4.20
  -2   5  -5   64.79    3.80
   2  -5   5   67.19    3.70
  -3   5  -5   18.30    3.00
   3  -5   5   17.10    3.00
   3  -5   5   19.10    2.70
   3  -5   5   19.90    2.50
  -4   5  -5    7.50    3.20
  -4   5  -5    5.90    2.30
   4  -5   5    7.60    3.20
   4  -5   5   10.90    3.20
   5   4  -5   41.90    7.10
  -5  -4   5   27.60    5.50
   4   4  -5   18.20    2.60
  -4  -4   5   15.80    3.60
   3   4  -5    9.80    1.80
   3   4  -5    7.40    2.20
   3   4  -5   11.00    2.50
   3   4  -5    8.40    2.00
  -3  -4   5   10.70    2.40
  -3  -4   5    9.60    1.40
  -3  -4   5    5.80    1.90
   2   4  -5  156.78    6.40
   2   4  -5  158.68    5.90
   2   4  -5  159.08    5.10
   2   4  -5  161.68    6.80
   2   4  -5  159.78    6.70
  -2  -4   5  155.28    6.50
   0   4  -5  134.99    4.80
   0   4  -5  135.89    4.40
   0   4  -5  141.39    4.90
   0  -4   5  138.49    4.70
   0  -4   5  133.69    4.70
   0  -4   5  135.29    4.40
   0  -4   5  138.29    4.40
   0  -4   5  133.09    4.80
  -1   4  -5    1.50    0.50
  -1   4  -5    0.10    1.00
  -1   4  -5    0.50    0.70
  -1   4  -5    0.30    0.40
   1  -4   5    1.00    0.80
   1  -4   5    0.60    0.60
   1  -4   5    0.20    1.20
  -2   4  -5    0.00    0.70
  -2   4  -5    2.00    0.90
  -2   4  -5    3.90    1.40
   2  -4   5    1.00    1.30
   2  -4   5    2.00    1.20
  -3   4  -5   18.00    2.10
  -3   4  -5   17.30    2.50
   3  -4   5   20.70    2.50
   3  -4   5   19.30    2.50
  -4   4  -5    9.30    3.20
  -4   4  -5    1.90    2.30
   4  -4   5    0.80    2.60
   4  -4   5    5.80    2.80
  -5   4  -5    5.00    3.30
   5   3  -5   -3.20    3.50
  -5  -3   5    3.20    4.10
   4   3  -5   -2.80    2.60
   4   3  -5   -0.40    1.90
  -4  -3   5    1.20    1.30
  -4  -3   5   -1.50    2.00
  -4  -3   5    2.90    2.90
  -4  -3   5    3.90    2.60
   3   3  -5   22.90    2.30
   3   3  -5   24.60    2.10
   3   3  -5   24.10    2.90
  -3  -3   5   23.00    1.50
  -3  -3   5   20.80    2.60
  -3  -3   5   28.80    3.30
   2   3  -5   98.99    4.70
   2   3  -5   94.89    4.40
   1   3  -5  604.24   18.40
   1   3  -5  600.84   18.40
   1   3  -5  631.04   18.90
   0   3  -5    7.00    0.50
   0   3  -5    7.30    0.80
   0   3  -5    8.00    0.80
   0   3  -5    7.40    0.90
   0  -3   5    8.20    0.80
   0  -3   5    8.20    0.90
   0  -3   5    6.30    0.80
   0  -3   5    7.80    0.70
   0  -3   5    7.70    0.60
  -1   3  -5  355.26   11.20
   1  -3   5  352.76   11.70
   1  -3   5  368.96   11.30
   1  -3   5  348.37   11.10
  -2   3  -5   83.29    3.50
   2  -3   5   88.39    3.90
  -3   3  -5   67.99    3.80
  -3   3  -5   71.69    4.40
   3  -3   5   74.59    4.20
   3  -3   5   69.39    5.30
  -4   3  -5   62.49    4.60
   4  -3   5   61.39    4.90
   4  -3   5   59.59    4.80
  -5   3  -5   17.40    3.90
   5  -3   5   26.20    4.50
   5   2  -5   -0.40    3.10
  -5  -2   5   -3.80    3.80
  -5  -2   5    3.20    2.40
   4   2  -5    3.50    1.90
   4   2  -5    4.70    2.50
  -4  -2   5    5.50    1.80
  -4  -2   5    0.10    2.20
  -4  -2   5    4.00    2.70
  -4  -2   5    4.30    2.00
   3   2  -5    5.00    1.50
   3   2  -5    6.10    1.60
   3   2  -5    5.70    1.90
  -3  -2   5    3.40    1.80
  -3  -2   5    7.30    1.20
  -3  -2   5    9.10    1.40
  -3  -2   5    6.30    1.40
   2   2  -5    3.30    1.20
   2   2  -5    1.60    0.80
   2   2  -5    2.50    0.80
   2   2  -5    3.10    1.20
  -2  -2   5    3.20    0.60
  -2  -2   5    3.70    1.20
  -2  -2   5    4.30    0.80
  -2  -2   5    3.90    1.40
   1   2  -5   10.00    0.80
   1   2  -5    9.10    1.20
   1   2  -5    9.40    1.00
   1   2  -5    8.50    0.70
  -1  -2   5    9.20    1.10
  -1  -2   5    9.30    0.90
  -1  -2   5    7.00    1.10
  -1  -2   5   10.60    0.60
  -1  -2   5    9.30    1.00
   0   2  -5  529.95   15.80
   0   2  -5  533.25   15.90
   0   2  -5  518.15   15.80
   0   2  -5  511.35   15.70
   0  -2   5  471.95   16.20
   0  -2   5  528.05   15.80
   0  -2   5  512.35   15.80
   0  -2   5  512.35   15.70
  -1   2  -5   32.10    1.70
  -1   2  -5   33.50    1.70
   1  -2   5   32.90    1.90
   1  -2   5   33.10    2.00
   1  -2   5   34.50    2.00
   1  -2   5   33.10    1.70
   2  -2   5  398.76   13.00
   2  -2   5  365.26   12.30
  -3   2  -5   33.20    2.90
  -3   2  -5   32.10    2.70
   3  -2   5   27.70    2.50
  -4   2  -5  149.49    7.00
  -4   2  -5  158.68    7.20
   4  -2   5  147.59    7.00
  -5   2  -5  156.48    9.30
   5  -2   5  128.89    9.50
   5  -2   5  179.18   10.10
   5   1  -5   41.20    4.20
  -5  -1   5   38.20    5.00
  -5  -1   5   45.60    4.50
  -5  -1   5   42.20    4.10
   4   1  -5    9.70    2.30
   4   1  -5    8.80    2.60
  -4  -1   5    6.40    2.10
  -4  -1   5    7.90    2.70
  -4  -1   5   10.60    2.10
  -4  -1   5   10.90    2.80
   3   1  -5   26.20    2.90
  -3  -1   5   22.20    2.40
  -3  -1   5   29.50    2.30
   2   1  -5   29.70    1.60
   2   1  -5   27.80    1.90
   2   1  -5   29.10    1.40
  -2  -1   5   29.90    1.40
  -2  -1   5   26.60    1.70
  -2  -1   5   29.40    1.70
  -2  -1   5   27.50    2.10
   1   1  -5    7.20    0.80
   1   1  -5    7.50    1.00
   1   1  -5    5.60    0.60
   1   1  -5    7.10    0.70
   1   1  -5    7.40    0.80
   1   1  -5    7.50    1.00
   1   1  -5    7.20    0.80
   1   1  -5    6.50    0.50
  -1  -1   5    7.10    0.60
  -1  -1   5    6.80    0.90
  -1  -1   5    5.60    0.80
  -1  -1   5    8.00    0.90
  -1  -1   5    5.50    0.80
  -1  -1   5    5.30    0.90
  -1  -1   5    6.60    0.80
  -1  -1   5    5.90    0.60
   0   1  -5   17.60    1.00
   0   1  -5   14.90    1.20
   0   1  -5   17.30    0.90
   0   1  -5   18.00    0.90
   0   1  -5   16.90    0.90
   0   1  -5   18.00    0.70
   0  -1   5   18.60    0.90
   0  -1   5   16.00    0.90
   0  -1   5   17.90    0.70
   0  -1   5   17.20    1.00
   0  -1   5   18.00    1.20
   0  -1   5   18.20    1.00
   0  -1   5   18.30    1.00
  -1   1  -5  146.29    5.10
  -1   1  -5  140.19    5.00
   1  -1   5  147.89    4.90
   1  -1   5  135.29    5.00
   2  -1   5    1.10    1.00
  -3   1  -5   20.70    2.30
  -3   1  -5   17.80    2.10
   3  -1   5   20.40    2.20
   3  -1   5   18.20    2.10
  -4   1  -5    1.10    2.30
  -4   1  -5    0.30    2.10
   4  -1   5    5.10    2.90
   4  -1   5    1.70    2.10
  -5   1  -5  130.49    7.70
   5  -1   5  121.39    7.60
   5  -1   5  141.69    8.40
   5   0  -5   -1.20    3.10
   5   0  -5    2.40    3.80
  -5   0   5    4.10    3.10
  -5   0   5   -2.40    3.30
  -5   0   5    8.70    3.20
   4   0  -5   25.20    2.80
   4   0  -5   23.10    3.10
   4   0  -5   17.00    3.20
  -4   0   5   24.60    3.50
  -4   0   5   19.00    2.70
  -4   0   5   21.70    3.20
  -4   0   5   22.80    2.90
   3   0  -5   49.50    3.60
   3   0  -5   46.80    3.40
  -3   0   5   49.70    3.00
  -3   0   5   45.90    4.70
   2   0  -5    0.60    0.70
   2   0  -5    0.50    0.70
  -2   0   5    0.90    0.90
  -2   0   5    0.60    0.60
  -2   0   5    1.30    0.90
   1   0  -5 1653.23   50.49
   1   0  -5 1719.13   50.49
   1   0  -5 1686.53   50.69
   1   0  -5 1658.93   50.79
   1   0  -5 1647.54   50.59
   1   0  -5 1587.14   50.49
   1   0  -5 1692.03   50.59
  -1   0   5 1749.72   50.79
  -1   0   5 1684.43   50.49
  -1   0   5 1667.03   50.49
  -1   0   5 1684.33   50.39
  -1   0   5 1642.54   50.59
  -1   0   5 1712.03   50.49
   0   0  -5  208.78    6.30
   0   0  -5  199.58    6.20
   0   0  -5  188.38    6.30
   0   0  -5  206.88    6.40
   0   0  -5  199.78    6.20
   0   0  -5  190.18    6.30
   0   0   5  202.08    6.20
   0   0   5  193.78    6.30
   0   0   5  202.78    6.30
   0   0   5  201.88    6.30
   0   0   5  196.08    6.40
   0   0   5  202.38    6.70
   0   0   5  194.48    6.30
  -1   0  -5  233.58    7.60
  -1   0  -5  237.18    7.90
   1   0   5  234.48    7.80
   1   0   5  235.68    7.90
  -2   0  -5    4.90    1.20
  -2   0  -5    6.50    1.20
   2   0   5    8.10    1.30
   2   0   5    8.50    0.90
  -3   0  -5   43.70    2.90
  -3   0  -5   45.00    3.30
   3   0   5   41.80    3.80
   3   0   5   48.70    2.60
  -4   0  -5   83.99    4.90
  -4   0  -5   80.89    5.20
   4   0   5   84.89    5.60
   4   0   5   88.99    5.10
   5   0   5   14.40    4.20
   5  -1  -5    1.60    3.70
   5  -1  -5    7.00    3.40
   5  -1  -5    5.00    4.20
  -5   1   5    6.30    3.90
  -5   1   5   10.50    3.20
   4  -1  -5   37.50    3.40
   4  -1  -5   36.10    3.80
   4  -1  -5   45.40    4.30
  -4   1   5   37.70    4.20
  -4   1   5   37.60    3.60
  -4   1   5   31.80    3.80
   3  -1  -5   21.70    2.30
   3  -1  -5   20.30    2.40
   3  -1  -5   19.40    1.90
  -3   1   5   22.20    2.40
  -3   1   5   20.00    2.10
   2  -1  -5  241.08    8.30
  -2   1   5  247.98    7.90
  -2   1   5  249.97    8.40
   1  -1  -5  609.74   20.30
   1  -1  -5  690.73   20.20
   1  -1  -5  649.14   20.50
   1  -1  -5  656.73   19.90
   1  -1  -5  681.53   20.30
  -1   1   5  643.54   20.20
  -1   1   5  669.13   20.10
  -1   1   5  668.23   20.40
  -1   1   5  650.03   20.10
   0  -1  -5  860.91   26.10
   0  -1  -5  823.52   25.20
   0  -1  -5  819.82   25.60
   0  -1  -5  819.02   25.50
   0  -1  -5  822.32   25.50
   0   1   5  862.11   25.60
   0   1   5  853.31   25.60
   0   1   5  863.71   25.60
   0   1   5  845.52   25.60
  -1  -1  -5  999.50   30.90
  -1  -1  -5  971.30   30.50
   1   1   5 1013.10   30.10
   1   1   5 1034.20   30.50
  -2  -1  -5  398.16   13.50
  -2  -1  -5  392.06   13.50
  -2  -1  -5  412.06   14.00
   2   1   5  452.65   13.60
   2   1   5  420.06   14.00
   2   1   5  438.66   13.70
  -3  -1  -5  524.75   18.10
  -3  -1  -5  565.04   17.80
   3   1   5  543.25   18.30
   3   1   5  566.34   17.50
   3   1   5  511.55   16.50
  -4  -1  -5  130.49    6.60
  -4  -1  -5  123.79    5.50
   4   1   5  113.69    5.80
   4   1   5  114.49    6.60
   5   1   5   -2.00    4.50
   5  -2  -5   30.30    4.50
   5  -2  -5   27.20    3.80
   5  -2  -5   22.30    4.10
  -5   2   5   30.10    4.70
  -5   2   5   25.30    4.00
  -5   2   5   23.90    4.00
   4  -2  -5    4.90    2.60
   4  -2  -5    8.20    2.60
   4  -2  -5    5.00    2.30
  -4   2   5    4.10    2.40
  -4   2   5    4.70    2.40
   3  -2  -5   19.00    2.50
   3  -2  -5   18.40    2.50
  -3   2   5   15.00    2.00
  -3   2   5   22.90    2.50
  -3   2   5   15.90    2.10
  -3   2   5   14.10    1.50
   2  -2  -5   24.40    2.30
  -2   2   5   26.90    1.80
  -2   2   5   23.80    2.10
  -2   2   5   26.30    1.70
   1  -2  -5   19.90    1.60
   1  -2  -5   21.60    1.20
  -1   2   5   19.60    1.40
  -1   2   5   21.40    1.20
   0  -2  -5  190.48    6.30
   0  -2  -5  194.98    6.30
   0  -2  -5  169.48    6.90
   0  -2  -5  189.68    6.50
   0   2   5  176.08    6.40
   0   2   5  195.98    6.40
   0   2   5  209.48    6.90
   0   2   5  210.38    6.40
   0   2   5  202.58    6.40
   0   2   5  198.08    6.60
  -1  -2  -5  899.91   27.90
  -1  -2  -5  925.11   27.40
   1   2   5  939.21   27.80
   1   2   5  912.11   27.40
   1   2   5  899.41   29.30
  -2  -2  -5   40.60    2.00
  -2  -2  -5   45.00    2.60
  -2  -2  -5   40.70    2.30
  -2  -2  -5   38.70    2.40
   2   2   5   42.70    2.70
  -3  -2  -5  148.69    6.60
  -3  -2  -5  150.38    5.60
   3   2   5  149.59    6.70
  -4  -2  -5   37.10    3.00
  -4  -2  -5   28.50    4.80
   4   2   5   35.10    4.10
   5  -3  -5   -0.30    4.30
  -5   3   5    0.70    3.30
  -5   3   5   -3.40    4.90
  -5   3   5    2.80    3.40
   4  -3  -5   30.90    3.90
   4  -3  -5   31.20    3.60
  -4   3   5   35.20    3.90
  -4   3   5   30.10    3.60
   3  -3  -5   76.19    4.50
   3  -3  -5   71.09    4.40
  -3   3   5   68.09    4.10
  -3   3   5   73.69    4.50
  -3   3   5   70.09    3.50
  -3   3   5   72.99    3.60
  -2   3   5  340.97   10.80
   1  -3  -5    4.40    0.70
  -1   3   5    4.50    0.70
  -1   3   5    2.40    0.90
   0  -3  -5    5.30    1.00
   0  -3  -5    4.30    0.70
   0   3   5    5.60    0.80
   0   3   5    6.80    1.10
  -1  -3  -5    1.20    0.70
  -1  -3  -5    1.00    0.80
  -1  -3  -5    0.80    0.50
   1   3   5    0.70    0.60
  -2  -3  -5   76.49    3.50
  -2  -3  -5   79.29    3.60
   2   3   5   84.79    3.30
   2   3   5   79.79    3.90
   2   3   5   84.59    4.20
  -3  -3  -5   53.29    3.90
  -3  -3  -5   47.10    3.20
  -3  -3  -5   52.69    2.60
   3   3   5   48.80    3.00
   3   3   5   48.60    3.90
   3   3   5   48.90    3.70
  -4  -3  -5    6.40    1.60
  -4  -3  -5    7.30    2.90
   4   3   5   11.30    3.10
  -5  -3  -5   13.60    2.20
   4  -4  -5   74.89    6.30
   4  -4  -5   84.79    5.30
   4  -4  -5   89.69    6.20
   4  -4  -5   86.29    4.90
  -4   4   5   83.69    5.70
  -4   4   5   63.89    7.50
   3  -4  -5  480.75   16.70
   3  -4  -5  473.55   16.90
  -3   4   5  473.25   16.80
  -3   4   5  492.05   16.50
  -3   4   5  483.85   15.30
   2  -4  -5  376.36   12.90
  -2   4   5  370.06   12.80
  -2   4   5  375.96   13.10
   1  -4  -5   64.89    3.10
  -1   4   5   58.29    2.70
  -1   4   5   68.09    3.30
   0  -4  -5    2.90    0.80
   0  -4  -5    0.90    0.70
   0   4   5    3.50    1.40
  -1  -4  -5    5.30    0.90
  -1  -4  -5    7.20    0.90
  -1  -4  -5    4.60    0.90
  -1  -4  -5    5.30    1.00
   1   4   5    4.60    1.60
   1   4   5    5.20    1.20
   1   4   5    5.20    0.90
  -2  -4  -5    3.40    1.50
  -2  -4  -5    4.60    0.90
  -2  -4  -5    3.90    1.20
  -2  -4  -5    3.10    1.00
   2   4   5    6.50    1.70
   2   4   5    3.30    1.00
   2   4   5    2.50    1.80
  -3  -4  -5    4.60    2.70
  -3  -4  -5    2.10    0.90
   3   4   5    6.70    2.30
   3   4   5   -0.80    1.70
  -4  -4  -5    6.40    1.40
  -4  -4  -5   10.00    3.50
   4   4   5    6.40    3.20
   5  -5  -5   13.60    4.90
  -5   5   5    8.60    4.70
   4  -5  -5    4.20    3.30
   4  -5  -5    3.60    2.90
  -4   5   5    1.90    2.90
  -4   5   5    5.70    3.40
   3  -5  -5   31.70    3.00
   3  -5  -5   41.90    4.00
   3  -5  -5   30.80    3.40
  -3   5   5   38.40    3.70
  -3   5   5   41.00    4.40
  -3   5   5   40.90    3.60
   2  -5  -5   41.20    2.40
   2  -5  -5   39.70    3.20
  -2   5   5   34.70    3.20
  -2   5   5   43.00    3.50
  -2   5   5   39.20    3.50
   1  -5  -5  169.68    6.60
  -1   5   5  170.18    6.60
  -1   5   5  173.38    5.30
  -1   5   5  168.28    6.40
  -1   5   5  167.98    7.00
   0  -5  -5    3.30    1.10
   0  -5  -5    0.70    0.80
   0   5   5    2.40    1.10
   0   5   5    2.80    1.50
  -1  -5  -5  179.48    6.10
  -1  -5  -5  179.98    6.50
  -1  -5  -5  173.08    6.00
  -1  -5  -5  184.88    6.20
  -1  -5  -5  179.88    6.40
   1   5   5  179.38    7.70
   1   5   5  172.08    6.80
   1   5   5  182.28    6.30
  -2  -5  -5   55.09    3.30
  -2  -5  -5   56.79    2.40
  -2  -5  -5   46.80    2.90
   2   5   5   53.09    2.70
   2   5   5   51.59    3.70
   2   5   5   57.59    4.30
  -3  -5  -5   16.40    1.60
  -3  -5  -5   18.50    2.40
  -3  -5  -5   18.20    3.90
   3   5   5   14.70    2.70
   3   5   5   13.90    3.10
   4  -6  -5    2.60    3.60
   3  -6  -5    5.90    2.80
  -3   6   5    2.20    2.70
  -3   6   5    4.20    2.40
  -3   6   5    7.30    2.70
   2  -6  -5   24.80    3.00
   2  -6  -5   24.00    2.10
   2  -6  -5   19.70    2.80
  -2   6   5   22.00    3.10
  -2   6   5   25.80    3.00
  -2   6   5   25.70    3.20
  -1   6   5   42.10    3.00
  -1   6   5   39.10    3.60
  -1   6   5   41.20    3.80
   0  -6  -5   76.29    3.40
   0  -6  -5   80.69    4.10
   0   6   5   75.49    4.80
   0   6   5   79.49    3.80
   0   6   5   79.39    3.90
  -1  -6  -5   45.30    2.50
  -1  -6  -5   43.70    3.10
  -1  -6  -5   46.10    2.70
   1   6   5   45.90    2.80
   1   6   5   46.20    4.20
   1   6   5   45.30    3.20
  -2  -6  -5    5.20    1.70
  -2  -6  -5    6.00    1.60
  -2  -6  -5    3.40    1.00
   2   6   5    6.60    2.30
   2   6   5    2.20    2.70
  -3  -6  -5   43.00    5.00
  -3  -6  -5   46.60    5.10
   3   6   5   42.00    4.60
   3   6   5   44.40    5.00
   4  -7  -5   77.09    7.20
   3  -7  -5    0.80    3.10
  -3   7   5    6.80    3.00
  -3   7   5    0.70    2.90
  -3   7   5    0.90    2.80
   2  -7  -5    0.00    2.20
   2  -7  -5    6.80    2.10
  -2   7   5    1.30    2.50
  -2   7   5   -0.40    2.50
  -2   7   5    4.50    2.30
   1  -7  -5   35.50    3.40
   1  -7  -5   40.40    3.50
  -1   7   5   37.80    4.20
  -1   7   5   38.20    3.70
  -1   7   5   42.10    3.40
   0  -7  -5    8.50    1.80
   0  -7  -5    4.50    1.70
   0  -7  -5    6.90    1.30
   0   7   5    6.90    2.00
   0   7   5   11.10    2.70
  -1  -7  -5    6.70    1.60
  -1  -7  -5    6.70    1.40
  -1  -7  -5    6.80    1.60
   1   7   5    8.80    2.90
   1   7   5    1.60    1.80
  -2  -7  -5    1.00    2.00
   2   7   5    0.20    2.40
   2   7   5   -0.20    3.20
  -3  -7  -5    0.10    2.60
   3   7   5   -2.80    4.10
   3   7   5    1.00    4.00
   4  -8  -5  113.69    9.10
  -3   8   5   15.40    6.00
  -3   8   5    4.60    3.90
   2  -8  -5   32.50    4.00
  -2   8   5   37.20    4.70
  -2   8   5   39.80    4.50
  -2   8   5   32.90    4.00
   1  -8  -5   28.10    3.40
   1  -8  -5   29.10    3.20
  -1   8   5   23.60    4.20
  -1   8   5   24.40    3.00
  -1   8   5   27.40    3.40
   0  -8  -5   37.40    3.20
   0  -8  -5   36.20    3.40
   0   8   5   41.90    4.00
   0   8   5   37.80    5.30
  -1  -8  -5   10.90    2.00
  -1  -8  -5    7.20    1.50
   1   8   5    8.50    2.70
   1   8   5    6.10    3.70
  -2  -8  -5    4.30    2.40
  -2  -8  -5   -0.30    2.00
   2   8   5    3.90    2.80
   2   8   5   -3.00    4.00
  -3  -8  -5    4.40    3.20
   3   8   5    9.20    5.20
  -3   9   5   12.80    5.20
  -3   9   5   16.80    5.20
  -2   9   5   -3.40    3.90
   0  -9  -5   41.90    3.70
   0   9   5   54.59    6.10
   0   9   5   49.90    4.10
   1   9   5    4.50    3.00
   2   9   5   12.10    5.10
  -2  10   5    2.40    4.70
   2  10  -6    8.30    4.30
   2  10  -6   11.40    3.40
   2  10  -6   10.10    6.50
  -2 -10   6   -1.40    4.90
   1  10  -6    2.60    3.00
  -1 -10   6    4.60    2.90
  -1 -10   6   -2.30    4.30
   0  10  -6   55.89    4.60
  -1  10  -6  300.07   11.00
   1 -10   6  303.37   10.30
  -2  10  -6   89.39    5.70
   2 -10   6   91.99    8.40
  -3  10  -6   15.00    5.40
   3   9  -6    6.00    4.30
   3   9  -6   19.80    4.90
   3   9  -6   11.20    5.10
  -3  -9   6   10.30    4.10
   2   9  -6    3.40    2.90
   2   9  -6    7.20    3.70
   2   9  -6    6.00    3.90
  -2  -9   6   -0.20    4.00
  -2  -9   6    6.90    2.60
  -2  -9   6    8.30    3.10
   1   9  -6   29.90    3.40
   1   9  -6   24.30    3.20
   1   9  -6   25.90    3.10
  -1  -9   6   24.70    3.00
  -1  -9   6   24.90    5.20
  -1  -9   6   28.30    3.80
   0   9  -6    1.00    1.70
   0   9  -6    1.50    3.60
   0  -9   6    0.90    2.10
  -1   9  -6  120.19    5.30
  -1   9  -6  116.59    7.80
   1  -9   6  118.39    6.00
   1  -9   6  127.19    5.10
  -2   9  -6    7.20    1.90
   2  -9   6    7.90    3.20
  -3   9  -6   -1.40    2.00
  -3   9  -6   11.10    4.00
  -4   9  -6    9.50    3.40
  -4   9  -6    0.00    5.30
   4   8  -6   51.29    5.50
  -4  -8   6   39.00    6.00
  -4  -8   6   58.19    9.60
   3   8  -6   10.20    3.10
   3   8  -6   18.80    3.90
   3   8  -6    6.60    4.30
  -3  -8   6   13.30    3.50
  -3  -8   6   14.30    2.30
  -3  -8   6   17.50    3.80
   2   8  -6    7.20    2.50
   2   8  -6    7.00    4.00
   2   8  -6    7.00    2.50
   2   8  -6   12.80    2.80
  -2  -8   6   11.40    2.60
  -2  -8   6    4.10    2.40
  -2  -8   6    9.60    3.10
  -2  -8   6    9.50    2.20
   1   8  -6  220.18    8.80
   1   8  -6  221.58    9.00
   1   8  -6  231.28    9.00
   1   8  -6  226.98   10.30
  -1  -8   6  233.98   10.30
  -1  -8   6  236.58    7.90
  -1  -8   6  224.48    8.50
   0   8  -6  275.47   10.10
   0   8  -6  288.57   10.20
   0   8  -6  293.37   12.00
   0  -8   6  295.77   11.90
   0  -8   6  297.17    9.90
  -1   8  -6   53.79    4.90
  -1   8  -6   57.89    3.20
   1  -8   6   52.19    3.10
   1  -8   6   55.39    3.70
  -2   8  -6    4.20    2.60
  -2   8  -6   -0.70    2.70
  -2   8  -6    2.30    1.30
   2  -8   6    2.60    4.60
  -3   8  -6  101.39    7.40
  -3   8  -6   91.99    6.70
   3  -8   6  105.99    6.80
   3  -8   6  110.99    7.50
  -4   8  -6   27.70    5.30
   4  -8   6   36.80    5.60
   4   7  -6   -2.60    3.40
  -4  -7   6    0.30    4.10
  -4  -7   6    1.60    2.70
   3   7  -6    3.00    2.90
   3   7  -6    2.40    3.20
   3   7  -6    1.90    2.40
  -3  -7   6    0.40    3.20
  -3  -7   6    6.00    1.80
   2   7  -6   56.39    5.20
   2   7  -6   50.59    3.70
   2   7  -6   45.30    4.30
   2   7  -6   45.10    4.00
  -2  -7   6   54.59    4.00
  -2  -7   6   49.30    3.40
  -2  -7   6   54.99    4.10
  -2  -7   6   51.59    3.30
   1   7  -6  509.55   17.10
   1   7  -6  527.65   17.30
   1   7  -6  507.35   18.30
   1   7  -6  521.85   17.20
  -1  -7   6  512.75   16.80
   0   7  -6   29.50    3.40
   0   7  -6   34.80    2.40
   0   7  -6   33.20    2.70
   0   7  -6   38.40    2.60
   0  -7   6   31.10    1.80
  -1   7  -6   83.29    5.50
  -1   7  -6   97.89    4.00
   1  -7   6   99.29    4.20
  -2   7  -6   57.09    4.60
  -2   7  -6   51.89    4.70
  -2   7  -6   61.29    3.20
   2  -7   6   60.49    3.80
   2  -7   6   60.39    4.80
  -3   7  -6    1.30    3.00
   3  -7   6    4.20    2.80
   3  -7   6    9.30    3.20
  -4   7  -6   29.90    4.80
   4  -7   6   33.50    4.60
   4  -7   6   36.90    5.50
   4   6  -6    2.20    2.90
  -4  -6   6    1.40    2.40
  -4  -6   6   -4.40    3.60
   3   6  -6   -1.00    2.10
   3   6  -6    4.00    2.70
   3   6  -6    1.50    2.50
  -3  -6   6    1.10    1.90
  -3  -6   6    1.80    2.40
   2   6  -6   57.19    4.00
   2   6  -6   65.39    3.60
   2   6  -6   67.69    4.50
   2   6  -6   64.59    4.40
  -2  -6   6   65.49    4.10
  -2  -6   6   58.69    4.80
   1   6  -6  100.19    3.50
   1   6  -6  112.59    5.00
   1   6  -6  103.99    4.60
   1   6  -6  103.29    5.50
   1   6  -6  107.09    4.70
  -1  -6   6  109.49    4.40
   0   6  -6   -0.30    1.10
   0   6  -6   -1.10    1.60
   0   6  -6    1.90    0.90
   0  -6   6   -0.50    1.60
   0  -6   6    1.60    0.80
  -1   6  -6   23.80    1.70
  -1   6  -6   26.70    3.00
   1  -6   6   23.20    2.40
  -2   6  -6  246.98    9.50
  -2   6  -6  242.98    9.60
   2  -6   6  240.78    9.00
   2  -6   6  242.58    9.90
   2  -6   6  246.78    9.00
  -3   6  -6   93.29    6.00
   3  -6   6   97.29    5.70
   3  -6   6   93.69    6.20
   3  -6   6  101.99    5.60
   4  -6   6    1.80    3.80
  -5  -5   6    2.50    4.50
   4   5  -6   66.39    4.70
  -4  -5   6   58.19    5.50
  -4  -5   6   63.79    6.00
   3   5  -6   29.30    3.30
   3   5  -6   26.50    3.30
   3   5  -6   25.10    3.20
   3   5  -6   23.00    2.50
  -3  -5   6   29.40    3.60
  -3  -5   6   30.70    3.70
  -3  -5   6   31.90    2.80
   2   5  -6   66.79    3.90
   2   5  -6   65.49    3.50
   2   5  -6   74.49    4.40
   2   5  -6   72.19    4.20
  -2  -5   6   76.19    4.40
  -2  -5   6   67.39    4.20
  -2  -5   6   71.39    3.20
   1   5  -6   71.29    4.00
   1   5  -6   69.69    3.20
   1   5  -6   64.59    2.30
   1   5  -6   64.69    3.30
   1   5  -6   64.69    3.90
   0   5  -6   27.70    1.80
   0   5  -6   25.60    1.70
   0   5  -6   28.70    1.40
   0   5  -6   22.80    2.10
   0   5  -6   26.60    2.60
   0  -5   6   28.40    2.50
   0  -5   6   27.10    1.30
   0  -5   6   26.40    1.70
  -1   5  -6  128.09    4.70
  -1   5  -6  143.49    6.10
  -1   5  -6  146.69    5.10
  -1   5  -6  142.89    4.60
   1  -5   6  130.29    5.70
   1  -5   6  148.79    5.30
  -2   5  -6    8.30    1.80
  -2   5  -6    8.50    1.80
   2  -5   6    8.00    1.60
  -3   5  -6   12.70    2.40
  -3   5  -6   13.80    1.90
   3  -5   6   10.20    2.70
   3  -5   6   12.50    2.60
   3  -5   6   16.90    2.50
  -4   5  -6   68.39    6.10
  -4   5  -6   63.29    4.60
   4  -5   6   73.89    5.60
   4  -5   6   59.29    5.70
  -5  -4   6   10.50    4.10
   4   4  -6  115.19    5.90
  -4  -4   6   98.49    7.70
  -4  -4   6  115.89    5.70
  -4  -4   6  114.99    7.10
   3   4  -6    2.70    1.80
   3   4  -6    1.00    1.40
   3   4  -6    3.30    1.80
   3   4  -6   -0.40    2.10
  -3  -4   6    1.70    1.60
  -3  -4   6   -2.00    2.10
  -3  -4   6    0.90    1.20
  -3  -4   6    3.60    1.70
   2   4  -6  480.55   15.00
   2   4  -6  449.46   15.90
   2   4  -6  467.85   15.70
   2   4  -6  482.35   15.70
   2   4  -6  454.05   14.30
   1   4  -6   24.60    2.10
   1   4  -6   20.00    2.90
   1   4  -6   24.60    1.00
   1   4  -6   23.60    1.10
   0   4  -6   57.09    2.60
   0   4  -6   53.59    2.30
   0  -4   6   52.49    2.10
   0  -4   6   51.79    2.40
   0  -4   6   55.49    2.00
   0  -4   6   51.69    2.40
  -1   4  -6   75.19    2.70
  -1   4  -6   67.89    2.80
  -1   4  -6   73.89    2.60
   1  -4   6   69.39    3.60
   1  -4   6   72.99    2.70
   1  -4   6   77.99    3.10
  -2   4  -6   47.50    2.40
  -2   4  -6   58.29    3.50
   2  -4   6   53.59    3.90
   2  -4   6   52.69    3.00
  -3   4  -6    1.00    1.90
  -3   4  -6   -0.90    1.40
   3  -4   6    0.00    1.90
   3  -4   6   -2.80    1.60
  -4   4  -6   40.70    4.00
   4  -4   6   45.50    4.20
   4  -4   6   34.60    3.80
  -5   4  -6    3.80    3.50
  -5  -3   6   11.20    3.90
   4   3  -6   10.00    2.20
  -4  -3   6   13.30    1.60
  -4  -3   6   18.90    3.70
  -4  -3   6   10.90    3.00
  -4  -3   6   12.20    2.30
   3   3  -6   39.50    2.90
   3   3  -6   33.80    3.40
   3   3  -6   41.40    2.60
   3   3  -6   40.10    3.60
  -3  -3   6   40.70    2.30
  -3  -3   6   41.40    3.60
  -3  -3   6   39.70    1.90
   2   3  -6   32.20    2.70
   2   3  -6   29.10    2.50
  -2  -3   6   32.50    1.20
   1   3  -6   27.70    1.10
   1   3  -6   28.60    1.50
  -1  -3   6   26.70    1.70
  -1  -3   6   27.00    1.70
   0   3  -6   10.50    1.10
   0   3  -6   12.10    1.00
   0   3  -6   10.50    0.90
   0   3  -6    9.90    1.00
   0  -3   6   11.90    0.90
   0  -3   6   10.50    1.10
  -1   3  -6    4.40    0.80
  -1   3  -6    5.30    0.60
   1  -3   6    4.00    1.10
   1  -3   6    2.60    0.70
   1  -3   6    3.60    0.80
  -2   3  -6   18.90    1.80
  -2   3  -6   17.50    1.90
   2  -3   6   21.80    2.00
  -3   3  -6   17.90    2.10
  -3   3  -6   18.70    2.60
   3  -3   6   15.60    2.40
   3  -3   6   12.50    2.20
  -4   3  -6    1.40    2.40
   4  -3   6    4.50    2.40
   4  -3   6    5.30    2.60
  -5   3  -6    2.20    3.50
   5  -3   6    5.00    3.50
  -5  -2   6   21.40    4.50
  -5  -2   6   17.60    2.80
   4   2  -6   10.40    2.50
   4   2  -6    4.50    1.90
  -4  -2   6    4.50    1.90
  -4  -2   6   12.30    3.00
  -4  -2   6   10.30    2.70
  -4  -2   6    7.50    2.20
   3   2  -6   33.30    3.30
   3   2  -6   32.50    2.70
  -3  -2   6   30.50    2.40
  -3  -2   6   29.70    2.10
  -3  -2   6   29.30    2.50
   2   2  -6   64.99    2.60
   2   2  -6   64.49    3.30
   2   2  -6   67.89    3.60
   2   2  -6   62.09    2.60
  -2  -2   6   66.49    3.00
  -2  -2   6   66.89    2.70
  -2  -2   6   56.89    3.10
  -2  -2   6   64.19    2.40
   1   2  -6    6.90    0.70
   1   2  -6    7.10    1.00
   1   2  -6    7.40    0.70
   1   2  -6    7.20    0.70
  -1  -2   6    7.60    0.60
  -1  -2   6    5.70    1.10
  -1  -2   6    8.10    1.00
  -1  -2   6    7.10    0.90
  -1  -2   6    7.30    0.80
  -1  -2   6    6.10    1.20
   0   2  -6  136.59    4.50
   0   2  -6  136.89    4.50
   0   2  -6  138.29    4.70
   0   2  -6  128.89    5.10
   0  -2   6  135.59    4.60
   0  -2   6  145.69    4.70
   0  -2   6  123.19    5.00
   0  -2   6  133.99    4.50
  -1   2  -6  182.78    5.90
   1  -2   6  178.18    5.90
   1  -2   6  168.08    6.20
  -2   2  -6   74.59    3.70
   2  -2   6   71.79    3.40
  -3   2  -6  189.68    7.60
  -3   2  -6  195.28    7.40
   3  -2   6  186.98    7.50
  -4   2  -6   51.09    4.40
  -4   2  -6   49.70    4.40
   4  -2   6   44.40    4.30
   5  -2   6    2.80    4.30
   5  -2   6   -0.40    3.60
  -5  -1   6    5.50    3.00
  -5  -1   6   11.30    3.60
  -5  -1   6    1.20    3.30
   4   1  -6    7.70    2.00
  -4  -1   6    4.80    2.10
  -4  -1   6    2.60    2.10
  -4  -1   6    4.70    2.50
  -4  -1   6    6.30    2.60
   3   1  -6    4.20    1.60
  -3  -1   6    3.00    1.10
  -3  -1   6    3.60    1.40
  -3  -1   6    3.30    1.30
   2   1  -6  166.58    5.50
   2   1  -6  168.48    5.80
   2   1  -6  159.98    5.50
  -2  -1   6  161.28    5.50
  -2  -1   6  156.18    5.70
  -2  -1   6  170.58    5.60
  -2  -1   6  166.18    6.20
   1   1  -6    0.80    0.30
   1   1  -6    1.00    0.60
   1   1  -6    0.60    0.40
   1   1  -6    0.50    0.70
   1   1  -6    0.50    0.50
   1   1  -6    1.00    0.70
  -1  -1   6    2.00    0.80
  -1  -1   6    1.10    0.60
  -1  -1   6    0.70    0.30
  -1  -1   6    0.20    0.50
  -1  -1   6    0.70    0.40
   0   1  -6    6.80    0.40
   0   1  -6    6.00    0.60
   0   1  -6    7.30    0.70
   0   1  -6    6.60    0.60
   0   1  -6    7.50    0.90
   0   1  -6    6.70    0.70
   0  -1   6    7.50    0.70
   0  -1   6    6.00    0.70
   0  -1   6    7.00    0.40
   0  -1   6    7.50    0.70
   0  -1   6    6.40    0.60
  -3   1  -6   40.80    3.00
  -3   1  -6   43.30    3.10
   3  -1   6   40.00    2.90
   3  -1   6   31.60    2.80
  -4   1  -6   21.20    3.10
   4  -1   6   20.20    3.60
   4  -1   6   23.10    3.10
  -5   1  -6  288.67   12.40
   5  -1   6  299.87   12.20
   5  -1   6  293.37   12.90
   5   0  -6   -0.70    3.20
  -5   0   6    0.90    3.10
  -5   0   6    0.10    3.10
  -5   0   6   -1.00    3.20
   4   0  -6    2.40    2.30
   4   0  -6    1.10    2.50
   4   0  -6   -1.50    1.80
  -4   0   6    3.50    2.30
  -4   0   6    0.80    2.00
  -4   0   6    2.20    1.90
   3   0  -6   31.00    2.30
   3   0  -6   27.00    1.70
   3   0  -6   32.80    3.30
   3   0  -6   33.70    3.10
  -3   0   6   30.10    2.60
  -3   0   6   27.90    2.70
   2   0  -6  156.18    5.20
   2   0  -6  151.08    5.40
  -2   0   6  159.08    5.80
  -2   0   6  150.48    5.50
  -2   0   6  155.88    5.70
   1   0  -6  355.76   13.50
   1   0  -6  448.66   13.20
   1   0  -6  452.45   13.40
   1   0  -6  428.66   13.40
   1   0  -6  373.76   13.30
  -1   0   6  430.06   13.20
  -1   0   6  435.26   13.30
  -1   0   6  430.46   13.20
  -1   0   6  448.56   13.30
   0   0  -6   37.60    1.40
   0   0  -6   40.00    2.00
   0   0  -6   36.40    1.60
   0   0  -6   37.80    1.60
   0   0  -6   36.50    1.50
   0   0  -6   39.20    1.50
   0   0   6   39.20    1.60
   0   0   6   35.70    1.60
   0   0   6   39.50    1.60
   0   0   6   37.10    1.70
   0   0   6   38.20    1.50
  -1   0  -6  410.56   13.90
  -1   0  -6  378.86   12.50
   1   0   6  409.56   12.30
  -2   0  -6    3.30    0.90
   2   0   6    4.10    0.80
  -3   0  -6   70.79    3.70
  -3   0  -6   70.09    4.00
   3   0   6   76.29    3.90
   3   0   6   75.59    3.40
   3   0   6   60.99    3.20
  -4   0  -6  448.56   16.60
  -4   0  -6  433.66   15.60
   4   0   6  433.76   15.00
   4   0   6  418.96   15.90
   5   0   6   79.49    7.40
   5  -1  -6    1.80    4.10
   5  -1  -6    1.40    3.20
  -5   1   6    2.80    4.00
  -5   1   6    8.70    4.90
   4  -1  -6    2.40    2.30
   4  -1  -6   -1.20    1.90
   4  -1  -6    3.10    2.30
  -4   1   6    3.80    2.30
  -4   1   6    2.60    2.00
  -4   1   6   -2.40    2.40
   3  -1  -6    0.50    1.50
   3  -1  -6   -1.40    1.80
   3  -1  -6   -0.80    1.60
  -3   1   6    0.50    1.30
  -3   1   6    1.70    1.60
   2  -1  -6  706.83   22.80
  -2   1   6  751.92   22.80
   1  -1  -6    0.10    0.80
   1  -1  -6    0.90    0.50
   1  -1  -6    0.90    0.30
  -1   1   6    0.20    0.40
  -1   1   6   -0.10    0.70
  -1   1   6    0.50    0.60
  -1   1   6    0.20    0.70
  -1   1   6   -0.30    0.40
   0  -1  -6  105.49    3.60
   0  -1  -6  104.59    3.70
   0  -1  -6  106.19    3.70
   0  -1  -6   98.29    4.10
   0  -1  -6  105.79    3.30
   0  -1  -6  108.89    3.70
   0   1   6  105.39    3.60
   0   1   6  100.59    3.60
   0   1   6  101.29    3.90
   0   1   6  107.99    3.70
  -1  -1  -6  267.67   10.60
  -1  -1  -6  302.67    9.70
   1   1   6  312.77    9.30
   1   1   6  320.67    9.70
  -2  -1  -6  400.86   12.80
  -2  -1  -6  384.26   12.30
  -2  -1  -6  357.86   12.40
   2   1   6  377.76   12.90
  -3  -1  -6    6.90    1.70
   3   1   6    9.70    2.10
   3   1   6   10.10    1.90
   3   1   6    8.00    0.90
  -4  -1  -6  227.38    9.60
  -4  -1  -6  232.18    8.70
   4   1   6  216.98    8.70
   4   1   6  233.48    9.90
   5   1   6   11.30    6.80
   5  -2  -6    1.80    4.20
   5  -2  -6   11.30    3.50
  -5   2   6    8.50    3.60
  -5   2   6    0.70    4.50
  -5   2   6    0.30    3.20
   4  -2  -6   -0.20    2.50
   4  -2  -6    0.10    2.40
   4  -2  -6   -2.00    2.80
  -4   2   6    1.40    2.20
   3  -2  -6    9.70    2.00
   3  -2  -6    6.20    1.80
  -3   2   6    6.20    1.20
  -3   2   6    7.50    1.90
  -3   2   6    8.90    1.80
   2  -2  -6   28.80    2.40
   2  -2  -6   28.60    1.70
  -2   2   6   28.10    2.00
  -2   2   6   30.50    2.20
  -2   2   6   26.50    2.20
  -2   2   6   28.50    1.80
   1  -2  -6   74.69    2.80
  -1   2   6   78.49    2.80
  -1   2   6   77.79    2.80
   0  -2  -6    8.80    1.00
   0  -2  -6    8.90    1.10
   0  -2  -6    9.50    0.90
   0   2   6    7.60    1.10
   0   2   6   12.00    1.40
   0   2   6    9.40    1.00
  -1  -2  -6  332.37   10.90
  -1  -2  -6  339.27   10.40
   1   2   6  360.46   10.90
   1   2   6  341.87   10.50
  -2  -2  -6  353.36   11.20
  -2  -2  -6  345.37   11.40
  -2  -2  -6  322.97   11.30
  -2  -2  -6  360.76   11.80
   2   2   6  346.07   12.00
  -3  -2  -6 1320.77   40.20
  -3  -2  -6 1313.87   41.10
   3   2   6 1295.17   41.30
  -4  -2  -6  158.28    6.50
  -4  -2  -6  168.68    7.90
   5  -3  -6    4.00    4.50
  -5   3   6    0.00    3.40
  -5   3   6    0.20    4.80
   4  -3  -6   13.50    3.30
   4  -3  -6    8.10    2.50
   4  -3  -6   10.10    2.80
   4  -3  -6   10.60    3.20
  -4   3   6    9.30    3.20
  -4   3   6   10.30    2.70
   3  -3  -6  223.78    8.40
   3  -3  -6  215.28    8.90
  -3   3   6  231.28    7.90
  -3   3   6  222.98    7.90
  -3   3   6  217.98    9.00
  -3   3   6  221.28    8.70
   2  -3  -6   -1.50    1.30
   2  -3  -6   -0.30    1.30
  -2   3   6    0.30    1.30
  -2   3   6   -0.70    0.60
  -2   3   6    0.20    1.20
   1  -3  -6  159.98    5.00
  -1   3   6  145.89    4.90
   0  -3  -6    4.20    0.70
  -1  -3  -6  319.27   10.50
  -1  -3  -6  330.17   10.60
  -1  -3  -6  329.67   10.20
  -1  -3  -6  325.27   10.50
   1   3   6  323.47   11.40
   1   3   6  338.47   10.50
   1   3   6  332.07   10.20
   1   3   6  329.87   11.10
  -2  -3  -6   10.80    1.40
  -2  -3  -6   10.80    1.40
  -2  -3  -6   10.10    1.60
   2   3   6   14.10    2.10
   2   3   6   13.20    2.00
  -3  -3  -6    1.50    1.00
  -3  -3  -6    1.40    1.50
  -3  -3  -6    3.10    1.90
   3   3   6    1.80    1.80
   3   3   6    3.80    2.00
   3   3   6    1.70    1.70
  -4  -3  -6   33.50    3.80
  -4  -3  -6   29.30    2.80
  -4  -3  -6   34.90    3.60
  -5  -3  -6   17.50    2.70
  -5   4   6   -3.10    4.20
   4  -4  -6   90.99    5.40
   4  -4  -6   89.69    5.50
   4  -4  -6  105.69    8.50
   4  -4  -6   94.99    6.60
  -4   4   6   97.09    6.60
  -4   4   6   85.99    6.50
   3  -4  -6  183.88    7.90
  -3   4   6  178.98    6.40
  -3   4   6  185.28    7.70
  -3   4   6  177.18    8.00
   2  -4  -6  236.58    9.00
   2  -4  -6  245.38    9.00
  -2   4   6  242.38    8.90
  -2   4   6  239.28    8.90
   1  -4  -6  135.39    5.20
   1  -4  -6  115.69    5.50
  -1   4   6  130.19    5.20
  -1   4   6  130.49    5.60
   0  -4  -6  100.39    3.90
   0  -4  -6  108.79    4.10
   0   4   6  101.59    4.90
  -1  -4  -6   39.30    2.10
  -1  -4  -6   38.60    2.10
  -1  -4  -6   40.50    2.10
  -1  -4  -6   39.20    2.00
  -1  -4  -6   39.70    2.20
   1   4   6   41.70    2.60
   1   4   6   34.90    3.10
  -2  -4  -6   33.90    1.90
  -2  -4  -6   26.30    2.40
  -2  -4  -6   32.60    2.30
  -2  -4  -6   36.90    2.70
   2   4   6   36.00    3.00
   2   4   6   34.90    3.30
   2   4   6   29.90    2.10
  -3  -4  -6   69.59    3.80
  -3  -4  -6   66.09    3.00
   3   4   6   58.29    4.50
   3   4   6   59.19    4.80
  -4  -4  -6   47.20    3.00
   4   4   6   52.99    6.00
  -5   5   6    4.10    4.60
   4  -5  -6   21.80    3.50
   4  -5  -6   17.90    4.00
  -4   5   6   19.10    3.60
  -4   5   6   12.60    4.20
  -4   5   6   13.30    3.50
   3  -5  -6   10.00    3.20
   3  -5  -6   10.60    2.80
  -3   5   6    9.50    2.40
  -3   5   6   16.10    2.90
  -3   5   6   12.20    2.40
   2  -5  -6  339.67   12.40
   2  -5  -6  338.47   12.50
  -2   5   6  344.87   12.60
  -2   5   6  355.56   12.50
  -2   5   6  358.86   12.40
   1  -5  -6  115.59    5.10
  -1   5   6  118.89    5.10
  -1   5   6  114.59    5.70
  -1   5   6  113.99    5.50
   0  -5  -6   18.60    1.80
   0  -5  -6   21.80    1.80
   0   5   6   22.60    2.10
   0   5   6   25.40    3.00
  -1  -5  -6  218.78    7.80
  -1  -5  -6  212.38    7.20
  -1  -5  -6  219.18    7.80
  -1  -5  -6  222.48    7.50
  -1  -5  -6  228.08    7.60
   1   5   6  224.08    8.30
   1   5   6  223.48    9.00
   1   5   6  230.18    7.70
  -2  -5  -6  201.48    9.00
  -2  -5  -6  189.68    7.20
  -2  -5  -6  197.68    6.70
   2   5   6  196.18    8.60
   2   5   6  195.08    6.90
   2   5   6  194.78    8.00
  -3  -5  -6    1.40    2.00
  -3  -5  -6   -1.10    2.00
  -3  -5  -6    1.80    1.10
   3   5   6    0.80    2.70
   3   5   6    0.00    2.20
   4   5   6   23.60    6.30
   4  -6  -6   72.89    6.40
  -4   6   6   50.89    5.90
   3  -6  -6   12.40    3.00
  -3   6   6   11.30    3.20
  -3   6   6   13.70    2.90
   2  -6  -6   31.70    3.20
   2  -6  -6   24.20    2.90
   2  -6  -6   28.50    3.10
  -2   6   6   29.10    3.40
  -2   6   6   30.10    3.20
  -2   6   6   30.10    3.50
   1  -6  -6    2.70    1.50
  -1   6   6    4.20    1.70
  -1   6   6    6.30    1.50
  -1   6   6    1.70    2.20
   0  -6  -6   97.69    4.80
   0   6   6   89.79    5.30
   0   6   6   95.39    4.50
   0   6   6   97.09    4.40
  -1  -6  -6   41.50    2.50
  -1  -6  -6   40.90    2.70
   1   6   6   37.00    3.00
   1   6   6   39.10    2.90
   1   6   6   40.70    4.20
  -2  -6  -6   74.59    4.30
  -2  -6  -6   74.39    3.20
   2   6   6   78.99    5.50
   2   6   6   78.59    4.70
  -3  -6  -6   16.30    2.40
  -3  -6  -6    9.30    2.70
   3   6   6   14.30    3.80
   4  -7  -6    0.80    4.40
   3  -7  -6    5.00    3.30
  -3   7   6   10.10    3.30
  -3   7   6    7.90    3.50
  -3   7   6    7.10    3.10
   2  -7  -6   -3.10    2.10
   2  -7  -6    1.00    2.40
  -2   7   6    0.00    2.70
  -2   7   6    1.70    2.30
  -2   7   6    3.30    2.80
   1  -7  -6   10.00    2.00
  -1   7   6    9.40    2.40
  -1   7   6    3.80    2.50
  -1   7   6    6.10    2.30
   0  -7  -6   31.50    2.90
   0   7   6   33.70    4.10
   0   7   6   38.50    3.30
  -1  -7  -6   95.59    4.20
  -1  -7  -6   92.59    4.40
   1   7   6   91.79    6.10
   1   7   6   95.59    5.20
  -2  -7  -6    6.50    2.20
   2   7   6    5.90    2.50
  -3  -7  -6   25.60    3.50
   3   7   6   28.70    5.00
   4  -8  -6   49.20    6.70
  -3   8   6   45.40    5.40
   2  -8  -6   77.29    5.70
  -2   8   6   75.09    5.70
  -2   8   6   86.09    6.80
   1  -8  -6   43.90    4.10
  -1   8   6   35.60    3.70
  -1   8   6   38.60    5.70
  -1   8   6   40.30    4.40
   0  -8  -6    0.00    1.80
   0   8   6    4.10    3.40
   0   8   6    1.50    2.60
  -1  -8  -6    2.90    1.50
  -1  -8  -6    0.60    1.90
   1   8   6    2.10    3.30
   1   8   6    6.60    2.60
  -2  -8  -6    1.60    2.50
   2   8   6    7.10    4.20
  -3  -8  -6    3.70    3.60
   3   8   6    3.00    5.00
  -3   9   6   35.40    5.70
  -3   9   6   29.50    6.10
  -2   9   6    4.40    4.50
   1  -9  -6   27.00    4.70
   0  -9  -6   12.80    4.00
   0  -9  -6    9.70    2.40
  -2  10   6   57.49    7.00
  -1 -11   7    6.60    3.80
   2  10  -7   11.70    4.50
   2  10  -7   16.30    4.50
   2  10  -7   14.00    6.40
  -2 -10   7   13.70    5.20
   1  10  -7   66.39    6.10
  -1 -10   7   57.39    6.20
  -1 -10   7   66.29    5.00
   0  10  -7   83.49    5.30
  -1  10  -7   58.79    4.30
   1 -10   7   59.29    3.50
  -2  10  -7  311.37   11.20
   2 -10   7  298.97   14.40
  -3  10  -7    1.20    2.90
   3   9  -7    4.60    3.60
   3   9  -7    9.60    5.40
   3   9  -7   -4.80    4.10
   3   9  -7    4.00    4.30
  -3  -9   7   -2.10    3.70
   2   9  -7   14.30    2.90
   2   9  -7   13.50    3.20
   2   9  -7   10.70    5.20
  -2  -9   7   13.70    3.00
  -2  -9   7   13.60    4.40
  -2  -9   7   13.30    2.90
   1   9  -7    2.20    2.30
   1   9  -7    6.70    2.50
  -1  -9   7   10.10    2.40
   0   9  -7   13.40    4.40
   0   9  -7   12.50    2.00
  -1   9  -7  559.24   20.20
  -1   9  -7  529.25   17.80
   1  -9   7  539.15   17.30
  -2   9  -7   19.30    2.30
  -3   9  -7    3.70    2.00
   3   8  -7   23.80    3.50
   3   8  -7   28.40    5.00
   3   8  -7   22.60    4.00
  -3  -8   7   17.40    4.00
  -3  -8   7   19.90    2.50
  -3  -8   7   13.70    3.50
   2   8  -7    4.30    2.60
   2   8  -7   12.20    2.80
   2   8  -7    9.60    2.50
  -2  -8   7   10.50    2.40
  -2  -8   7    8.90    1.70
  -2  -8   7    8.00    2.60
  -2  -8   7   11.10    2.60
  -2  -8   7   17.30    3.50
   1   8  -7  108.59    5.60
   1   8  -7  110.29    5.50
   1   8  -7  110.49    5.40
   1   8  -7  111.99    6.90
  -1  -8   7  111.69    4.50
  -1  -8   7  112.69    5.30
  -1  -8   7  113.79    6.50
   0   8  -7  190.18    9.00
   0   8  -7  181.38    7.20
   0  -8   7  190.78    8.90
  -1   8  -7  163.48    8.20
  -1   8  -7  161.08    6.30
   1  -8   7  161.58    6.50
   1  -8   7  160.88    6.10
  -2   8  -7    7.50    1.60
  -2   8  -7    9.40    2.80
  -2   8  -7   10.30    3.20
  -3   8  -7  108.99    5.20
  -3   8  -7   96.19    7.40
   3  -8   7   98.69    7.80
  -4   8  -7   14.60    5.00
   4  -8   7   10.50    5.30
   4   7  -7   28.30    4.00
  -4  -7   7   23.00    3.30
  -4  -7   7   23.00    4.60
   3   7  -7   34.00    3.90
   3   7  -7   34.80    4.40
  -3  -7   7   42.70    4.40
  -3  -7   7   31.80    5.10
  -3  -7   7   36.90    3.60
  -3  -7   7   39.80    3.20
   2   7  -7  103.79    6.40
   2   7  -7  103.39    5.20
   2   7  -7  104.09    5.80
   2   7  -7  104.69    5.80
  -2  -7   7  111.69    5.50
  -2  -7   7  104.39    4.90
  -2  -7   7  101.69    5.60
  -2  -7   7  102.59    4.90
   1   7  -7  207.98    8.10
   1   7  -7  210.18    8.10
   1   7  -7  207.08    8.20
   1   7  -7  207.88    9.20
  -1  -7   7  216.08    7.90
   0   7  -7 1273.47   37.20
   0   7  -7 1223.58   37.00
   0   7  -7 1165.08   38.70
   0   7  -7 1230.68   37.30
   0  -7   7 1126.09   36.70
   0  -7   7 1211.18   36.40
  -1   7  -7   50.59    2.80
  -1   7  -7   47.60    4.40
   1  -7   7   47.00    2.80
  -2   7  -7    0.90    2.10
  -2   7  -7   -2.10    2.10
  -2   7  -7    1.10    1.10
   2  -7   7    1.90    2.40
   2  -7   7    2.30    2.00
   2  -7   7    0.40    1.70
  -3   7  -7  100.29    6.90
   3  -7   7  109.69    6.40
   3  -7   7  123.59    7.40
  -4   7  -7    7.70    4.50
   4  -7   7    2.90    5.50
  -4  -6   7    1.50    2.50
  -4  -6   7   -2.80    3.20
   3   6  -7   -0.60    1.90
   3   6  -7   -3.20    2.20
   3   6  -7   -0.90    2.60
  -3  -6   7   -0.70    2.20
  -3  -6   7   -1.50    2.00
  -3  -6   7    1.70    1.60
   2   6  -7    2.60    1.50
   2   6  -7   -1.60    1.90
   2   6  -7   -2.60    1.60
   2   6  -7    0.40    2.20
  -2  -6   7    0.00    1.10
  -2  -6   7    0.90    1.50
  -2  -6   7    3.40    2.10
  -2  -6   7    1.50    1.90
   1   6  -7  305.07   10.80
   1   6  -7  324.07   11.90
   1   6  -7  306.87   11.20
   1   6  -7  319.17   11.00
   1   6  -7  301.67    9.70
  -1  -6   7  332.77   10.80
   0   6  -7   96.59    5.10
   0   6  -7   85.19    3.80
   0  -6   7   89.29    3.10
   0  -6   7   92.29    3.90
   0  -6   7   91.49    3.50
  -1   6  -7   11.50    1.20
  -1   6  -7   14.30    1.70
  -1   6  -7   18.20    2.50
  -1   6  -7   12.00    1.30
   1  -6   7    9.60    2.30
  -2   6  -7  335.37   12.00
  -2   6  -7  328.47   12.00
  -2   6  -7  330.47   10.10
   2  -6   7  320.07   12.30
   2  -6   7  303.77   13.10
   2  -6   7  322.87   11.40
  -3   6  -7    0.40    2.40
   3  -6   7    0.50    2.90
   3  -6   7    7.00    2.30
   3  -6   7    7.30    2.40
  -4   6  -7   82.19    7.90
   4  -6   7   79.19    6.70
  -5  -5   7   58.59    6.30
   4   5  -7    8.40    2.60
  -4  -5   7    7.50    3.60
  -4  -5   7   10.50    4.10
   3   5  -7   70.09    4.70
   3   5  -7   64.99    3.80
   3   5  -7   71.39    5.00
   3   5  -7   66.99    5.10
  -3  -5   7   59.39    4.60
  -3  -5   7   60.29    3.80
  -3  -5   7   73.79    5.10
   2   5  -7  139.79    6.60
   2   5  -7  146.89    6.30
   2   5  -7  148.69    6.60
   2   5  -7  147.39    5.70
  -2  -5   7  142.59    5.80
  -2  -5   7  155.58    6.40
   1   5  -7   16.10    1.00
   1   5  -7   19.50    2.40
   1   5  -7   17.60    1.90
   1   5  -7   14.90    1.60
   1   5  -7   16.80    1.90
  -1  -5   7   15.70    1.60
   0   5  -7   17.20    1.60
   0   5  -7   16.40    2.10
   0   5  -7   17.10    1.50
   0  -5   7   20.50    2.40
   0  -5   7   18.60    1.20
   0  -5   7   19.20    1.70
   0  -5   7   18.80    1.20
  -1   5  -7  604.54   19.40
  -1   5  -7  599.24   17.70
  -1   5  -7  549.74   17.80
  -1   5  -7  599.34   17.90
  -1   5  -7  591.14   18.30
   1  -5   7  535.65   18.70
   1  -5   7  573.54   17.70
   1  -5   7  595.34   18.40
  -2   5  -7   73.49    2.70
  -2   5  -7   76.19    4.30
   2  -5   7   73.79    3.80
   2  -5   7   70.79    5.50
  -3   5  -7    5.00    2.20
  -3   5  -7    2.80    1.50
   3  -5   7    6.30    2.50
   3  -5   7    2.30    2.00
  -4   5  -7  118.39    7.20
  -4   5  -7  107.99    5.80
   4  -5   7  128.69    6.90
   4  -5   7  110.39    7.20
  -5  -4   7  118.89    8.60
   4   4  -7   10.00    2.40
  -4  -4   7   18.70    2.80
  -4  -4   7   12.70    3.50
  -4  -4   7   12.00    3.00
   3   4  -7    2.20    2.30
   3   4  -7    3.50    1.40
   3   4  -7    3.40    2.00
  -3  -4   7    2.30    2.00
  -3  -4   7    4.10    2.20
  -3  -4   7    1.90    1.40
   2   4  -7   73.69    3.90
   2   4  -7   72.79    3.90
   2   4  -7   77.59    4.30
   2   4  -7   69.49    2.80
   1   4  -7  266.07    9.00
   1   4  -7  263.77    9.50
   1   4  -7  259.37    8.10
  -1  -4   7  260.77    8.30
  -1  -4   7  261.17    8.60
   0   4  -7    0.10    0.70
   0   4  -7    0.40    0.90
   0   4  -7    0.20    1.30
   0  -4   7    0.00    0.60
   0  -4   7   -0.50    0.80
  -1   4  -7  639.04   19.90
  -1   4  -7  627.64   19.50
  -1   4  -7  648.94   19.60
   1  -4   7  659.93   20.00
   1  -4   7  662.33   19.70
   1  -4   7  614.24   20.30
   1  -4   7  614.14   19.50
  -2   4  -7    0.20    1.00
   2  -4   7    0.20    1.20
  -3   4  -7    0.00    2.00
  -3   4  -7    1.40    1.40
   3  -4   7    2.60    1.70
   3  -4   7    0.30    2.10
  -4   4  -7   37.30    4.00
  -4   4  -7   42.60    4.40
   4  -4   7   43.80    5.30
   4  -4   7   44.90    4.50
  -5   4  -7    0.90    3.60
  -5  -3   7    5.30    3.90
   4   3  -7   90.69    4.80
  -4  -3   7   89.09    4.00
  -4  -3   7   95.89    6.00
  -4  -3   7   89.69    5.10
   3   3  -7    1.80    1.50
   3   3  -7    2.90    1.90
   3   3  -7    3.50    1.30
   3   3  -7    5.10    1.80
  -3  -3   7    4.00    1.00
  -3  -3   7    3.80    0.90
   2   3  -7  105.29    3.90
   2   3  -7  105.99    4.80
   2   3  -7  107.69    4.10
  -2  -3   7  111.79    3.50
   1   3  -7  616.34   18.10
   1   3  -7  570.34   17.90
  -1  -3   7  568.24   18.20
  -1  -3   7  591.94   17.80
  -1  -3   7  584.44   18.10
   0   3  -7 1557.44   46.30
   0   3  -7 1590.34   46.40
   0   3  -7 1637.14   46.60
   0  -3   7 1545.95   46.40
   0  -3   7 1368.26   46.40
   0  -3   7 1509.25   46.20
  -1   3  -7   20.70    1.40
   1  -3   7   21.80    1.50
   1  -3   7   22.00    2.10
  -2   3  -7   85.79    4.20
   2  -3   7   86.29    3.90
   2  -3   7   83.59    4.30
  -3   3  -7  210.78    8.40
  -3   3  -7  214.38    8.00
   3  -3   7  214.68    8.40
   3  -3   7  205.58    8.20
  -4   3  -7    4.00    2.30
   4  -3   7    7.10    2.80
   4  -3   7    1.10    2.30
  -5   3  -7    6.40    3.40
   5  -3   7    2.30    4.50
  -5  -2   7   25.50    4.30
  -5  -2   7   33.10    3.30
   4   2  -7    3.20    1.90
   4   2  -7   10.70    3.00
  -4  -2   7    4.30    2.50
  -4  -2   7    3.50    2.70
  -4  -2   7    3.70    2.30
  -4  -2   7    3.50    2.10
   3   2  -7   22.10    2.20
   3   2  -7   13.00    2.20
   3   2  -7   21.50    2.90
  -3  -2   7   21.30    1.90
  -3  -2   7   22.80    2.00
  -3  -2   7   20.00    2.10
   2   2  -7   19.00    1.30
   2   2  -7   20.60    1.60
   2   2  -7   19.30    1.70
   2   2  -7   16.50    1.90
   2   2  -7   19.20    1.90
  -2  -2   7   20.60    1.80
  -2  -2   7   19.30    1.30
  -2  -2   7   16.90    2.00
   1   2  -7   54.39    2.60
   1   2  -7   55.19    2.00
   1   2  -7   55.29    2.10
  -1  -2   7   51.69    2.30
  -1  -2   7   54.49    2.50
  -1  -2   7   54.29    2.10
  -1  -2   7   53.09    2.10
   0   2  -7  402.66   11.90
   0   2  -7  350.06   11.70
   0   2  -7  370.66   11.70
   0  -2   7  379.66   11.80
   0  -2   7  376.56   11.80
  -1   2  -7   81.89    3.00
   1  -2   7   65.69    3.60
   1  -2   7   75.19    3.00
  -2   2  -7   93.29    4.20
   2  -2   7   91.99    4.00
  -3   2  -7   23.50    2.40
  -3   2  -7   24.30    2.50
   3  -2   7   21.70    2.30
  -4   2  -7  123.59    6.20
  -4   2  -7  131.59    6.60
   4  -2   7  122.59    6.30
   4  -2   7  119.99    6.30
   5  -2   7   39.70    4.50
   5  -2   7   34.10    5.80
  -5  -1   7   46.70    4.30
  -5  -1   7   36.40    4.70
  -5  -1   7   51.19    5.10
   4   1  -7    2.90    1.80
  -4  -1   7    3.40    2.30
  -4  -1   7    1.40    2.00
  -4  -1   7    2.80    2.10
  -4  -1   7    5.20    2.80
   3   1  -7   -1.80    1.50
  -3  -1   7    0.50    1.30
  -3  -1   7    2.70    1.20
  -3  -1   7    0.60    1.30
   2   1  -7   42.20    1.80
   2   1  -7   39.80    2.70
   2   1  -7   38.80    2.10
   2   1  -7   44.20    2.30
  -2  -1   7   43.80    2.20
  -2  -1   7   43.10    2.10
  -2  -1   7   41.00    2.40
   1   1  -7  180.68    6.50
   1   1  -7  188.78    6.20
   1   1  -7  191.18    6.40
  -1  -1   7  195.38    6.50
  -1  -1   7  193.98    6.20
  -1  -1   7  181.58    6.30
  -1  -1   7  192.38    5.80
   0   1  -7    2.60    1.00
   0   1  -7    3.60    0.60
   0   1  -7    2.60    0.50
   0   1  -7    3.20    0.40
   0  -1   7    2.90    0.60
   0  -1   7    3.10    0.70
   0  -1   7    3.30    0.40
   2  -1   7  204.88    7.40
  -3   1  -7    3.10    1.50
  -3   1  -7   -1.70    1.30
   3  -1   7    0.90    1.40
  -4   1  -7   58.79    4.40
   4  -1   7   55.99    5.10
   4  -1   7   47.80    4.40
  -5   1  -7  293.47   14.30
   5  -1   7  260.47   12.60
   5  -1   7  265.07   12.00
   5   0  -7    3.60    3.70
  -5   0   7    6.40    4.00
  -5   0   7    3.60    3.40
  -5   0   7   10.80    3.90
   4   0  -7   59.29    3.80
   4   0  -7   50.79    4.70
  -4   0   7   60.09    6.90
  -4   0   7   56.59    4.20
  -4   0   7   56.89    4.30
   3   0  -7   36.30    3.40
   3   0  -7   44.50    2.40
   3   0  -7   50.29    3.60
  -3   0   7   44.60    2.20
  -3   0   7   44.80    3.10
  -3   0   7   48.60    3.10
   2   0  -7  100.69    3.50
   2   0  -7  100.09    4.00
  -2   0   7  104.49    4.10
  -2   0   7   89.69    3.90
   1   0  -7   28.20    1.60
   1   0  -7   28.10    1.90
  -1   0   7   28.10    1.50
  -1   0   7   26.00    1.60
  -1   0   7   28.10    1.40
  -1   0   7   28.70    1.50
   0   0  -7  406.46   13.70
   0   0  -7  417.56   13.20
   0   0  -7  395.46   13.10
   0   0  -7  435.86   13.00
   0   0  -7  441.36   13.00
   0   0   7  411.46   13.30
   0   0   7  435.46   13.20
   0   0   7  441.86   13.20
   0   0   7  428.86   13.00
   1   0   7  466.15   14.30
  -2   0  -7   35.10    2.20
  -2   0  -7   34.80    2.30
   2   0   7   33.50    1.80
  -3   0  -7   10.10    1.70
  -3   0  -7   12.10    1.90
   3   0   7   14.60    1.90
   3   0   7   11.80    2.40
   3   0   7   13.90    1.70
  -4   0  -7  202.98    8.60
   4   0   7  193.28    8.10
   4   0   7  193.18    8.80
   5   0   7   26.10    7.70
   5  -1  -7   -7.00    3.20
   5  -1  -7   -3.70    3.80
  -5   1   7    1.10    3.30
   4  -1  -7    3.80    2.70
   4  -1  -7    5.80    2.60
   4  -1  -7    9.30    2.80
   4  -1  -7    6.90    2.10
  -4   1   7    6.90    2.40
  -4   1   7    8.70    2.30
   3  -1  -7   10.50    1.90
   3  -1  -7    9.30    2.00
  -3   1   7    8.30    1.90
  -3   1   7    8.90    1.20
  -3   1   7    7.60    1.90
   2  -1  -7   28.30    3.00
  -2   1   7   36.30    2.30
  -2   1   7   35.80    2.10
  -2   1   7   37.60    2.40
   1  -1  -7  400.16   12.00
   1  -1  -7  382.96   13.00
   1  -1  -7  412.16   12.40
  -1   1   7  391.96   12.20
  -1   1   7  396.06   12.30
  -1   1   7  376.86   12.50
   0  -1  -7  139.79    4.80
   0  -1  -7  139.39    4.40
   0  -1  -7  143.79    4.80
   0  -1  -7  134.79    4.70
   0   1   7  144.99    4.70
   0   1   7  134.49    5.00
   0   1   7  132.09    5.00
  -1  -1  -7  238.98    8.00
   1   1   7  245.28    7.60
  -2  -1  -7   16.20    1.80
  -2  -1  -7   17.30    1.60
   2   1   7   25.10    2.30
  -3  -1  -7   16.50    2.10
   3   1   7   20.20    2.80
  -4  -1  -7  266.07    9.80
   4   1   7  264.57   10.00
   4   1   7  254.17   12.10
  -5  -1  -7    3.40    3.50
   5  -2  -7    4.60    4.20
  -5   2   7    3.30    3.30
  -5   2   7    1.50    3.50
   4  -2  -7   19.30    4.20
   4  -2  -7   17.00    2.80
   4  -2  -7   23.30    3.30
  -4   2   7   23.30    3.20
   3  -2  -7    6.20    1.90
   3  -2  -7    5.60    1.90
   3  -2  -7    6.20    1.80
  -3   2   7    7.90    1.90
  -3   2   7    7.20    1.90
  -3   2   7    7.30    1.30
   2  -2  -7  173.08    6.60
   2  -2  -7  162.58    5.70
   2  -2  -7  173.18    6.70
  -2   2   7  170.28    5.90
  -2   2   7  172.28    6.60
  -2   2   7  178.18    6.30
   1  -2  -7  288.67    9.30
  -1   2   7  300.87    9.30
  -1   2   7  291.87    9.20
   0  -2  -7  211.48    6.90
   0  -2  -7  207.18    6.90
  -1  -2  -7    6.10    0.90
  -1  -2  -7    6.40    0.70
   1   2   7    6.90    1.00
   1   2   7    7.00    0.70
  -2  -2  -7  418.86   12.90
  -2  -2  -7  404.46   13.40
  -2  -2  -7  372.26   13.00
  -2  -2  -7  407.16   13.10
   2   2   7  388.66   14.10
   2   2   7  407.06   13.70
  -3  -2  -7 1345.57   41.40
  -3  -2  -7 1352.26   41.90
  -3  -2  -7 1357.76   42.40
   3   2   7 1354.26   41.90
   3   2   7 1335.57   42.50
  -4  -2  -7  184.18    7.20
  -4  -2  -7  190.78    8.70
   4   2   7  184.78    8.90
   5  -3  -7   10.20    4.40
  -5   3   7   12.10    4.40
   4  -3  -7    5.50    2.50
   4  -3  -7    2.00    2.80
   3  -3  -7   33.60    3.40
   3  -3  -7   34.00    3.10
   3  -3  -7   26.40    3.00
  -3   3   7   34.50    3.30
  -3   3   7   30.60    2.80
  -3   3   7   33.30    2.40
  -3   3   7   33.70    3.40
   2  -3  -7    3.60    1.40
  -2   3   7    1.80    0.70
  -2   3   7    1.60    1.20
  -2   3   7    1.80    1.30
   1  -3  -7   71.89    3.30
   1  -3  -7   72.89    2.90
  -1   3   7   67.29    2.40
   0  -3  -7   20.40    1.50
   0   3   7   22.90    3.30
  -1  -3  -7  117.99    4.30
  -1  -3  -7  110.99    4.10
  -1  -3  -7  110.19    4.20
  -1  -3  -7  110.89    4.20
  -1  -3  -7  116.09    3.80
   1   3   7  112.89    3.80
   1   3   7  113.79    4.70
   1   3   7  111.59    5.00
  -2  -3  -7  636.94   21.10
  -2  -3  -7  689.23   21.30
   2   3   7  701.13   22.00
   2   3   7  662.23   21.80
  -3  -3  -7    3.30    1.40
  -3  -3  -7    0.20    1.00
  -3  -3  -7    4.30    1.90
   3   3   7    4.40    2.20
   3   3   7    2.00    2.20
   3   3   7    1.60    2.10
  -4  -3  -7   54.19    5.00
  -4  -3  -7   54.19    4.60
   4   3   7   54.19    5.50
  -5  -3  -7   49.20    4.30
  -5   4   7   21.40    5.00
   4  -4  -7   15.40    3.40
   4  -4  -7   15.50    2.90
   4  -4  -7   23.00    3.90
  -4   4   7   16.40    3.50
   3  -4  -7  185.78    7.20
   3  -4  -7  187.98    8.10
   3  -4  -7  176.08    8.00
  -3   4   7  184.28    7.80
  -3   4   7  181.38    8.20
  -3   4   7  183.38    6.40
  -3   4   7  180.48    7.60
   2  -4  -7   51.29    3.40
   2  -4  -7   47.90    3.40
  -2   4   7   47.80    3.40
  -2   4   7   48.40    3.40
   1  -4  -7  208.38    7.60
   1  -4  -7  206.28    7.60
  -1   4   7  206.38    8.00
  -1   4   7  212.18    7.70
   0  -4  -7   53.89    2.60
   0  -4  -7   50.29    2.50
   0  -4  -7   51.09    2.70
   0   4   7   55.49    2.70
   0   4   7   50.69    3.30
  -1  -4  -7    3.90    1.00
  -1  -4  -7    3.40    1.00
  -1  -4  -7    4.40    1.00
  -1  -4  -7    3.60    1.00
  -1  -4  -7    4.30    1.00
  -1  -4  -7    3.50    1.10
   1   4   7    6.70    2.20
   1   4   7    5.40    1.40
   1   4   7    3.70    1.60
   1   4   7    4.50    0.90
  -2  -4  -7  758.82   24.10
  -2  -4  -7  760.52   23.60
  -2  -4  -7  770.22   24.40
   2   4   7  758.22   24.70
   2   4   7  770.22   25.10
  -3  -4  -7    0.70    2.50
  -3  -4  -7    2.90    1.10
   3   4   7    1.10    2.40
   3   4   7   -1.10    2.50
  -4  -4  -7   20.60    2.10
  -5   5   7    2.90    4.90
   4  -5  -7    6.80    3.90
   4  -5  -7    2.40    3.20
  -4   5   7    7.80    3.40
  -4   5   7    3.20    3.50
   3  -5  -7  322.17   12.70
   3  -5  -7  316.47   12.40
  -3   5   7  340.77   12.00
  -3   5   7  331.07   12.90
  -3   5   7  321.07   12.40
   2  -5  -7  153.98    6.80
   2  -5  -7  154.98    6.90
  -2   5   7  161.28    6.90
  -2   5   7  161.18    6.90
  -2   5   7  154.78    7.00
   1  -5  -7  322.27   11.10
   1  -5  -7  322.47   11.10
  -1   5   7  328.27   10.80
  -1   5   7  318.27   11.20
  -1   5   7  310.57   11.70
  -1   5   7  299.07   11.50
   0  -5  -7   92.59    4.00
   0  -5  -7   99.99    4.20
   0  -5  -7  101.09    4.30
   0   5   7  102.19    4.40
   0   5   7  101.39    5.40
  -1  -5  -7  314.67   10.40
  -1  -5  -7  311.37   10.60
  -1  -5  -7  310.77    9.90
  -1  -5  -7  326.07   10.80
   1   5   7  316.07   11.10
   1   5   7  323.17   12.00
  -2  -5  -7   15.60    1.50
  -2  -5  -7   18.30    2.30
   2   5   7   14.30    2.70
   2   5   7   15.00    2.40
   2   5   7   17.80    1.80
  -3  -5  -7    3.90    1.30
  -3  -5  -7    9.00    2.60
  -3  -5  -7    4.10    1.80
   3   5   7    6.50    2.80
   3   5   7    2.40    3.10
  -4   6   7    5.80    4.20
   3  -6  -7    9.50    3.50
   3  -6  -7   11.30    3.20
  -3   6   7   16.10    3.40
  -3   6   7   11.70    3.00
   2  -6  -7   25.50    3.10
   2  -6  -7   25.50    3.10
  -2   6   7   27.90    3.60
  -2   6   7   21.30    2.90
  -2   6   7   27.80    3.50
   1  -6  -7   15.20    2.20
   1  -6  -7   20.70    2.60
  -1   6   7   17.20    2.10
  -1   6   7   20.20    2.50
  -1   6   7   15.80    2.30
  -1   6   7   18.90    2.80
   0  -6  -7  216.78    7.60
   0  -6  -7  218.68    7.80
   0  -6  -7  211.68    7.90
   0   6   7  204.28    7.80
   0   6   7  209.98    9.10
   0   6   7  213.68    8.00
  -1  -6  -7   10.40    1.60
  -1  -6  -7    8.90    1.70
  -1  -6  -7    8.90    1.60
   1   6   7   12.30    1.80
   1   6   7   11.30    2.00
   1   6   7    6.90    4.00
  -2  -6  -7   24.70    2.60
  -2  -6  -7   19.30    2.00
  -2  -6  -7   21.10    2.70
   2   6   7   22.20    3.80
   2   6   7   19.70    2.90
   3   6   7  135.19    8.00
   4  -7  -7    3.40    4.80
  -4   7   7   -7.30    4.50
   3  -7  -7   51.09    4.90
   3  -7  -7   55.09    5.80
  -3   7   7   50.69    6.20
  -3   7   7   48.50    5.80
   2  -7  -7    1.30    2.20
  -2   7   7    3.60    2.70
  -2   7   7    0.10    2.70
  -2   7   7    2.50    2.30
   1  -7  -7   75.39    4.90
   1  -7  -7   83.99    4.80
  -1   7   7   92.89    5.40
  -1   7   7   88.99    4.90
  -1   7   7   83.49    4.60
  -1   7   7   84.39    6.00
   0  -7  -7  107.99    4.60
   0  -7  -7  104.39    4.90
   0  -7  -7   96.29    4.90
   0   7   7  100.09    6.40
   0   7   7  101.69    5.20
   0   7   7  103.09    5.00
  -1  -7  -7    1.50    1.60
  -1  -7  -7    0.70    1.50
   1   7   7    0.40    2.00
   1   7   7    0.50    2.80
  -2  -7  -7   35.20    3.30
   2   7   7   31.10    4.70
  -3  -7  -7   38.70    3.90
   3   7   7   32.80    5.70
   4  -8  -7   31.30    6.40
  -3   8   7   32.10    5.00
  -3   8   7   33.40    5.40
   2  -8  -7   38.70    4.20
   2  -8  -7   30.10    4.30
  -2   8   7   37.70    4.90
  -2   8   7   35.40    4.60
   1  -8  -7   18.40    4.30
  -1   8   7    8.30    3.50
  -1   8   7    9.50    3.70
  -1   8   7   10.10    2.90
   0  -8  -7   33.80    3.50
   0  -8  -7   42.30    3.90
   0   8   7   38.90    3.80
  -1  -8  -7    9.40    1.90
  -1  -8  -7    7.80    2.10
  -1  -8  -7    8.30    3.50
   1   8   7    7.40    3.60
   1   8   7    4.90    2.70
  -2  -8  -7   27.80    3.30
   2   8   7   24.60    5.00
  -3  -8  -7    8.90    3.80
   3   8   7   19.60    6.00
  -3   9   7   32.40    5.80
  -3   9   7   42.70    6.60
  -2   9   7   36.90    5.50
  -2   9   7   24.00    6.50
   0  -9  -7   23.60    4.00
  -2  10   7   -6.10    5.20
  -1 -11   8   37.30    4.80
   2  10  -8   25.20    6.70
   2  10  -8    7.80    3.50
  -2 -10   8   11.30    3.60
  -2 -10   8   20.90    5.60
   1  10  -8   67.19    9.50
  -1 -10   8   72.39    7.00
  -1 -10   8   60.09    5.20
   0  10  -8    6.40    3.40
   1 -10   8    2.60    1.70
  -2  10  -8   36.50    8.00
   2 -10   8   41.60    7.80
  -3  10  -8   16.80    3.00
   3   9  -8    7.50    3.60
   3   9  -8    3.10    4.50
   3   9  -8    7.60    4.30
   3   9  -8    5.90    5.20
  -3  -9   8    5.80    3.60
   2   9  -8   40.40    4.50
   2   9  -8   29.80    4.80
   2   9  -8   35.60    8.80
   2   9  -8   29.10    3.90
  -2  -9   8   40.80    5.30
  -2  -9   8   37.70    3.80
  -2  -9   8   30.30    4.30
   1   9  -8   32.50    3.40
   1   9  -8   30.20    3.30
  -1  -9   8   34.40    3.80
   0   9  -8   -1.40    3.50
   0   9  -8   -0.80    1.90
  -1   9  -8  256.07   11.60
  -1   9  -8  259.57    9.60
   1  -9   8  267.57    9.10
  -3   9  -8    3.10    2.10
   3   8  -8   70.89    7.10
   3   8  -8   60.29    6.70
   3   8  -8   68.19    5.30
  -3  -8   8   61.89    5.80
  -3  -8   8   63.69    6.70
   2   8  -8   15.80    3.40
   2   8  -8   13.50    2.40
   2   8  -8   12.50    3.00
  -2  -8   8   14.70    2.80
  -2  -8   8   17.10    3.60
  -2  -8   8   10.90    2.40
  -2  -8   8   13.30    3.00
  -2  -8   8   15.80    2.10
   1   8  -8    0.30    2.60
   1   8  -8    0.30    2.10
   1   8  -8   -1.90    1.70
  -1  -8   8   -1.00    2.80
  -1  -8   8    1.60    1.40
   0   8  -8  422.36   15.90
   0   8  -8  413.46   14.10
   0  -8   8  414.86   15.60
  -1   8  -8   22.00    2.50
  -1   8  -8   23.70    3.60
   1  -8   8   20.00    2.00
  -2   8  -8   43.00    3.20
  -2   8  -8   50.79    5.00
  -2   8  -8   45.20    5.30
   2  -8   8   40.40    4.20
   2  -8   8   50.79    3.80
  -3   8  -8   11.20    3.50
  -3   8  -8    5.80    2.00
   3  -8   8    2.00    3.50
   3  -8   8    8.10    4.30
  -4   8  -8   -6.50    4.50
   4  -8   8    1.60    5.40
   4   7  -8    0.20    3.80
  -4  -7   8   -4.10    2.70
  -4  -7   8   -0.30    3.80
   3   7  -8   -1.00    3.00
   3   7  -8    5.10    3.50
   3   7  -8   -1.10    2.30
  -3  -7   8    3.10    2.40
  -3  -7   8    4.40    3.30
  -3  -7   8    5.50    3.00
  -3  -7   8    6.20    1.80
   2   7  -8    4.30    1.80
   2   7  -8    3.90    2.70
   2   7  -8    1.40    2.10
   2   7  -8   -0.50    2.20
  -2  -7   8    0.70    2.30
  -2  -7   8    3.20    1.70
  -2  -7   8    2.60    1.10
  -2  -7   8    2.10    2.00
   1   7  -8    2.50    1.70
   1   7  -8    3.90    1.80
   1   7  -8    3.50    2.40
   1   7  -8    6.90    1.60
  -1  -7   8    5.30    1.60
   0   7  -8  658.93   20.90
   0   7  -8  621.04   22.30
   0   7  -8  638.14   20.60
   0   7  -8  662.23   21.00
   0  -7   8  652.73   20.10
   0  -7   8  694.83   20.30
  -1   7  -8  549.05   17.90
  -1   7  -8  565.34   19.50
   1  -7   8  557.04   17.70
  -2   7  -8   25.60    3.30
  -2   7  -8   20.10    2.10
  -2   7  -8   21.30    3.10
   2  -7   8   24.00    2.60
   2  -7   8   24.60    3.60
   2  -7   8   20.00    2.50
  -3   7  -8    3.60    3.30
   3  -7   8    1.10    3.60
   4   6  -8   -1.60    2.80
  -4  -6   8    3.80    2.60
  -4  -6   8    3.80    3.50
   3   6  -8   41.80    3.40
   3   6  -8   36.90    4.10
   3   6  -8   40.60    4.60
  -3  -6   8   40.20    3.20
  -3  -6   8   39.30    3.70
  -3  -6   8   47.00    4.30
   2   6  -8    5.60    1.90
   2   6  -8    4.40    1.60
   2   6  -8    2.90    2.10
   2   6  -8    4.50    2.20
  -2  -6   8    5.00    2.20
  -2  -6   8    3.60    1.60
  -2  -6   8    4.50    2.10
  -2  -6   8    6.90    2.30
  -2  -6   8    3.40    1.10
   1   6  -8 1318.27   40.50
   1   6  -8 1293.67   40.30
   1   6  -8 1318.77   40.80
   1   6  -8 1279.17   39.20
   1   6  -8 1286.47   41.40
  -1  -6   8 1334.97   40.30
   0   6  -8    0.90    1.60
   0   6  -8   -0.20    0.80
   0   6  -8    0.40    1.20
   0  -6   8    0.20    0.70
  -1   6  -8  405.16   14.40
  -1   6  -8  370.46   12.30
  -1   6  -8  410.16   12.60
  -1   6  -8  404.36   13.00
   1  -6   8  416.86   13.10
   1  -6   8  388.06   13.60
  -2   6  -8  324.57   11.10
  -2   6  -8  333.87   10.20
  -2   6  -8  319.87   11.90
   2  -6   8  323.67   12.60
   2  -6   8  323.27   11.40
  -3   6  -8   16.70    3.10
   3  -6   8    8.50    3.10
   3  -6   8   14.10    2.60
  -4   6  -8    4.20    3.50
   4  -6   8    5.90    4.30
  -5  -5   8   -0.30    4.50
   4   5  -8   19.50    2.90
  -4  -5   8   18.00    3.80
  -4  -5   8   20.80    4.10
   3   5  -8   30.00    3.60
   3   5  -8   46.10    3.20
   3   5  -8   44.40    4.20
  -3  -5   8   37.90    3.90
  -3  -5   8   37.40    3.30
  -3  -5   8   48.40    4.60
   2   5  -8  577.34   19.20
   2   5  -8  567.84   19.30
   2   5  -8  598.14   18.50
   2   5  -8  573.64   19.60
  -2  -5   8  563.74   18.70
   1   5  -8  235.38    7.40
   1   5  -8  238.28    8.20
   1   5  -8  239.98    8.80
   1   5  -8  229.98    8.40
   1   5  -8  238.98    9.20
   0   5  -8    0.20    0.90
   0   5  -8   -0.20    0.70
   0   5  -8   -0.50    1.30
   0  -5   8    0.50    0.70
   0  -5   8   -0.10    1.10
  -1   5  -8  107.09    3.80
  -1   5  -8  111.89    4.30
  -1   5  -8  118.19    4.10
  -1   5  -8  113.09    5.30
  -1   5  -8  113.99    3.80
   1  -5   8  106.69    3.90
   1  -5   8   98.99    5.40
   1  -5   8  115.79    4.40
   1  -5   8   99.89    5.00
  -2   5  -8   64.99    4.00
  -2   5  -8   55.29    2.60
   2  -5   8   57.39    3.40
   2  -5   8   62.59    4.30
  -3   5  -8   16.20    2.60
  -3   5  -8   17.40    2.00
   3  -5   8   17.30    3.00
  -4   5  -8    8.90    3.40
  -4   5  -8    5.10    2.30
   4  -5   8    9.30    3.00
   4  -5   8    5.70    3.80
  -5  -4   8   -4.10    4.10
   4   4  -8  126.39    5.70
  -4  -4   8  122.79    7.90
  -4  -4   8  110.69    6.90
  -4  -4   8  124.99    6.30
   3   4  -8   14.80    1.80
   3   4  -8   15.20    2.70
   3   4  -8   12.10    2.60
  -3  -4   8   15.10    2.70
  -3  -4   8   15.10    2.60
  -3  -4   8   11.00    2.00
   2   4  -8  253.57   10.00
   2   4  -8  281.87   10.00
   2   4  -8  266.07    8.60
  -2  -4   8  279.07    9.40
   1   4  -8  152.38    6.20
   1   4  -8  155.78    5.70
  -1  -4   8  142.79    5.20
   0   4  -8   17.80    1.40
   0   4  -8   18.10    2.10
   0  -4   8   18.30    1.70
   0  -4   8   15.30    1.30
  -1   4  -8  468.15   14.50
  -1   4  -8  482.65   15.00
  -1   4  -8  495.35   14.70
   1  -4   8  478.25   15.00
   1  -4   8  442.46   14.70
   1  -4   8  466.15   16.00
  -2   4  -8   81.79    3.70
   2  -4   8   85.79    6.70
   2  -4   8   93.49    4.10
  -3   4  -8   14.70    2.40
  -3   4  -8   14.80    1.90
   3  -4   8   14.10    2.70
   3  -4   8   14.70    2.40
  -4   4  -8   28.10    3.80
  -4   4  -8   24.90    3.00
   4  -4   8   27.10    3.90
  -5   4  -8   -3.60    3.40
   5  -4   8    3.50    3.90
  -5  -3   8   11.10    4.20
   4   3  -8   94.79    6.40
   4   3  -8   92.39    4.70
  -4  -3   8   95.79    7.50
  -4  -3   8   96.39    6.20
  -4  -3   8   93.89    5.30
  -4  -3   8   90.29    4.10
   3   3  -8  402.26   14.90
   3   3  -8  396.46   14.60
   3   3  -8  404.16   13.50
  -3  -3   8  412.26   12.80
  -3  -3   8  410.16   15.90
  -3  -3   8  407.56   12.80
  -3  -3   8  436.76   13.30
   2   3  -8   39.40    2.10
   2   3  -8   35.60    2.80
   2   3  -8   40.70    2.70
   2   3  -8   39.90    2.80
  -2  -3   8   41.80    1.70
   1   3  -8  395.16   11.90
   1   3  -8  376.36   11.70
  -1  -3   8  373.46   11.90
  -1  -3   8  367.96   11.90
   0   3  -8 3262.87   99.99
   0   3  -8 3401.26  100.19
   0  -3   8 3367.16  100.09
   0  -3   8 3307.77   99.89
  -1   3  -8   61.19    2.40
  -1   3  -8   53.99    2.30
   1  -3   8   50.99    2.40
   1  -3   8   52.79    3.10
  -2   3  -8    8.30    1.70
   2  -3   8    5.20    1.70
   2  -3   8    5.70    1.30
  -3   3  -8  123.19    5.40
  -3   3  -8  131.29    6.10
   3  -3   8  123.79    6.20
   3  -3   8  123.99    5.70
  -4   3  -8    4.70    2.30
  -4   3  -8    0.70    3.80
   4  -3   8    0.60    2.80
   4  -3   8    2.10    2.40
  -5   3  -8    0.90    3.60
   5   2  -8   37.00    7.40
  -5  -2   8   38.20    5.50
  -5  -2   8   58.59    4.70
  -5  -2   8   53.39    5.50
   4   2  -8   32.40    3.10
   4   2  -8   35.40    4.10
  -4  -2   8   33.30    3.80
  -4  -2   8   27.60    3.90
  -4  -2   8   35.10    3.60
   3   2  -8   42.00    3.50
   3   2  -8   35.60    3.40
   3   2  -8   43.80    3.00
  -3  -2   8   36.10    2.60
  -3  -2   8   38.30    2.40
  -3  -2   8   36.10    3.30
   2   2  -8  226.28    7.40
   2   2  -8  204.18    7.40
   2   2  -8  230.88    7.10
   2   2  -8  208.68    8.20
  -2  -2   8  225.98    7.20
   1   2  -8  376.16   11.60
   1   2  -8  387.96   11.80
  -1  -2   8  364.66   12.10
  -1  -2   8  367.36   11.60
  -1  -2   8  376.76   11.50
  -1  -2   8  364.06   11.70
   0   2  -8    2.80    0.60
   0  -2   8    2.40    0.70
   0  -2   8    4.60    0.80
  -1   2  -8    3.00    0.90
  -2   2  -8  190.58    7.20
   2  -2   8  198.08    7.10
  -3   2  -8   13.00    2.00
  -3   2  -8   13.50    2.10
   3  -2   8   13.80    2.10
   3  -2   8   11.80    2.40
  -4   2  -8    0.10    2.30
   4  -2   8    2.00    2.40
   4  -2   8   -1.80    2.60
   5  -2   8   29.00    7.60
   5  -2   8   28.50    4.50
  -5  -1   8   24.00    4.50
  -5  -1   8   14.60    3.30
  -5  -1   8   29.20    6.10
   4   1  -8    0.40    2.70
   4   1  -8    0.30    1.70
  -4  -1   8   -0.30    2.10
  -4  -1   8   -3.60    1.80
  -4  -1   8    2.10    2.30
   3   1  -8    0.90    1.70
   3   1  -8    3.80    1.90
   3   1  -8   -1.00    0.90
  -3  -1   8    1.50    1.50
  -3  -1   8    0.80    1.40
  -3  -1   8    0.50    1.40
  -3  -1   8   -0.50    1.40
   2   1  -8   51.19    3.20
   2   1  -8   56.69    3.10
   2   1  -8   52.19    2.00
   2   1  -8   46.60    2.60
  -2  -1   8   52.39    2.40
   1   1  -8 2251.17   66.79
   1   1  -8 2292.67   66.89
   1   1  -8 2160.88   67.19
  -1  -1   8 2183.38   66.69
  -1  -1   8 2193.48   66.99
  -1  -1   8 2243.78   66.69
   0   1  -8   96.09    3.10
   0  -1   8   94.29    3.00
   0  -1   8   91.99    3.40
   0  -1   8   82.09    3.80
   0  -1   8   88.39    3.30
  -1   1  -8    4.50    0.60
  -2   1  -8  245.48    8.60
  -2   1  -8  247.98    8.70
   2  -1   8  250.67    8.70
  -3   1  -8   80.89    4.30
  -3   1  -8   86.69    4.30
   3  -1   8   81.29    4.30
  -4   1  -8    4.70    2.50
  -4   1  -8    0.90    2.30
   4  -1   8    1.70    4.20
   4  -1   8   -2.20    2.60
   4  -1   8    0.90    2.30
   5  -1   8    6.20    3.90
   5  -1   8    7.40    5.10
   5   0  -8   78.39    7.00
  -5   0   8   81.49    6.30
  -5   0   8   71.19    6.20
   4   0  -8    4.00    1.90
   4   0  -8    1.10    2.50
   4   0  -8    3.40    2.50
  -4   0   8   -1.70    2.20
  -4   0   8    0.20    2.00
   3   0  -8   16.30    1.60
   3   0  -8   14.10    2.20
   3   0  -8   12.40    2.30
   3   0  -8   13.50    2.00
  -3   0   8   13.90    2.10
  -3   0   8   15.20    1.70
  -3   0   8   18.30    2.30
   2   0  -8  167.58    5.40
   2   0  -8  169.48    6.30
   2   0  -8  167.08    6.50
  -2   0   8  172.68    6.20
  -2   0   8  170.38    6.40
  -2   0   8  168.08    6.30
   1   0  -8   62.49    3.80
  -1   0   8   72.89    2.90
  -1   0   8   74.09    2.80
  -1   0   8   72.99    2.80
   0   0  -8  358.26   10.60
   0   0  -8  358.36   10.80
   0   0  -8  319.87   10.80
   0   0   8  348.17   10.60
   0   0   8  354.16   10.80
   0   0   8  319.57   11.00
   1   0   8  567.14   17.40
  -2   0  -8    0.60    0.80
  -2   0  -8    0.40    0.80
   2   0   8   -0.60    1.10
   2   0   8    0.20    0.90
  -3   0  -8    1.70    1.50
  -3   0  -8    5.50    1.50
   3   0   8    2.90    1.60
   3   0   8    1.10    1.70
  -4   0  -8  126.49    6.70
   4   0   8  126.79    6.20
   4   0   8  124.29    9.10
   5   0   8    4.30    6.60
   5  -1  -8   16.10    4.00
  -5   1   8   11.50    4.40
  -5   1   8   12.20    3.70
   4  -1  -8   13.90    2.20
   4  -1  -8    9.90    2.70
   4  -1  -8   17.80    3.20
   4  -1  -8    7.90    2.70
  -4   1   8   14.70    3.10
  -4   1   8   16.60    3.30
   3  -1  -8   21.40    2.50
   3  -1  -8   28.40    3.00
  -3   1   8   25.10    2.00
  -3   1   8   30.90    3.00
  -3   1   8   17.70    2.30
   2  -1  -8  243.88   11.60
   2  -1  -8  299.47    9.20
  -2   1   8  299.57   10.30
  -2   1   8  315.67   10.30
  -2   1   8  306.17    9.80
   1  -1  -8  101.59    3.40
   1  -1  -8  103.19    3.80
  -1   1   8  102.29    3.60
  -1   1   8  101.49    3.40
   0  -1  -8 1224.18   38.70
   0  -1  -8 1264.97   39.00
   0  -1  -8 1263.67   38.80
   0  -1  -8 1306.37   38.40
   0   1   8 1333.97   38.70
  -1  -1  -8  397.16   13.40
   1   1   8  443.76   13.00
  -2  -1  -8   38.10    2.30
  -2  -1  -8   41.20    2.20
   2   1   8   37.70    2.90
   2   1   8   37.30    1.60
   2   1   8   39.10    1.50
  -3  -1  -8   37.00    2.70
  -3  -1  -8   34.60    3.20
   3   1   8   36.70    2.90
   3   1   8   31.50    3.60
   3   1   8   32.50    3.40
  -4  -1  -8   33.00    3.70
   4   1   8   36.00    3.40
   4   1   8   28.40    3.80
   5   1   8   15.50    6.10
   5  -2  -8   27.70    4.30
  -5   2   8   19.30    4.00
  -5   2   8   28.60    4.50
   4  -2  -8   32.70    3.70
   4  -2  -8   30.00    3.80
   4  -2  -8   43.60    4.40
  -4   2   8   40.10    4.00
   3  -2  -8  112.49    5.80
   3  -2  -8  107.99    5.40
  -3   2   8  106.59    4.40
  -3   2   8   95.19    5.00
  -3   2   8  109.29    5.40
   2  -2  -8   17.80    1.40
   2  -2  -8   22.90    2.30
   2  -2  -8   18.80    2.10
  -2   2   8   20.90    2.10
  -2   2   8   19.80    1.50
  -2   2   8   19.60    2.10
   1  -2  -8   20.80    1.40
  -1   2   8   24.20    1.20
  -1   2   8   23.80    1.30
   0  -2  -8   15.40    0.70
  -1  -2  -8    7.20    0.90
  -1  -2  -8    6.50    0.70
  -1  -2  -8    8.90    1.60
  -1  -2  -8    5.70    1.00
  -1  -2  -8    6.80    0.90
   1   2   8    5.80    0.80
  -2  -2  -8   49.80    3.10
  -2  -2  -8   50.19    3.00
  -2  -2  -8   50.89    2.70
   2   2   8   50.69    3.40
  -3  -2  -8   71.19    3.40
  -3  -2  -8   70.19    4.40
  -3  -2  -8   68.49    3.80
   3   2   8   65.19    4.30
   3   2   8   63.89    4.30
   3   2   8   65.49    5.10
  -4  -2  -8   28.70    3.20
  -4  -2  -8   32.50    3.80
   4   2   8   33.00    4.20
  -5  -2  -8   32.80    4.70
   5  -3  -8    6.80    4.80
   4  -3  -8    0.10    2.50
   4  -3  -8    3.00    3.00
  -4   3   8   -0.60    2.80
   3  -3  -8    8.60    2.10
   3  -3  -8    8.70    2.50
   3  -3  -8   10.80    2.00
  -3   3   8    8.70    2.40
  -3   3   8    5.40    1.80
  -3   3   8    9.30    1.40
   2  -3  -8   52.09    3.40
   2  -3  -8   56.39    3.50
  -2   3   8   57.59    3.40
  -2   3   8   52.79    3.30
   1  -3  -8  265.67    9.20
  -1   3   8  265.17    8.20
  -1   3   8  257.67    9.80
  -1   3   8  276.17    9.30
   0  -3  -8   19.70    1.60
   0   3   8   19.70    2.20
   0   3   8   23.00    2.70
  -1  -3  -8    3.20    1.00
  -1  -3  -8    3.90    1.00
  -1  -3  -8    1.90    1.00
  -1  -3  -8    2.70    0.70
  -1  -3  -8    3.00    0.80
  -1  -3  -8    5.30    1.00
   1   3   8    3.70    1.60
   1   3   8    3.40    1.50
   1   3   8    2.70    1.20
   1   3   8    3.60    0.80
  -2  -3  -8  596.94   18.80
  -2  -3  -8  528.95   18.60
  -2  -3  -8  579.14   18.80
  -2  -3  -8  607.14   19.20
   2   3   8  594.34   19.60
   2   3   8  595.94   19.70
   2   3   8  609.44   19.50
  -3  -3  -8  527.75   17.50
  -3  -3  -8  526.85   18.00
  -3  -3  -8  547.15   17.00
   3   3   8  530.35   18.10
   3   3   8  516.85   17.80
   3   3   8  522.15   18.30
  -4  -3  -8   36.00    4.50
   4   3   8   22.50    4.00
  -5   4   8   17.50    5.00
   4  -4  -8    7.00    4.00
   4  -4  -8    2.10    3.00
   4  -4  -8    3.50    2.70
   3  -4  -8   21.20    2.90
   3  -4  -8   20.70    2.40
   3  -4  -8   21.40    3.00
  -3   4   8   16.50    2.60
  -3   4   8   23.70    2.70
  -3   4   8   30.10    3.70
  -3   4   8   19.90    1.90
   2  -4  -8  166.68    7.40
  -2   4   8  159.58    6.60
  -2   4   8  152.58    6.50
  -2   4   8  150.98    6.70
   1  -4  -8    8.30    1.40
   1  -4  -8   17.30    2.00
  -1   4   8   14.10    2.10
  -1   4   8   14.50    1.80
   0  -4  -8    1.00    0.90
   0  -4  -8    1.90    0.80
   0   4   8   -0.60    1.30
   0   4   8    0.30    1.40
   0   4   8    0.20    1.00
  -1  -4  -8   79.29    3.10
  -1  -4  -8   76.89    3.40
  -1  -4  -8   72.99    3.40
  -1  -4  -8   73.79    3.10
   1   4   8   82.79    4.50
   1   4   8   84.19    4.70
   1   4   8   83.29    4.00
  -2  -4  -8  232.18    8.00
  -2  -4  -8  230.78    8.40
  -2  -4  -8  240.48    8.80
   2   4   8  234.58    9.50
   2   4   8  237.58    9.10
   2   4   8  245.08    9.40
   3   4   8    5.40    2.90
   3   4   8    5.30    2.70
  -4  -4  -8   20.40    2.10
   4   4   8   19.00    4.10
  -4   5   8   18.50    3.90
   3  -5  -8   11.10    2.20
   3  -5  -8    9.60    2.70
   3  -5  -8   11.50    3.10
  -3   5   8   11.40    2.70
  -3   5   8    5.20    2.50
  -3   5   8    7.20    2.60
   2  -5  -8  195.38    8.00
   2  -5  -8  190.88    8.10
  -2   5   8  194.48    8.20
  -2   5   8  191.68    7.90
  -2   5   8  196.08    8.20
   1  -5  -8    2.00    1.30
   1  -5  -8    3.00    1.40
  -1   5   8    2.70    1.90
  -1   5   8    4.70    1.80
  -1   5   8    0.80    1.20
  -1   5   8    1.20    1.40
   0  -5  -8  327.67   10.60
   0  -5  -8  312.27   10.70
   0  -5  -8  318.77   10.80
   0   5   8  312.67   10.80
   0   5   8  303.27   11.80
  -1  -5  -8  709.93   22.00
  -1  -5  -8  684.43   21.70
  -1  -5  -8  689.03   21.90
   1   5   8  694.43   23.30
   1   5   8  681.33   22.40
  -2  -5  -8   55.39    3.40
  -2  -5  -8   57.79    3.70
  -2  -5  -8   55.09    2.90
   2   5   8   57.09    4.80
   2   5   8   53.69    4.00
   2   5   8   56.99    4.00
  -3  -5  -8    0.60    1.30
   3   5   8   -3.00    2.60
   3   5   8    0.40    3.10
  -4   6   8    9.10    4.30
   3  -6  -8   48.80    5.00
  -3   6   8   59.09    5.60
  -3   6   8   43.80    5.10
  -3   6   8   48.70    4.70
   2  -6  -8   58.69    4.70
   2  -6  -8   67.09    4.70
  -2   6   8   63.99    4.80
  -2   6   8   61.89    4.50
  -2   6   8   65.79    4.90
   1  -6  -8    7.00    1.90
   1  -6  -8   11.40    1.80
  -1   6   8   10.40    2.10
  -1   6   8   14.10    2.00
  -1   6   8    9.30    2.70
  -1   6   8   13.10    2.30
   0  -6  -8   45.50    3.50
   0  -6  -8   42.80    2.90
   0  -6  -8   50.29    2.90
   0   6   8   52.09    4.50
   0   6   8   43.20    3.20
   0   6   8   46.90    3.20
  -1  -6  -8  234.28    8.30
  -1  -6  -8  233.08    8.10
  -1  -6  -8  218.58    9.30
   1   6   8  221.98    8.80
   1   6   8  227.98    9.80
  -2  -6  -8   28.10    2.40
   2   6   8   16.80    4.00
   2   6   8   35.50    4.10
   3   6   8   24.40    4.20
   3   6   8   29.00    7.20
  -4   7   8    7.70    4.90
  -3   7   8   16.20    3.90
  -3   7   8   16.90    3.90
   2  -7  -8    4.10    2.90
   2  -7  -8    9.90    3.00
  -2   7   8    6.70    3.20
  -2   7   8    4.70    2.80
  -2   7   8    4.50    2.50
   1  -7  -8   57.99    4.30
   1  -7  -8   64.19    3.80
  -1   7   8   62.69    4.80
  -1   7   8   60.09    5.50
  -1   7   8   54.19    3.90
  -1   7   8   60.19    4.30
   0  -7  -8  136.09    5.70
   0   7   8  147.79    7.70
   0   7   8  136.09    6.10
   0   7   8  142.09    6.20
  -1  -7  -8   17.10    2.60
  -1  -7  -8   24.10    2.30
  -2  -7  -8  135.19    6.00
  -2  -7  -8  126.89    5.10
  -2  -7  -8  128.89    6.20
   2   7   8  127.79    7.00
   2   7   8  121.59    8.00
  -3  -7  -8   59.29    6.20
   3   7   8   53.19    6.40
   4  -8  -8   11.60    6.30
  -3   8   8    4.10    4.30
  -3   8   8    6.70    4.60
  -2   8   8    0.20    3.60
  -2   8   8   -3.50    3.70
  -1   8   8   93.19    7.20
   0   8   8    1.70    2.30
  -1  -8  -8   20.90    2.40
  -1  -8  -8   17.90    2.60
   1   8   8   19.20    4.40
   1   8   8   17.60    3.40
  -2  -8  -8   57.29    6.80
   2   8   8   75.09    5.90
   2   8   8   66.39    7.30
  -3  -8  -8   14.80    3.80
  -3   9   8   24.60    7.20
  -3   9   8   19.50    6.00
  -2   9   8    3.50    4.40
   0  -9  -8    5.10    2.50
   0   9   8    0.30    3.10
  -1 -11   9   25.10    4.30
   0  11  -9    8.50    3.90
  -1  11  -9   54.99    5.50
   2  10  -9   32.70    4.90
   2  10  -9   26.50    7.50
  -2 -10   9   45.90    7.70
  -2 -10   9   26.80    4.20
   1  10  -9   13.10    3.20
   1  10  -9    8.40    4.80
  -1 -10   9    9.30    3.30
  -1 -10   9    6.30    4.70
   0  10  -9    0.10    2.50
  -1  10  -9   35.20    3.90
   1 -10   9   29.00    2.70
  -2  10  -9   87.69   10.10
  -2  10  -9   88.29    5.30
  -3  10  -9   18.60    3.00
   3   9  -9   15.20    5.00
   3   9  -9    4.80    4.30
   3   9  -9    4.50    3.60
  -3  -9   9    8.30    3.80
   2   9  -9   25.00    4.10
   2   9  -9   26.70    3.60
   2   9  -9   25.20    3.80
  -2  -9   9   25.10    5.20
   1   9  -9    0.60    3.50
   1   9  -9    4.80    2.70
   1   9  -9    5.90    2.50
  -1  -9   9    5.00    2.00
  -1  -9   9    8.30    4.00
  -1  -9   9   12.30    3.30
   0   9  -9    2.10    3.60
   0   9  -9    1.50    1.80
  -1   9  -9   57.29    3.80
  -1   9  -9   49.99    5.70
   1  -9   9   53.89    3.30
  -2   9  -9    1.90    1.70
  -3   9  -9    4.80    2.40
   3   8  -9  111.39    8.40
   3   8  -9  141.59    8.40
   3   8  -9  133.09    7.00
  -3  -8   9  124.09    7.30
  -3  -8   9  137.09    8.50
   2   8  -9   84.99    7.40
   2   8  -9   79.49    5.90
   2   8  -9   88.79    5.20
  -2  -8   9   87.59    6.60
  -2  -8   9   75.39    5.20
  -2  -8   9   94.59    5.50
  -2  -8   9   90.19    5.10
   1   8  -9   25.30    3.20
   1   8  -9   28.40    4.00
   1   8  -9   27.70    2.90
  -1  -8   9   25.60    3.70
  -1  -8   9   32.80    3.30
   0   8  -9  113.19    6.80
   0   8  -9  106.79    5.10
   0  -8   9  110.29    3.70
   0  -8   9  108.09    7.00
  -1   8  -9    3.50    1.40
  -1   8  -9    0.80    2.60
  -2   8  -9    7.40    2.80
  -2   8  -9    7.10    1.80
  -2   8  -9    1.40    2.90
  -3   8  -9    8.90    3.80
  -3   8  -9   10.50    2.30
   3  -8   9    9.90    4.70
  -4   8  -9   38.30    5.90
   4  -8   9   33.00    6.10
  -4  -7   9  120.69    8.30
   3   7  -9    5.00    2.50
   3   7  -9   -0.50    3.20
  -3  -7   9    0.30    2.80
  -3  -7   9    0.70    3.50
  -3  -7   9   -1.20    2.40
   2   7  -9   -0.30    2.00
   2   7  -9    1.00    1.70
   2   7  -9    2.80    2.40
   2   7  -9   -0.70    2.50
  -2  -7   9   -2.20    1.80
  -2  -7   9   -1.50    1.70
  -2  -7   9    3.00    2.40
  -2  -7   9    2.20    1.10
   1   7  -9  201.48    8.30
   1   7  -9  203.28    9.20
   1   7  -9  203.38    8.00
  -1  -7   9  208.48    7.90
   0   7  -9   21.40    2.30
   0   7  -9   21.10    3.10
   0   7  -9   25.20    2.70
   0   7  -9   20.10    2.10
  -1   7  -9   13.40    2.00
  -1   7  -9   17.00    2.90
  -1   7  -9   17.10    1.80
   1  -7   9   16.90    1.70
  -2   7  -9   57.09    4.80
  -2   7  -9   61.19    3.50
   2  -7   9   65.59    4.00
   2  -7   9   70.49    4.20
   2  -7   9   65.39    4.90
  -3   7  -9   33.90    4.30
  -4  -6   9   10.80    2.90
  -4  -6   9    7.30    3.40
   3   6  -9    5.40    2.10
   3   6  -9   14.80    3.70
  -3  -6   9    8.80    1.70
  -3  -6   9    6.90    2.20
  -3  -6   9    9.20    2.80
   2   6  -9    3.80    2.30
   2   6  -9    2.30    1.70
   2   6  -9    6.50    1.60
   2   6  -9    2.30    2.30
  -2  -6   9    2.20    1.60
  -2  -6   9    6.30    2.00
  -2  -6   9    2.30    1.80
  -2  -6   9   -1.30    2.00
  -2  -6   9    2.80    2.10
   1   6  -9  712.03   23.30
   1   6  -9  714.03   22.10
   1   6  -9  733.03   23.60
   1   6  -9  731.43   24.30
  -1  -6   9  713.03   22.90
  -1  -6   9  757.22   23.20
   0   6  -9  548.25   19.10
   0   6  -9  568.94   17.60
   0  -6   9  557.44   17.00
   0  -6   9  548.35   17.50
   0  -6   9  540.05   17.10
   0  -6   9  566.24   17.00
  -1   6  -9   86.19    3.10
  -1   6  -9   84.49    3.80
  -1   6  -9   86.19    5.00
  -1   6  -9   90.89    3.60
   1  -6   9   85.59    3.20
   1  -6   9   87.59    3.80
   1  -6   9   82.79    4.90
  -2   6  -9  329.67   10.30
  -2   6  -9  324.37   11.10
  -2   6  -9  313.47   11.80
   2  -6   9  322.27   12.60
   2  -6   9  325.07   11.40
  -3   6  -9    5.20    2.70
   3  -6   9    0.00    2.90
   3  -6   9    4.50    3.00
  -4   6  -9   -4.30    3.40
   4  -6   9    3.50    4.80
  -5  -5   9   72.29    7.60
  -4  -5   9   20.40    4.40
  -4  -5   9   15.20    3.50
  -4  -5   9   20.90    3.40
   3   5  -9    2.30    2.30
   3   5  -9    1.50    1.60
   3   5  -9    3.40    2.20
  -3  -5   9    4.50    2.20
  -3  -5   9    1.80    1.90
  -3  -5   9    1.20    2.70
   2   5  -9  317.67   11.80
   2   5  -9  327.37   10.80
   2   5  -9  317.47   11.60
   2   5  -9  304.67   11.80
  -2  -5   9  319.87   11.30
  -2  -5   9  327.47   11.10
   1   5  -9   13.80    1.90
   1   5  -9   16.40    2.30
   1   5  -9   12.60    1.70
  -1  -5   9   17.10    1.80
  -1  -5   9   16.10    1.60
   0   5  -9    1.80    0.80
   0   5  -9   -0.20    1.30
   0   5  -9    1.50    0.90
   0  -5   9    2.40    0.90
   0  -5   9    5.50    1.20
  -1   5  -9   12.60    1.30
  -1   5  -9   13.70    1.00
  -1   5  -9   13.20    1.50
   1  -5   9   13.20    1.30
   1  -5   9    9.40    2.00
  -2   5  -9   40.10    3.20
  -2   5  -9   42.30    2.90
   2  -5   9   36.90    2.90
   2  -5   9   38.80    3.70
  -3   5  -9   18.10    3.10
  -3   5  -9   16.00    2.00
   3  -5   9   25.00    3.40
  -4   5  -9   16.70    2.60
  -4   5  -9   19.50    3.80
   4  -5   9   13.30    2.90
   4  -5   9   12.40    4.00
  -5  -4   9   72.49    7.30
   4   4  -9    3.50    2.30
  -4  -4   9    3.30    2.70
  -4  -4   9    0.90    2.80
  -4  -4   9    5.20    3.70
   3   4  -9  782.82   24.60
   3   4  -9  727.53   26.20
   3   4  -9  771.62   26.00
  -3  -4   9  785.52   25.90
  -3  -4   9  796.42   25.20
  -3  -4   9  843.22   24.90
   2   4  -9  657.43   21.70
   2   4  -9  644.24   22.00
  -2  -4   9  687.33   21.20
   1   4  -9    2.20    0.90
   1   4  -9    0.80    1.10
   1   4  -9    1.40    0.60
  -1  -4   9   -0.60    0.90
  -1  -4   9    0.50    0.70
  -1  -4   9    0.20    0.50
  -1  -4   9   -0.10    0.90
   0   4  -9  110.59    4.20
   0   4  -9  107.29    4.10
   0  -4   9  105.59    4.00
   0  -4   9  111.59    4.30
   0  -4   9  109.89    5.00
  -1   4  -9  157.58    5.20
  -1   4  -9  158.98    5.70
   1  -4   9  164.98    5.80
   1  -4   9  168.88    6.80
   1  -4   9  149.09    5.50
  -2   4  -9    8.70    2.50
   2  -4   9    9.10    1.70
   2  -4   9    3.40    1.90
  -3   4  -9    2.10    1.40
  -3   4  -9   -2.20    1.90
   3  -4   9   -0.30    2.30
   3  -4   9    1.30    1.80
  -4   4  -9   16.60    2.70
   4  -4   9   14.00    3.70
   4  -4   9   11.60    3.00
  -5   4  -9    1.60    3.70
   5  -4   9   -1.40    5.00
  -5  -3   9   77.59    7.30
   4   3  -9   11.40    3.10
   4   3  -9    7.40    2.10
  -4  -3   9    9.40    2.60
  -4  -3   9    6.20    2.80
  -4  -3   9    4.20    3.20
  -4  -3   9    5.90    1.80
   3   3  -9  168.18    7.60
   3   3  -9  162.28    7.70
   3   3  -9  183.98    6.70
  -3  -3   9  185.88    6.40
  -3  -3   9  183.58    7.20
  -3  -3   9  173.58    6.20
   2   3  -9  250.57    8.00
   2   3  -9  245.68    8.90
   2   3  -9  246.98    9.20
  -2  -3   9  210.58    8.40
  -2  -3   9  249.97    7.70
   1   3  -9    3.20    0.80
   1   3  -9    6.00    0.80
  -1  -3   9    4.40    0.80
  -1  -3   9    2.90    0.80
  -1  -3   9    2.80    0.80
  -1  -3   9    3.90    0.70
   0   3  -9   76.69    2.90
   0   3  -9   68.39    3.30
   0  -3   9   72.19    3.10
   0  -3   9   67.59    2.90
  -1   3  -9    0.40    0.80
  -1   3  -9   -0.40    0.50
   1  -3   9    0.40    0.70
   1  -3   9   -0.10    1.50
  -2   3  -9    6.00    1.60
   2  -3   9    5.40    1.70
   2  -3   9    3.10    1.10
  -3   3  -9    7.30    2.20
  -3   3  -9   11.60    1.80
   3  -3   9    7.30    1.90
   3  -3   9   13.10    2.70
  -4   3  -9   22.70    3.30
  -4   3  -9   16.70    2.80
   4  -3   9   13.00    2.90
   4  -3   9   18.60    3.50
  -5   3  -9   10.20    5.20
  -5  -2   9    9.10    2.90
  -5  -2   9   -3.50    3.50
   4   2  -9  193.78    7.30
   4   2  -9  186.48    9.10
  -4  -2   9  194.78    8.70
  -4  -2   9  196.28    8.00
   3   2  -9   13.10    2.20
   3   2  -9   11.80    2.30
  -3  -2   9   12.40    2.00
  -3  -2   9   11.90    1.80
  -3  -2   9   12.20    1.40
  -3  -2   9   15.00    2.30
   2   2  -9   12.60    1.30
   2   2  -9   10.10    1.00
   2   2  -9   10.60    1.80
   2   2  -9   10.90    1.60
   2   2  -9   15.60    1.80
  -2  -2   9   12.00    1.10
   1   2  -9 1131.69   34.30
   1   2  -9 1146.89   34.40
  -1  -2   9 1157.28   34.10
  -1  -2   9 1125.29   34.20
  -1  -2   9 1103.19   34.30
  -1  -2   9 1123.49   34.70
   0   2  -9 1478.15   44.60
   0  -2   9 1503.65   45.20
  -2   2  -9   75.19    3.80
  -2   2  -9   74.29    3.40
   2  -2   9   76.39    3.50
   2  -2   9   75.29    4.20
  -3   2  -9    7.60    1.60
  -3   2  -9    8.60    2.10
   3  -2   9    7.00    1.90
   3  -2   9    7.20    2.30
  -4   2  -9    6.40    2.40
  -4   2  -9    3.70    2.60
   4  -2   9   10.20    2.60
   4  -2   9    5.00    3.00
   5  -2   9    8.00    4.10
   5  -2   9   11.90    6.30
  -5  -1   9   39.10    4.20
  -5  -1   9   29.40    4.40
  -5  -1   9   42.70    5.70
  -5  -1   9   35.80    4.70
   4   1  -9  280.47   10.90
   4   1  -9  284.67   10.30
  -4  -1   9  280.27   11.20
  -4  -1   9  287.17   10.60
  -4  -1   9  287.97   11.50
   3   1  -9   12.60    1.50
   3   1  -9   17.10    2.50
   3   1  -9    8.40    1.90
   3   1  -9   16.40    1.60
  -3  -1   9   17.80    2.10
  -3  -1   9   14.10    3.20
  -3  -1   9   16.80    1.90
  -3  -1   9   15.90    2.10
   2   1  -9    2.30    0.40
   2   1  -9    3.80    1.40
   2   1  -9    2.60    1.10
   2   1  -9    2.60    1.10
  -2  -1   9    2.10    0.90
  -2  -1   9    3.30    0.90
  -2  -1   9    4.20    1.30
   1   1  -9  266.67    8.50
   1   1  -9  263.57    8.60
  -1  -1   9  250.77    8.30
  -1  -1   9  256.17    8.60
  -1  -1   9  251.67    8.30
   0   1  -9    5.00    0.50
   0  -1   9    4.60    0.50
   0  -1   9    6.00    0.80
  -1   1  -9    0.10    0.50
  -2   1  -9  186.68    7.00
  -2   1  -9  193.78    7.00
   2  -1   9  192.78    7.00
  -3   1  -9   28.50    2.70
  -3   1  -9   27.20    2.70
   3  -1   9   24.20    2.80
   3  -1   9   27.30    2.80
  -4   1  -9   14.80    2.70
  -4   1  -9   14.30    3.40
   4  -1   9   18.60    2.80
   4  -1   9   11.90    3.70
   4  -1   9   14.70    3.90
   5  -1   9    6.30    3.90
   5  -1   9    5.70    4.90
  -5   0   9   -1.30    3.20
  -5   0   9   -3.20    3.50
   4   0  -9    7.80    2.80
   4   0  -9    5.70    2.80
  -4   0   9    5.80    2.60
  -4   0   9    6.40    2.40
  -4   0   9    7.40    2.40
   3   0  -9  146.79    5.90
   3   0  -9  156.98    6.90
   3   0  -9  159.48    6.80
   3   0  -9  160.18    5.40
  -3   0   9  156.58    6.50
  -3   0   9  144.59    5.70
   2   0  -9  392.86   13.20
   2   0  -9  377.16   13.20
  -2   0   9  399.36   12.80
  -2   0   9  394.66   13.10
  -2   0   9  389.06   13.00
  -1   0   9   59.79    2.50
  -1   0   9   57.99    2.80
  -1   0   9   54.89    2.50
   0   0  -9   32.10    1.40
   0   0   9   31.30    1.60
   0   0   9   29.10    1.40
   1   0   9  521.85   16.10
  -2   0  -9    0.20    0.80
  -2   0  -9    0.70    1.00
   2   0   9    0.80    1.00
   2   0   9    1.10    1.40
   2   0   9    1.00    0.70
  -3   0  -9    3.20    1.50
  -3   0  -9    2.30    1.40
   3   0   9    2.30    2.10
   3   0   9    5.60    1.80
   3   0   9    4.40    2.10
  -4   0  -9   11.40    3.10
  -4   0  -9   18.40    2.90
   4   0   9   14.90    2.90
   4   0   9   14.40    3.40
   5  -1  -9   39.30    5.00
  -5   1   9   33.30    4.20
  -5   1   9   41.70    4.80
   4  -1  -9   25.50    3.60
   4  -1  -9   36.90    4.00
   4  -1  -9   33.60    3.50
  -4   1   9   26.30    3.00
  -4   1   9   30.30    3.90
   3  -1  -9   97.49    4.90
   3  -1  -9   90.89    5.10
  -3   1   9   93.49    4.90
  -3   1   9   96.79    4.00
  -3   1   9   93.29    4.80
   2  -1  -9  319.17   10.80
   2  -1  -9  300.77    9.60
   2  -1  -9  307.07   10.90
  -2   1   9  315.87   10.80
  -2   1   9  311.57   10.80
  -2   1   9  313.67   10.30
   1  -1  -9   47.20    1.90
  -1   1   9   49.10    1.80
  -1   1   9   46.00    2.00
   0  -1  -9   35.70    1.40
   0  -1  -9   29.00    1.80
   0   1   9   34.40    1.80
  -1  -1  -9  424.96   15.30
   1   1   9  486.75   14.20
  -2  -1  -9    7.80    1.20
   2   1   9   10.00    1.10
   2   1   9   10.40    1.00
   2   1   9   12.90    2.00
  -3  -1  -9   35.80    2.80
  -3  -1  -9   34.10    3.20
   3   1   9   34.50    3.70
   3   1   9   31.40    3.60
   3   1   9   38.20    3.00
   3   1   9   36.50    3.30
  -4  -1  -9    9.70    2.90
  -4  -1  -9    8.20    2.10
   4   1   9   14.30    2.80
   4   1   9    9.10    2.80
   5  -2  -9   10.10    3.90
   5  -2  -9    2.80    4.70
  -5   2   9    5.40    3.50
   4  -2  -9   31.20    3.60
   4  -2  -9   24.00    4.50
   4  -2  -9   35.30    3.60
  -4   2   9   32.70    3.70
   3  -2  -9   59.89    4.20
   3  -2  -9   64.99    4.30
  -3   2   9   69.59    3.80
  -3   2   9   59.69    4.10
  -3   2   9   60.69    4.20
   2  -2  -9    0.20    0.80
   2  -2  -9   -0.10    1.10
   2  -2  -9   -0.50    1.20
  -2   2   9    0.00    0.70
  -2   2   9   -1.60    1.10
  -2   2   9   -0.10    1.00
   1  -2  -9   59.99    2.40
   1  -2  -9   52.09    2.40
  -1   2   9   54.19    2.10
  -1   2   9   56.09    2.30
   0  -2  -9 1780.32   53.29
  -1  -2  -9  261.37    8.60
  -1  -2  -9  279.17    9.00
  -1  -2  -9  268.47    9.30
  -1  -2  -9  275.07    9.00
   1   2   9  279.47    8.70
   1   2   9  269.87   12.00
  -2  -2  -9    7.00    1.20
  -2  -2  -9    7.40    1.30
  -2  -2  -9    7.90    1.60
   2   2   9    5.40    1.70
   2   2   9    5.80    1.90
   2   2   9    5.70    1.80
  -3  -2  -9    9.00    2.00
  -3  -2  -9    9.00    1.90
  -3  -2  -9    8.20    1.60
   3   2   9    8.20    2.40
   3   2   9   11.00    2.40
   3   2   9    6.80    1.80
   3   2   9   10.80    2.60
  -4  -2  -9  173.78    7.70
  -4  -2  -9  185.58   11.00
   5  -3  -9    0.90    4.70
   4  -3  -9   90.39    6.00
   4  -3  -9   92.79    6.70
   4  -3  -9  102.89    6.50
  -4   3   9   91.79    5.70
   3  -3  -9   31.20    3.20
   3  -3  -9   28.00    3.20
   3  -3  -9   34.50    3.50
  -3   3   9   24.00    2.80
  -3   3   9   32.30    2.40
  -3   3   9   36.20    3.10
   2  -3  -9   10.00    1.80
   2  -3  -9   13.10    2.00
  -2   3   9   11.40    1.80
  -2   3   9    9.90    1.70
  -2   3   9   12.60    2.00
   1  -3  -9  216.98    7.80
   1  -3  -9  228.48    7.90
  -1   3   9  216.18    8.40
  -1   3   9  204.88    7.90
  -1   3   9  222.38    7.90
  -1   3   9  218.18    8.30
   0  -3  -9    9.70    1.10
   0  -3  -9   14.00    1.40
   0   3   9   12.50    2.00
   0   3   9   12.50    2.10
  -1  -3  -9  112.49    4.60
  -1  -3  -9  106.89    4.40
  -1  -3  -9  107.39    4.20
  -1  -3  -9  107.69    3.90
  -1  -3  -9  114.39    4.40
  -1  -3  -9  113.99    4.30
   1   3   9  108.99    4.60
   1   3   9  114.29    4.00
   1   3   9  110.39    5.30
  -2  -3  -9   33.40    3.10
  -2  -3  -9   38.20    2.90
  -2  -3  -9   42.40    2.60
  -2  -3  -9   42.20    2.40
   2   3   9   42.70    3.80
   2   3   9   37.80    3.20
   2   3   9   39.70    3.40
  -3  -3  -9   35.60    2.60
  -3  -3  -9   30.80    3.20
  -3  -3  -9   32.70    4.10
   3   3   9   31.30    3.40
   3   3   9   38.20    4.10
   3   3   9   28.70    3.00
   3   3   9   37.60    4.20
   5  -4  -9   19.00    5.20
  -5   4   9   27.40    5.40
   4  -4  -9    8.80    3.60
   4  -4  -9   12.40    3.10
  -4   4   9   14.50    3.70
  -4   4   9   12.10    3.40
   3  -4  -9    1.40    1.90
   3  -4  -9    6.80    2.40
   3  -4  -9    7.70    2.80
  -3   4   9    5.50    2.50
  -3   4   9    6.00    2.20
  -3   4   9    5.70    2.20
  -3   4   9    4.00    1.20
   2  -4  -9  130.69    5.90
   2  -4  -9  136.09    5.30
   2  -4  -9  135.39    6.10
  -2   4   9  113.09    5.10
  -2   4   9  127.49    5.90
  -2   4   9  132.09    5.90
  -2   4   9  123.19    5.90
   1  -4  -9  309.87   11.00
   1  -4  -9  313.57   11.00
  -1   4   9  316.37   11.00
  -1   4   9  328.07   11.60
   0  -4  -9   34.40    2.30
   0  -4  -9   36.70    2.40
   0  -4  -9   35.80    2.20
   0   4   9   32.40    3.10
   0   4   9   39.00    3.80
   0   4   9   34.60    2.40
  -1  -4  -9  125.09    4.40
  -1  -4  -9  121.19    4.80
  -1  -4  -9  133.79    6.10
  -1  -4  -9  119.69    4.80
  -1  -4  -9  119.79    4.50
   1   4   9  121.59    6.00
   1   4   9  131.19    4.50
   1   4   9  126.69    6.30
   1   4   9  119.59    5.20
  -2  -4  -9  253.87    9.30
  -2  -4  -9  248.48    8.60
  -2  -4  -9  249.78    8.90
   2   4   9  263.87   10.10
   2   4   9  252.07   10.10
   2   4   9  240.78    9.50
  -3  -4  -9   76.89    4.30
  -3  -4  -9   75.19    3.70
   3   4   9   73.09    5.60
   3   4   9   80.99    5.40
  -4  -4  -9    0.60    1.70
  -5   5   9    7.70    6.80
   3  -5  -9   15.50    3.00
   3  -5  -9   12.40    2.40
  -3   5   9   10.60    2.90
  -3   5   9   10.00    3.10
  -3   5   9   14.20    3.00
   2  -5  -9  118.09    5.90
   2  -5  -9  120.29    5.90
   2  -5  -9  114.99    4.90
  -2   5   9  112.79    6.00
  -2   5   9  118.99    6.00
  -2   5   9  105.19    5.70
   1  -5  -9  413.26   13.60
   1  -5  -9  424.16   14.00
   1  -5  -9  395.76   12.70
   1  -5  -9  401.46   14.00
  -1   5   9  396.36   14.60
  -1   5   9  413.56   13.60
  -1   5   9  416.16   14.10
   0  -5  -9  122.19    5.10
   0  -5  -9  123.89    5.20
   0   5   9  118.29    6.10
   0   5   9  116.29    5.10
   0   5   9  126.29    5.20
  -1  -5  -9  539.35   17.30
  -1  -5  -9  547.25   17.60
  -1  -5  -9  524.95   17.40
   1   5   9  543.65   18.90
   1   5   9  542.75   17.90
  -2  -5  -9    1.40    1.30
  -2  -5  -9    3.00    1.80
  -2  -5  -9   -0.60    1.10
   2   5   9   -1.20    1.90
   2   5   9   -0.10    2.50
  -3  -5  -9   22.40    2.40
  -3  -5  -9   25.40    3.40
   3   5   9   20.60    4.00
   3   5   9   15.80    3.30
  -4   6   9    4.30    6.20
   3  -6  -9    4.10    3.30
  -3   6   9    0.20    3.10
  -3   6   9   -0.40    3.10
  -3   6   9    4.60    3.20
   2  -6  -9    3.20    2.20
   2  -6  -9    2.00    2.20
   2  -6  -9    0.40    1.70
  -2   6   9    0.90    2.30
  -2   6   9    1.60    2.40
  -2   6   9    1.40    2.70
   1  -6  -9  367.16   12.40
  -1   6   9  369.16   12.60
  -1   6   9  361.36   12.90
  -1   6   9  359.16   13.70
  -1   6   9  364.86   13.10
   0  -6  -9  290.57   10.30
   0  -6  -9  289.57   10.10
   0   6   9  301.77   11.40
   0   6   9  286.57   10.20
   0   6   9  288.37   10.40
   0   6   9  286.67   11.60
  -1  -6  -9   79.79    4.10
  -1  -6  -9   78.29    4.20
  -1  -6  -9   87.19    4.00
   1   6   9   78.99    5.70
   1   6   9   81.69    5.20
  -2  -6  -9    3.10    1.50
  -2  -6  -9    1.80    1.50
   2   6   9    2.10    2.40
   2   6   9    4.10    3.20
  -3  -6  -9   21.30    2.10
   3   6   9   20.70    4.50
   3   6   9   16.50    6.50
  -3   7   9   15.40    4.30
  -3   7   9   14.00    4.00
   2  -7  -9   53.49    6.10
  -2   7   9   48.30    5.60
  -2   7   9   39.50    4.60
   1  -7  -9   84.99    5.10
   1  -7  -9   86.49    4.50
  -1   7   9   87.29    5.60
  -1   7   9   85.99    4.80
  -1   7   9   81.59    5.10
  -1   7   9   75.49    5.90
   0  -7  -9  360.96   12.70
   0  -7  -9  361.36   12.30
   0   7   9  356.16   15.40
   0   7   9  362.56   12.50
   0   7   9  355.36   12.90
   0   7   9  353.86   12.80
  -1  -7  -9   33.60    3.30
  -1  -7  -9   34.90    3.20
  -1  -7  -9   33.40    3.20
   1   7   9   37.00    3.70
   1   7   9   30.30    4.30
  -2  -7  -9   28.90    2.90
  -2  -7  -9   25.90    3.10
   2   7   9   26.40    4.70
   3   7   9   41.00    6.30
   3   7   9   32.50    6.40
  -3   8   9    9.60    4.70
  -3   8   9   10.10    4.80
  -2   8   9  109.59    9.90
  -2   8   9  109.69    7.80
  -2   8   9  103.29    8.00
   1  -8  -9  231.58   12.90
  -1   8   9  236.68   10.20
  -1  -8  -9   14.90    2.50
  -1  -8  -9    7.70    2.50
  -2  -8  -9   14.20    3.20
   2   8   9   18.40    4.70
  -3   9   9   30.30    6.60
  -2   9   9   26.40    5.30
   0  -9  -9    4.00    2.90
   0   9   9    2.60    3.00
   1  11 -10   20.70    4.40
  -1 -11  10   13.90    6.10
   2  10 -10   15.70    4.40
   2  10 -10   22.00    6.20
  -2 -10  10   21.80    3.70
   1  10 -10    5.30    3.30
  -1 -10  10    7.80    3.30
   0  10 -10   25.80    3.30
  -1  10 -10    8.30    2.50
   1 -10  10   11.10    1.80
  -2  10 -10   29.70    3.30
   3   9 -10    9.70    3.80
   3   9 -10   10.50    4.50
   3   9 -10   11.80    5.10
  -3  -9  10    6.30    3.80
   2   9 -10    5.40    3.50
   2   9 -10    6.20    3.30
  -2  -9  10    8.70    2.90
  -2  -9  10   15.40    3.10
   1   9 -10   -4.70    3.50
   1   9 -10    1.20    2.60
   1   9 -10    0.90    2.30
  -1  -9  10   -4.70    3.80
   0   9 -10   33.70    3.50
   0   9 -10   45.50    5.20
  -1   9 -10    6.70    5.40
  -1   9 -10    6.30    2.00
   1  -9  10    5.40    1.50
  -2   9 -10   58.49    4.00
  -3   9 -10   82.79    5.10
   3   8 -10   16.00    4.10
   3   8 -10   11.70    3.30
  -3  -8  10   15.70    3.70
   2   8 -10    9.80    2.60
   2   8 -10    8.40    3.50
   2   8 -10    9.50    3.00
  -2  -8  10   17.00    3.70
  -2  -8  10   12.60    3.80
  -2  -8  10   10.10    2.60
  -2  -8  10   12.80    2.60
   1   8 -10    2.70    3.00
   1   8 -10    1.90    2.20
   1   8 -10    5.30    1.90
  -1  -8  10    1.00    1.70
  -1  -8  10    1.80    5.10
   0   8 -10   52.59    3.50
   0   8 -10   52.19    3.70
   0   8 -10   45.50    5.00
   0  -8  10   52.19    2.10
   0  -8  10   51.89    6.00
  -1   8 -10   90.09    6.30
  -1   8 -10   94.79    4.60
  -2   8 -10    2.80    2.70
  -2   8 -10    5.60    1.60
   2  -8  10    6.50    1.90
  -3   8 -10   10.80    3.70
  -3   8 -10    9.70    2.20
   3  -8  10   13.90    5.30
  -4   8 -10   -4.20    5.00
   4  -8  10    2.50    6.10
  -4  -7  10   57.59    6.50
   3   7 -10  115.59    7.30
   3   7 -10  104.49    5.80
  -3  -7  10  110.49    6.10
  -3  -7  10  107.09    6.70
  -3  -7  10  121.69    7.40
   2   7 -10   71.69    4.90
   2   7 -10   74.99    5.40
   2   7 -10   69.09    4.10
   2   7 -10   67.39    5.30
  -2  -7  10   71.79    4.40
  -2  -7  10   68.89    5.00
  -2  -7  10   72.29    3.20
  -2  -7  10   70.09    4.50
   1   7 -10   12.80    2.60
   1   7 -10   12.30    2.10
   1   7 -10    8.70    2.20
  -1  -7  10   10.00    1.50
  -1  -7  10   11.10    2.00
   0   7 -10   85.59    4.20
   0   7 -10   87.39    4.80
   0   7 -10   87.09    5.50
  -1   7 -10  102.99    6.00
  -1   7 -10  111.29    4.60
  -1   7 -10  101.99    4.60
   1  -7  10  110.99    4.50
   1  -7  10  100.39    4.40
  -2   7 -10    6.80    1.50
  -2   7 -10    8.80    2.30
   2  -7  10    0.50    2.70
  -3   7 -10    1.70    3.10
   3  -7  10   -0.40    3.70
   4  -7  10    6.00    5.10
  -4  -6  10   52.69    5.70
   3   6 -10   -1.20    2.60
   3   6 -10    2.60    2.00
   3   6 -10    0.10    2.90
  -3  -6  10    1.30    2.40
  -3  -6  10   -0.80    2.10
   2   6 -10    1.30    1.80
   2   6 -10   -0.80    1.50
   2   6 -10   -0.60    2.30
   2   6 -10    2.10    2.30
  -2  -6  10   -3.50    1.50
  -2  -6  10    0.50    1.70
   1   6 -10   30.70    3.40
   1   6 -10   26.10    2.50
   1   6 -10   25.90    2.90
  -1  -6  10   30.30    2.70
  -1  -6  10   26.40    1.70
   0   6 -10  197.48    7.40
   0   6 -10  214.78    7.20
   0   6 -10  201.08    8.60
   0  -6  10  208.38    6.60
   0  -6  10  190.08    6.70
   0  -6  10  202.68    7.20
  -1   6 -10  766.52   24.50
  -1   6 -10  787.62   23.80
  -1   6 -10  766.12   24.50
   1  -6  10  790.82   28.80
   1  -6  10  791.42   24.40
  -2   6 -10   13.40    2.30
  -2   6 -10   15.30    1.70
  -2   6 -10   14.20    2.00
   2  -6  10   16.60    3.00
   2  -6  10   10.90    1.90
  -3   6 -10  207.18    9.20
   3  -6  10  190.78    9.60
   3  -6  10  213.18    8.80
  -4   6 -10   -1.70    3.60
   4  -6  10   -3.30    4.40
  -5  -5  10   54.29    6.40
  -4  -5  10   23.00    4.70
  -4  -5  10   19.40    3.70
  -4  -5  10   23.00    3.70
   3   5 -10   -0.10    1.70
   3   5 -10   -5.80    2.00
   3   5 -10    1.50    2.60
  -3  -5  10    3.20    2.70
  -3  -5  10    1.80    2.20
  -3  -5  10    0.30    1.90
   2   5 -10  416.16   14.40
   2   5 -10  396.16   14.60
   2   5 -10  396.96   13.30
  -2  -5  10  424.36   14.10
  -2  -5  10  414.86   13.90
   1   5 -10   13.00    1.90
   1   5 -10   15.40    1.50
   1   5 -10   12.20    1.60
  -1  -5  10   14.70    1.40
  -1  -5  10   14.00    1.90
   0   5 -10  129.79    4.70
   0   5 -10  124.49    4.80
   0  -5  10  121.89    4.90
   0  -5  10  111.09    4.60
  -1   5 -10  439.06   13.40
  -1   5 -10  467.65   14.20
  -1   5 -10  451.95   14.30
   1  -5  10  400.96   13.90
   1  -5  10  450.05   16.10
  -2   5 -10    3.10    1.70
   2  -5  10    0.50    1.30
   2  -5  10    0.60    2.00
  -3   5 -10   50.79    4.60
  -3   5 -10   53.29    3.40
   3  -5  10   60.09    4.60
   3  -5  10   48.30    5.20
  -4   5 -10   -2.10    2.40
   4  -5  10   -4.00    4.10
   4  -5  10    0.90    2.90
  -5  -4  10   48.00    6.00
  -4  -4  10  123.29    7.70
  -4  -4  10  133.29    6.60
  -4  -4  10  117.99    7.20
   3   4 -10    3.00    1.40
   3   4 -10    1.40    2.20
   3   4 -10    2.90    2.30
  -3  -4  10    5.10    2.20
  -3  -4  10    3.80    1.90
   2   4 -10  451.35   14.20
   2   4 -10  464.95   15.50
   2   4 -10  441.46   15.80
  -2  -4  10  455.05   15.00
   1   4 -10    5.80    1.50
   1   4 -10    5.10    1.20
   1   4 -10    6.00    0.80
  -1  -4  10    4.60    0.90
  -1  -4  10    4.60    0.90
  -1  -4  10    5.10    0.60
   0   4 -10   33.50    2.00
   0   4 -10   36.00    2.00
   0  -4  10   34.70    2.40
   0  -4  10   35.30    2.90
   0  -4  10   31.50    2.20
  -1   4 -10    5.70    1.00
  -1   4 -10    6.20    0.80
   1  -4  10    8.00    1.10
  -2   4 -10   40.90    3.30
   2  -4  10   42.40    3.70
   2  -4  10   42.60    2.80
  -3   4 -10   57.39    3.60
  -3   4 -10   56.09    4.50
   3  -4  10   58.09    4.20
   3  -4  10   63.09    5.10
  -4   4 -10    3.00    2.30
   4  -4  10   -1.10    2.80
   4  -4  10    0.60    3.60
  -5  -3  10   -2.70    3.60
   4   3 -10  408.56   15.50
  -4  -3  10  387.86   14.10
  -4  -3  10  391.16   15.40
  -4  -3  10  392.26   13.00
   3   3 -10  826.52   27.80
   3   3 -10  821.02   28.10
   3   3 -10  847.32   26.70
  -3  -3  10  890.71   27.30
  -3  -3  10  883.01   29.00
  -3  -3  10  842.22   26.40
   2   3 -10  487.05   14.90
   2   3 -10  457.75   15.80
   2   3 -10  500.35   14.70
   2   3 -10  452.35   16.00
  -2  -3  10  442.16   14.80
  -2  -3  10  479.55   15.60
  -2  -3  10  472.55   14.60
   1   3 -10    3.00    0.90
   1   3 -10    5.20    0.80
   1   3 -10    4.80    1.20
  -1  -3  10    4.40    1.10
  -1  -3  10    5.80    0.80
  -1  -3  10    5.10    0.80
  -1  -3  10    4.70    0.90
   0  -3  10    0.80    0.80
   0  -3  10    1.10    0.90
  -1   3 -10   60.09    2.60
  -1   3 -10   57.49    2.50
   1  -3  10   58.99    3.60
   1  -3  10   54.99    2.70
  -2   3 -10   40.40    3.10
   2  -3  10   45.00    2.80
   2  -3  10   46.50    3.70
  -3   3 -10   11.90    2.50
  -3   3 -10   10.60    1.80
   3  -3  10    9.80    2.10
   3  -3  10   13.00    2.80
  -4   3 -10   28.90    6.30
  -4   3 -10   26.10    3.20
   4  -3  10   15.40    3.80
   4  -3  10   27.80    3.80
  -5   3 -10    1.00    3.50
   5  -3  10   10.20    7.60
  -5  -2  10    9.00    3.10
  -5  -2  10    6.50    3.80
  -5  -2  10   -6.30    3.50
  -4  -2  10  195.48    9.90
  -4  -2  10  220.88    9.30
   3   2 -10  185.48    8.30
   3   2 -10  184.78    8.10
   3   2 -10  199.08    6.60
  -3  -2  10  197.58    7.80
  -3  -2  10  197.58    7.80
  -3  -2  10  195.78    7.90
  -3  -2  10  208.08    7.40
   2   2 -10    3.40    1.30
   2   2 -10    1.00    1.10
   2   2 -10   -0.70    1.10
   2   2 -10    1.20    0.50
  -2  -2  10   -0.50    1.10
  -2  -2  10    2.80    1.60
  -2  -2  10   -1.00    0.80
   1   2 -10  611.74   17.90
   1   2 -10  600.04   17.90
  -1  -2  10  576.74   17.90
  -1  -2  10  507.45   19.50
  -1  -2  10  572.64   17.70
  -1  -2  10  609.34   17.60
  -1  -2  10  547.15   18.60
   0   2 -10  158.68    4.90
   0  -2  10  148.19    5.50
  -1   2 -10  138.29    4.60
   1  -2  10  135.99    5.90
  -2   2 -10    1.50    1.10
  -2   2 -10    0.80    1.00
   2  -2  10   -0.20    1.10
   2  -2  10    0.70    1.60
  -3   2 -10    9.80    2.10
  -3   2 -10    8.70    1.80
   3  -2  10    3.30    2.40
   3  -2  10    5.60    1.80
  -4   2 -10    2.10    2.20
   4  -2  10    1.40    3.20
   4  -2  10    4.80    2.50
  -5   2 -10    2.20    3.60
   5  -2  10   11.00    3.90
   5   1 -10   70.39    7.80
  -5  -1  10   85.49    8.80
  -5  -1  10   71.59    6.30
   4   1 -10  188.38    8.20
  -4  -1  10  186.88    7.90
  -4  -1  10  180.88    8.00
  -4  -1  10  180.58    8.20
   3   1 -10   15.70    1.40
   3   1 -10   12.20    2.10
  -3  -1  10   14.70    2.10
  -3  -1  10   13.40    2.20
   2   1 -10  169.38    6.40
   2   1 -10  168.18    6.80
  -2  -1  10  161.08    5.90
  -2  -1  10  167.58    6.50
  -2  -1  10  165.18    6.20
  -1  -1  10  268.47    8.70
  -1  -1  10  259.47    8.50
  -1  -1  10  249.18    8.30
   0   1 -10  789.22   23.20
   0  -1  10  738.53   23.10
  -2   1 -10   31.30    2.30
  -2   1 -10   29.50    2.30
   2  -1  10   31.60    3.20
   2  -1  10   33.70    2.30
  -3   1 -10   47.10    3.40
  -3   1 -10   42.40    3.20
   3  -1  10   41.10    4.00
   3  -1  10   43.40    3.40
   4  -1  10   10.60    3.20
   4  -1  10   13.70    3.90
   4  -1  10   14.40    2.80
   5  -1  10   16.60    4.20
  -5   0  10  291.57   12.30
  -5   0  10  299.87   12.40
   4   0 -10   29.50    3.60
   4   0 -10   46.00    4.50
   4   0 -10   28.60    4.30
  -4   0  10   39.30    4.20
  -4   0  10   29.80    3.50
   3   0 -10    1.80    1.90
   3   0 -10   -0.50    0.80
   3   0 -10    1.30    1.70
  -3   0  10    0.50    1.70
   2   0 -10  116.29    6.30
   2   0 -10  125.19    5.20
   2   0 -10  122.89    5.30
  -2   0  10  131.39    5.30
  -2   0  10  122.49    5.10
   0   0 -10   -0.10    0.50
   0   0  10    1.60    0.70
   0   0  10    0.10    0.60
  -1   0 -10  142.19    5.40
  -2   0 -10   66.59    3.20
  -2   0 -10   65.39    3.30
  -2   0 -10   69.69    3.50
   2   0  10   60.59    2.90
   2   0  10   68.79    2.70
   2   0  10   70.39    4.00
   2   0  10   70.59    4.20
  -3   0 -10    1.50    1.50
  -3   0 -10    1.00    1.60
   3   0  10   -0.60    2.20
   3   0  10   -0.10    1.50
   3   0  10    1.10    1.00
   3   0  10   -4.60    1.80
  -4   0 -10    8.40    2.70
   4   0  10   -0.50    3.00
   4   0  10    8.30    2.80
   5  -1 -10  105.19    7.60
  -5   1  10   96.69    6.90
   4  -1 -10   78.89    5.70
   4  -1 -10   80.39    5.90
   4  -1 -10   73.29    5.70
  -4   1  10   74.09    4.90
  -4   1  10   82.39    6.80
   3  -1 -10   22.00    1.90
   3  -1 -10   19.40    2.70
   3  -1 -10   21.60    2.70
  -3   1  10   16.50    2.10
  -3   1  10   13.40    2.30
   2  -1 -10   41.90    2.90
   2  -1 -10   48.40    3.00
   2  -1 -10   48.80    3.00
  -2   1  10   43.40    3.00
  -2   1  10   44.00    2.80
  -2   1  10   45.80    2.50
   1  -1 -10  202.68    6.50
  -1   1  10  190.38    6.60
  -1   1  10  209.88    6.40
  -1   1  10  211.78    8.00
  -1  -1 -10    9.80    1.10
  -1  -1 -10    9.80    1.20
   1   1  10   10.40    1.20
  -2  -1 -10    5.80    1.40
  -2  -1 -10    4.30    1.10
  -2  -1 -10    6.80    1.20
   2   1  10    7.20    0.80
   2   1  10    4.60    0.90
   2   1  10    5.30    1.60
   2   1  10    1.50    2.00
   2   1  10    3.60    1.10
  -3  -1 -10   28.70    3.00
  -3  -1 -10   22.40    2.40
  -3  -1 -10   23.00    2.40
   3   1  10   25.40    3.10
   3   1  10   25.50    2.70
   3   1  10   32.90    3.70
   3   1  10   30.40    3.40
   4   1  10    4.30    2.60
   4   1  10    2.40    3.00
   5  -2 -10   19.50    5.40
   5  -2 -10   24.40    4.80
  -5   2  10   17.00    4.20
   4  -2 -10   77.49    5.90
   4  -2 -10   73.49    7.00
   4  -2 -10   68.39    5.90
  -4   2  10   68.09    4.50
   3  -2 -10  290.47   10.90
   3  -2 -10  285.97   11.10
   3  -2 -10  294.17   10.80
  -3   2  10  297.47   10.90
  -3   2  10  276.97   10.90
   2  -2 -10   75.89    4.90
   2  -2 -10   85.09    3.20
   2  -2 -10   87.19    4.30
  -2   2  10   85.79    4.30
  -2   2  10   85.19    4.30
  -2   2  10   88.09    3.50
   1  -2 -10   47.60    2.70
   1  -2 -10   49.99    2.70
   1  -2 -10   46.10    2.30
  -1   2  10   44.40    1.90
  -1   2  10   46.40    2.80
  -1   2  10   49.40    2.10
  -1   2  10   51.79    2.80
  -1   2  10   49.70    3.40
   0  -2 -10 1020.60   30.70
   0   2  10 1022.60   32.50
  -1  -2 -10   28.30    2.00
  -1  -2 -10   28.30    1.80
  -1  -2 -10   25.00    1.70
  -1  -2 -10   22.00    1.50
   1   2  10   27.10    3.00
   1   2  10   28.00    1.70
   1   2  10   25.50    2.20
  -2  -2 -10   64.59    3.20
  -2  -2 -10   63.09    3.50
   2   2  10   65.29    4.50
   2   2  10   60.99    4.10
   2   2  10   67.69    4.00
  -3  -2 -10    8.40    2.10
  -3  -2 -10    7.30    1.50
  -3  -2 -10    7.50    1.60
   3   2  10    7.70    2.50
   3   2  10    8.60    2.80
   3   2  10    6.50    2.40
   3   2  10    9.10    1.90
   5  -3 -10    2.10    5.30
  -5   3  10    5.60    5.80
   4  -3 -10   21.90    3.50
   4  -3 -10   15.30    3.70
   4  -3 -10   14.10    3.10
   3  -3 -10    5.80    2.20
   3  -3 -10    7.70    2.20
   3  -3 -10    6.20    2.10
  -3   3  10    4.10    2.00
  -3   3  10    6.80    2.10
  -3   3  10    8.40    2.70
   2  -3 -10    3.10    1.80
   2  -3 -10    1.70    1.50
  -2   3  10    6.10    1.60
  -2   3  10   -1.70    1.30
  -2   3  10    2.30    1.60
   1  -3 -10  312.27   11.00
   1  -3 -10  321.27   10.90
   1  -3 -10  314.77   10.90
  -1   3  10  325.77   11.40
  -1   3  10  324.17   11.00
  -1   3  10  331.97   11.10
  -1   3  10  303.27    9.70
   0  -3 -10   13.90    1.60
   0  -3 -10   12.10    1.30
   0  -3 -10   11.20    1.40
   0   3  10   11.30    2.10
  -1  -3 -10   64.39    3.20
  -1  -3 -10   61.19    2.60
  -1  -3 -10   61.89    2.90
  -1  -3 -10   64.49    2.90
   1   3  10   64.49    4.00
   1   3  10   61.09    3.40
  -2  -3 -10    0.30    0.90
  -2  -3 -10    3.30    1.40
  -2  -3 -10   -0.50    0.90
   2   3  10   -2.60    2.20
   2   3  10    1.30    2.00
   2   3  10    0.40    1.70
  -3  -3 -10   78.79    3.80
  -3  -3 -10   73.49    4.70
  -3  -3 -10   76.99    4.20
   3   3  10   66.99    5.30
   3   3  10   79.39    5.80
   3   3  10   77.99    5.30
   3   3  10   76.39    4.10
  -4  -3 -10    4.20    1.90
   5  -4 -10  121.09    9.70
  -5   4  10  125.19    9.60
   4  -4 -10  124.49    7.90
   4  -4 -10  108.89    6.80
  -4   4  10  105.79    7.80
   3  -4 -10   18.20    3.10
   3  -4 -10   18.80    3.10
   3  -4 -10   15.20    2.50
  -3   4  10   17.60    2.70
  -3   4  10   18.30    2.90
  -3   4  10   16.60    2.90
   2  -4 -10    0.60    1.60
   2  -4 -10    2.10    1.50
   2  -4 -10   -1.80    1.70
  -2   4  10    0.80    1.50
  -2   4  10    0.50    1.80
  -2   4  10    0.10    1.70
   1  -4 -10  418.36   14.40
   1  -4 -10  414.26   14.30
   1  -4 -10  429.86   14.20
   1  -4 -10  431.56   13.50
  -1   4  10  421.06   14.90
  -1   4  10  440.86   14.60
  -1   4  10  427.36   13.80
   0  -4 -10    9.40    1.30
   0  -4 -10    9.10    1.50
   0  -4 -10   11.90    1.60
   0   4  10   13.30    1.60
   0   4  10    8.80    2.00
  -1  -4 -10    1.20    1.10
  -1  -4 -10    0.50    0.90
  -1  -4 -10    0.10    1.00
  -1  -4 -10    0.50    1.10
  -1  -4 -10   -1.00    1.20
   1   4  10   -0.10    1.40
   1   4  10    0.60    1.80
   1   4  10    1.20    1.10
  -2  -4 -10   32.10    2.60
  -2  -4 -10   37.10    3.20
   2   4  10   34.10    3.90
   2   4  10   34.50    4.10
   2   4  10   28.40    3.00
  -3  -4 -10   79.99    3.90
  -3  -4 -10   73.09    4.90
   3   4  10   72.59    5.90
  -4  -4 -10   -0.30    1.90
  -5   5  10   37.50    8.00
   4  -5 -10   43.60    5.00
   3  -5 -10    2.00    3.00
   3  -5 -10    2.20    2.30
  -3   5  10   -3.90    2.60
  -3   5  10    0.70    2.60
   2  -5 -10  556.64   19.10
   2  -5 -10  565.24   18.20
  -2   5  10  560.64   19.20
  -2   5  10  545.95   19.10
  -2   5  10  559.44   19.00
   1  -5 -10   29.30    2.70
   1  -5 -10   27.50    3.00
   1  -5 -10   32.40    2.80
  -1   5  10   33.00    3.60
  -1   5  10   30.80    3.00
  -1   5  10   31.90    3.20
  -1   5  10   34.00    2.40
   0  -5 -10  108.79    4.80
   0  -5 -10  114.49    4.90
   0   5  10  113.59    6.20
   0   5  10  115.89    5.00
   0   5  10  116.89    5.10
   0   5  10  119.69    5.30
  -1  -5 -10  136.19    5.50
  -1  -5 -10  120.79    5.30
   1   5  10  125.89    6.80
   1   5  10  131.89    5.80
  -2  -5 -10   20.20    2.10
   2   5  10   19.60    2.70
   2   5  10   19.00    3.50
  -3  -5 -10    4.30    2.50
  -3  -5 -10    1.30    1.50
   3   5  10   -0.80    3.60
   3   5  10    5.90    3.00
   3  -6 -10   78.89    6.30
  -3   6  10   66.09    6.00
  -3   6  10   66.09    6.90
   2  -6 -10   10.80    2.60
   2  -6 -10   13.60    2.80
   2  -6 -10   18.90    2.30
  -2   6  10   16.20    3.10
  -2   6  10   12.20    2.80
  -2   6  10   15.70    3.30
   1  -6 -10    3.60    1.80
   1  -6 -10    0.00    1.70
   1  -6 -10   -0.90    1.60
  -1   6  10    0.50    1.90
  -1   6  10    1.40    1.70
  -1   6  10    1.00    2.50
  -1   6  10    0.10    2.10
   0  -6 -10  539.95   17.50
   0  -6 -10  540.15   17.60
   0  -6 -10  512.25   17.60
   0   6  10  535.15   19.10
   0   6  10  529.15   17.50
   0   6  10  529.75   17.70
   0   6  10  542.15   17.80
  -1  -6 -10    6.40    1.60
  -1  -6 -10   12.70    1.80
  -1  -6 -10    6.00    1.80
   1   6  10    5.50    1.80
   1   6  10    8.60    3.10
  -2  -6 -10   37.20    3.00
  -2  -6 -10   45.00    3.70
   2   6  10   31.40    3.50
   2   6  10   34.80    5.70
  -3  -6 -10   14.40    2.10
   3   6  10   20.20    4.60
  -3   7  10   88.79    8.20
  -3   7  10  101.29    7.70
  -2   7  10    1.80    3.10
  -2   7  10    6.20    3.40
  -2   7  10    3.80    2.80
   1  -7 -10   79.89    5.10
   1  -7 -10   81.09    4.70
  -1   7  10   87.69    4.80
  -1   7  10   80.29    5.20
  -1   7  10   84.19    5.60
   0  -7 -10  141.49    5.90
   0  -7 -10  137.59    6.40
   0  -7 -10  143.49    6.30
   0   7  10  143.49    7.90
   0   7  10  127.69    7.10
   0   7  10  141.89    6.40
   0   7  10  137.59    6.90
  -1  -7 -10   53.39    4.00
  -1  -7 -10   58.59    3.90
   1   7  10   53.39    4.50
   1   7  10   65.49    6.40
  -2  -7 -10   12.50    2.20
  -2  -7 -10    8.50    2.90
   2   7  10   -1.60    4.10
   3   7  10   32.20    6.10
  -3   8  10   19.70    5.50
  -3   8  10   15.50    5.10
  -2   8  10   21.00    3.90
  -2   8  10   10.60    4.40
  -2   8  10   16.00    4.30
   1  -8 -10  356.16   13.50
   0   8  10    1.30    2.50
   0   8  10    3.40    4.40
  -1  -8 -10    5.10    2.40
  -2  -8 -10    4.30    3.00
   2   8  10    5.90    5.30
  -2   9  10  308.87   14.90
  -2   9  10  293.37   14.20
  -1   9  10   21.00    4.70
   0  11 -11    1.80    3.30
  -1  11 -11    0.70    2.90
   2  10 -11   20.90    6.60
   2  10 -11   19.50    4.40
  -2 -10  11   15.10    3.50
  -2 -10  11   26.20    4.40
   1  10 -11    6.60    3.50
   0  10 -11   -2.70    2.40
  -1  10 -11   37.10    4.20
  -2  10 -11    7.50    2.70
   2 -10  11    5.10    3.80
   3   9 -11    5.90    4.90
  -3  -9  11    4.80    3.80
   2   9 -11    4.80    3.70
   2   9 -11    8.20    7.20
   2   9 -11   -2.70    3.00
  -2  -9  11   -6.80    4.20
  -2  -9  11    2.30    3.00
  -2  -9  11    2.50    2.90
   1   9 -11    0.40    2.50
   1   9 -11    6.20    2.90
   1   9 -11    4.60    3.80
   0   9 -11   -3.90    2.90
  -1   9 -11   44.80    3.70
   1  -9  11   39.00    2.90
  -2   9 -11  112.59    5.60
   3  -9  11   22.20    6.00
   3   8 -11    2.30    3.60
   3   8 -11    2.10    2.90
  -3  -8  11    2.30    4.10
  -3  -8  11    3.90    4.60
  -3  -8  11    0.80    3.00
   2   8 -11   34.70    4.10
   2   8 -11   37.10    4.20
   2   8 -11   28.10    4.30
  -2  -8  11   36.00    3.80
  -2  -8  11   37.30    4.10
   1   8 -11   18.90    2.80
   1   8 -11   24.60    3.10
  -1  -8  11   21.10    2.80
  -1  -8  11   22.30    2.60
   0   8 -11    3.60    2.80
   0   8 -11    3.90    2.00
   0   8 -11    2.00    1.60
   0  -8  11    1.00    3.40
   0  -8  11    2.90    0.80
  -1   8 -11   -0.30    2.70
  -1   8 -11    1.10    1.50
   1  -8  11    2.70    1.30
  -2   8 -11   28.60    3.50
  -2   8 -11   25.20    2.80
  -3   8 -11    2.30    3.60
  -3   8 -11    1.60    2.10
  -4   8 -11    7.80    5.30
  -4  -7  11    1.80    4.10
   3   7 -11    9.20    3.50
   3   7 -11    5.40    2.50
  -3  -7  11    8.20    2.90
  -3  -7  11   -5.10    3.40
  -3  -7  11    0.40    2.80
   2   7 -11   84.29    5.70
   2   7 -11   80.49    4.50
   2   7 -11   74.09    5.20
   2   7 -11   82.49    5.50
  -2  -7  11   73.99    4.70
  -2  -7  11   84.69    7.30
  -2  -7  11   69.79    5.20
   1   7 -11   78.79    5.40
   1   7 -11   77.89    4.50
   1   7 -11   85.29    5.00
   0   7 -11   33.30    3.10
   0   7 -11   28.10    3.40
   0   7 -11   27.60    2.50
   0  -7  11   29.80    1.70
  -1   7 -11   22.70    2.20
  -1   7 -11   29.70    2.40
   1  -7  11   19.50    2.10
   1  -7  11   25.50    4.20
  -2   7 -11    2.10    2.40
  -2   7 -11    2.90    1.40
   2  -7  11    1.20    2.80
  -3   7 -11   16.80    2.50
  -3   7 -11   20.10    3.70
   3  -7  11   22.20    4.40
  -4   7 -11   17.10    7.00
  -4  -6  11   22.70    4.00
   3   6 -11   11.40    2.30
   3   6 -11   11.00    3.50
  -3  -6  11   17.30    3.60
  -3  -6  11   13.00    2.60
   2   6 -11  179.38    6.90
   2   6 -11  177.88    8.10
   2   6 -11  179.38    7.80
  -2  -6  11  178.18    7.50
   1   6 -11  165.48    6.80
   1   6 -11  164.48    7.20
  -1  -6  11  170.78    6.70
   0   6 -11  174.18    6.70
   0   6 -11  169.78    6.50
   0   6 -11  177.78    6.30
   0  -6  11  164.98    6.40
  -1   6 -11   29.10    3.40
  -1   6 -11   32.90    2.30
  -1   6 -11   29.50    2.00
   1  -6  11   29.10    2.30
   1  -6  11   22.20    3.20
  -2   6 -11  299.37   11.10
  -2   6 -11  304.87   10.40
   2  -6  11  296.27   10.50
   2  -6  11  280.97   11.70
  -3   6 -11    1.60    2.70
   3  -6  11    3.20    2.30
   3  -6  11   -0.80    3.30
  -4   6 -11    5.60    5.00
   4  -6  11    7.80    5.10
  -4  -5  11   17.80    3.50
  -4  -5  11   15.60    3.40
   3   5 -11   16.60    2.10
   3   5 -11    7.00    2.60
  -3  -5  11   11.10    2.50
  -3  -5  11   11.70    2.50
   2   5 -11    3.70    1.70
   2   5 -11    0.30    1.80
   2   5 -11    1.50    1.30
  -2  -5  11    1.40    1.80
  -2  -5  11    3.10    2.30
  -2  -5  11    2.20    1.60
   1   5 -11   12.70    2.10
   1   5 -11   11.90    1.80
   1   5 -11   12.30    1.20
  -1  -5  11   12.10    1.90
  -1  -5  11   10.60    1.20
   0   5 -11  213.58    7.50
   0   5 -11  213.98    7.30
   0  -5  11  208.48    7.70
   0  -5  11  202.18    7.50
  -1   5 -11   29.10    2.00
   1  -5  11   30.80    2.10
  -2   5 -11  300.47   11.20
   2  -5  11  310.27   12.00
   2  -5  11  310.07   10.80
  -3   5 -11   62.69    3.70
  -3   5 -11   67.59    5.20
   3  -5  11   68.39    5.80
  -4   5 -11   13.40    2.90
  -4   5 -11    7.60    4.80
   4  -5  11   11.40    4.50
  -5  -4  11   37.60    5.20
  -4  -4  11   14.20    3.10
  -4  -4  11   14.60    3.40
   3   4 -11   49.30    4.30
   3   4 -11   47.10    4.50
   3   4 -11   52.99    3.00
  -3  -4  11   53.09    3.80
  -3  -4  11   49.50    3.80
   2   4 -11    8.90    1.70
   2   4 -11   12.90    1.50
   2   4 -11   11.10    2.20
  -2  -4  11   12.00    1.10
  -2  -4  11   14.50    1.90
   1   4 -11  266.77    9.40
   1   4 -11  271.27    9.80
   1   4 -11  261.17    8.70
  -1  -4  11  262.97    8.40
  -1  -4  11  262.77    8.80
  -1  -4  11  308.07   12.10
   0   4 -11    1.40    0.70
   0  -4  11    2.50    0.70
   0  -4  11    4.60    1.70
   0  -4  11    2.90    1.30
   0  -4  11    1.10    1.00
  -1   4 -11   99.79    4.00
  -1   4 -11   98.79    3.40
   1  -4  11   98.89    4.00
   1  -4  11  100.09    5.30
  -2   4 -11    0.90    1.10
  -2   4 -11    0.90    1.50
   2  -4  11   -1.70    1.90
   2  -4  11    2.70    1.40
  -3   4 -11   45.40    4.20
  -3   4 -11   48.70    3.30
   3  -4  11   47.50    5.00
   3  -4  11   50.59    3.90
  -4   4 -11    1.60    3.00
  -4   4 -11   -0.70    2.30
   4  -4  11    2.30    2.70
   4  -4  11    5.90    3.80
  -5   4 -11    6.50    7.00
  -5  -3  11   19.20    4.70
   4   3 -11  178.58    9.10
  -4  -3  11  164.38    8.30
  -4  -3  11  173.38    6.70
  -4  -3  11  166.58    8.00
   3   3 -11  965.20   32.90
   3   3 -11 1045.00   30.90
   3   3 -11 1004.90   32.70
  -3  -3  11 1006.20   32.20
  -3  -3  11 1007.40   32.40
  -3  -3  11 1031.10   31.20
   2   3 -11   24.20    2.60
   2   3 -11   28.10    2.10
   2   3 -11   27.20    1.60
   2   3 -11   24.10    2.70
  -2  -3  11   23.00    1.60
  -2  -3  11   23.60    2.00
  -2  -3  11   23.60    2.50
  -2  -3  11   26.20    1.90
   1   3 -11   25.20    2.20
   1   3 -11   25.20    2.10
   1   3 -11   28.10    1.70
  -1  -3  11   29.50    1.70
  -1  -3  11   27.80    1.50
  -1  -3  11   28.90    1.80
  -1  -3  11   27.40    2.10
   0  -3  11   16.00    1.70
   0  -3  11   16.30    1.70
  -1   3 -11  195.98    6.80
  -1   3 -11  197.88    6.20
  -1   3 -11  183.58    6.50
   1  -3  11  200.88    7.90
   1  -3  11  194.38    6.80
  -2   3 -11    7.50    1.60
  -2   3 -11   11.40    1.50
   2  -3  11   11.30    2.30
   2  -3  11    9.50    1.60
  -3   3 -11    1.10    2.00
  -3   3 -11    2.40    1.60
   3  -3  11    2.30    2.50
   3  -3  11    1.30    1.60
  -4   3 -11   -1.00    2.90
  -4   3 -11    1.20    2.20
   4  -3  11    2.80    3.50
   4  -3  11   -4.60    3.00
  -5   3 -11   16.10    4.00
   5  -3  11   15.70    4.40
  -5  -2  11   22.40    4.20
  -5  -2  11   17.90    4.10
  -5  -2  11   19.90    3.50
   4   2 -11  128.69    7.70
  -4  -2  11  117.39    5.90
  -4  -2  11  130.09    6.80
   3   2 -11   86.09    5.20
   3   2 -11   84.99    3.20
   3   2 -11   77.99    4.90
  -3  -2  11   79.59    4.50
  -3  -2  11   82.29    4.20
  -3  -2  11   81.59    4.60
   2   2 -11   62.19    3.50
   2   2 -11   58.29    3.50
  -2  -2  11   63.69    3.10
  -2  -2  11   61.69    2.80
   1   2 -11   30.10    1.80
   1   2 -11   24.60    2.00
  -1  -2  11   26.60    2.10
  -1  -2  11   32.20    1.80
  -1  -2  11   30.00    1.40
  -1  -2  11   28.80    1.60
   0   2 -11  126.09    3.90
   0  -2  11  104.89    4.50
  -1   2 -11   21.90    1.50
   1  -2  11   25.00    2.60
  -2   2 -11  191.38    7.10
  -2   2 -11  197.28    7.40
   2  -2  11  192.08    7.20
   2  -2  11  193.68    8.00
  -3   2 -11    0.60    1.60
  -3   2 -11    2.30    1.70
   3  -2  11    0.20    2.30
   3  -2  11    3.60    1.90
  -4   2 -11    5.60    2.70
   4  -2  11    6.20    2.60
   4  -2  11    2.90    3.50
  -5   2 -11    1.90    3.60
   5  -2  11   11.20    4.50
  -5  -1  11   49.80    6.30
  -5  -1  11   32.50    4.50
  -4  -1  11  402.76   15.10
  -4  -1  11  429.06   14.80
  -4  -1  11  423.46   15.00
   3   1 -11  112.29    3.80
   3   1 -11  112.79    5.60
   3   1 -11  100.09    7.70
   3   1 -11  113.59    5.70
  -3  -1  11  112.59    5.20
  -3  -1  11  113.29    5.40
   2   1 -11   95.89    4.60
   2   1 -11  100.69    4.40
  -2  -1  11   99.59    4.20
  -2  -1  11   96.39    4.40
  -2  -1  11   93.09    4.00
   1   1 -11   67.09    3.20
  -1  -1  11   67.29    3.00
  -1  -1  11   67.49    3.30
  -1  -1  11   65.19    2.90
   0   1 -11   21.40    1.20
   0  -1  11   19.60    1.20
  -1   1 -11  102.79    4.20
  -1   1 -11  106.09    4.80
   1  -1  11  101.09    4.10
   1  -1  11  102.39    4.90
  -2   1 -11   12.20    1.40
  -2   1 -11   12.20    1.60
  -2   1 -11   15.30    1.80
   2  -1  11   12.10    1.60
   2  -1  11   11.10    2.20
  -3   1 -11    5.30    1.70
  -3   1 -11    6.90    2.00
   3  -1  11    2.70    2.40
   3  -1  11    8.30    2.00
  -4   1 -11    0.80    2.50
   4  -1  11    5.30    2.70
   4  -1  11   -0.10    3.20
   4  -1  11    1.00    3.50
   5  -1  11   -6.60    4.20
  -5   0  11  323.37   15.80
  -5   0  11  279.07   12.30
  -5   0  11  323.57   13.40
   4   0 -11   -0.90    2.70
   4   0 -11    2.40    2.70
   4   0 -11    0.30    2.70
  -4   0  11   -1.50    2.30
  -4   0  11    0.70    2.40
  -4   0  11    1.00    3.00
   3   0 -11    4.70    1.90
   3   0 -11    0.20    1.70
  -3   0  11    0.00    1.50
   2   0 -11    4.60    1.30
   2   0 -11    5.80    1.30
   2   0 -11    5.40    1.40
  -2   0  11    7.70    1.40
  -2   0  11    3.70    1.40
   1   0 -11   20.60    1.90
   1   0 -11   20.30    2.60
  -1   0  11   21.40    1.80
  -1   0  11   23.50    1.80
   0   0  11    4.10    0.90
  -1   0 -11   13.00    1.40
  -1   0 -11   13.30    1.50
   1   0  11   13.90    2.70
  -2   0 -11   33.30    2.60
  -2   0 -11   37.80    2.30
  -2   0 -11   34.80    2.50
   2   0  11   29.80    3.00
   2   0  11   39.80    2.00
   2   0  11   37.90    3.60
  -3   0 -11   -0.70    1.70
  -3   0 -11    0.60    1.40
   3   0  11   -1.80    1.60
   3   0  11    0.70    2.30
   3   0  11   -2.40    1.90
   3   0  11   -0.30    1.10
   4   0  11   -3.30    2.60
   4   0  11    1.40    3.50
   5  -1 -11   -1.00    4.50
  -5   1  11    0.40    3.30
   4  -1 -11   28.90    3.90
   4  -1 -11   28.50    4.10
   4  -1 -11   38.90    4.10
  -4   1  11   32.90    3.90
  -4   1  11   32.30    3.80
   3  -1 -11   52.19    3.90
   3  -1 -11   53.89    4.10
   3  -1 -11   50.89    2.40
  -3   1  11   49.30    3.90
  -3   1  11   55.69    3.90
   2  -1 -11   35.20    3.00
   2  -1 -11   30.10    2.80
  -2   1  11   35.40    2.60
  -2   1  11   32.80    2.40
  -2   1  11   31.60    2.70
  -1   1  11  130.69    5.10
  -1   1  11  134.59    5.30
  -1   1  11  130.29    4.30
   0  -1 -11   36.30    2.30
   0   1  11   34.80    2.80
  -1  -1 -11   35.60    1.90
  -1  -1 -11   35.20    2.10
   1   1  11   38.90    3.30
   1   1  11   35.40    2.00
   1   1  11   35.40    2.50
  -2  -1 -11   27.30    2.50
  -2  -1 -11   27.90    2.20
  -2  -1 -11   29.70    2.20
   2   1  11   30.90    1.70
   2   1  11   25.40    1.80
   2   1  11   33.60    2.80
   2   1  11   26.10    3.20
   2   1  11   28.50    2.30
  -3  -1 -11    6.40    2.00
  -3  -1 -11    4.90    1.70
  -3  -1 -11    3.20    1.50
   3   1  11    1.90    2.20
   3   1  11    2.80    2.00
   3   1  11   12.00    2.70
   3   1  11    7.10    1.70
  -4  -1 -11    1.30    2.10
   4   1  11    1.70    2.60
   4   1  11    4.00    3.10
   5  -2 -11   11.20    4.90
   5  -2 -11    6.10    4.30
   4  -2 -11   -5.60    3.00
   4  -2 -11    1.20    2.70
  -4   2  11    0.50    2.80
  -4   2  11    1.90    2.20
   3  -2 -11   33.50    3.50
   3  -2 -11   33.70    3.40
  -3   2  11   32.20    3.50
  -3   2  11   33.40    3.50
   2  -2 -11   13.50    1.40
   2  -2 -11   14.30    2.00
  -2   2  11   11.70    1.80
  -2   2  11    9.90    1.60
   1  -2 -11   19.40    1.80
   1  -2 -11   16.70    1.90
   1  -2 -11   19.80    1.90
   1  -2 -11   18.40    1.70
  -1   2  11   20.50    2.10
  -1   2  11   16.60    1.10
  -1   2  11   19.30    1.40
  -1   2  11   20.60    2.10
   0  -2 -11   24.80    1.80
   0  -2 -11   22.90    1.90
   0  -2 -11   26.80    1.70
   0  -2 -11   25.10    1.20
  -1  -2 -11    3.20    0.90
  -1  -2 -11    3.30    0.90
   1   2  11    0.50    1.80
   1   2  11    3.50    1.40
   1   2  11    2.90    1.00
  -2  -2 -11   11.40    1.80
  -2  -2 -11    9.90    1.50
   2   2  11   10.40    1.60
   2   2  11   11.80    2.30
   2   2  11   10.00    2.00
   2   2  11    3.70    2.40
  -3  -2 -11   26.90    3.10
  -3  -2 -11   23.90    2.60
  -3  -2 -11   25.90    2.80
   3   2  11   22.40    3.50
   3   2  11   23.30    3.60
   3   2  11   28.10    3.30
   3   2  11   29.80    2.70
  -4  -2 -11    2.60    1.90
   5  -3 -11    8.70    5.40
   4  -3 -11   35.00    4.20
   4  -3 -11   36.00    4.40
   4  -3 -11   41.40    4.40
  -4   3  11   35.00    3.70
  -4   3  11   46.40    5.60
   3  -3 -11    1.20    2.00
   3  -3 -11    2.30    2.40
   3  -3 -11   -3.10    2.40
  -3   3  11    1.90    2.20
  -3   3  11    1.50    2.10
   2  -3 -11   46.40    3.30
   2  -3 -11   47.20    3.50
  -2   3  11   44.50    3.20
  -2   3  11   49.40    3.40
  -2   3  11   47.80    3.90
  -2   3  11   47.50    3.60
   1  -3 -11    6.60    1.50
   1  -3 -11    5.10    1.30
   1  -3 -11    8.10    1.30
  -1   3  11    6.40    1.80
  -1   3  11    6.40    1.60
  -1   3  11    9.30    1.80
   0  -3 -11   21.70    1.90
   0  -3 -11   22.20    1.80
   0   3  11   15.80    2.20
   0   3  11   19.60    2.80
   0   3  11   25.20    2.80
  -1  -3 -11   62.79    3.30
  -1  -3 -11   61.89    3.00
  -1  -3 -11   56.39    2.70
   1   3  11   63.39    3.50
   1   3  11   66.19    3.20
   1   3  11   58.29    4.00
  -2  -3 -11  100.19    4.40
  -2  -3 -11  106.79    5.00
  -2  -3 -11  110.89    4.60
   2   3  11  101.49    5.30
   2   3  11  100.09    6.10
   2   3  11  105.19    4.50
   2   3  11  101.59    5.60
  -3  -3 -11    1.00    1.30
   3   3  11    0.90    1.80
   3   3  11    1.70    3.10
   3   3  11    1.60    2.70
   5  -4 -11  -13.00    5.10
   4  -4 -11  103.79    7.00
   4  -4 -11  102.49    7.50
   3  -4 -11   12.50    2.80
   3  -4 -11   12.00    2.90
   3  -4 -11    8.70    2.30
  -3   4  11   18.10    3.10
  -3   4  11   14.10    2.80
  -3   4  11   14.30    2.70
   2  -4 -11    5.30    1.80
   2  -4 -11    8.20    1.80
   2  -4 -11    6.80    1.90
  -2   4  11    7.20    1.90
  -2   4  11    4.30    2.10
  -2   4  11    4.60    2.00
   1  -4 -11    6.00    1.50
   1  -4 -11    4.20    1.40
  -1   4  11    3.90    1.40
  -1   4  11    4.90    1.90
  -1   4  11    4.70    2.10
  -1   4  11    5.50    1.20
   0  -4 -11   22.70    2.20
   0  -4 -11   20.80    2.00
   0   4  11   14.90    2.50
   0   4  11   19.20    2.00
   0   4  11   18.00    1.90
  -1  -4 -11   25.60    2.10
  -1  -4 -11   28.30    2.30
  -1  -4 -11   33.60    2.50
   1   4  11   28.60    2.70
   1   4  11   26.50    3.20
   1   4  11   28.00    4.40
  -2  -4 -11    1.50    1.10
  -2  -4 -11    0.80    1.40
   2   4  11   -2.40    2.00
   2   4  11   -4.10    2.40
   2   4  11    1.10    2.10
   2   4  11    3.00    2.80
  -3  -4 -11    3.20    2.70
   3   4  11    8.20    3.30
   3   4  11    4.60    2.90
   3   4  11   -5.80    3.10
   4  -5 -11   19.20    4.10
   3  -5 -11   32.10    3.90
   3  -5 -11   26.90    3.90
   3  -5 -11   25.30    3.10
  -3   5  11   34.10    4.70
  -3   5  11   30.60    3.90
  -3   5  11   38.30    4.20
   2  -5 -11   89.79    5.40
   2  -5 -11   96.79    4.70
  -2   5  11   90.89    5.70
  -2   5  11   95.79    5.40
  -2   5  11   91.79    5.50
   1  -5 -11   82.69    4.50
   1  -5 -11   86.09    4.60
   1  -5 -11   85.19    4.40
  -1   5  11   87.19    5.40
  -1   5  11   82.79    4.80
  -1   5  11   89.49    4.80
  -1   5  11   84.39    4.10
   0  -5 -11   31.90    2.70
   0  -5 -11   29.70    2.60
   0  -5 -11   33.40    2.80
   0   5  11   34.20    3.00
   0   5  11   33.10    3.80
   0   5  11   30.90    2.70
   0   5  11   33.30    3.10
  -1  -5 -11  159.38    6.60
  -1  -5 -11  165.98    6.40
  -1  -5 -11  161.28    6.30
   1   5  11  160.58    6.50
   1   5  11  159.78    8.00
   1   5  11  152.58    6.80
   1   5  11  167.98    5.90
  -2  -5 -11   36.60    3.80
  -2  -5 -11   41.50    2.90
   2   5  11   39.50    4.20
   2   5  11   41.90    5.00
  -3  -5 -11    5.70    1.70
  -3  -5 -11    7.60    2.70
   3   5  11   -0.10    3.50
  -3   6  11   10.00    3.50
  -3   6  11    8.70    3.50
  -3   6  11    1.30    3.10
   2  -6 -11   28.20    3.60
   2  -6 -11   26.10    2.70
  -2   6  11   24.90    3.70
  -2   6  11   29.00    3.70
  -2   6  11   31.10    3.60
   1  -6 -11  234.38    9.40
   1  -6 -11  247.48    9.20
  -1   6  11  244.38    9.70
  -1   6  11  238.78   10.40
  -1   6  11  251.27    9.10
  -1   6  11  229.88    9.40
   0  -6 -11    7.10    1.80
   0  -6 -11    2.20    1.70
   0  -6 -11    5.80    2.30
   0   6  11    4.90    2.00
   0   6  11    3.20    1.90
   0   6  11    2.80    2.50
   0   6  11    3.50    2.10
  -1  -6 -11  185.48    7.30
  -1  -6 -11  179.78    7.00
   1   6  11  175.38    8.50
   1   6  11  175.68    9.20
   1   6  11  172.38    7.60
  -2  -6 -11   73.69    4.90
  -2  -6 -11   65.09    5.70
  -2  -6 -11   62.79    3.80
   2   6  11   63.69    6.70
   2   6  11   58.79    4.80
  -3  -6 -11    2.90    1.90
   3   6  11    2.20    4.30
  -3   7  11   47.00    6.50
  -3   7  11   47.90    5.70
   2  -7 -11    4.20    3.10
  -2   7  11    4.40    3.80
  -2   7  11    3.20    3.30
   1  -7 -11   24.90    2.90
  -1   7  11   30.30    3.40
  -1   7  11   21.60    3.50
  -1   7  11   19.90    3.20
  -1   7  11   29.20    4.20
   0  -7 -11   13.90    2.20
   0   7  11   11.70    2.60
   0   7  11   13.80    2.60
  -1  -7 -11   89.39    5.80
  -1  -7 -11   93.29    5.10
   1   7  11   88.99    7.30
   1   7  11   80.49    5.60
  -2  -7 -11   20.30    3.20
  -2  -7 -11   27.90    3.50
   2   7  11   31.40    5.40
   2   7  11   26.80    3.90
   3   7  11   38.10    6.00
  -3   8  11   -6.30    5.30
  -3   8  11    8.80    5.50
  -2   8  11    0.50    4.20
   0  -8 -11    8.00    3.30
   0   8  11    1.70    3.10
  -1  -8 -11   66.99    5.80
   1   8  11   66.79    5.60
  -2  -8 -11    0.70    3.30
  -2   9  11  107.69   10.00
  -1   9  11  111.89    7.60
   0  11 -12   -0.50    3.60
  -1  11 -12    3.90    3.20
  -2 -10  12   -3.70    3.90
  -2 -10  12    0.50    3.20
   1  10 -12   12.00    3.40
   0  10 -12   48.30    4.60
  -1  10 -12    8.50    2.70
   1 -10  12   13.80    2.20
  -2  10 -12    3.90    2.60
   3   9 -12    3.90    5.70
  -3  -9  12    4.80    3.80
   2   9 -12    3.70    3.10
   2   9 -12    0.70    3.40
  -2  -9  12    1.90    4.40
  -2  -9  12   -1.20    2.70
   1   9 -12    5.00    2.60
   1   9 -12   -1.50    3.00
   0   9 -12   -0.20    3.40
   0   9 -12    3.90    2.10
  -1   9 -12   14.80    2.30
   1  -9  12   11.90    1.90
  -2   9 -12   63.19    4.40
  -3  -8  12    2.30    3.30
  -3  -8  12    5.20    5.20
  -3  -8  12    5.40    3.40
   2   8 -12    5.90    3.80
  -2  -8  12    4.00    3.70
   1   8 -12   13.70    2.70
   1   8 -12   10.80    2.80
   0   8 -12   -0.60    2.00
   0   8 -12    3.10    3.40
   0   8 -12    1.10    1.70
   0  -8  12    1.20    0.90
  -1   8 -12    7.70    1.80
   1  -8  12   10.20    1.60
  -2   8 -12   -2.70    2.90
  -2   8 -12    1.90    1.70
  -3   8 -12    0.80    3.80
  -3   8 -12    0.80    7.10
  -4  -7  12    6.00    3.90
   3   7 -12   57.09    5.40
  -3  -7  12   61.39    7.20
  -3  -7  12   49.20    5.00
  -3  -7  12   65.19    4.90
   2   7 -12    7.90    2.90
   2   7 -12    2.70    3.90
  -2  -7  12    7.20    3.00
  -2  -7  12    8.30    3.30
  -2  -7  12    5.10    2.40
  -2  -7  12    4.90    2.20
   1   7 -12   28.20    2.90
   1   7 -12   26.60    3.00
  -1  -7  12   26.30    2.80
   0   7 -12   15.50    2.00
   0   7 -12   20.50    2.50
   0  -7  12   24.50    2.60
   0  -7  12   16.90    1.50
  -1   7 -12    1.40    1.50
  -1   7 -12    3.10    1.40
   1  -7  12    1.80    1.20
   1  -7  12    1.90    2.60
  -2   7 -12   21.70    3.30
  -2   7 -12   17.80    2.20
   2  -7  12   13.90    3.30
  -3   7 -12    0.60    3.20
  -3   7 -12    0.60    1.80
   3  -7  12    1.80    4.00
   4  -7  12    2.50    9.10
  -4  -6  12   -5.60    3.60
   3   6 -12   20.90    2.50
   3   6 -12   20.10    3.70
  -3  -6  12   15.50    3.00
  -3  -6  12   20.50    2.30
  -3  -6  12   18.10    3.00
  -3  -6  12   30.80    4.40
   2   6 -12   28.10    3.40
   2   6 -12   29.60    3.20
  -2  -6  12   29.30    3.30
  -2  -6  12   30.40    3.00
   1   6 -12  120.09    5.40
   1   6 -12  121.59    6.00
  -1  -6  12  118.39    5.30
  -1  -6  12  112.29    6.70
   0   6 -12   16.20    1.90
   0   6 -12   14.10    1.90
   0  -6  12   12.60    1.80
  -1   6 -12    0.70    1.00
   1  -6  12    3.20    1.20
  -2   6 -12    7.20    1.50
  -2   6 -12    6.50    2.50
   2  -6  12    9.30    2.10
   2  -6  12    6.80    2.80
  -3   6 -12  160.88    8.00
   3  -6  12  157.48    7.30
   3  -6  12  160.18    8.80
  -4  -5  12   28.80    4.40
   3   5 -12    0.90    1.70
  -3  -5  12   -0.20    2.40
  -3  -5  12    1.50    2.80
   2   5 -12    3.60    1.80
   2   5 -12    2.10    2.00
  -2  -5  12    1.30    2.10
  -2  -5  12   -1.20    1.50
  -2  -5  12    2.00    2.10
   1   5 -12    0.10    1.40
   1   5 -12    0.10    0.90
   1   5 -12    2.10    1.20
  -1  -5  12    1.60    1.90
  -1  -5  12    1.70    1.10
  -1  -5  12    2.30    1.30
   0   5 -12    5.50    1.20
   0   5 -12    6.50    1.50
   0  -5  12    7.70    1.70
   0  -5  12    6.50    1.00
   0  -5  12    6.90    1.50
  -1   5 -12  118.29    4.80
  -2   5 -12  151.88    5.60
  -2   5 -12  132.19    6.40
  -2   5 -12  132.79    5.60
   2  -5  12  144.39    5.90
   2  -5  12  137.99    7.00
  -3   5 -12  304.07   11.90
  -3   5 -12  297.37   10.60
   3  -5  12  310.17   12.70
  -4   5 -12   11.70    3.80
  -4   5 -12    3.60    2.70
   4  -5  12   10.80    5.30
  -5  -4  12    1.70    4.30
   4   4 -12   11.10    3.80
  -4  -4  12    4.10    3.10
  -4  -4  12    9.40    3.20
   3   4 -12   55.79    4.50
   3   4 -12   60.99    5.10
  -3  -4  12   62.09    4.40
  -3  -4  12   61.89    2.70
   2   4 -12    1.50    1.20
   2   4 -12    2.80    1.60
   2   4 -12    2.10    1.50
  -2  -4  12    3.10    1.50
  -2  -4  12    1.60    1.10
  -2  -4  12    2.90    1.00
   1   4 -12    2.70    0.90
   1   4 -12    0.60    1.00
   1   4 -12    0.10    1.40
  -1  -4  12   -0.20    1.00
  -1  -4  12   -1.20    1.00
  -1  -4  12    0.70    0.80
   0   4 -12    9.10    1.20
   0   4 -12   12.20    1.60
   0  -4  12    7.90    1.40
   0  -4  12   11.40    1.70
   0  -4  12   13.80    1.30
  -1   4 -12   30.00    1.60
  -1   4 -12   29.70    2.00
   1  -4  12   33.60    2.00
  -2   4 -12   61.49    3.90
  -2   4 -12   62.79    3.10
   2  -4  12   58.29    3.50
   2  -4  12   58.69    4.70
  -3   4 -12    2.90    1.80
  -3   4 -12    3.00    2.40
   3  -4  12    4.90    2.20
   3  -4  12    9.50    3.20
  -4   4 -12    4.30    3.20
   4  -4  12    3.50    4.20
  -5   4 -12   18.10    4.30
  -5  -3  12    9.00    4.20
  -5  -3  12    8.80    4.20
   4   3 -12  122.39    7.80
  -4  -3  12  100.69    6.10
  -4  -3  12  105.69    6.50
  -4  -3  12  106.69    5.30
   3   3 -12  143.69    7.40
   3   3 -12  145.79    5.30
   3   3 -12  141.49    7.10
  -3  -3  12  152.68    5.90
  -3  -3  12  145.69    6.80
  -3  -3  12  155.08    6.60
   2   3 -12   39.70    2.60
   2   3 -12   44.70    3.10
   2   3 -12   39.20    3.30
  -2  -3  12   47.90    2.50
  -2  -3  12   36.70    2.30
  -2  -3  12   40.40    2.20
  -2  -3  12   40.80    2.90
   1   3 -12  110.89    4.60
   1   3 -12  114.19    5.00
  -1  -3  12  109.39    4.80
  -1  -3  12  117.39    4.20
  -1  -3  12  106.89    4.00
  -1  -3  12  110.49    3.80
  -1  -3  12  110.69    4.30
   0  -3  12   19.70    2.30
   0  -3  12   19.20    1.50
   0  -3  12   17.90    1.70
   0  -3  12   16.60    1.80
  -1   3 -12   70.49    3.10
  -1   3 -12   75.99    3.30
  -1   3 -12   78.29    2.70
   1  -3  12   73.99    3.50
   1  -3  12   84.39    4.70
   1  -3  12   77.79    3.40
  -2   3 -12   77.89    4.20
  -2   3 -12   75.09    3.60
   2  -3  12   79.39    3.90
   2  -3  12   83.59    6.70
  -3   3 -12    1.20    1.60
  -3   3 -12    4.80    2.20
   3  -3  12    9.10    1.90
   3  -3  12    6.20    2.60
  -4   3 -12    1.80    2.60
  -4   3 -12    7.20    2.70
   4  -3  12    6.70    4.10
  -5   3 -12   17.40    4.30
  -5  -2  12    9.40    3.30
  -5  -2  12   10.80    4.20
  -5  -2  12    4.00    4.10
  -4  -2  12   66.19    5.20
  -4  -2  12   61.59    4.60
   3   2 -12  225.98    9.40
   3   2 -12  223.38    9.60
  -3  -2  12  245.38    8.70
  -3  -2  12  232.88    9.70
   2   2 -12  241.08    9.20
   2   2 -12  253.67    9.60
  -2  -2  12  256.27    8.50
  -2  -2  12  261.17    9.00
  -2  -2  12  243.98    9.10
   1   2 -12   49.10    3.10
   1   2 -12   43.30    2.70
   1   2 -12   42.40    2.60
   1   2 -12   40.00    2.40
  -1  -2  12   41.30    1.70
  -1  -2  12   39.90    2.50
  -1  -2  12   40.00    2.20
  -1  -2  12   39.20    1.90
  -1  -2  12   35.20    2.20
   0   2 -12    3.20    0.60
   0  -2  12    2.40    0.70
   0  -2  12    3.00    1.00
  -1   2 -12  395.56   12.20
  -1   2 -12  378.36   12.40
  -1   2 -12  394.96   12.70
  -1   2 -12  378.96   12.60
   1  -2  12  377.36   13.60
   1  -2  12  384.76   12.70
   1  -2  12  387.16   12.50
  -2   2 -12  157.58    6.30
  -2   2 -12  156.88    6.00
   2  -2  12  150.68    6.00
   2  -2  12  153.68    7.10
  -3   2 -12    2.10    1.60
  -3   2 -12   -0.80    1.60
   3  -2  12   -1.60    1.90
   3  -2  12   -1.50    2.50
  -4   2 -12   12.10    2.80
   4  -2  12   13.90    3.50
   4  -2  12    6.40    3.90
  -5   2 -12    5.50    5.30
   5  -2  12   -6.00    4.30
  -5  -1  12   17.60    4.00
   4   1 -12    6.10    3.80
  -4  -1  12    8.30    2.80
  -4  -1  12   10.20    2.90
  -4  -1  12    8.80    2.80
   3   1 -12   24.80    2.80
   3   1 -12   30.70    3.30
   3   1 -12   24.90    3.10
  -3  -1  12   23.80    2.50
  -3  -1  12   27.90    3.30
  -3  -1  12   28.70    3.10
   2   1 -12   24.60    2.40
   2   1 -12   23.50    2.40
   2   1 -12   23.40    2.30
  -2  -1  12   19.50    2.30
  -2  -1  12   25.80    2.30
   1   1 -12    8.30    1.50
   1   1 -12    9.40    1.50
  -1  -1  12    9.70    1.30
  -1  -1  12    7.90    1.20
   0   1 -12    5.20    1.10
   0  -1  12    4.30    0.90
   0  -1  12    3.70    1.50
   0  -1  12    5.20    0.70
  -1   1 -12  178.28    6.60
  -1   1 -12  184.18    6.60
   1  -1  12  178.78    7.50
   1  -1  12  179.38    6.40
  -2   1 -12   31.20    2.10
  -2   1 -12   32.50    2.50
  -2   1 -12   35.80    3.50
   2  -1  12   30.20    2.40
   2  -1  12   33.00    3.40
  -3   1 -12    4.00    1.80
  -3   1 -12    3.10    1.90
   3  -1  12   -1.60    2.50
   3  -1  12   -2.10    2.70
   3  -1  12    7.00    2.00
   4  -1  12   23.50    4.50
   4  -1  12   34.00    4.80
   4  -1  12   25.10    3.60
  -5   0  12   95.09    7.10
   4   0 -12    5.70    3.10
   4   0 -12   -0.70    2.90
   4   0 -12   -1.60    3.00
  -4   0  12    4.40    2.40
   3   0 -12   50.89    4.10
   3   0 -12   50.39    3.90
   3   0 -12   48.90    4.00
  -3   0  12   51.79    3.80
  -3   0  12   45.20    4.80
   2   0 -12   21.20    2.40
  -2   0  12   19.30    2.20
  -2   0  12   20.50    2.20
   1   0 -12   94.69    4.20
  -1   0  12   90.89    4.10
  -1   0  12   85.29    3.80
   0   0 -12    1.10    0.80
   0   0  12    1.30    0.80
   0   0  12    0.70    1.60
  -1   0 -12   43.70    2.50
  -1   0 -12   47.40    2.50
   1   0  12   40.60    3.50
   1   0  12   41.80    2.80
   1   0  12   45.10    2.40
  -2   0 -12    0.60    1.00
  -2   0 -12    1.30    1.20
  -2   0 -12    1.50    1.20
   2   0  12    3.50    2.10
   2   0  12   -0.70    1.70
   2   0  12    2.30    1.20
   2   0  12    2.80    1.30
  -3   0 -12   53.59    3.90
  -3   0 -12   52.49    3.70
  -3   0 -12   61.29    3.60
   3   0  12   51.99    3.70
   3   0  12   50.99    4.40
   3   0  12   50.79    4.90
  -4   0 -12    2.30    3.10
  -4   0 -12    1.20    2.60
  -4   0 -12    3.10    2.30
   4   0  12    4.00    3.30
   4   0  12    6.70    2.70
  -5   1  12   52.49    5.10
   4  -1 -12  150.88    8.00
   4  -1 -12  161.78    8.20
   4  -1 -12  153.38   10.40
  -4   1  12  150.48    7.10
  -4   1  12  150.58    7.70
   3  -1 -12    0.90    2.10
   3  -1 -12   -0.60    2.00
   3  -1 -12    2.30    2.10
  -3   1  12   -1.40    1.60
  -3   1  12    1.20    1.80
  -3   1  12    2.70    2.10
   2  -1 -12   26.80    2.80
  -2   1  12   25.00    2.60
  -2   1  12   28.00    2.50
   1  -1 -12   34.30    2.30
   1  -1 -12   30.40    2.30
   1  -1 -12   31.60    2.30
  -1   1  12   38.20    2.40
  -1   1  12   33.40    1.50
   0  -1 -12   70.19    3.30
   0  -1 -12   65.39    3.10
   0   1  12   68.99    3.10
   0   1  12   65.39    4.00
  -1  -1 -12    0.30    0.70
  -1  -1 -12   -0.20    0.90
   1   1  12   -1.70    1.70
   1   1  12    0.10    1.00
   1   1  12    0.00    1.10
  -2  -1 -12    3.90    1.40
  -2  -1 -12    4.80    1.10
  -2  -1 -12    4.00    1.20
   2   1  12    4.10    1.10
   2   1  12    0.70    1.70
   2   1  12    5.70    1.30
   2   1  12    5.30    1.10
   2   1  12    4.20    2.60
  -3  -1 -12    5.30    1.60
  -3  -1 -12    7.10    2.20
  -3  -1 -12    5.20    1.60
   3   1  12    5.10    1.80
   3   1  12    7.90    2.90
   3   1  12    4.10    2.70
  -4  -1 -12    7.40    2.30
  -4  -1 -12    1.60    2.40
   4   1  12    6.70    2.60
   4   1  12    6.10    4.40
   5  -2 -12   30.90    5.90
   5  -2 -12   33.50    9.10
   4  -2 -12   26.30    3.90
   4  -2 -12   23.10    3.80
  -4   2  12   26.80    2.90
   3  -2 -12   -1.20    2.20
   3  -2 -12   -1.20    2.00
  -3   2  12    0.50    2.10
  -3   2  12    1.60    2.10
  -3   2  12   -2.80    1.80
   2  -2 -12    2.90    1.40
   2  -2 -12    6.20    1.00
   2  -2 -12   12.60    2.00
  -2   2  12    2.50    1.60
  -2   2  12    4.10    1.50
   1  -2 -12   40.20    2.60
   1  -2 -12   46.50    2.80
   1  -2 -12   43.20    2.70
   1  -2 -12   41.40    2.40
  -1   2  12   44.90    2.00
  -1   2  12   41.60    3.70
  -1   2  12   42.00    1.80
  -1   2  12   41.00    2.70
  -1   2  12   39.70    2.80
   0  -2 -12   23.60    1.90
   0  -2 -12   25.10    1.80
   0   2  12   26.30    1.90
  -1  -2 -12  177.88    6.40
  -1  -2 -12  159.68    5.90
  -1  -2 -12  170.28    6.60
  -1  -2 -12  177.68    6.40
   1   2  12  177.88    6.30
  -2  -2 -12  165.18    6.20
  -2  -2 -12  155.28    6.10
  -2  -2 -12  164.28    6.70
   2   2  12  163.58    7.80
   2   2  12  167.98    6.30
   2   2  12  158.38    7.00
  -3  -2 -12    3.10    1.60
  -3  -2 -12    1.20    2.10
   3   2  12    3.40    2.70
   3   2  12   -2.60    2.60
   3   2  12   -0.60    1.80
   3   2  12    3.80    3.10
  -4  -2 -12   26.50    2.90
   4   2  12   29.20    5.80
   5  -3 -12    4.30    5.60
   4  -3 -12    8.50    3.30
   4  -3 -12    4.90    4.90
  -4   3  12    8.50    3.40
  -4   3  12    3.80    3.20
   3  -3 -12    8.30    2.50
   3  -3 -12    7.50    2.40
   3  -3 -12    8.40    2.60
  -3   3  12   13.80    2.60
  -3   3  12   10.00    2.80
   2  -3 -12   29.20    2.70
   2  -3 -12   27.50    2.80
   2  -3 -12   23.60    2.70
   2  -3 -12   26.60    3.00
  -2   3  12   29.10    4.60
  -2   3  12   23.90    2.60
  -2   3  12   29.10    3.10
  -2   3  12   26.10    2.80
   1  -3 -12   52.19    3.30
   1  -3 -12   52.59    3.30
   1  -3 -12   50.79    3.20
  -1   3  12   55.59    3.90
  -1   3  12   60.79    4.50
  -1   3  12   51.89    3.30
   0  -3 -12    6.40    1.20
   0  -3 -12   10.10    1.50
   0  -3 -12    8.20    1.40
   0   3  12    5.00    1.90
   0   3  12    9.70    1.40
   0   3  12    9.40    2.10
   0   3  12    8.80    1.60
  -1  -3 -12   94.79    4.40
  -1  -3 -12   93.19    4.00
  -1  -3 -12   95.69    4.20
  -1  -3 -12   98.09    4.20
   1   3  12  100.79    4.30
   1   3  12   97.29    5.30
   1   3  12   92.59    5.80
   1   3  12   94.49    4.20
   1   3  12   97.19    4.60
  -2  -3 -12   96.29    5.00
  -2  -3 -12   93.09    4.70
  -2  -3 -12   97.09    4.30
   2   3  12   87.39    5.10
   2   3  12   94.69    6.10
   2   3  12   86.29    5.60
   2   3  12   99.29    4.40
  -3  -3 -12    8.60    1.80
  -3  -3 -12   10.00    2.60
   3   3  12    9.80    3.50
   3   3  12   10.40    3.10
   3   3  12    2.40    2.80
   3   3  12    7.60    2.20
   5  -4 -12   -5.20    5.30
   4  -4 -12    3.10    3.70
   4  -4 -12   -3.10    3.30
   3  -4 -12   -0.30    2.70
   3  -4 -12    2.30    2.60
   3  -4 -12    2.20    2.30
  -3   4  12    5.80    2.50
  -3   4  12    2.90    2.60
   2  -4 -12   16.10    2.50
   2  -4 -12   17.20    2.60
   2  -4 -12   18.40    2.40
   2  -4 -12   21.20    2.70
  -2   4  12   18.70    2.70
  -2   4  12   19.00    2.80
  -2   4  12   21.40    2.90
   1  -4 -12    3.90    1.40
   1  -4 -12    3.20    1.60
   1  -4 -12    4.30    1.50
  -1   4  12    2.40    1.60
  -1   4  12    0.60    2.20
  -1   4  12    4.80    1.30
  -1   4  12    3.30    2.00
   0  -4 -12   49.10    2.90
   0  -4 -12   50.39    3.10
   0  -4 -12   49.10    3.10
   0   4  12   51.49    3.00
   0   4  12   46.50    4.50
   0   4  12   51.59    3.20
   0   4  12   51.79    3.20
   0   4  12   47.20    4.00
  -1  -4 -12    3.90    1.40
  -1  -4 -12    3.00    1.30
  -1  -4 -12    1.50    1.10
   1   4  12    3.90    2.60
   1   4  12    1.00    2.10
   1   4  12    3.10    1.50
   1   4  12    2.60    1.70
  -2  -4 -12   11.20    1.80
   2   4  12   15.30    3.40
   2   4  12   10.70    2.40
   2   4  12    9.70    2.70
   2   4  12   11.60    1.90
   3   4  12   -1.40    2.90
   3   4  12    1.00    3.40
   3   4  12    3.00    3.70
   4  -5 -12   41.10    5.50
  -4   5  12   31.20    5.10
   3  -5 -12    5.20    2.60
  -3   5  12    2.90    2.90
  -3   5  12    1.30    2.90
   2  -5 -12    2.40    2.10
   2  -5 -12    0.50    1.80
   2  -5 -12   -3.20    1.90
  -2   5  12    0.30    2.40
  -2   5  12   -0.10    2.10
  -2   5  12    1.00    2.00
   1  -5 -12    8.70    2.10
   1  -5 -12    6.20    1.70
   1  -5 -12    9.80    2.00
  -1   5  12    8.50    2.00
  -1   5  12    9.00    2.30
  -1   5  12   11.00    1.70
  -1   5  12   10.00    2.60
   0  -5 -12   86.89    4.50
   0  -5 -12   89.79    4.40
   0  -5 -12   86.19    4.50
   0   5  12   88.99    4.70
   0   5  12   91.09    4.50
   0   5  12   93.69    4.60
   0   5  12   87.99    5.70
  -1  -5 -12   51.99    3.30
  -1  -5 -12   52.79    3.30
   1   5  12   55.69    3.70
   1   5  12   58.19    3.90
   1   5  12   51.09    5.10
   1   5  12   62.29    5.40
   1   5  12   60.69    3.90
  -2  -5 -12    2.50    2.40
  -2  -5 -12    1.30    1.40
   2   5  12   -1.10    3.20
   2   5  12    3.00    2.40
  -3  -5 -12    2.00    1.90
   3   5  12   -0.40    5.50
   3   5  12   -1.60    4.10
  -4  -5 -12   15.80    4.10
  -3   6  12   -0.20    3.80
  -3   6  12   -5.20    3.60
   2  -6 -12    0.10    2.10
   2  -6 -12    1.40    2.70
   2  -6 -12    0.10    2.70
  -2   6  12    8.90    3.10
  -2   6  12    0.10    3.20
  -2   6  12   -1.30    3.10
   1  -6 -12   -0.60    2.00
   1  -6 -12    0.40    2.00
  -1   6  12    2.30    1.80
  -1   6  12    4.70    2.40
  -1   6  12    1.90    2.60
  -1   6  12    4.90    2.40
   0  -6 -12  567.74   18.60
   0  -6 -12  547.05   18.20
   0   6  12  532.75   18.10
   0   6  12  546.55   20.00
   0   6  12  559.24   18.60
   0   6  12  550.14   18.40
  -1  -6 -12   14.00    2.20
  -1  -6 -12   16.00    2.30
   1   6  12    7.50    2.50
   1   6  12   15.90    3.30
  -2  -6 -12   52.39    4.30
  -2  -6 -12   49.90    4.70
   2   6  12   50.89    5.00
   2   6  12   61.29    6.50
  -3  -6 -12   24.80    5.40
  -3  -6 -12   24.40    2.80
   3   6  12   39.80    5.90
  -3   7  12    6.80    4.50
  -2   7  12   22.20    4.50
  -2   7  12   24.60    4.20
   1  -7 -12    4.40    2.40
  -1   7  12    6.60    3.00
  -1   7  12    3.00    3.80
  -1   7  12    0.30    2.90
  -1   7  12    7.60    2.50
   0  -7 -12   27.30    3.10
   0   7  12   29.80    3.20
  -1  -7 -12    7.20    2.40
   1   7  12    1.40    3.40
   1   7  12   -2.00    5.30
  -2  -7 -12   11.70    2.50
  -2  -7 -12   11.10    3.00
   2   7  12   15.20    4.50
   3   7  12    7.80    6.60
  -3   8  12    6.20    5.60
  -3   8  12   20.60    6.00
  -2   8  12    8.60    4.30
  -2   8  12    4.20    5.00
  -1   8  12   51.59    4.70
   1   8  12    1.30    3.40
  -2  -8 -12   20.50    3.80
   2   8  12   25.50    9.40
  -2   9  12   -3.40    6.00
  -2   9  12   18.90    9.00
  -1   9  12    2.70    4.20
  -2 -10  13   21.30    3.90
  -2 -10  13   28.90    4.40
   1  10 -13    2.40    3.40
  -1  10 -13   -2.60    2.60
   1 -10  13    2.00    1.80
  -3  -9  13    3.30    4.00
   2   9 -13   31.90    4.60
   2   9 -13   39.30    5.10
  -2  -9  13   41.70    4.90
  -2  -9  13   32.00    5.30
  -2  -9  13   25.60    3.70
   1   9 -13   11.80    3.00
   1   9 -13   20.30    4.80
   0  -9  13   21.30    4.00
  -1   9 -13    9.70    2.30
   1  -9  13    6.30    1.70
  -2   9 -13   -0.40    2.10
   2  -9  13   -7.00    4.40
   3   8 -13   -2.80    4.40
  -3  -8  13    3.90    3.50
  -3  -8  13    0.20    3.30
   2   8 -13   -2.90    3.60
   2   8 -13    3.30    2.90
  -2  -8  13   -0.50    2.40
  -2  -8  13    3.00    3.70
   1   8 -13   46.70    4.40
   1   8 -13   50.29    4.80
  -1  -8  13   57.29    5.90
   0   8 -13    3.30    1.80
   0   8 -13    1.60    2.10
   0  -8  13    1.00    1.00
   0  -8  13   -0.70    2.40
   1  -8  13   16.50    2.00
  -2   8 -13    3.80    1.90
  -3   8 -13  110.59    8.40
  -3   8 -13  122.29    6.00
  -4  -7  13    1.40    4.00
  -3  -7  13    0.80    2.90
  -3  -7  13    0.50    2.80
  -3  -7  13    4.70    4.00
   2   7 -13    8.50    2.90
   2   7 -13    2.60    2.70
  -2  -7  13   -0.40    2.20
  -2  -7  13   10.50    3.10
   1   7 -13    1.50    2.20
   1   7 -13    1.70    1.70
  -1  -7  13    1.30    3.50
  -1  -7  13    2.60    3.30
   0   7 -13   28.60    3.40
   0   7 -13   31.60    2.90
   0  -7  13   33.40    1.90
   0  -7  13   36.20    4.00
   0  -7  13   32.20    3.00
  -1   7 -13    9.80    3.30
  -1   7 -13    8.70    1.70
  -1   7 -13    9.70    2.00
   1  -7  13    5.10    1.40
  -2   7 -13    0.20    2.40
  -2   7 -13    0.20    2.60
   2  -7  13    3.90    3.90
   2  -7  13    4.50    3.20
  -3   7 -13   -0.60    3.20
   3  -7  13    3.10    4.20
   4  -7  13  104.49    9.70
  -4  -6  13   -0.50    4.00
  -4  -6  13    0.80    3.40
   3   6 -13    4.00    3.70
   3   6 -13    8.20    3.60
  -3  -6  13    6.50    2.90
  -3  -6  13    7.50    2.50
   2   6 -13  201.38    9.20
   2   6 -13  219.98    9.00
  -2  -6  13  217.88   10.20
  -2  -6  13  203.48    8.50
   1   6 -13   -0.80    1.80
   1   6 -13    2.80    1.50
  -1  -6  13    2.10    1.60
  -1  -6  13    0.70    1.40
   0   6 -13   59.99    3.70
   0   6 -13   61.09    3.30
   0   6 -13   57.89    3.30
   0  -6  13   64.29    3.60
   0  -6  13   57.89    2.70
  -1   6 -13   35.50    2.50
  -1   6 -13   40.40    2.90
   1  -6  13   34.70    2.40
  -2   6 -13  267.97    9.60
  -2   6 -13  256.97   10.40
   2  -6  13  266.97   11.50
   2  -6  13  270.87    9.80
  -3   6 -13   84.59    5.90
   3  -6  13   73.19    5.10
   3  -6  13   72.79    8.20
   4  -6  13   42.20    7.90
   4   5 -13   22.10    4.30
  -4  -5  13   19.10    3.80
  -4  -5  13   13.20    3.80
   3   5 -13   16.10    3.00
  -3  -5  13   14.50    2.70
  -3  -5  13   10.60    2.70
   2   5 -13   79.89    4.80
   2   5 -13   75.49    5.20
  -2  -5  13   88.69    5.10
  -2  -5  13   76.69    4.40
   1   5 -13    8.30    1.50
   1   5 -13    6.70    1.80
   1   5 -13    7.40    1.20
  -1  -5  13    9.70    1.70
  -1  -5  13   12.60    1.20
  -1  -5  13    6.70    2.00
   0   5 -13   76.39    3.90
   0   5 -13   70.79    3.50
   0  -5  13   66.29    4.00
   0  -5  13   68.89    3.60
   0  -5  13   71.39    3.40
  -1   5 -13   78.09    3.70
   1  -5  13   79.29    5.40
  -2   5 -13  361.16   12.40
  -2   5 -13  370.66   13.10
  -2   5 -13  373.36   12.10
   2  -5  13  342.67   13.70
   2  -5  13  372.06   12.60
  -3   5 -13   26.80    3.60
  -3   5 -13   21.20    2.50
   3  -5  13   25.70    3.90
   3  -5  13   24.80    3.10
  -4   5 -13  170.98    9.00
  -4   5 -13  164.38    7.60
   4  -5  13  158.78   10.10
  -5  -4  13   -5.90    4.40
  -4  -4  13    1.20    3.10
  -4  -4  13    0.00    6.00
   3   4 -13   30.20    3.70
   3   4 -13   33.70    4.10
  -3  -4  13   31.50    2.40
  -3  -4  13   34.60    3.70
  -3  -4  13   31.80    3.50
   2   4 -13   -1.00    1.20
   2   4 -13   -0.60    1.80
   2   4 -13    3.60    1.60
  -2  -4  13    1.10    1.50
  -2  -4  13    1.50    1.60
  -2  -4  13    0.20    1.10
   1   4 -13   15.10    2.20
   1   4 -13   13.10    1.40
   1   4 -13    8.30    1.40
  -1  -4  13   14.70    1.40
  -1  -4  13   14.00    1.90
  -1  -4  13   11.60    1.50
   0   4 -13   32.30    2.20
   0   4 -13   33.70    2.40
   0  -4  13   28.30    2.90
   0  -4  13   36.60    2.60
  -1   4 -13    2.90    1.30
  -1   4 -13    5.40    0.50
  -1   4 -13    5.60    1.40
  -1   4 -13    3.90    1.00
  -1   4 -13    3.90    0.80
   1  -4  13    4.20    1.10
   1  -4  13    5.40    1.30
  -2   4 -13    2.70    1.70
  -2   4 -13    2.80    1.40
   2  -4  13    3.00    1.50
   2  -4  13    2.50    2.50
  -3   4 -13   67.29    4.20
  -3   4 -13   73.79    5.00
   3  -4  13   76.59    4.70
   3  -4  13   72.49    6.20
  -4   4 -13   -1.90    2.60
   4  -4  13   -2.90    4.30
   4  -4  13   -0.30    3.40
  -5   4 -13   29.20    4.70
  -5  -3  13   31.30    5.10
  -5  -3  13   21.30    4.50
  -4  -3  13   19.10    4.80
  -4  -3  13   15.10    3.50
  -4  -3  13   18.00    2.50
   3   3 -13  152.78    7.40
   3   3 -13  148.49    7.70
  -3  -3  13  156.48    7.00
  -3  -3  13  157.08    6.10
   2   3 -13   50.59    3.00
   2   3 -13   58.89    3.80
   2   3 -13   50.29    3.60
  -2  -3  13   60.09    3.00
  -2  -3  13   56.89    2.90
  -2  -3  13   57.49    3.60
  -2  -3  13   55.89    2.60
   1   3 -13  423.76   14.10
   1   3 -13  424.36   13.90
   1   3 -13  404.96   14.20
  -1  -3  13  439.26   13.40
  -1  -3  13  399.16   13.10
  -1  -3  13  422.56   12.80
  -1  -3  13  406.56   13.40
  -1  -3  13  421.46   14.00
   0   3 -13   65.09    3.30
   0   3 -13   65.99    3.30
   0   3 -13   62.79    3.00
   0  -3  13   58.79    3.70
   0  -3  13   69.09    2.90
   0  -3  13   70.39    4.30
   0  -3  13   66.09    3.30
  -1   3 -13   58.89    2.90
  -1   3 -13   62.19    3.20
  -1   3 -13   59.39    2.90
  -1   3 -13   61.29    3.10
  -1   3 -13   58.89    2.20
   1  -3  13   59.49    3.00
   1  -3  13   63.29    3.10
  -2   3 -13   32.60    2.90
  -2   3 -13   27.10    2.50
   2  -3  13   33.40    2.70
  -3   3 -13    1.60    1.70
  -3   3 -13   -2.40    1.80
   3  -3  13    3.40    2.00
   3  -3  13    2.20    2.80
  -4   3 -13   53.39    4.80
   4  -3  13   51.09    5.40
   4  -3  13   50.19    4.90
  -5  -2  13    3.10    3.40
  -5  -2  13   -2.70    3.70
  -4  -2  13  144.39    6.70
  -4  -2  13  122.59    9.80
   3   2 -13   92.09    5.50
   3   2 -13   74.49    5.10
   3   2 -13   76.99    4.80
  -3  -2  13   82.39    4.40
  -3  -2  13   77.79    5.20
   2   2 -13  318.97   11.90
   2   2 -13  342.37   11.70
  -2  -2  13  343.77   11.70
  -2  -2  13  324.47   11.40
  -2  -2  13  319.57   10.80
   1   2 -13   90.49    3.60
   1   2 -13   90.29    4.20
   1   2 -13   89.99    4.20
   1   2 -13   89.59    3.80
  -1  -2  13   91.19    3.70
  -1  -2  13   83.29    4.00
  -1  -2  13   85.59    3.00
  -1  -2  13   81.79    3.20
  -1  -2  13   79.89    3.70
   0   2 -13   94.99    3.30
   0   2 -13   87.79    3.90
   0   2 -13   88.89    3.60
   0  -2  13   91.09    3.60
  -1   2 -13  130.89    5.10
  -1   2 -13  127.99    4.80
  -1   2 -13  126.79    5.10
   1  -2  13  123.89    5.00
   1  -2  13  127.99    4.90
   1  -2  13  123.19    6.20
  -2   2 -13  229.48    8.00
  -2   2 -13  229.88    8.60
  -2   2 -13  236.68    8.50
   2  -2  13  234.58    8.20
   2  -2  13  235.68    8.50
  -3   2 -13    2.10    1.80
  -3   2 -13    0.50    1.80
   3  -2  13   -2.60    2.00
   3  -2  13   -1.20    2.70
   4  -2  13    8.60    4.00
   4  -2  13   11.90    4.40
   4  -2  13   11.60    3.20
   5  -2  13   15.60    4.80
  -5  -1  13   -3.00    3.80
   4   1 -13    0.20    3.00
  -4  -1  13   -0.10    2.60
   3   1 -13   32.80    3.70
   3   1 -13   30.50    3.40
   3   1 -13   33.20    3.60
   3   1 -13   32.20    3.50
  -3  -1  13   40.10    3.60
  -3  -1  13   32.30    3.30
  -3  -1  13   29.80    3.10
   2   1 -13    0.60    1.30
   2   1 -13   -1.00    1.30
   2   1 -13    0.00    1.40
  -2  -1  13    0.60    1.30
  -2  -1  13    1.00    1.10
   1   1 -13   41.20    2.70
   1   1 -13   41.90    2.80
  -1  -1  13   40.40    3.20
  -1  -1  13   41.20    2.70
  -1  -1  13   39.50    2.40
   0   1 -13   16.00    1.70
   0   1 -13   15.40    1.30
   0  -1  13   12.80    1.30
   0  -1  13   16.50    2.20
   0  -1  13   17.30    1.50
   0  -1  13   17.40    1.70
  -1   1 -13   13.20    1.30
  -1   1 -13   11.40    1.40
  -1   1 -13   13.00    1.50
   1  -1  13   13.70    1.60
   1  -1  13   11.10    2.10
  -2   1 -13   46.80    3.10
  -2   1 -13   45.60    2.60
   2  -1  13   47.90    4.10
   2  -1  13   48.10    3.00
  -3   1 -13    5.30    1.90
  -3   1 -13    3.90    1.70
  -3   1 -13    5.40    1.60
   3  -1  13    3.70    3.00
   3  -1  13    1.30    1.90
   3  -1  13    1.30    2.30
   4  -1  13   27.20    4.90
   4  -1  13   31.00    4.80
   4  -1  13   47.30    5.00
   5  -1  13   16.50    5.40
   5   0 -13    7.30    4.80
  -5   0  13   -1.40    3.60
   4   0 -13    7.50    3.30
   4   0 -13   14.10    3.90
  -4   0  13    6.10    2.40
   3   0 -13   66.59    4.70
   3   0 -13   66.89    4.60
   3   0 -13   65.09    4.40
   3   0 -13   64.79    4.50
  -3   0  13   64.59    4.40
  -3   0  13   61.79    5.80
  -3   0  13   63.89    4.30
   2   0 -13   31.40    2.70
   2   0 -13   33.00    2.70
   2   0 -13   28.70    2.70
  -2   0  13   25.10    2.50
  -2   0  13   29.00    3.20
  -2   0  13   30.90    2.60
   1   0 -13   30.80    2.90
  -1   0  13   25.70    3.50
  -1   0  13   25.90    2.10
   0   0 -13  106.09    4.90
   0   0 -13   93.99    4.00
   0   0  13  101.09    5.30
   0   0  13   92.09    4.00
  -1   0 -13   18.50    1.90
  -1   0 -13   17.60    1.80
   1   0  13   18.10    2.10
   1   0  13   16.20    2.50
   1   0  13   18.60    1.80
  -2   0 -13   -1.00    1.20
  -2   0 -13    3.20    1.20
   2   0  13   -1.00    1.60
   2   0  13    1.90    1.30
  -3   0 -13   15.20    2.10
  -3   0 -13   15.20    2.40
  -3   0 -13   16.30    2.10
   3   0  13   13.70    2.90
   3   0  13   16.60    2.40
   3   0  13   18.80    3.50
   4   0  13   -1.60    3.40
   4   0  13   -1.40    2.80
  -5   1  13   20.90    4.20
   4  -1 -13   10.00    3.30
   4  -1 -13   11.60    3.50
  -4   1  13    6.60    2.50
   3  -1 -13   74.99    4.90
   3  -1 -13   76.99    5.00
   3  -1 -13   73.69    4.90
  -3   1  13   79.39    4.70
  -3   1  13   77.59    4.90
  -3   1  13   83.99    4.80
   2  -1 -13   15.20    1.90
   2  -1 -13   16.90    2.20
   2  -1 -13   19.30    2.20
  -2   1  13   19.30    2.30
  -2   1  13   18.20    2.30
   1  -1 -13   31.10    2.30
   1  -1 -13   27.90    2.50
   1  -1 -13   27.00    2.30
  -1   1  13   30.00    2.50
  -1   1  13   29.20    1.40
  -1   1  13   28.30    2.30
   0  -1 -13   16.70    1.70
   0  -1 -13   16.20    1.60
   0   1  13   16.20    1.70
   0   1  13   17.60    2.30
  -1  -1 -13   85.59    3.50
  -1  -1 -13   80.69    3.70
  -1  -1 -13   82.29    3.90
   1   1  13   86.69    3.80
   1   1  13   77.69    4.10
   1   1  13   83.09    5.10
  -2  -1 -13   21.20    2.00
  -2  -1 -13   20.30    2.40
  -2  -1 -13   22.50    2.30
   2   1  13   21.20    1.90
   2   1  13   20.80    2.60
   2   1  13   20.60    2.00
  -3  -1 -13    2.50    1.80
  -3  -1 -13    4.40    1.70
  -3  -1 -13    2.70    2.00
   3   1  13    4.80    2.00
   3   1  13    7.40    3.20
   3   1  13    7.30    2.60
   4   1  13    0.00    2.80
   5  -2 -13   54.99    7.60
   4  -2 -13   -5.10    3.30
   4  -2 -13   -5.90    3.00
   4  -2 -13    2.90    3.20
  -4   2  13   -1.50    2.20
   3  -2 -13    5.70    2.20
   3  -2 -13    8.70    2.40
   3  -2 -13   -1.80    2.20
  -3   2  13    0.80    2.20
  -3   2  13    1.40    2.30
  -3   2  13    4.90    2.10
   2  -2 -13    3.60    1.70
   2  -2 -13    7.80    1.70
   2  -2 -13    3.90    1.70
  -2   2  13    3.10    1.50
  -2   2  13    4.30    1.60
   1  -2 -13    8.60    1.50
   1  -2 -13   10.20    1.30
   1  -2 -13    6.30    1.40
   1  -2 -13    8.80    1.40
  -1   2  13    7.80    2.30
  -1   2  13    8.30    1.70
  -1   2  13    7.90    1.00
  -1   2  13    5.90    1.60
  -1   2  13    6.70    0.90
   0  -2 -13    0.40    0.60
   0  -2 -13   -0.30    0.80
   0  -2 -13    0.50    1.00
   0   2  13    1.20    1.90
  -1  -2 -13   22.30    1.70
  -1  -2 -13   19.70    2.00
  -1  -2 -13   21.60    2.20
   1   2  13   18.90    2.80
   1   2  13   22.80    2.60
   1   2  13   18.90    2.10
  -2  -2 -13   19.10    1.90
  -2  -2 -13   14.50    2.20
  -2  -2 -13   18.30    1.90
   2   2  13   18.70    2.70
   2   2  13   20.40    3.50
   2   2  13   22.00    2.20
  -3  -2 -13    3.20    1.80
  -3  -2 -13    5.90    2.30
   3   2  13    2.60    3.50
   3   2  13    7.20    1.90
   3   2  13    4.60    3.10
   3   2  13    6.70    3.00
  -4  -2 -13   50.49    5.50
   5  -3 -13   14.70    6.00
   4  -3 -13    2.40    3.30
   4  -3 -13    0.10    3.50
   3  -3 -13   29.20    3.90
   3  -3 -13   33.90    3.90
  -3   3  13   36.90    3.70
  -3   3  13   33.00    3.50
  -3   3  13   25.10    3.40
   2  -3 -13    7.10    2.10
   2  -3 -13    7.60    2.20
   2  -3 -13    6.20    2.20
  -2   3  13    4.30    1.80
  -2   3  13    5.70    1.90
  -2   3  13    6.90    2.30
   1  -3 -13    0.70    1.30
   1  -3 -13   -1.10    1.30
   1  -3 -13    0.10    1.30
  -1   3  13   -0.50    1.60
  -1   3  13   -2.20    1.40
  -1   3  13    1.40    1.50
  -1   3  13    0.50    1.80
   0  -3 -13    2.10    1.20
   0  -3 -13    2.60    1.00
   0  -3 -13    4.70    1.30
   0   3  13    1.80    1.40
   0   3  13    2.30    1.20
  -1  -3 -13   98.29    4.60
  -1  -3 -13   88.19    4.00
  -1  -3 -13   99.49    3.50
  -1  -3 -13   91.69    4.20
   1   3  13   91.69    5.30
   1   3  13   94.09    6.10
   1   3  13  100.49    4.70
   1   3  13   90.19    4.30
  -2  -3 -13   89.29    4.80
  -2  -3 -13   93.59    4.30
  -2  -3 -13   92.99    4.40
   2   3  13   97.49    5.40
   2   3  13   92.99    4.60
   2   3  13   89.79    6.00
   2   3  13   91.59    6.60
  -3  -3 -13   -3.00    2.30
   3   3  13    2.30    3.60
   3   3  13    1.00    2.80
   3   3  13   -3.60    3.10
   3   3  13    3.80    2.20
   4  -4 -13   14.50    4.00
   4  -4 -13    6.80    3.70
   3  -4 -13   12.00    2.70
   3  -4 -13    9.10    3.10
  -3   4  13   10.90    3.00
   2  -4 -13   58.59    4.40
   2  -4 -13   55.69    4.30
   2  -4 -13   49.99    4.20
   2  -4 -13   57.19    3.70
  -2   4  13   53.79    4.40
  -2   4  13   60.19    4.50
  -2   4  13   54.19    4.20
   1  -4 -13   -0.80    1.50
   1  -4 -13   -2.70    1.50
   1  -4 -13   -1.70    1.50
  -1   4  13   -2.30    1.80
  -1   4  13    0.80    1.70
  -1   4  13    0.90    1.20
  -1   4  13    2.40    1.80
  -1   4  13    2.30    2.50
   0  -4 -13    3.00    1.30
   0  -4 -13    1.80    1.30
   0   4  13    1.60    2.00
   0   4  13    1.60    1.50
   0   4  13    1.50    2.30
   0   4  13    1.80    1.60
   0   4  13    0.60    1.40
  -1  -4 -13   17.00    2.20
  -1  -4 -13   14.80    1.80
  -1  -4 -13   14.20    1.80
   1   4  13   13.00    1.90
   1   4  13   11.50    2.80
   1   4  13   13.50    2.10
   1   4  13    9.20    3.10
  -2  -4 -13    4.10    1.60
  -2  -4 -13    3.00    1.40
  -2  -4 -13    1.80    1.80
   2   4  13    7.70    3.70
   2   4  13    4.40    1.80
   2   4  13    4.80    2.60
   2   4  13    2.50    2.70
   3   4  13   30.10    4.90
   3   4  13   32.10    5.30
   3  -5 -13   40.50    5.90
   3  -5 -13   37.20    3.90
  -3   5  13   42.30    4.40
  -3   5  13   41.00    4.70
   2  -5 -13    1.50    2.10
   2  -5 -13    0.60    2.00
  -2   5  13   -1.90    2.30
  -2   5  13    1.30    2.70
  -2   5  13   -2.50    2.50
   1  -5 -13   63.69    4.20
   1  -5 -13   68.49    4.20
  -1   5  13   69.09    4.60
  -1   5  13   62.49    5.20
  -1   5  13   66.19    3.60
  -1   5  13   59.29    4.40
   0  -5 -13   56.09    4.20
   0  -5 -13   49.70    3.60
   0  -5 -13   45.40    3.40
   0   5  13   51.39    3.60
   0   5  13   49.50    4.70
   0   5  13   54.29    3.80
   0   5  13   56.29    3.90
  -1  -5 -13    5.10    1.80
  -1  -5 -13    5.50    1.80
  -1  -5 -13    2.30    1.50
   1   5  13    4.00    2.80
   1   5  13    7.80    3.10
   1   5  13    5.00    2.00
   1   5  13    4.20    1.90
  -2  -5 -13   14.30    3.60
   2   5  13   18.10    3.90
   2   5  13    9.40    2.50
  -3  -5 -13   19.40    2.50
   3   5  13   23.80    5.20
  -3   6  13   12.90    4.10
  -3   6  13   12.30    4.40
   2  -6 -13    1.80    2.30
  -2   6  13   -5.00    2.90
  -2   6  13    0.60    2.90
  -2   6  13    6.60    3.20
   1  -6 -13   22.70    3.00
   1  -6 -13   24.90    2.90
   1  -6 -13   24.00    3.00
  -1   6  13   23.30    4.60
  -1   6  13   28.60    3.40
  -1   6  13   26.80    2.90
  -1   6  13   23.50    3.20
   0  -6 -13    7.20    2.00
   0  -6 -13    3.30    2.10
   0   6  13    0.40    2.30
   0   6  13    2.50    2.40
   0   6  13    5.70    2.20
   0   6  13    2.70    3.20
  -1  -6 -13  133.09    6.20
  -1  -6 -13  125.99    6.10
   1   6  13  119.19    7.10
   1   6  13  142.29    8.20
   2   6  13   -3.20    4.00
  -3  -6 -13    1.10    2.20
   3   6  13    7.20    5.40
  -3   7  13   11.10    8.10
  -3   7  13    1.70    4.50
  -2   7  13   34.90    4.50
  -2   7  13   43.30    5.80
  -2   7  13   32.80    5.10
   1  -7 -13   22.30    3.30
   1  -7 -13   23.90    3.30
  -1   7  13   28.20    3.40
  -1   7  13   20.10    3.50
   0  -7 -13   54.39    4.50
   0  -7 -13   61.69    5.60
   0   7  13   62.29    4.90
   0   7  13   62.79    6.40
   0   7  13   60.99    6.60
  -1  -7 -13  225.68    9.20
   1   7  13  238.98   10.00
  -2  -7 -13   35.10    3.30
   2   7  13   22.40    6.00
  -3   8  13    0.30    5.90
  -2   8  13    2.10    5.10
  -2   8  13   -0.30    4.00
  -2   8  13   -4.50    4.70
  -1   8  13   23.60    3.80
  -2  -8 -13    5.10    3.70
   0  10 -14   13.00    4.40
   1 -10  14    1.30    2.90
   2   9 -14    9.50    4.20
  -2  -9  14   10.30    3.30
  -2  -9  14    0.50    5.00
   1   9 -14    3.90    2.60
  -1  -9  14   -5.20    5.70
   0   9 -14   10.90    2.50
   0  -9  14   11.70    4.60
  -1   9 -14    1.50    2.10
   1  -9  14    1.00    1.70
  -2   9 -14    2.50    2.20
   2  -9  14    1.30    5.00
   3   8 -14   20.60    4.80
  -3  -8  14   18.70    4.20
  -3  -8  14   18.80    3.70
   2   8 -14   12.80    3.70
  -2  -8  14    4.00    2.50
  -2  -8  14    5.20    3.90
   1   8 -14   32.30    4.00
   1   8 -14   40.30    4.30
  -1  -8  14   31.70    5.20
   0   8 -14   18.70    2.50
   0   8 -14   15.90    2.80
   0  -8  14   13.50    2.80
   0  -8  14   16.00    1.80
  -1   8 -14    2.30    1.70
  -2   8 -14   30.20    3.40
   2  -8  14   27.90    2.90
  -3   8 -14   27.30    5.00
  -4  -7  14    9.20    4.50
  -3  -7  14   14.80    3.20
  -3  -7  14   21.00    3.60
  -3  -7  14    8.10    4.50
   2   7 -14   19.90    3.80
  -2  -7  14   19.10    3.60
  -2  -7  14   13.40    2.60
   1   7 -14    5.20    2.60
   1   7 -14    7.70    2.10
  -1  -7  14    2.90    2.90
   0   7 -14    7.70    1.80
   0   7 -14   10.20    2.30
   0  -7  14   14.30    2.40
   0  -7  14    8.40    1.20
  -1   7 -14    8.50    1.70
  -1   7 -14   12.00    2.30
  -1   7 -14   10.60    2.40
   1  -7  14   10.40    1.70
  -2   7 -14   -0.90    2.60
   2  -7  14    1.00    2.00
  -3   7 -14    0.10    6.40
   3  -7  14    8.60    5.70
   4  -7  14  200.58   13.20
  -4  -6  14   13.20    4.00
  -4  -6  14   13.70    4.40
   3   6 -14    0.30    3.40
  -3  -6  14    1.60    2.60
   2   6 -14   19.70    3.20
  -2  -6  14   26.20    5.70
  -2  -6  14   25.30    2.90
   1   6 -14   60.79    4.00
   1   6 -14   64.59    4.60
  -1  -6  14   58.99    2.60
   0   6 -14   -0.30    1.40
   0   6 -14    2.00    1.80
   0   6 -14    4.00    1.30
   0  -6  14    2.30    1.00
   0  -6  14    2.50    1.70
  -1   6 -14    1.10    1.50
  -1   6 -14    0.60    1.10
  -1   6 -14    4.20    1.70
   1  -6  14    2.10    1.20
  -2   6 -14    5.00    2.40
  -2   6 -14    5.90    1.70
   2  -6  14    7.60    2.10
   2  -6  14    7.20    2.90
  -3   6 -14   87.19    6.40
   3  -6  14   88.49    5.50
   3  -6  14   92.09    7.40
  -4   6 -14   14.00    4.50
   4  -6  14   23.60    7.50
   4   5 -14    0.10    3.40
  -4  -5  14    2.40    3.20
   3   5 -14   75.79    5.50
  -3  -5  14   69.49    5.60
   2   5 -14    2.90    2.30
   2   5 -14    1.40    1.80
  -2  -5  14    1.50    1.80
   1   5 -14   29.30    3.40
   1   5 -14   31.30    2.70
   1   5 -14   32.60    2.30
  -1  -5  14   32.50    2.10
  -1  -5  14   36.50    3.00
   0   5 -14    0.70    1.40
   0   5 -14    0.40    1.00
   0   5 -14    1.50    1.40
   0  -5  14   -0.40    1.20
   0  -5  14    1.10    0.90
  -1   5 -14   73.89    3.70
  -1   5 -14   67.49    3.40
  -1   5 -14   72.09    3.90
  -1   5 -14   71.49    3.50
   1  -5  14   69.89    3.40
   1  -5  14   63.99    4.60
   1  -5  14   63.49    3.80
  -2   5 -14    3.10    2.00
  -2   5 -14    1.90    1.40
  -2   5 -14    1.80    1.30
   2  -5  14   -0.50    2.80
   2  -5  14    3.30    1.70
  -3   5 -14  701.33   23.90
  -3   5 -14  683.43   22.70
   3  -5  14  731.43   25.90
   3  -5  14  720.83   24.90
  -4   5 -14   49.70    5.10
  -4   5 -14   52.59    7.10
   4  -5  14   37.80    4.80
  -4  -4  14   -5.40    3.20
  -4  -4  14    2.30    2.90
  -3  -4  14    1.20    4.10
  -3  -4  14    5.60    1.60
  -3  -4  14    3.50    2.00
   2   4 -14   30.40    3.20
   2   4 -14   38.60    2.70
   2   4 -14   36.00    3.50
  -2  -4  14   35.50    3.60
  -2  -4  14   33.20    2.80
  -2  -4  14   35.80    3.80
  -2  -4  14   34.10    2.40
   1   4 -14    5.70    1.80
   1   4 -14    5.60    1.40
  -1  -4  14    4.50    1.50
  -1  -4  14    5.10    1.50
  -1  -4  14    6.20    2.40
  -1  -4  14    8.80    1.20
   0   4 -14   16.10    1.90
   0   4 -14   15.80    1.90
   0   4 -14   12.30    1.40
   0  -4  14   16.00    3.00
   0  -4  14   10.60    1.80
   0  -4  14   13.30    1.40
   0  -4  14   15.80    2.60
  -1   4 -14    3.90    1.20
  -1   4 -14    4.20    1.00
  -1   4 -14    4.70    1.50
   1  -4  14    5.80    3.20
   1  -4  14    2.40    1.30
   1  -4  14    1.90    1.10
  -2   4 -14  188.08    7.70
  -2   4 -14  190.68    7.10
   2  -4  14  188.68    8.90
   2  -4  14  187.18    7.30
  -3   4 -14   95.19    5.70
  -3   4 -14   86.09    4.70
   3  -4  14   95.69    7.00
   3  -4  14   85.39    6.70
  -4   4 -14    6.60    2.80
   4  -4  14    7.10    5.80
   4  -4  14    5.50    3.90
  -5  -3  14    2.40    4.30
  -5  -3  14   -3.90    4.60
   4   3 -14   48.90    6.90
  -4  -3  14   36.60    4.20
  -4  -3  14   37.60    3.90
   3   3 -14   16.00    2.60
  -3  -3  14   18.70    2.70
  -3  -3  14   17.80    2.20
   2   3 -14  186.98    8.00
   2   3 -14  178.88    7.50
  -2  -3  14  187.38    8.80
  -2  -3  14  194.48    6.90
  -2  -3  14  187.08    7.60
   1   3 -14    8.20    1.50
   1   3 -14    8.90    1.10
   1   3 -14    8.10    1.70
   1   3 -14    9.50    1.50
  -1  -3  14    9.30    0.80
  -1  -3  14    9.60    1.20
  -1  -3  14    8.30    1.60
  -1  -3  14    4.30    1.30
   0   3 -14   20.30    1.70
   0   3 -14   17.80    2.00
   0   3 -14   18.30    1.80
   0  -3  14   17.90    1.90
   0  -3  14   20.90    1.60
  -1   3 -14  226.18    7.70
  -1   3 -14  227.38    7.00
  -1   3 -14  224.68    8.10
  -1   3 -14  220.28    7.90
  -1   3 -14  205.68    7.50
   1  -3  14  220.98    8.00
   1  -3  14  221.08    7.80
  -2   3 -14    7.00    1.60
  -2   3 -14    5.70    1.80
   2  -3  14    6.00    1.70
   2  -3  14    8.10    2.70
   2  -3  14    7.30    1.50
  -3   3 -14   15.90    3.00
  -3   3 -14    6.90    2.20
   3  -3  14   12.60    3.40
   3  -3  14   11.30    2.70
  -4   3 -14   78.59    5.40
   4  -3  14   84.69    7.60
   4  -3  14   78.99    6.10
  -5  -2  14    1.90    4.80
  -5  -2  14    6.20    3.70
  -5  -2  14    1.10    3.80
   4   2 -14   16.10    3.60
  -4  -2  14    6.30    2.80
  -4  -2  14    9.80    2.70
   3   2 -14   70.59    4.70
   3   2 -14   66.99    4.70
   3   2 -14   69.39    4.80
  -3  -2  14   70.59    4.20
  -3  -2  14   68.49    4.40
   2   2 -14  287.47   10.50
   2   2 -14  279.27   10.60
   2   2 -14  288.77   10.20
  -2  -2  14  295.57   10.00
  -2  -2  14  274.37    9.60
  -2  -2  14  283.57   10.40
   1   2 -14  118.09    4.80
   1   2 -14  121.59    5.30
   1   2 -14  115.29    5.20
  -1  -2  14  114.09    3.90
  -1  -2  14  113.79    4.90
  -1  -2  14  110.59    5.20
   0   2 -14  186.08    7.10
   0   2 -14  197.98    6.70
   0  -2  14  187.88    7.90
   0  -2  14  186.48    7.10
   0  -2  14  193.68    6.70
  -1   2 -14   47.70    2.50
  -1   2 -14   47.50    2.90
   1  -2  14   46.80    2.70
  -2   2 -14    5.80    1.60
  -2   2 -14    8.90    1.60
  -2   2 -14    8.40    1.30
   2  -2  14    7.50    1.50
   2  -2  14    9.30    1.60
  -3   2 -14   -1.70    1.50
  -3   2 -14    0.20    1.90
  -3   2 -14    1.80    1.80
   3  -2  14   -2.50    3.50
   3  -2  14    6.10    3.30
   3  -2  14    2.30    1.70
  -4   2 -14   39.80    4.10
   4  -2  14   43.40    5.30
   4  -2  14   45.60    4.30
   4  -2  14   39.00    5.60
  -5  -1  14    6.40    4.00
   4   1 -14   -3.00    3.10
  -4  -1  14   -0.10    2.60
   3   1 -14   18.90    2.70
   3   1 -14   13.70    2.70
   3   1 -14   16.90    3.10
   3   1 -14   20.40    2.70
  -3  -1  14   12.90    2.20
  -3  -1  14   15.60    2.30
   2   1 -14   18.70    2.20
   2   1 -14   21.90    2.30
   2   1 -14   17.90    2.10
  -2  -1  14   26.10    3.50
  -2  -1  14   21.30    2.50
   1   1 -14  103.09    4.80
   1   1 -14  101.39    4.80
   1   1 -14  104.89    4.30
  -1  -1  14  106.59    4.70
  -1  -1  14  100.69    4.30
   0   1 -14   37.40    2.20
   0   1 -14   34.40    2.40
   0  -1  14   33.10    2.10
   0  -1  14   34.90    3.50
   0  -1  14   32.60    2.40
  -1   1 -14  575.64   18.80
  -1   1 -14  586.54   18.20
   1  -1  14  577.94   18.50
   1  -1  14  580.44   18.80
  -2   1 -14   -0.50    1.40
  -2   1 -14   -0.50    1.00
  -2   1 -14    1.00    1.40
   2  -1  14    1.30    1.40
   2  -1  14   -0.90    2.40
  -3   1 -14  387.26   13.70
  -3   1 -14  389.46   13.30
  -3   1 -14  375.26   13.80
   3  -1  14  389.46   13.60
   3  -1  14  398.36   14.80
   3  -1  14  398.86   15.00
  -4   1 -14    5.10    3.00
  -4   1 -14    6.80    2.60
   4  -1  14    5.90    5.20
   4  -1  14    1.80    2.90
   4  -1  14   15.30    3.90
  -5   0  14    1.70    3.70
   4   0 -14   -3.50    3.60
   4   0 -14    4.70    3.40
   4   0 -14   -0.30    3.30
  -4   0  14    2.80    2.30
   3   0 -14   25.30    3.20
   3   0 -14   27.10    3.10
  -3   0  14   29.90    3.40
  -3   0  14   31.50    3.50
  -3   0  14   24.80    3.10
  -3   0  14   27.70    2.80
   2   0 -14   46.10    3.20
   2   0 -14   43.10    3.20
   2   0 -14   41.90    3.20
  -2   0  14   42.10    3.40
  -2   0  14   43.00    3.10
   1   0 -14   13.30    1.90
  -1   0  14   15.80    1.90
  -1   0  14   21.80    2.30
   0   0 -14    7.30    1.20
   0   0  14    7.90    1.20
   0   0  14    4.50    2.00
   0   0  14    3.80    1.20
  -1   0 -14    1.30    0.70
  -1   0 -14    1.40    1.10
  -1   0 -14    1.40    1.20
  -1   0 -14    2.00    0.80
   1   0  14    2.90    1.50
   1   0  14    0.40    1.00
  -2   0 -14   13.30    1.80
  -2   0 -14   14.50    1.60
  -2   0 -14   14.70    2.00
   2   0  14   11.90    2.30
   2   0  14   12.90    1.70
   2   0  14   15.10    3.70
  -3   0 -14    2.10    1.70
  -3   0 -14    0.00    1.90
  -3   0 -14    2.00    1.60
   3   0  14    2.60    1.90
   3   0  14    3.30    3.20
   3   0  14   -0.10    2.60
  -4   0 -14   13.70    2.70
   4   0  14   13.70    4.50
   4   0  14   14.50    4.40
  -5   1  14   -0.80    3.70
   4  -1 -14   56.69    5.80
   4  -1 -14   54.59    5.20
  -4   1  14   57.79    5.90
  -4   1  14   65.59    4.70
   3  -1 -14    8.20    2.30
   3  -1 -14   11.30    2.60
  -3   1  14   11.70    2.40
  -3   1  14    8.60    2.70
  -3   1  14   10.90    2.90
   2  -1 -14  133.89    6.70
   2  -1 -14  137.39    6.00
   2  -1 -14  136.69    6.20
   2  -1 -14  129.09    5.80
  -2   1  14  131.69    5.90
  -2   1  14  125.39    6.00
   1  -1 -14   41.00    2.80
   1  -1 -14   34.50    2.90
  -1   1  14   36.00    2.70
  -1   1  14   40.90    2.90
  -1   1  14   38.80    1.70
   0  -1 -14    1.60    1.00
   0  -1 -14    3.10    1.30
   0   1  14    2.90    1.30
   0   1  14   -0.10    1.80
   0   1  14    2.40    1.10
  -1  -1 -14    1.60    0.80
  -1  -1 -14    0.60    1.00
  -1  -1 -14    3.00    1.20
   1   1  14   -0.30    1.40
   1   1  14    3.10    2.40
   1   1  14    2.40    1.30
  -2  -1 -14   16.40    1.80
  -2  -1 -14   17.50    1.90
  -2  -1 -14   15.10    2.10
   2   1  14   14.80    3.30
   2   1  14   18.80    1.80
   2   1  14   18.40    1.90
   2   1  14   16.00    2.60
  -3  -1 -14   15.60    3.50
  -3  -1 -14    9.20    2.40
  -3  -1 -14   14.70    2.10
   3   1  14   12.00    2.30
   3   1  14   19.60    3.80
   3   1  14   13.30    4.30
   4   1  14    4.30    3.00
   5  -2 -14    2.90    5.40
   4  -2 -14   34.50    4.50
   4  -2 -14   30.30    4.40
  -4   2  14   22.30    2.90
   3  -2 -14   17.00    2.70
   3  -2 -14   14.80    2.90
   3  -2 -14   14.30    2.90
  -3   2  14   15.10    2.80
  -3   2  14   12.50    2.60
   2  -2 -14  137.39    6.40
   2  -2 -14  133.99    6.20
   2  -2 -14  138.59    6.20
   2  -2 -14  144.89    6.30
  -2   2  14  137.59    6.30
  -2   2  14  135.69    6.30
   1  -2 -14   81.89    4.10
   1  -2 -14   81.39    4.10
   1  -2 -14   82.89    4.30
  -1   2  14   76.09    3.70
  -1   2  14   80.59    4.30
  -1   2  14   85.89    4.20
   0  -2 -14   87.29    3.50
   0  -2 -14   93.49    4.00
   0  -2 -14   90.79    4.30
   0   2  14   91.29    4.30
  -1  -2 -14    9.20    1.80
  -1  -2 -14    8.90    1.40
  -1  -2 -14   10.10    1.40
   1   2  14    4.70    2.40
   1   2  14    7.60    1.50
   1   2  14    8.40    1.70
  -2  -2 -14    1.40    1.30
  -2  -2 -14    3.00    1.20
  -2  -2 -14    3.70    1.60
   2   2  14   -3.50    2.90
   2   2  14    2.90    2.20
   2   2  14    2.00    1.50
  -3  -2 -14   31.10    3.10
  -3  -2 -14   30.20    3.10
  -3  -2 -14   32.80    3.40
   3   2  14   32.90    3.60
   3   2  14   25.00    3.90
   3   2  14   32.30    4.10
   5  -3 -14    4.00    5.70
   4  -3 -14    4.00    3.90
   4  -3 -14   -4.00    3.80
   3  -3 -14    1.20    2.70
   3  -3 -14   -1.30    2.60
   3  -3 -14    4.80    2.60
  -3   3  14   -0.20    2.50
   2  -3 -14   -1.30    1.90
   2  -3 -14   -2.80    1.70
  -2   3  14    0.60    1.80
  -2   3  14    0.60    2.20
  -2   3  14    2.80    2.20
   1  -3 -14   65.79    4.00
   1  -3 -14   68.89    3.80
   1  -3 -14   63.29    3.80
  -1   3  14   68.79    5.60
  -1   3  14   67.29    4.10
   0  -3 -14   43.40    2.80
   0  -3 -14   42.30    2.90
   0  -3 -14   40.10    3.00
   0   3  14   44.60    2.90
   0   3  14   44.30    3.20
   0   3  14   40.40    3.00
   0   3  14   44.30    4.10
  -1  -3 -14    2.40    1.40
  -1  -3 -14    4.30    0.90
  -1  -3 -14    2.80    1.20
  -1  -3 -14    3.50    1.30
   1   3  14    2.20    2.70
   1   3  14    5.30    1.70
   1   3  14    3.80    1.50
   1   3  14    2.20    2.40
  -2  -3 -14   31.50    3.20
  -2  -3 -14   28.90    2.70
  -2  -3 -14   26.80    2.60
   2   3  14   26.90    3.30
   2   3  14   25.80    3.60
   2   3  14   28.80    3.00
   2   3  14   24.10    3.90
  -3  -3 -14  112.99    5.90
  -3  -3 -14  106.39    8.90
   3   3  14  106.39    7.00
   3   3  14  116.99    7.40
   3   3  14  107.99    6.50
   3   3  14  107.39    7.70
   4  -4 -14    0.60    4.00
   3  -4 -14    5.40    3.00
   3  -4 -14   11.10    3.70
   3  -4 -14    8.10    2.70
  -3   4  14    8.00    3.50
  -3   4  14    4.30    3.20
  -3   4  14   13.80    3.00
   2  -4 -14   25.00    3.20
   2  -4 -14   27.50    2.90
   2  -4 -14   22.20    3.00
  -2   4  14   25.90    3.50
  -2   4  14   24.60    3.30
  -2   4  14   27.00    3.30
   1  -4 -14   22.80    3.10
   1  -4 -14   25.70    2.90
   1  -4 -14   25.30    2.80
  -1   4  14   27.50    3.90
  -1   4  14   26.70    3.00
  -1   4  14   25.40    3.30
  -1   4  14   22.00    2.80
  -1   4  14   26.50    2.40
   0  -4 -14    1.80    1.40
   0  -4 -14    0.40    2.00
   0   4  14    2.90    1.70
   0   4  14    0.90    1.80
   0   4  14    5.50    2.80
   0   4  14   -0.60    2.10
   0   4  14    1.40    1.50
  -1  -4 -14   64.49    3.60
  -1  -4 -14   65.59    3.50
   1   4  14   62.19    5.10
   1   4  14   63.69    3.90
   1   4  14   53.39    5.40
   1   4  14   62.99    4.20
  -2  -4 -14    2.30    1.90
   2   4  14    5.80    3.70
   2   4  14    3.80    3.20
   2   4  14   -0.20    1.90
   2   4  14   -0.50    2.90
   3   4  14   -0.90    4.30
   3   4  14   -1.10    4.10
   3   4  14    4.60    4.70
   3  -5 -14   24.40    4.20
   3  -5 -14   28.10    3.70
  -3   5  14   23.50    3.90
   2  -5 -14   15.20    2.70
   2  -5 -14   17.90    3.10
   2  -5 -14   22.70    3.20
   2  -5 -14   16.90    3.00
  -2   5  14   17.20    3.30
  -2   5  14   20.50    3.60
  -2   5  14   14.10    3.20
   1  -5 -14   22.70    2.70
   1  -5 -14   12.30    2.40
   1  -5 -14   19.60    3.60
  -1   5  14   17.80    2.20
  -1   5  14   17.90    2.80
  -1   5  14   15.10    2.50
  -1   5  14   18.80    3.20
   0  -5 -14    3.50    1.80
   0  -5 -14    2.70    3.20
   0   5  14   -4.90    2.60
   0   5  14   -0.70    3.60
   0   5  14    3.60    2.10
   0   5  14    3.10    2.10
   0   5  14    5.90    2.10
  -1  -5 -14   12.80    2.40
  -1  -5 -14    7.80    2.30
  -1  -5 -14    8.90    2.40
   1   5  14    6.50    3.80
   1   5  14   10.90    2.50
   1   5  14   11.40    2.30
  -2  -5 -14   81.59    5.20
   2   5  14   77.19    6.90
   2   5  14   80.09    5.80
   3   5  14   16.20    4.00
   3   5  14   15.30    4.80
  -3   6  14   22.60    5.40
  -2   6  14   44.40    5.90
  -2   6  14   40.60    4.90
   1  -6 -14   -2.50    2.30
  -1   6  14    2.60    2.60
  -1   6  14    2.90    2.90
  -1   6  14   -0.30    2.10
  -1   6  14    1.20    3.40
   0  -6 -14  112.29    5.80
   0  -6 -14  120.59    5.60
   0   6  14  113.59    5.80
   0   6  14  107.49    6.30
   0   6  14  109.99    5.80
  -1  -6 -14   24.40    3.00
   1   6  14   21.90    3.00
   1   6  14   21.60    4.40
  -2  -6 -14   25.10    2.70
   2   6  14   28.90    5.10
  -3  -6 -14    0.70    2.40
   3   6  14   -4.40    5.60
  -3   7  14   10.30    5.30
  -2   7  14   10.30    4.50
  -2   7  14   12.30    4.20
   1  -7 -14   20.90    3.30
  -1   7  14   21.60    4.10
  -1   7  14   13.00    3.80
  -1   7  14   17.40    3.10
   0  -7 -14   75.19    5.40
   0  -7 -14   77.49    5.10
   0   7  14   76.09    5.10
  -1  -7 -14    8.40    2.80
  -2   8  14   -2.20    5.30
  -2   8  14    6.50    5.10
  -1   8  14    3.80    3.70
   0   8  14   56.19    6.00
   1  10 -15    9.20    4.00
   2   9 -15   -4.80    4.20
  -2  -9  15    0.40    2.70
  -2  -9  15    0.20    5.70
  -2  -9  15    4.60    6.00
  -1  -9  15  153.88    9.40
   1  -9  15   -1.70    1.70
   2  -9  15   31.60    7.40
  -3   9 -15    6.20    3.20
   3   8 -15   16.10    4.90
  -3  -8  15   14.10    3.90
   2   8 -15   20.80    4.20
  -2  -8  15   20.10    4.70
  -2  -8  15   18.00    3.10
  -2  -8  15   21.70    3.50
   1   8 -15    0.70    2.70
   1   8 -15    0.40    2.30
  -1  -8  15    1.40    3.80
   0   8 -15   15.00    3.50
   0   8 -15   16.80    3.10
   0  -8  15   19.20    1.90
   0  -8  15   14.80    2.80
  -1   8 -15    8.60    2.10
   2  -8  15   18.10    2.70
  -3   8 -15    8.70    4.30
   3   7 -15   -0.20    5.00
  -3  -7  15    4.50    3.40
  -3  -7  15    4.40    4.40
  -3  -7  15    4.90    3.10
   2   7 -15    5.60    3.50
  -2  -7  15    4.20    3.60
  -2  -7  15    6.00    2.40
   1   7 -15    5.20    2.60
   1   7 -15    6.80    3.60
  -1  -7  15    5.90    5.10
   0   7 -15    5.20    1.70
   0   7 -15    4.90    2.10
   0  -7  15    4.10    1.20
   0  -7  15    6.90    2.40
  -1   7 -15    8.60    3.20
  -1   7 -15    8.30    2.80
  -1   7 -15    2.30    2.10
   1  -7  15    6.40    1.60
  -2   7 -15    6.10    2.90
   2  -7  15    3.10    2.10
  -3   7 -15   20.60    4.40
   4  -7  15  135.09   13.10
  -4  -6  15   17.90    3.90
  -4  -6  15   20.20    4.70
   3   6 -15    6.10    3.70
  -3  -6  15    7.40    3.00
   2   6 -15    3.50    2.70
  -2  -6  15   -1.80    2.80
  -2  -6  15    0.00    2.10
   1   6 -15   25.80    3.20
   1   6 -15   23.10    2.90
  -1  -6  15   21.50    2.70
  -1  -6  15   22.50    1.80
   0   6 -15  162.58    7.10
   0   6 -15  170.68    6.80
   0  -6  15  168.18    7.10
   0  -6  15  168.58    6.00
  -1   6 -15    0.50    1.30
  -1   6 -15    1.80    1.90
  -1   6 -15    0.30    1.60
  -1   6 -15    0.40    1.50
   1  -6  15    2.30    1.90
   1  -6  15    1.50    1.30
   1  -6  15    2.20    2.60
  -2   6 -15   27.40    3.50
  -2   6 -15   30.20    2.90
   2  -6  15   22.90    5.00
  -3   6 -15  213.98   12.60
   3  -6  15  263.07   12.30
   4  -6  15   34.00    6.40
  -4  -5  15    3.40    3.40
  -4  -5  15    1.00    5.80
  -3  -5  15    4.80    2.40
   2   5 -15    0.20    1.90
   2   5 -15   -2.00    2.20
  -2  -5  15    1.30    1.30
  -2  -5  15    2.00    1.70
   1   5 -15   38.60    3.60
   1   5 -15   36.10    2.60
   1   5 -15   35.90    3.10
  -1  -5  15   42.40    3.30
  -1  -5  15   40.20    2.30
   0   5 -15   88.09    4.50
   0   5 -15   80.49    4.30
   0   5 -15   93.89    4.20
   0  -5  15   81.89    5.70
   0  -5  15   90.79    3.70
  -1   5 -15   12.20    1.80
  -1   5 -15    7.20    1.50
  -1   5 -15   12.60    1.60
  -1   5 -15   11.30    1.90
   1  -5  15   11.70    2.00
   1  -5  15   11.20    1.70
  -2   5 -15   57.99    3.50
  -2   5 -15   57.39    3.60
  -2   5 -15   62.89    4.30
   2  -5  15   60.99    3.70
   2  -5  15   60.89    6.00
  -3   5 -15   17.90    2.70
  -3   5 -15   20.10    3.80
  -4  -4  15    4.00    3.50
  -4  -4  15   -2.60    2.80
   3   4 -15   -1.10    2.50
   3   4 -15    1.90    2.80
  -3  -4  15    1.60    1.70
  -3  -4  15    3.90    2.40
   2   4 -15    1.30    1.70
   2   4 -15    0.20    2.10
  -2  -4  15    0.30    2.40
  -2  -4  15   -2.60    1.50
  -2  -4  15    0.30    1.30
  -2  -4  15    0.50    3.20
   1   4 -15    7.10    1.60
   1   4 -15    7.00    2.10
  -1  -4  15    5.90    1.90
  -1  -4  15    5.00    1.20
  -1  -4  15    3.70    2.20
   0   4 -15    0.80    1.00
   0   4 -15    0.40    1.30
   0   4 -15   -0.20    1.30
   0  -4  15    1.50    1.30
   0  -4  15    0.40    0.90
  -1   4 -15    1.60    1.10
  -1   4 -15    3.30    1.40
  -1   4 -15    2.20    1.20
   1  -4  15    6.20    2.40
   1  -4  15    4.40    1.20
   1  -4  15    1.90    1.40
  -2   4 -15 1017.30   31.90
  -2   4 -15 1040.90   31.10
  -2   4 -15 1004.60   32.40
  -2   4 -15 1023.50   31.90
   2  -4  15 1030.10   33.70
   2  -4  15  992.80   32.00
  -3   4 -15  121.19    5.80
  -3   4 -15  115.39    6.40
   3  -4  15  121.79    8.00
   3  -4  15  122.69    6.30
   4  -4  15  121.79    9.40
   4  -4  15  110.49    9.50
  -5  -3  15    8.60    4.50
  -4  -3  15   35.40    3.30
  -4  -3  15   22.80    3.60
  -4  -3  15   33.30    4.80
   3   3 -15    7.80    2.70
  -3  -3  15   10.90    2.20
  -3  -3  15    3.00    2.50
  -3  -3  15    0.70    2.40
  -3  -3  15    5.20    2.10
   2   3 -15   88.99    5.50
   2   3 -15  103.09    5.20
  -2  -3  15  109.49    5.30
  -2  -3  15  105.69    4.50
  -2  -3  15  101.09    4.90
   1   3 -15   78.99    4.10
   1   3 -15   73.49    3.80
   1   3 -15   76.79    4.10
  -1  -3  15   71.49    3.30
  -1  -3  15   62.69    3.60
  -1  -3  15   63.59    2.90
  -1  -3  15   69.09    3.80
  -1  -3  15   71.69    2.60
   0   3 -15  126.29    5.40
   0   3 -15  127.19    5.30
   0   3 -15  121.99    4.90
   0  -3  15  121.19    5.30
   0  -3  15  126.09    4.80
   0  -3  15  126.59    6.40
  -1   3 -15  168.08    6.30
  -1   3 -15  181.08    6.80
  -1   3 -15  180.68    6.60
  -1   3 -15  182.48    6.90
   1  -3  15  178.28    6.60
   1  -3  15  180.08    6.90
   1  -3  15  176.18   11.10
  -2   3 -15   28.20    2.70
  -2   3 -15   32.20    3.20
  -2   3 -15   32.40    2.50
   2  -3  15   29.30    3.80
   2  -3  15   30.90    2.70
   2  -3  15   34.70    2.80
  -3   3 -15   46.10    3.70
  -3   3 -15   45.00    3.40
   3  -3  15   45.70    4.90
   3  -3  15   44.80    3.60
  -4   3 -15   59.29    5.30
   4  -3  15   48.30    8.70
  -5  -2  15    3.10    4.20
  -5  -2  15   -1.70    3.70
  -4  -2  15   -1.10    2.70
   3   2 -15   13.60    2.70
   3   2 -15   11.30    2.60
  -3  -2  15   14.00    2.20
  -3  -2  15   13.70    2.40
  -3  -2  15   16.40    3.10
  -3  -2  15   12.90    2.60
   2   2 -15  424.06   13.90
   2   2 -15  400.86   14.60
   2   2 -15  402.26   14.30
  -2  -2  15  425.76   13.90
  -2  -2  15  410.46   14.00
  -2  -2  15  412.66   14.40
   1   2 -15  224.48    8.70
   1   2 -15  232.28    8.30
  -1  -2  15  232.18    7.30
  -1  -2  15  235.58    8.70
  -1  -2  15  235.48    8.20
   0   2 -15  500.45   16.20
   0   2 -15  523.95   15.70
   0   2 -15  502.25   16.60
   0   2 -15  495.05   16.10
   0  -2  15  497.95   16.10
   0  -2  15  505.25   16.50
   0  -2  15  496.65   17.50
  -1   2 -15   72.99    3.90
  -1   2 -15   74.09    3.70
  -1   2 -15   74.69    3.30
   1  -2  15   74.29    3.50
   1  -2  15   72.09    5.00
  -2   2 -15    2.00    1.60
  -2   2 -15    0.60    1.00
  -2   2 -15   -1.20    1.30
   2  -2  15    1.40    1.40
   2  -2  15    1.10    1.50
  -3   2 -15   -0.40    1.60
  -3   2 -15    1.10    2.10
  -3   2 -15   -2.70    1.90
   3  -2  15    2.30    1.90
   3  -2  15   -0.80    2.00
   3  -2  15    6.40    3.40
  -4   2 -15  153.58    7.30
   4  -2  15  148.99    9.20
   4  -2  15  171.28   10.20
   4  -2  15  176.78    8.00
  -5  -1  15    3.10    3.80
  -4  -1  15    5.10    4.50
   3   1 -15   19.40    2.90
   3   1 -15   17.30    3.00
   3   1 -15   27.10    3.10
   3   1 -15   15.10    3.00
  -3  -1  15   16.10    2.80
  -3  -1  15   18.20    2.50
  -3  -1  15   18.30    3.00
  -3  -1  15   18.70    2.60
   2   1 -15   82.99    4.40
   2   1 -15   79.39    4.40
   2   1 -15   82.09    4.80
   2   1 -15   84.09    4.20
  -2  -1  15   81.89    4.60
   1   1 -15  330.07   10.90
   1   1 -15  327.87   11.50
   1   1 -15  307.07   11.40
  -1  -1  15  322.87   11.30
  -1  -1  15  318.67   10.90
   0   1 -15  222.48    8.20
   0  -1  15  225.78    7.90
   0  -1  15  223.08    9.20
   0  -1  15  222.98    8.10
  -1   1 -15   67.09    3.50
   1  -1  15   65.19    3.40
   1  -1  15   70.49    5.50
   1  -1  15   66.49    3.90
  -2   1 -15   45.00    3.20
  -2   1 -15   45.70    2.60
  -2   1 -15   43.20    3.10
   2  -1  15   42.60    3.10
   2  -1  15   41.60    3.90
   2  -1  15   48.20    2.80
  -3   1 -15   66.49    4.40
  -3   1 -15   66.79    3.90
   3  -1  15   67.09    5.60
   3  -1  15   62.19    6.10
   3  -1  15   69.09    4.40
  -4   1 -15   42.60    4.40
   4  -1  15   29.90    7.90
   4  -1  15   47.00    5.80
   4  -1  15   47.00    5.10
  -5   0  15   47.70    5.30
   4   0 -15   -3.30    3.20
   4   0 -15    0.40    3.40
   4   0 -15    4.20    3.50
  -4   0  15    0.20    2.50
   3   0 -15    5.90    2.40
   3   0 -15   11.10    2.60
  -3   0  15    5.70    1.80
  -3   0  15    5.50    2.40
  -3   0  15    6.20    2.10
  -3   0  15    6.60    2.10
   2   0 -15    5.00    1.90
   2   0 -15    4.10    1.70
   2   0 -15    2.20    1.40
  -2   0  15    1.60    1.60
   1   0 -15   10.30    1.50
   1   0 -15   11.90    1.90
   1   0 -15    8.40    1.70
  -1   0  15   10.30    1.60
  -1   0  15    9.30    1.80
   0   0 -15  152.58    6.00
   0   0 -15  167.98    6.20
   0   0 -15  157.48    6.40
   0   0  15  158.78    6.40
   0   0  15  164.88    7.50
   0   0  15  162.88    6.10
  -1   0 -15   52.19    2.60
  -1   0 -15   58.39    3.10
  -1   0 -15   51.19    3.20
  -1   0 -15   56.89    2.60
   1   0  15   53.29    4.60
   1   0  15   49.20    2.90
   1   0  15   53.59    3.40
  -2   0 -15  338.17   11.10
  -2   0 -15  320.27   11.70
  -2   0 -15  325.57   11.50
   2   0  15  322.57   12.20
   2   0  15  333.37   11.50
   2   0  15  342.87   13.20
  -3   0 -15   75.09    4.20
  -3   0 -15   71.59    4.40
   3   0  15   67.39    6.20
   3   0  15   69.79    4.50
   4   0  15   14.50    3.30
   4   0  15    2.80    4.40
  -5   1  15   22.40    4.40
   4  -1 -15    6.90    3.70
   4  -1 -15    5.90    4.00
  -4   1  15   10.70    2.80
   3  -1 -15   28.20    3.50
   3  -1 -15   23.70    3.10
  -3   1  15   25.30    2.70
  -3   1  15   27.50    3.50
   2  -1 -15    1.00    1.80
   2  -1 -15   -0.40    1.60
   2  -1 -15    2.40    1.40
   2  -1 -15    0.40    1.70
   2  -1 -15   -0.30    1.50
  -2   1  15    2.90    1.50
  -2   1  15    1.50    1.90
   1  -1 -15   31.20    2.50
   1  -1 -15   27.40    2.80
   1  -1 -15   26.80    2.60
  -1   1  15   28.60    1.60
  -1   1  15   28.20    2.60
  -1   1  15   29.40    2.80
   0  -1 -15   49.30    2.70
   0  -1 -15   46.10    2.80
   0  -1 -15   42.90    2.80
   0   1  15   48.30    3.20
   0   1  15   48.70    2.90
  -1  -1 -15   23.90    1.70
  -1  -1 -15   24.70    2.30
  -1  -1 -15   19.40    2.10
   1   1  15   23.60    2.10
   1   1  15   20.40    2.40
   1   1  15   21.20    3.30
  -2  -1 -15  145.39    6.50
  -2  -1 -15  147.59    6.10
  -2  -1 -15  152.28    5.90
   2   1  15  154.88    6.20
   2   1  15  150.68    7.00
   2   1  15  150.58    7.80
   2   1  15  151.78    5.60
  -3  -1 -15   14.80    2.30
  -3  -1 -15   14.90    2.50
   3   1  15    6.80    2.90
   3   1  15    9.70    2.20
  -4  -1 -15   -2.80    3.00
   5  -2 -15   10.40    5.50
   4  -2 -15   29.10    4.90
   4  -2 -15   30.90    4.50
  -4   2  15   29.10    3.20
   3  -2 -15  343.97   12.90
   3  -2 -15  328.27   12.60
   3  -2 -15  319.47   12.90
  -3   2  15  330.07   12.70
  -3   2  15  332.87   15.00
  -3   2  15  332.57   12.30
   2  -2 -15    0.50    1.70
   2  -2 -15   -4.50    1.60
   2  -2 -15   -3.80    1.70
   2  -2 -15    0.90    1.80
  -2   2  15    0.30    1.70
  -2   2  15    0.60    1.80
   1  -2 -15    1.90    1.50
   1  -2 -15    0.30    1.40
   1  -2 -15    2.90    1.40
  -1   2  15    1.50    1.40
  -1   2  15    3.20    1.80
   0  -2 -15   33.80    2.90
   0  -2 -15   36.20    2.50
   0  -2 -15   36.60    2.60
   0   2  15   36.10    2.90
   0   2  15   41.20    2.80
   0   2  15   42.20    2.60
  -1  -2 -15   14.40    1.90
  -1  -2 -15   12.60    1.60
  -1  -2 -15    7.00    1.70
   1   2  15   10.50    3.00
   1   2  15   11.70    1.90
   1   2  15   13.80    2.20
  -2  -2 -15    4.20    1.80
  -2  -2 -15    1.30    1.40
  -2  -2 -15    5.60    1.60
   2   2  15    4.30    2.30
   2   2  15    0.50    3.20
   2   2  15    2.50    1.60
  -3  -2 -15   37.50    4.10
  -3  -2 -15   24.80    2.60
  -3  -2 -15   31.20    4.50
   3   2  15   25.10    4.20
   3   2  15   32.40    3.90
   3   2  15   29.30    3.00
   4  -3 -15    3.20    3.80
   4  -3 -15    2.50    4.00
   3  -3 -15   54.29    5.90
   3  -3 -15   46.80    4.90
   3  -3 -15   45.70    4.70
  -3   3  15   52.49    5.20
  -3   3  15   45.80    5.00
   2  -3 -15   77.39    5.00
   2  -3 -15   79.99    5.00
   2  -3 -15   76.09    4.60
  -2   3  15   80.69    5.00
  -2   3  15   73.49    5.70
  -2   3  15   71.29    5.00
  -2   3  15   86.89    5.10
   1  -3 -15   27.10    3.10
   1  -3 -15   26.30    2.70
   1  -3 -15   30.60    3.00
  -1   3  15   33.20    3.80
  -1   3  15   31.40    3.40
  -1   3  15   31.00    3.00
   0  -3 -15   16.10    2.30
   0  -3 -15   18.60    2.20
   0  -3 -15   10.80    1.80
   0   3  15   12.70    1.80
   0   3  15   15.20    3.40
   0   3  15   12.60    2.20
   0   3  15   12.40    1.90
  -1  -3 -15   63.19    3.60
  -1  -3 -15   66.59    4.00
  -1  -3 -15   62.59    3.40
   1   3  15   61.79    5.70
   1   3  15   66.89    3.80
   1   3  15   63.99    4.10
   1   3  15   66.19    5.10
  -2  -3 -15   59.09    3.50
  -2  -3 -15   53.79    4.00
   2   3  15   55.49    3.80
   2   3  15   57.79    4.60
   2   3  15   48.90    5.40
   2   3  15   58.99    6.20
   3   3  15   47.10    5.70
   4  -4 -15   13.40    4.40
   3  -4 -15   43.50    5.10
  -3   4  15   43.80    4.60
   2  -4 -15    0.20    2.20
   2  -4 -15   -3.00    2.00
   2  -4 -15   -1.40    2.30
   2  -4 -15    2.70    2.40
  -2   4  15    1.70    2.30
  -2   4  15    1.30    2.30
  -2   4  15   -2.30    2.60
   1  -4 -15   49.70    3.70
   1  -4 -15   45.00    3.70
   1  -4 -15   39.60    3.70
  -1   4  15   47.80    4.70
  -1   4  15   44.10    4.60
  -1   4  15   49.99    4.00
  -1   4  15   51.19    3.10
  -1   4  15   48.60    4.10
   0  -4 -15    2.80    1.50
   0  -4 -15    2.20    1.80
   0   4  15    2.10    2.10
   0   4  15   -2.40    3.10
   0   4  15   -0.60    2.40
   0   4  15    1.00    1.80
   0   4  15    2.40    1.60
  -1  -4 -15   -0.30    1.90
  -1  -4 -15    2.70    1.40
  -1  -4 -15    1.60    1.50
   1   4  15    5.00    2.30
   1   4  15   -0.30    3.40
   1   4  15   -3.40    2.70
   1   4  15    1.30    1.70
  -2  -4 -15   12.10    3.10
   2   4  15   11.30    2.70
   2   4  15   15.80    3.00
   2   4  15   12.50    3.90
   3   4  15   18.60    5.20
   3   4  15   21.00    5.40
   3   4  15   22.30    4.60
   3  -5 -15  107.59    6.70
  -3   5  15   95.99    7.50
  -3   5  15  121.79    7.90
   2  -5 -15   14.80    3.10
   2  -5 -15   21.40    3.40
   2  -5 -15   22.40    3.40
   2  -5 -15   16.50    2.90
  -2   5  15   18.70    3.20
  -2   5  15   14.50    3.80
  -2   5  15   18.60    3.70
   1  -5 -15    3.20    3.30
  -1   5  15    6.50    3.10
  -1   5  15    4.20    2.80
  -1   5  15    9.10    2.00
  -1   5  15    5.90    2.40
   0  -5 -15    0.70    2.50
   0  -5 -15   -0.80    2.10
   0   5  15   -1.40    2.00
   0   5  15   -0.50    2.30
   0   5  15    1.20    2.20
  -1  -5 -15   35.50    5.30
  -1  -5 -15   29.40    2.90
  -1  -5 -15   26.90    2.90
   1   5  15   24.40    4.10
   1   5  15   33.20    3.50
   1   5  15   26.60    3.20
  -2  -5 -15   62.59    4.90
  -2  -5 -15   60.89    4.10
   2   5  15   61.69    7.70
   2   5  15   58.69    5.60
  -3  -5 -15    3.40    3.20
   3   5  15    4.60    5.40
  -3   6  15   20.10    4.70
   2  -6 -15   20.00    3.20
   2  -6 -15   17.80    3.50
  -2   6  15   21.80    3.80
  -2   6  15   17.70    4.40
   1  -6 -15    2.70    2.50
  -1   6  15    7.60    2.40
  -1   6  15    4.90    3.20
  -1   6  15    8.50    2.90
   0  -6 -15    2.70    2.30
   0  -6 -15   -2.20    2.10
   0   6  15   -0.20    2.60
   0   6  15   -2.60    2.70
   0   6  15   -1.60    2.10
  -1  -6 -15  119.19    6.20
   1   6  15  120.39    6.60
   2   6  15    2.00    3.40
   2   6  15   -8.80    4.60
   3   6  15   20.30    6.30
  -3   7  15    5.40    5.50
  -2   7  15   20.50    4.50
  -2   7  15   20.60    5.30
   1  -7 -15    8.40    3.20
  -1   7  15    5.20    3.80
  -1   7  15    3.50    3.80
   0   7  15    9.70    3.00
  -1  -7 -15    6.20    3.00
   1   7  15    4.90    3.80
   2   7  15   69.19    8.50
  -2   8  15   11.90    7.10
  -2   8  15    3.70    5.80
  -1   8  15   -1.10    4.20
   2   9 -16   -5.20    4.50
  -2  -9  16   -1.20    6.00
   1   9 -16  340.27   13.60
  -1  -9  16  353.86   18.70
   0  -9  16   16.70    3.80
  -1   9 -16   27.30    3.50
   1  -9  16   34.70    3.20
   3   8 -16   -0.80    4.80
  -3  -8  16   -0.30    3.50
  -3  -8  16   -1.60    3.90
   2   8 -16   73.69    7.20
  -2  -8  16   70.49    7.40
  -2  -8  16   62.59    4.90
   1   8 -16   20.10    3.50
   1   8 -16   17.70    3.80
  -1  -8  16   13.10    5.50
   0   8 -16    7.40    2.10
   0  -8  16    5.40    1.30
   0  -8  16    9.60    3.80
  -1   8 -16   51.19    4.00
  -3   8 -16   -7.70    6.80
  -3  -7  16   15.70    4.20
  -3  -7  16    9.00    3.50
   2   7 -16   74.59    6.60
  -2  -7  16   72.29    6.80
  -2  -7  16   73.09    4.90
   1   7 -16    0.80    2.60
   1   7 -16   -0.20    2.00
  -1  -7  16    2.50    2.50
  -1  -7  16    5.10    3.70
   0   7 -16    5.70    3.20
   0   7 -16    9.10    2.50
   0  -7  16    6.40    1.30
  -1   7 -16   25.00    2.60
   1  -7  16   24.30    2.20
   1  -7  16   24.20    3.10
  -2   7 -16    6.30    3.00
   2  -7  16    6.80    2.10
  -3   7 -16    1.40    3.60
  -4  -6  16   10.60    4.80
  -4  -6  16   16.30    4.40
  -3  -6  16   83.19    5.80
  -3  -6  16   98.49    6.30
   2   6 -16   -2.90    2.90
   2   6 -16    3.80    2.40
  -2  -6  16    8.50    3.30
  -2  -6  16    0.20    1.90
   1   6 -16   42.10    4.40
   1   6 -16   51.69    3.90
  -1  -6  16   52.79    6.30
  -1  -6  16   53.69    4.00
  -1  -6  16   50.49    2.70
   0   6 -16   53.99    3.90
   0   6 -16   51.89    3.60
   0  -6  16   53.59    2.80
   0  -6  16   52.59    3.90
   0  -6  16   52.99    7.20
  -1   6 -16  121.59    5.30
  -1   6 -16  125.39    5.80
  -1   6 -16  120.39    5.30
  -1   6 -16  120.09    5.60
   1  -6  16  124.09    5.90
   1  -6  16  116.19    5.00
  -2   6 -16    7.10    2.70
  -2   6 -16    3.80    1.80
  -2   6 -16    3.00    1.70
   2  -6  16    3.50    3.50
   2  -6  16    7.00    1.90
  -3   6 -16  142.09    7.90
   3  -6  16  145.99    9.60
   4  -6  16   13.60    6.60
  -4  -5  16    6.10    3.50
   3   5 -16    0.20    3.30
  -3  -5  16    0.20    2.30
   2   5 -16   45.70    4.70
   2   5 -16   50.99    4.30
  -2  -5  16   50.29    5.10
  -2  -5  16   49.80    3.80
  -2  -5  16   54.79    3.80
   1   5 -16  145.29    6.40
   1   5 -16  151.28    5.80
   1   5 -16  141.39    6.90
  -1  -5  16  150.78    5.50
  -1  -5  16  146.89    6.50
   0   5 -16   22.60    2.30
   0   5 -16   22.30    2.50
   0   5 -16   20.60    2.40
   0  -5  16   22.10    2.50
  -1   5 -16  118.89    5.10
  -1   5 -16  119.69    5.00
  -1   5 -16  109.59    5.20
  -1   5 -16  118.69    5.40
   1  -5  16  113.59    5.50
   1  -5  16  121.59    4.90
  -2   5 -16  215.18    9.00
  -2   5 -16  224.88    8.30
  -2   5 -16  222.88    8.40
   2  -5  16  224.28   10.60
   2  -5  16  226.88    8.50
  -3   5 -16   80.89    6.00
  -3   5 -16   87.29    5.30
   3  -5  16   83.29    7.50
   3  -5  16   99.29    7.50
   4  -5  16   27.10    6.60
  -4  -4  16   22.30    3.70
   3   4 -16   -0.10    2.40
  -3  -4  16    1.60    1.80
  -3  -4  16    1.30    2.70
   2   4 -16    4.80    2.50
   2   4 -16    5.00    2.00
  -2  -4  16   -2.20    2.60
  -2  -4  16    2.90    1.60
  -2  -4  16    5.50    2.50
  -2  -4  16    2.60    1.50
   1   4 -16    0.10    1.40
   1   4 -16    4.10    1.70
  -1  -4  16    3.20    1.20
  -1  -4  16    1.90    1.60
   0   4 -16    3.10    1.40
   0   4 -16    2.70    1.50
   0   4 -16    4.30    1.20
   0  -4  16    3.40    1.70
   0  -4  16    4.80    2.30
   0  -4  16    3.10    1.10
  -1   4 -16   11.00    1.80
  -1   4 -16    9.40    1.40
  -1   4 -16   11.40    1.90
   1  -4  16    8.70    1.80
   1  -4  16   11.20    2.70
   1  -4  16   13.50    1.70
  -2   4 -16  197.08    7.60
  -2   4 -16  197.78    7.50
  -2   4 -16  204.28    8.10
   2  -4  16  192.58    7.70
   2  -4  16  194.18    9.40
   2  -4  16  191.58    7.70
  -3   4 -16   73.39    4.20
  -3   4 -16   73.89    4.70
  -3   4 -16   69.29    5.50
  -4   4 -16  158.08    7.80
   4  -4  16  134.69   10.50
  -4  -3  16   45.30    5.10
  -3  -3  16   33.90    4.40
  -3  -3  16   34.40    3.80
  -3  -3  16   39.60    3.90
   2   3 -16  122.59    5.90
   2   3 -16  123.79    6.10
  -2  -3  16  118.69    5.20
  -2  -3  16  115.59    5.60
  -2  -3  16  124.79    6.40
  -2  -3  16  111.09    5.30
   1   3 -16    3.80    1.50
   1   3 -16    5.50    1.90
   1   3 -16    6.60    1.90
  -1  -3  16    8.90    1.40
  -1  -3  16    6.80    1.60
   0   3 -16    3.20    1.70
   0   3 -16    0.70    1.40
   0   3 -16    0.20    1.30
   0   3 -16    2.00    0.80
   0   3 -16    2.30    1.00
   0  -3  16    1.90    1.50
   0  -3  16    1.80    2.30
  -1   3 -16  887.11   28.10
  -1   3 -16  906.71   27.10
  -1   3 -16  888.41   27.80
  -1   3 -16  877.01   28.10
   1  -3  16  873.51   27.90
   1  -3  16  900.31   29.70
   1  -3  16  906.21   28.20
  -2   3 -16   15.00    1.90
  -2   3 -16   15.20    2.30
  -2   3 -16   15.20    1.50
  -2   3 -16   14.80    2.10
   2  -3  16   16.60    2.20
   2  -3  16   16.30    3.50
   2  -3  16   15.60    2.30
  -3   3 -16   37.80    3.70
  -3   3 -16   37.10    3.80
  -3   3 -16   42.40    3.30
   3  -3  16   39.60    3.70
   3  -3  16   34.60    4.70
   3  -3  16   38.60    3.60
  -4   3 -16    2.60    3.20
  -4   3 -16    8.60    2.70
   4  -3  16    2.00    5.40
  -5  -2  16   47.50    5.70
  -5  -2  16   47.90    5.10
  -4  -2  16   18.50    3.50
   3   2 -16   93.99    5.70
   3   2 -16   95.89    5.60
   3   2 -16   86.29    5.40
  -3  -2  16   81.99    5.00
  -3  -2  16   93.09    5.10
  -3  -2  16   81.89    5.30
   2   2 -16   53.19    3.60
   2   2 -16   56.59    3.90
   2   2 -16   57.19    4.10
  -2  -2  16   55.69    4.00
  -2  -2  16   57.19    3.50
  -2  -2  16   57.59    4.70
  -2  -2  16   56.79    3.50
   1   2 -16  465.45   16.40
   1   2 -16  492.25   16.00
  -1  -2  16  480.25   15.10
  -1  -2  16  494.35   14.90
  -1  -2  16  488.85   16.30
   0   2 -16  347.87   11.50
   0   2 -16  352.66   11.70
   0   2 -16  339.47   12.00
   0  -2  16  337.67   12.90
   0  -2  16  348.37   11.60
   0  -2  16  347.77   11.90
  -1   2 -16  927.41   28.70
  -1   2 -16  917.41   28.70
  -1   2 -16  904.91   28.30
   1  -2  16  897.61   30.00
   1  -2  16  918.01   28.50
   1  -2  16  893.51   28.50
  -2   2 -16   73.09    4.00
  -2   2 -16   66.69    3.20
  -2   2 -16   69.79    4.20
   2  -2  16   66.99    4.10
   2  -2  16   72.39    5.50
   2  -2  16   68.69    3.80
  -3   2 -16   17.90    2.60
  -3   2 -16   14.90    2.70
  -3   2 -16   14.80    2.10
   3  -2  16   17.00    2.60
   3  -2  16    7.10    3.80
   3  -2  16   16.70    2.40
  -4   2 -16    2.00    3.00
   4  -2  16    3.70    4.80
  -5  -1  16    2.40    4.10
   4   1 -16    6.70    3.40
  -4  -1  16   12.60    4.10
  -4  -1  16    6.90    2.90
   3   1 -16    6.40    2.60
   3   1 -16   -1.50    2.40
   3   1 -16    6.00    2.40
  -3  -1  16    4.70    2.50
  -3  -1  16    1.80    1.90
  -3  -1  16   -1.40    2.50
  -3  -1  16    0.60    1.90
   2   1 -16   49.60    3.50
   2   1 -16   55.09    3.80
   2   1 -16   50.19    3.90
   2   1 -16   54.59    3.70
  -2  -1  16   50.49    3.60
  -2  -1  16   47.80    4.60
  -2  -1  16   54.19    3.80
   1   1 -16  446.86   15.90
   1   1 -16  479.05   15.40
   1   1 -16  488.25   16.10
  -1  -1  16  476.05   15.50
  -1  -1  16  473.45   18.60
  -1  -1  16  462.15   15.80
   0   1 -16  173.68    6.60
   0   1 -16  169.48    6.90
   0  -1  16  176.88    6.90
   0  -1  16  173.88    8.10
   0  -1  16  182.18    7.20
   0  -1  16  171.18    6.50
  -1   1 -16   63.09    3.60
  -1   1 -16   64.19    3.60
  -1   1 -16   60.49    3.00
  -1   1 -16   65.49    2.80
   1  -1  16   70.49    3.40
   1  -1  16   69.09    3.60
   1  -1  16   63.09    4.80
   1  -1  16   54.79    3.90
  -2   1 -16   81.79    4.40
  -2   1 -16   83.79    3.70
  -2   1 -16   92.49    4.70
   2  -1  16   84.19    4.40
   2  -1  16   92.89    5.30
   2  -1  16   79.39    6.10
   2  -1  16   85.89    4.10
  -3   1 -16   11.30    2.10
  -3   1 -16   15.70    2.40
   3  -1  16    6.40    4.00
   3  -1  16   14.00    3.40
   3  -1  16   16.90    2.60
   4  -1  16    4.60    3.50
  -5   0  16   19.60    4.50
   4   0 -16    8.40    3.60
   4   0 -16    7.10    3.60
  -4   0  16    7.30    4.80
   3   0 -16   42.60    4.50
   3   0 -16   44.20    4.30
   3   0 -16   44.10    4.60
   3   0 -16   41.60    4.50
  -3   0  16   49.10    6.40
  -3   0  16   39.30    3.40
  -3   0  16   56.09    4.60
   2   0 -16   53.39    3.60
   2   0 -16   48.70    3.70
   2   0 -16   41.80    3.70
   2   0 -16   53.59    3.50
  -2   0  16   51.89    3.60
  -2   0  16   51.89    4.50
   1   0 -16  527.05   17.50
   1   0 -16  519.05   16.90
   1   0 -16  504.75   16.90
  -1   0  16  529.45   18.60
  -1   0  16  509.25   15.70
  -1   0  16  521.25   17.30
  -1   0  16  519.05   17.10
   0   0 -16  179.98    7.10
   0   0 -16  187.28    6.50
   0   0 -16  188.68    6.90
   0   0  16  164.78    7.60
   0   0  16  177.58    6.80
   0   0  16  177.08    8.20
  -1   0 -16    9.10    1.50
  -1   0 -16    9.80    1.20
  -1   0 -16    8.00    1.60
  -1   0 -16    9.40    1.20
   1   0  16   10.00    1.90
   1   0  16   12.20    3.10
   1   0  16    8.80    1.60
   1   0  16    8.90    1.70
  -2   0 -16    4.70    1.60
  -2   0 -16    5.30    2.40
  -2   0 -16    9.10    1.40
   2   0  16    5.50    2.40
   2   0  16    9.20    1.80
   2   0  16    3.70    2.90
  -3   0 -16  186.78    8.00
  -3   0 -16  187.68    8.30
  -3   0 -16  192.38    7.50
   3   0  16  194.58    9.80
   3   0  16  191.88    9.00
   3   0  16  185.28    8.00
   4   0  16   -2.50    3.30
  -5   1  16    4.30    5.50
   4  -1 -16   31.10    4.80
   4  -1 -16   28.90    5.00
   4  -1 -16   31.40    4.70
  -4   1  16   20.30    3.20
   3  -1 -16    0.50    2.60
   3  -1 -16   -2.50    2.40
   3  -1 -16    3.50    2.70
   2  -1 -16   12.20    2.00
   2  -1 -16   14.30    2.40
   2  -1 -16   14.40    2.60
   2  -1 -16   17.60    2.40
   2  -1 -16   15.20    2.50
  -2   1  16   17.00    2.70
  -2   1  16   15.20    2.50
   1  -1 -16   82.59    4.10
   1  -1 -16   83.09    4.60
   1  -1 -16   80.69    4.10
  -1   1  16   80.39    4.20
  -1   1  16   75.39    3.40
  -1   1  16   79.99    4.50
   0  -1 -16   29.50    2.30
   0  -1 -16   28.80    2.40
   0  -1 -16   34.90    2.70
   0   1  16   28.20    2.50
   0   1  16   33.80    2.80
   0   1  16   29.20    3.70
  -1  -1 -16  217.08    7.30
  -1  -1 -16  197.68    8.10
  -1  -1 -16  211.28    7.90
  -1  -1 -16  215.18    7.60
   1   1  16  209.38    7.90
   1   1  16  217.08    7.80
   1   1  16  224.88    8.30
   1   1  16  216.98    9.60
  -2  -1 -16   65.99    4.10
  -2  -1 -16   59.79    3.70
  -2  -1 -16   60.89    3.40
   2   1  16   59.29    5.80
   2   1  16   62.19    3.80
   2   1  16   56.79    4.10
   2   1  16   62.79    4.70
  -3  -1 -16   16.70    2.60
   3   1  16   20.30    2.80
   3   1  16   15.80    4.20
   3   1  16   16.70    4.50
   4   1  16   -5.60    4.90
   4  -2 -16   -2.90    4.10
   4  -2 -16    7.50    3.70
  -4   2  16   -0.10    2.40
   3  -2 -16   29.50    3.50
   3  -2 -16   29.50    3.80
   3  -2 -16   29.40    3.90
  -3   2  16   21.90    3.50
  -3   2  16   31.50    4.00
  -3   2  16   23.30    3.20
   2  -2 -16   33.40    3.70
   2  -2 -16   33.10    3.50
   2  -2 -16   28.10    4.20
   2  -2 -16   30.20    3.00
   2  -2 -16   38.60    3.80
   1  -2 -16  112.09    5.50
   1  -2 -16  114.89    5.40
   1  -2 -16  109.09    5.20
  -1   2  16  117.19    5.40
  -1   2  16  116.19    5.60
   0  -2 -16   30.00    2.10
   0  -2 -16   29.50    2.70
   0  -2 -16   32.00    2.50
   0  -2 -16   33.40    2.60
   0   2  16   32.60    2.40
   0   2  16   26.80    5.70
   0   2  16   33.50    3.20
   0   2  16   30.10    2.90
  -1  -2 -16  201.68    8.10
  -1  -2 -16  204.98    7.80
  -1  -2 -16  200.68    7.50
   1   2  16  204.18    8.10
   1   2  16  215.68    7.90
   1   2  16  207.38    9.40
  -2  -2 -16   30.10    3.30
  -2  -2 -16   32.80    2.90
   2   2  16   29.60    2.90
   2   2  16   32.10    3.80
   2   2  16   29.80    4.50
  -3  -2 -16    0.60    2.30
  -3  -2 -16   -2.50    2.30
   3   2  16    1.20    2.60
   3   2  16   -2.00    3.30
   3   2  16   -4.40    3.70
   3   2  16   -2.10    4.30
   4  -3 -16   95.19    7.80
   3  -3 -16    0.40    3.10
   3  -3 -16    2.10    2.90
  -3   3  16   -6.30    4.10
  -3   3  16    1.80    3.00
  -3   3  16    0.70    3.20
   2  -3 -16  117.99    6.20
   2  -3 -16  123.09    6.20
   2  -3 -16  121.99    6.40
  -2   3  16  122.89    6.60
  -2   3  16  111.19    6.30
  -2   3  16  117.99    6.30
   1  -3 -16    4.70    1.90
   1  -3 -16    5.60    1.90
   1  -3 -16    2.40    1.80
  -1   3  16    5.50    1.90
  -1   3  16    4.50    2.20
  -1   3  16    4.30    2.90
   0  -3 -16    5.00    1.70
   0  -3 -16    8.30    1.80
   0   3  16   10.50    2.20
   0   3  16   10.30    1.80
   0   3  16    6.80    1.90
  -1  -3 -16   42.40    3.10
  -1  -3 -16   37.70    3.30
  -1  -3 -16   41.10    2.90
   1   3  16   31.40    4.00
   1   3  16   46.80    3.80
   1   3  16   37.60    4.60
   1   3  16   40.60    3.30
  -2  -3 -16    7.60    2.40
   2   3  16    8.90    3.40
   2   3  16    8.80    3.10
   2   3  16    8.00    2.10
   2   3  16   14.80    4.50
  -3  -3 -16    8.20    3.30
   3   3  16    9.00    4.20
   4  -4 -16    1.00    5.90
   4  -4 -16   -1.00    5.30
   3  -4 -16    0.90    3.10
  -3   4  16    3.00    3.50
  -3   4  16    0.20    3.50
   2  -4 -16   32.10    3.70
   2  -4 -16   27.70    3.20
  -2   4  16   27.60    3.60
  -2   4  16   28.80    3.90
  -2   4  16   30.40    3.80
   1  -4 -16  116.89    6.00
   1  -4 -16  126.99    6.00
   1  -4 -16  120.59    7.50
  -1   4  16  111.79    5.90
  -1   4  16  113.79    7.40
  -1   4  16  111.89    6.10
  -1   4  16  111.49    4.90
  -1   4  16  111.39    6.90
   0  -4 -16   94.69    4.90
   0  -4 -16   93.99    4.80
   0   4  16   88.99    6.90
   0   4  16   95.69    4.80
   0   4  16   90.99    6.20
   0   4  16   92.89    5.20
   0   4  16   95.39    5.00
  -1  -4 -16    2.00    1.70
  -1  -4 -16    3.50    3.50
   1   4  16    2.80    2.20
   1   4  16   -2.00    1.90
   1   4  16   -8.80    3.80
  -2  -4 -16    1.90    2.80
  -2  -4 -16    5.50    2.30
   2   4  16    1.40    3.60
   2   4  16    5.50    2.40
   2   4  16    0.80    2.90
   3   4  16  179.88   10.80
   3   4  16  205.08   11.60
   3  -5 -16   29.50    4.30
  -3   5  16   32.40    5.10
   2  -5 -16   55.69    5.30
   2  -5 -16   55.69    4.90
   2  -5 -16   63.29    6.60
   2  -5 -16   53.09    5.50
  -2   5  16   49.40    5.00
   1  -5 -16   20.20    2.70
  -1   5  16   16.10    2.30
  -1   5  16   17.60    3.60
  -1   5  16   15.00    3.20
  -1   5  16   14.80    3.30
   0  -5 -16   16.70    2.70
   0  -5 -16   17.40    2.60
   0   5  16   21.10    2.70
   0   5  16   21.20    3.20
   0   5  16   17.00    4.90
   0   5  16   20.50    2.90
  -1  -5 -16   11.00    2.70
  -1  -5 -16   12.00    2.40
   1   5  16   23.60    4.40
   1   5  16   14.10    2.70
   1   5  16   17.80    4.30
   1   5  16   12.30    3.60
   2   5  16   24.40    3.90
   2   5  16   25.10    5.30
   2   5  16   20.20    5.00
   3   5  16    0.80    4.90
  -3   6  16   -5.70    4.60
   2  -6 -16   67.79    5.80
  -2   6  16   92.19    7.70
  -2   6  16   80.39    6.70
  -2   6  16   75.59    7.00
   1  -6 -16   -5.20    2.50
   1  -6 -16    9.40    3.40
  -1   6  16    4.40    2.50
  -1   6  16    8.80    3.00
   0   6  16    5.60    2.70
   0   6  16    4.50    5.00
   0   6  16   -1.90    3.10
  -1  -6 -16    5.30    2.50
  -1  -6 -16    8.10    2.90
   1   6  16    6.50    3.20
  -3   7  16   -0.70    5.90
  -2   7  16    6.10    4.60
  -2   7  16    8.80    4.30
  -2   7  16    4.00    4.90
   1  -7 -16   15.70    3.60
  -1   7  16    7.90    3.00
  -1   7  16    5.90    4.20
  -1   7  16    7.10    6.90
   0  -7 -16    6.70    3.00
   0   7  16    2.00    3.20
   1   7  16  113.09   10.70
   0   8  16    7.80    5.90
   2   9 -17   -3.50    4.60
   1  -9  17   28.50    2.90
   3   8 -17   -4.50    6.10
  -3  -8  17    6.00    3.60
   2   8 -17  110.69    7.80
  -2  -8  17  108.29    8.60
   1   8 -17    4.50    3.40
  -1  -8  17   14.30    4.80
   0  -8  17   18.00    1.80
  -3  -7  17   26.60    3.80
  -3  -7  17   28.20    5.10
   2   7 -17  167.68   10.60
  -2  -7  17  167.38    9.60
  -2  -7  17  160.18    7.60
  -2  -7  17  183.88    9.60
   1   7 -17    0.90    2.90
  -1  -7  17    3.40    5.50
   0   7 -17   18.80    3.10
   0  -7  17   22.10    2.00
   0  -7  17   22.50    4.10
  -1   7 -17   21.00    3.00
   1  -7  17   25.90    3.90
  -2   7 -17   -0.20    2.90
   2  -7  17   -4.70    2.60
  -3   7 -17    4.50    3.90
  -4  -6  17   16.70    4.10
  -3  -6  17   61.89    5.20
   2   6 -17    5.30    2.70
   2   6 -17    2.70    3.10
  -2  -6  17   -0.50    2.00
  -2  -6  17    3.40    3.30
   1   6 -17    4.80    2.60
  -1  -6  17   -0.20    1.30
  -1  -6  17    3.20    2.40
   0   6 -17   26.60    3.00
   0   6 -17   24.50    3.10
   0  -6  17   31.40    3.40
   0  -6  17   29.20    2.40
  -1   6 -17    0.40    2.00
  -1   6 -17   -1.40    1.90
  -1   6 -17   -0.30    1.90
   1  -6  17    3.30    1.60
   1  -6  17    0.90    2.00
  -2   6 -17    2.30    1.70
  -2   6 -17    0.30    1.90
  -2   6 -17   -0.10    2.60
   2  -6  17    3.70    2.20
  -3   6 -17   44.60    4.80
   4  -6  17   -2.40    6.60
  -4  -5  17   79.09    6.60
  -3  -5  17   30.40    3.50
  -3  -5  17   29.10    4.50
   2   5 -17   -3.00    2.40
  -2  -5  17   -5.30    3.00
  -2  -5  17    2.70    2.00
  -2  -5  17    1.40    1.50
   1   5 -17   17.80    2.80
   1   5 -17   16.80    2.30
  -1  -5  17   16.90    1.80
  -1  -5  17   17.40    2.60
   0   5 -17  179.78    7.60
   0   5 -17  185.38    7.20
   0   5 -17  178.78    7.40
   0  -5  17  182.48    7.50
   0  -5  17  177.48    8.80
  -1   5 -17   21.60    2.40
  -1   5 -17   20.40    2.60
  -1   5 -17   20.30    2.50
  -1   5 -17   18.90    2.10
   1  -5  17   22.10    2.80
   1  -5  17   19.80    2.10
   1  -5  17   16.80    3.40
  -2   5 -17   33.70    3.40
  -2   5 -17   34.00    3.10
  -2   5 -17   37.90    3.50
   2  -5  17   46.20    4.80
   2  -5  17   38.00    3.90
  -3   5 -17    5.10    3.10
  -3   5 -17    9.00    2.60
   3  -5  17    7.90    4.30
   4  -5  17   49.90    7.50
  -4  -4  17   51.99    5.60
   3   4 -17    4.90    2.80
  -3  -4  17    2.60    2.10
  -3  -4  17   -3.60    2.10
   2   4 -17   -0.80    2.20
   2   4 -17    2.10    2.10
  -2  -4  17    0.70    1.60
  -2  -4  17    2.20    1.60
  -2  -4  17    1.20    2.70
  -2  -4  17   -0.60    2.30
   1   4 -17  121.69    6.20
   1   4 -17  125.19    5.70
  -1  -4  17  126.69    6.00
  -1  -4  17  134.39    5.20
   0   4 -17   13.80    2.10
   0   4 -17   10.10    1.70
   0   4 -17   15.70    1.90
   0   4 -17   11.50    2.00
   0  -4  17   14.20    2.70
   0  -4  17   13.50    1.60
   0  -4  17    8.80    1.80
  -1   4 -17    3.20    1.20
  -1   4 -17    0.90    1.60
  -1   4 -17    1.80    1.50
   1  -4  17    1.80    1.40
   1  -4  17    2.00    2.90
   1  -4  17    3.60    1.80
  -2   4 -17  333.27   12.30
  -2   4 -17  342.67   11.80
  -2   4 -17  327.07   11.80
   2  -4  17  325.17   12.00
   2  -4  17  344.67   12.00
   2  -4  17  345.37   14.00
  -3   4 -17  183.08    7.90
   3  -4  17  169.08    7.60
  -4   4 -17   16.10    3.70
   4  -4  17    9.00    6.70
  -4  -3  17   -1.40    2.90
  -4  -3  17    0.50    2.90
   3   3 -17    9.30    3.10
  -3  -3  17    8.30    2.40
  -3  -3  17    3.20    3.10
  -3  -3  17    6.20    3.90
  -3  -3  17    5.00    2.70
   2   3 -17   70.59    5.00
   2   3 -17   73.49    4.60
  -2  -3  17   76.99    5.50
  -2  -3  17   65.89    4.70
  -2  -3  17   76.39    4.10
   1   3 -17   77.79    4.50
   1   3 -17   73.59    4.50
   1   3 -17   72.49    4.00
   1   3 -17   80.99    3.50
  -1  -3  17   82.39    3.90
   0   3 -17   -0.80    1.40
   0   3 -17   -0.60    1.00
   0   3 -17    1.00    0.90
   0   3 -17    0.90    1.50
   0   3 -17   -3.20    1.20
   0  -3  17    0.80    1.00
   0  -3  17   -0.80    1.60
   0  -3  17    1.00    2.20
  -1   3 -17  172.08    6.90
  -1   3 -17  182.58    7.00
  -1   3 -17  177.18    6.60
   1  -3  17  170.88    6.70
   1  -3  17  157.28    8.20
   1  -3  17  180.58    7.00
  -2   3 -17   62.79    3.00
  -2   3 -17   69.49    3.60
  -2   3 -17   61.69    4.10
   2  -3  17   61.39    6.00
   2  -3  17   63.59    5.40
   2  -3  17   61.89    3.90
  -3   3 -17    4.40    2.40
  -3   3 -17    6.00    1.80
  -3   3 -17    8.10    2.50
   3  -3  17    8.20    2.40
   3  -3  17    4.20    2.50
  -4   3 -17   36.40    3.70
  -4   3 -17   38.50    4.30
   4  -3  17   35.90    5.70
   4  -3  17   37.50    6.50
  -4  -2  17    8.70    3.30
  -4  -2  17   17.10    3.40
   3   2 -17    0.30    2.80
   3   2 -17    2.40    2.70
  -3  -2  17   -3.70    2.00
  -3  -2  17    0.40    3.10
  -3  -2  17    1.60    2.10
  -3  -2  17   -2.40    2.70
   2   2 -17  155.48    7.30
   2   2 -17  165.88    6.70
   2   2 -17  162.28    7.00
   2   2 -17  163.68    6.70
  -2  -2  17  158.78    7.80
  -2  -2  17  163.68    6.70
  -2  -2  17  159.48    7.20
   1   2 -17   13.10    1.80
   1   2 -17   13.50    2.30
   1   2 -17   11.60    1.60
   1   2 -17   12.70    2.00
  -1  -2  17   11.90    1.10
  -1  -2  17   13.90    1.90
  -1  -2  17    7.40    1.90
   0   2 -17   -1.00    0.90
   0   2 -17    3.10    1.60
   0   2 -17    0.80    1.30
   0  -2  17   -2.10    1.40
   0  -2  17   -1.30    2.20
   0  -2  17    1.70    1.20
  -1   2 -17  283.57   10.10
  -1   2 -17  276.97   10.20
  -1   2 -17  284.37    9.70
   1  -2  17  274.47    9.90
   1  -2  17  285.87   10.00
   1  -2  17  284.87   11.70
  -2   2 -17   70.19    4.40
  -2   2 -17   77.19    3.50
  -2   2 -17   78.29    3.90
  -2   2 -17   78.79    4.50
   2  -2  17   74.19    4.20
   2  -2  17   73.49    4.10
   2  -2  17   82.19    6.30
  -3   2 -17   25.70    2.60
  -3   2 -17   28.80    3.50
   3  -2  17   27.60    3.20
   3  -2  17   27.70    3.00
   3  -2  17   22.70    4.50
  -4   2 -17   15.90    2.90
   4  -2  17    7.20    6.00
   4   1 -17   22.20    4.40
  -4  -1  17   18.20    3.50
   3   1 -17   46.90    4.90
   3   1 -17   42.10    4.00
   3   1 -17   44.60    4.10
  -3  -1  17   32.60    4.30
  -3  -1  17   41.20    3.60
  -3  -1  17   36.40    4.00
  -3  -1  17   45.30    4.20
   2   1 -17  182.58    7.30
   2   1 -17  190.08    7.60
   2   1 -17  187.58    7.60
   2   1 -17  183.98    8.10
  -2  -1  17  186.78    7.60
  -2  -1  17  180.08    7.70
  -2  -1  17  182.88    8.50
   1   1 -17   67.29    3.50
   1   1 -17   62.59    3.80
   1   1 -17   61.29    4.00
   1   1 -17   67.89    3.50
   1   1 -17   62.89    3.50
  -1  -1  17   56.19    3.90
  -1  -1  17   61.89    3.50
   0   1 -17 2954.30   89.19
   0   1 -17 2897.41   88.39
   0   1 -17 2855.91   88.69
   0  -1  17 3035.20   89.09
   0  -1  17 2924.51   90.29
   0  -1  17 2911.71   88.69
  -1   1 -17    5.60    1.70
  -1   1 -17   13.00    1.50
  -1   1 -17   10.70    1.30
  -1   1 -17   11.20    1.80
   1  -1  17   13.00    1.90
   1  -1  17   13.50    3.10
   1  -1  17   11.70    2.30
   1  -1  17   14.80    2.00
  -2   1 -17    1.90    1.30
  -2   1 -17    6.60    2.00
  -2   1 -17    5.90    1.80
   2  -1  17    7.40    2.80
   2  -1  17    7.50    1.80
   2  -1  17    8.50    1.90
  -3   1 -17    4.70    1.90
  -3   1 -17    6.30    2.50
  -3   1 -17    5.50    2.40
   3  -1  17    5.90    2.80
   3  -1  17    4.20    3.40
  -4   1 -17   43.60    4.60
   4   0 -17   34.30    4.80
  -4   0  17   16.40    3.20
   3   0 -17   37.20    3.80
   3   0 -17   42.70    4.20
   3   0 -17   24.30    3.90
   3   0 -17   30.10    3.60
  -3   0  17   27.00    3.20
  -3   0  17   23.50    4.80
  -3   0  17   27.30    3.60
  -3   0  17   25.50    3.90
   2   0 -17   11.80    2.10
   2   0 -17    8.90    2.30
   2   0 -17   10.30    2.20
   2   0 -17    6.70    2.10
   2   0 -17   11.60    2.20
  -2   0  17   10.20    2.90
  -2   0  17   11.00    2.40
  -2   0  17   12.30    2.40
   1   0 -17  180.58    7.00
   1   0 -17  185.88    6.90
   1   0 -17  171.88    7.50
  -1   0  17  178.28    7.30
  -1   0  17  187.48    9.20
  -1   0  17  181.08    7.10
   0   0 -17    9.40    1.60
   0   0 -17    8.10    1.50
   0   0 -17    9.10    1.90
   0   0  17   12.70    2.00
   0   0  17    7.80    1.50
   0   0  17   12.00    2.80
  -1   0 -17   37.10    2.30
  -1   0 -17   37.50    2.40
  -1   0 -17   39.70    3.10
  -1   0 -17   35.80    2.90
   1   0  17   37.30    2.90
   1   0  17   36.10    3.30
   1   0  17   34.50    3.10
   1   0  17   40.60    4.30
  -2   0 -17    5.70    1.40
  -2   0 -17    4.30    2.00
   2   0  17    9.10    2.70
   2   0  17    4.30    1.80
   2   0  17    4.80    1.90
  -3   0 -17    2.80    1.90
  -3   0 -17    4.30    1.90
  -3   0 -17    1.40    2.40
   3   0  17    5.90    2.30
   3   0  17    3.80    6.50
   3   0  17    5.20    3.70
   4   0  17    0.40    3.30
   4  -1 -17   -2.70    3.70
  -4   1  17   -1.20    2.70
   3  -1 -17   -0.20    2.80
   3  -1 -17    4.90    2.60
  -3   1  17    4.20    3.10
   2  -1 -17  247.88    9.30
   2  -1 -17  253.17   10.20
   2  -1 -17  246.78    9.60
   2  -1 -17  251.07    9.90
  -2   1  17  251.67   12.60
  -2   1  17  251.77    9.90
   1  -1 -17  753.02   25.10
   1  -1 -17  782.02   24.30
   1  -1 -17  776.22   24.70
   1  -1 -17  775.32   24.70
  -1   1  17  771.02   24.80
  -1   1  17  767.62   23.40
  -1   1  17  759.42   24.90
   0  -1 -17  127.29    5.80
   0  -1 -17  124.49    5.20
   0  -1 -17  124.29    5.50
   0   1  17  130.79    7.00
   0   1  17  131.79    5.30
   0   1  17  133.19    5.60
   0   1  17  131.19    5.80
  -1  -1 -17   21.20    1.80
  -1  -1 -17   21.10    2.40
  -1  -1 -17   17.40    1.80
  -1  -1 -17   15.50    1.90
   1   1  17   17.10    2.00
   1   1  17   23.00    2.40
   1   1  17   22.20    2.60
   1   1  17   20.40    4.70
  -2  -1 -17   94.99    4.90
  -2  -1 -17  101.79    5.30
  -2  -1 -17   99.29    4.60
   2   1  17   87.39    5.80
   2   1  17  100.59    7.00
   2   1  17   98.39    5.10
  -3  -1 -17   10.00    2.20
  -3  -1 -17    6.30    2.90
   3   1  17   10.50    4.60
   3   1  17    8.50    2.60
  -4  -1 -17    1.00    4.00
   4  -2 -17    8.60    4.70
   4  -2 -17    7.70    4.20
   3  -2 -17    3.40    3.00
   3  -2 -17   -1.70    2.80
  -3   2  17   -4.50    2.90
  -3   2  17   -2.90    2.60
  -3   2  17    1.10    2.80
  -3   2  17    0.40    3.20
   2  -2 -17  629.14   22.60
   2  -2 -17  648.14   20.20
   2  -2 -17  603.64   21.10
   2  -2 -17  606.14   21.30
  -2   2  17  603.44   21.00
  -2   2  17  658.13   22.50
   1  -2 -17   -1.10    1.40
   1  -2 -17   -2.20    1.70
   1  -2 -17    1.20    1.70
  -1   2  17    1.90    2.10
  -1   2  17    0.70    1.80
   0  -2 -17   43.20    3.20
   0  -2 -17   47.40    3.00
   0  -2 -17   49.10    3.50
   0  -2 -17   43.90    2.80
   0   2  17   47.60    3.10
   0   2  17   49.70    3.60
   0   2  17   42.80    3.30
  -1  -2 -17   28.00    2.70
  -1  -2 -17   24.90    2.50
  -1  -2 -17   31.50    3.20
  -1  -2 -17   33.40    2.10
   1   2  17   29.30    2.70
   1   2  17   29.30    3.00
   1   2  17   30.50    4.60
   1   2  17   32.70    3.20
  -2  -2 -17    0.40    1.60
  -2  -2 -17    0.20    2.10
   2   2  17   -3.50    3.70
   2   2  17    0.90    2.70
   2   2  17    3.80    2.10
   3   2  17    7.20    2.90
   3   2  17   23.60    9.00
   3   2  17    2.10    4.10
   4  -3 -17   19.90    4.80
   3  -3 -17   30.00    4.50
   3  -3 -17   25.20    4.20
  -3   3  17   28.50    4.10
   2  -3 -17   -0.50    2.60
   2  -3 -17    2.30    2.60
   2  -3 -17   -1.90    2.30
  -2   3  17    3.50    2.50
  -2   3  17   -0.80    2.70
  -2   3  17   -1.20    2.10
  -2   3  17    0.80    4.60
   1  -3 -17   34.00    3.50
   1  -3 -17   31.30    3.30
  -1   3  17   36.60    3.50
  -1   3  17   40.90    4.00
   0  -3 -17  146.39    6.20
   0  -3 -17  142.49    6.30
   0   3  17  142.89    8.20
   0   3  17  149.19    6.00
   0   3  17  148.49    6.50
   0   3  17  133.99    6.40
  -1  -3 -17   50.29    4.00
  -1  -3 -17   56.29    3.80
  -1  -3 -17   56.79    3.50
   1   3  17   56.79    4.10
   1   3  17   52.09    6.00
   1   3  17   57.69    3.90
   1   3  17   61.79    4.00
   1   3  17   52.49    5.40
  -2  -3 -17   42.70    4.10
   2   3  17   35.50    4.10
   2   3  17   29.70    4.40
   2   3  17   35.60    3.40
   3   3  17    4.10    5.10
   3   3  17   -3.50    4.30
   3  -4 -17  285.97   12.00
  -3   4  17  264.07   11.80
   2  -4 -17    8.20    2.70
   2  -4 -17    6.70    2.90
   2  -4 -17    6.80    2.70
  -2   4  17    7.00    2.90
  -2   4  17    5.10    3.40
  -2   4  17    3.10    3.00
   1  -4 -17   20.20    3.00
   1  -4 -17   22.90    3.10
  -1   4  17   23.40    3.20
  -1   4  17   17.70    3.50
  -1   4  17   21.70    3.70
  -1   4  17   21.90    3.20
   0  -4 -17  139.19    6.50
   0  -4 -17  146.99    6.30
   0  -4 -17  113.29    7.30
   0   4  17  132.99    6.70
   0   4  17  149.09    6.20
   0   4  17  142.49    6.50
  -1  -4 -17   -0.50    2.50
   1   4  17    1.80    2.60
   1   4  17    1.60    2.30
   1   4  17    1.10    3.20
   2   4  17   13.70    3.50
   2   4  17    2.40    2.60
   2   4  17    9.20    5.80
   3   4  17   56.89    6.80
   3  -5 -17    6.90    3.80
  -3   5  17   13.20    4.70
   2  -5 -17   33.50    3.80
  -2   5  17   34.70    4.60
  -2   5  17   33.70    4.60
   1  -5 -17   28.60    3.20
   1  -5 -17   32.10    3.50
  -1   5  17   28.40    5.00
  -1   5  17   34.90    3.80
  -1   5  17   42.50    4.60
  -1   5  17   29.40    3.40
   0   5  17   12.00    2.50
   0   5  17    7.90    2.80
   0   5  17    8.70    2.90
  -1  -5 -17    5.00    2.00
   1   5  17    2.80    2.60
   1   5  17   11.60    3.00
   2   5  17   48.00    6.30
   3   5  17   -2.20    6.00
  -3   6  17   26.80    6.00
   2  -6 -17   34.60    5.10
   2  -6 -17   54.39    5.10
  -2   6  17   51.69    6.10
   1  -6 -17  188.28    8.90
  -1   6  17  185.88    9.60
  -1   6  17  187.08   12.60
  -1   6  17  191.18    8.20
   0  -6 -17    1.00    2.60
   0   6  17    7.40    3.50
   1   6  17    8.70    3.40
  -2   7  17   66.79    7.50
  -2   7  17   59.29    6.40
   1  -7 -17   25.20    4.00
  -1   7  17   13.00    4.60
  -1   7  17   25.70    4.70
   0  -7 -17    2.90    3.30
   0   7  17   -0.90    3.70
   0  10 -18   16.10    4.00
  -1  10 -18   12.80    4.40
   2   9 -18   -0.40    4.90
   0   9 -18  104.69    9.00
  -2  -8  18   33.20    6.10
   1   8 -18   75.29    8.80
  -1  -8  18   76.69    7.80
   0  -8  18    3.80    1.60
   1  -8  18   40.10    6.30
   1  -8  18   48.30    3.70
   2  -8  18   19.30    9.20
  -3  -7  18    5.30    3.50
  -2  -7  18   27.80    4.90
   1   7 -18   20.90    4.30
   1   7 -18   24.80    3.70
  -1  -7  18   28.00    3.50
  -1  -7  18   16.60    4.50
  -1  -7  18   24.80    2.50
   0   7 -18   13.20    3.10
   0  -7  18   14.50    1.80
  -2   7 -18    8.40    3.10
  -3   7 -18    2.30    4.40
  -3  -6  18  265.87   11.10
   2   6 -18   12.80    3.60
  -2  -6  18   10.60    4.10
   1   6 -18   11.90    3.00
  -1  -6  18   22.20    4.90
  -1  -6  18   15.80    2.90
  -1  -6  18   10.20    1.70
   0   6 -18   46.50    3.70
   0   6 -18   41.10    4.10
   0  -6  18   42.00    2.90
  -1   6 -18   23.70    3.00
  -1   6 -18   28.90    3.00
  -1   6 -18   24.40    2.80
   1  -6  18   19.90    2.80
  -2   6 -18    5.40    2.80
   2  -6  18    5.50    2.20
   3  -6  18    3.10    3.20
  -4  -5  18    6.70    3.60
  -3  -5  18   50.99    4.80
   2   5 -18   -3.30    3.20
   2   5 -18   -2.40    2.20
  -2  -5  18   -0.80    1.70
  -2  -5  18    3.10    3.30
   1   5 -18   25.00    3.10
   1   5 -18   20.10    2.60
  -1  -5  18   18.90    2.70
   0   5 -18    5.50    1.80
   0   5 -18    1.90    1.90
   0   5 -18    1.90    2.10
   0   5 -18    1.60    1.40
   0  -5  18    7.50    2.10
   0  -5  18    4.10    1.40
  -1   5 -18   49.90    3.80
  -1   5 -18   47.20    3.30
  -1   5 -18   58.09    4.00
  -1   5 -18   49.80    3.90
   1  -5  18   57.59    5.90
   1  -5  18   45.00    4.00
  -2   5 -18    3.10    2.00
  -2   5 -18    1.60    2.50
  -2   5 -18    0.30    1.70
  -3   5 -18    0.90    3.10
  -3   5 -18    1.70    2.80
   3  -5  18   -3.20    3.00
   3  -5  18    6.70    5.10
   4  -5  18   28.00    7.30
  -4  -4  18   47.50    5.40
   3   4 -18   52.39    5.20
  -3  -4  18   57.99    4.30
  -3  -4  18   53.19    4.60
   2   4 -18   -2.00    2.10
   2   4 -18    0.80    2.50
  -2  -4  18    1.20    3.00
  -2  -4  18   -3.10    2.30
   1   4 -18   39.20    4.00
   1   4 -18   49.10    3.50
   1   4 -18   49.80    3.90
  -1  -4  18   50.99    4.10
  -1  -4  18   42.70    5.40
  -1  -4  18   45.50    3.10
   0   4 -18   26.60    3.00
   0   4 -18   26.60    2.60
   0   4 -18   25.40    2.70
   0   4 -18   24.60    2.40
   0  -4  18   23.00    2.40
   0  -4  18   23.80    3.60
  -1   4 -18  209.18    8.00
  -1   4 -18  209.78    8.10
  -1   4 -18  204.08    7.70
   1  -4  18  208.88    7.70
   1  -4  18  192.98    9.20
   1  -4  18  198.58    9.80
  -2   4 -18    2.80    2.40
  -2   4 -18   -2.80    2.00
   2  -4  18    1.90    1.80
   2  -4  18    0.10    4.10
   2  -4  18    2.60    2.10
  -3   4 -18   12.20    3.40
  -3   4 -18   19.20    3.50
   3  -4  18   19.20    3.00
  -4   4 -18   13.30    4.10
  -4  -3  18   45.30    4.80
  -4  -3  18   52.29    5.40
  -3  -3  18   -1.80    2.20
  -3  -3  18   -1.30    2.30
   2   3 -18   60.19    4.50
   2   3 -18   56.69    4.80
  -2  -3  18   54.99    4.30
  -2  -3  18   56.79    3.90
  -2  -3  18   64.09    5.50
   1   3 -18   -1.90    1.50
   1   3 -18   -1.20    1.30
   1   3 -18   -0.10    1.40
   1   3 -18    1.60    1.40
   1   3 -18   -0.70    1.70
  -1  -3  18   -0.10    1.40
  -1  -3  18   -1.10    1.90
   0   3 -18   12.80    1.70
   0   3 -18   12.90    2.20
   0   3 -18   12.70    1.30
   0   3 -18   12.70    2.30
   0   3 -18   14.90    1.90
   0  -3  18   11.40    2.10
   0  -3  18    7.60    2.60
   0  -3  18    9.90    1.60
  -1   3 -18   19.90    2.10
  -1   3 -18   21.10    2.40
  -1   3 -18   23.80    2.50
   1  -3  18   26.50    2.60
   1  -3  18   22.30    3.70
   1  -3  18   23.30    2.40
  -2   3 -18   27.80    2.90
  -2   3 -18   33.90    3.50
  -2   3 -18   31.60    3.50
  -2   3 -18   27.00    2.60
   2  -3  18   29.80    3.10
   2  -3  18   25.60    4.30
   2  -3  18   31.30    3.30
  -3   3 -18   -0.60    3.50
  -3   3 -18    4.70    2.00
  -3   3 -18    7.10    2.70
   3  -3  18    2.30    2.60
   3  -3  18    8.20    2.80
  -4   3 -18   37.10    4.70
   4   2 -18   45.30    5.60
  -4  -2  18   29.80    4.00
  -4  -2  18   41.20    4.40
   3   2 -18   68.39    5.20
  -3  -2  18   55.49    4.30
  -3  -2  18   52.09    5.40
  -3  -2  18   66.89    7.00
  -3  -2  18   58.39    5.50
   2   2 -18   40.20    3.60
   2   2 -18   39.90    3.70
   2   2 -18   45.60    3.60
   2   2 -18   40.20    4.20
  -2  -2  18   44.10    4.30
  -2  -2  18   39.20    4.10
  -2  -2  18   41.00    3.60
   1   2 -18   80.49    4.90
   1   2 -18   86.49    4.20
   1   2 -18   85.09    4.30
   1   2 -18   89.39    4.90
   1   2 -18   89.49    4.20
  -1  -2  18   85.69    5.90
  -1  -2  18   86.69    3.70
  -1  -2  18   90.89    4.90
  -1  -2  18   83.99    4.30
   0   2 -18   55.59    3.60
   0   2 -18   55.99    3.10
   0   2 -18   58.89    3.40
   0   2 -18   59.89    3.50
   0  -2  18   54.49    3.60
   0  -2  18   52.49    3.20
   0  -2  18   56.19    5.00
  -1   2 -18   35.80    3.10
  -1   2 -18   41.80    2.70
  -1   2 -18   40.90    3.40
   1  -2  18   43.00    5.00
   1  -2  18   39.20    2.90
   1  -2  18   40.30    3.30
  -2   2 -18   44.60    3.60
  -2   2 -18   41.50    2.70
  -2   2 -18   43.00    3.70
  -2   2 -18   43.90    3.00
   2  -2  18   39.90    3.30
   2  -2  18   42.60    3.50
   2  -2  18   38.60    4.80
  -3   2 -18   22.50    2.40
   3  -2  18   26.90    4.60
   3  -2  18   18.70    3.00
  -4   2 -18    2.40    3.00
   4  -2  18    1.60    3.90
   4  -2  18   -1.00    6.20
  -4  -1  18    0.10    2.70
   3   1 -18   51.89    5.00
   3   1 -18   44.60    5.20
   3   1 -18   45.30    4.30
   3   1 -18   41.00    4.00
  -3  -1  18   48.20    4.50
  -3  -1  18   40.90    3.80
  -3  -1  18   41.90    4.30
   2   1 -18   28.50    3.30
   2   1 -18   27.60    3.90
   2   1 -18   28.80    3.00
   2   1 -18   26.20    2.70
  -2  -1  18   25.70    2.90
  -2  -1  18   24.30    3.10
  -2  -1  18   22.50    3.60
   1   1 -18  225.58    9.40
   1   1 -18  250.67    8.80
   1   1 -18  244.48    8.70
   1   1 -18  244.78    8.90
   1   1 -18  231.08    9.40
  -1  -1  18  256.27   10.50
  -1  -1  18  235.78    8.90
  -1  -1  18  231.78    9.30
   0   1 -18  200.88    9.20
   0   1 -18  228.18    8.40
   0   1 -18  234.38    8.90
   0   1 -18  245.78    8.10
   0  -1  18  232.38    8.70
   0  -1  18  223.48    8.30
  -1   1 -18   45.70    3.30
  -1   1 -18   45.40    3.50
  -1   1 -18   46.50    2.80
  -1   1 -18   46.10    2.50
   1  -1  18   44.10    5.10
   1  -1  18   47.40    3.80
   1  -1  18   50.19    3.30
   1  -1  18   41.50    3.40
  -2   1 -18    1.40    1.90
  -2   1 -18    3.00    2.00
  -2   1 -18    0.70    2.00
  -2   1 -18    2.60    1.40
   2  -1  18    0.50    1.80
   2  -1  18   -2.00    3.40
   2  -1  18    2.90    2.00
   2  -1  18    8.60    3.00
  -3   1 -18    8.00    2.10
   3  -1  18    7.10    3.80
   3  -1  18   -0.30    2.30
  -4   1 -18   17.70    3.40
   4  -1  18   18.60    4.00
   4   0 -18   44.60    5.40
  -4   0  18   47.10    5.10
   3   0 -18    1.70    2.90
   3   0 -18   -2.00    2.70
   3   0 -18    2.90    2.60
   3   0 -18   -0.40    2.80
  -3   0  18   -0.20    3.20
   2   0 -18   35.40    3.50
   2   0 -18   40.60    3.90
   2   0 -18   32.20    3.70
   2   0 -18   26.20    3.20
   2   0 -18   37.80    3.50
  -2   0  18   36.60    3.80
  -2   0  18   32.10    3.30
   1   0 -18  703.33   22.40
   1   0 -18  713.03   22.40
   1   0 -18  682.83   23.00
  -1   0  18  670.13   22.50
  -1   0  18  695.53   24.00
  -1   0  18  692.23   22.80
   0   0 -18   29.50    2.90
   0   0 -18   32.40    2.50
   0   0 -18   28.90    2.80
   0   0  18   37.30    3.30
   0   0  18   32.40    2.70
  -1   0 -18  284.87   11.70
  -1   0 -18  303.07   10.30
  -1   0 -18  308.07   10.90
  -1   0 -18  307.67   10.20
   1   0  18  310.57   14.00
   1   0  18  314.97   11.20
   1   0  18  313.17   10.80
   1   0  18  303.97   10.80
  -2   0 -18    3.00    2.10
  -2   0 -18    3.20    1.40
   2   0  18    5.40    2.10
   2   0  18    1.70    3.60
   2   0  18    1.90    2.10
   2   0  18    5.80    2.90
  -3   0 -18   17.50    3.30
   3   0  18   20.80    4.00
   3   0  18   17.70    3.20
   4   0  18   18.90    5.10
   4  -1 -18    5.30    4.10
   3  -1 -18    1.90    2.90
   3  -1 -18   -3.80    2.90
   3  -1 -18    6.30    3.00
  -3   1  18   -3.00    3.40
   2  -1 -18    2.10    2.30
   2  -1 -18    1.10    2.10
   2  -1 -18   -2.40    2.20
   2  -1 -18   -0.30    1.90
   2  -1 -18   -3.60    2.10
  -2   1  18    1.10    2.50
  -2   1  18   -5.20    2.00
   1  -1 -18  441.16   14.90
   1  -1 -18  433.06   15.40
   1  -1 -18  449.06   14.30
   1  -1 -18  439.96   14.90
  -1   1  18  422.76   14.20
  -1   1  18  426.06   15.00
  -1   1  18  432.36   15.10
   0  -1 -18    1.50    1.30
   0  -1 -18    0.50    1.60
   0  -1 -18    1.30    1.20
   0  -1 -18    1.80    1.40
   0   1  18    3.70    1.90
   0   1  18    2.70    1.50
   0   1  18    3.80    3.10
   0   1  18    1.40    1.50
  -1  -1 -18    0.50    1.20
  -1  -1 -18    2.10    1.70
  -1  -1 -18    0.60    1.20
   1   1  18    0.30    2.00
   1   1  18   -0.60    1.50
   1   1  18    0.70    2.00
  -2  -1 -18   -0.80    1.80
  -2  -1 -18   -0.90    2.10
  -2  -1 -18   -1.00    1.50
   2   1  18   -4.90    1.90
   2   1  18   -6.20    3.40
   2   1  18   -1.20    2.60
  -3  -1 -18    7.00    2.30
   3   1  18    9.70    4.00
   3   1  18   15.00    5.30
   4  -2 -18   69.39    7.70
   4  -2 -18   81.79    7.80
   3  -2 -18   39.10    4.80
   3  -2 -18   36.50    4.80
  -3   2  18   40.70    4.60
  -3   2  18   37.70    4.40
  -3   2  18   27.30    5.20
  -3   2  18   38.00    4.30
   2  -2 -18  576.84   20.00
   2  -2 -18  607.74   20.20
   2  -2 -18  589.54   19.10
   2  -2 -18  563.94   19.80
  -2   2  18  571.44   20.00
  -2   2  18  597.24   21.20
   1  -2 -18   -0.70    1.50
   1  -2 -18    4.60    2.00
   1  -2 -18    1.40    2.00
  -1   2  18   -0.10    2.30
  -1   2  18    2.50    2.00
  -1   2  18    5.90    3.80
   0  -2 -18   24.30    2.60
   0  -2 -18   22.80    2.60
   0  -2 -18   22.90    2.50
   0   2  18   21.30    4.20
   0   2  18   20.30    2.50
   0   2  18   21.20    2.80
   0   2  18   22.40    2.40
  -1  -2 -18    2.90    1.50
  -1  -2 -18    5.00    1.20
  -1  -2 -18    3.10    1.60
  -1  -2 -18    5.90    2.00
   1   2  18    2.40    3.80
   1   2  18    2.80    2.20
   1   2  18    4.70    2.20
   1   2  18    5.30    2.00
  -2  -2 -18   -1.80    2.40
  -2  -2 -18    2.00    2.10
  -2  -2 -18    2.30    2.20
   2   2  18    3.20    2.90
   2   2  18    3.20    2.20
   3   2  18    5.90    4.00
   3   2  18    4.40    4.60
   4  -3 -18   -2.30    4.40
   3  -3 -18  314.37   12.90
   3  -3 -18  307.07   12.80
   3  -3 -18  311.27   13.30
  -3   3  18  310.87   12.90
   2  -3 -18   69.89    5.80
   2  -3 -18   70.29    5.10
  -2   3  18   77.39    6.10
  -2   3  18   75.89    6.00
  -2   3  18   71.69    5.50
   1  -3 -18   59.39    4.30
   1  -3 -18   59.59    4.40
   1  -3 -18   65.39    4.70
  -1   3  18   50.49    4.50
  -1   3  18   63.79    4.70
  -1   3  18   59.99    3.20
   0  -3 -18   41.00    3.50
   0  -3 -18   37.30    3.20
   0   3  18   35.90    3.80
   0   3  18   35.90    4.60
   0   3  18   37.50    3.20
   0   3  18   38.00    3.90
  -1  -3 -18    6.80    1.80
   1   3  18    4.30    3.50
   1   3  18    4.00    2.40
   1   3  18    1.80    4.30
   1   3  18    3.50    2.20
  -2  -3 -18   51.69    4.30
   2   3  18   45.40    5.30
   2   3  18   51.89    5.10
   2   3  18   45.60    4.50
   2   3  18   46.10    6.30
   3   3  18   -0.60    5.00
   3   3  18    4.60    6.00
   3  -4 -18  133.49    8.10
   3  -4 -18  130.99    8.40
  -3   4  18  112.69   12.80
  -3   4  18  115.79   11.10
   2  -4 -18   -0.10    2.80
   2  -4 -18    4.10    3.00
  -2   4  18    0.70    3.40
  -2   4  18   -2.90    3.00
   1  -4 -18   66.19    4.90
   1  -4 -18   68.39    4.80
  -1   4  18   71.09    6.20
  -1   4  18   55.39    4.40
  -1   4  18   70.69    5.10
  -1   4  18   67.09    5.20
   0  -4 -18   19.30    2.90
   0  -4 -18   18.20    2.60
   0   4  18   16.80    3.10
   0   4  18   18.30    4.60
   0   4  18   15.60    3.10
   0   4  18   21.80    2.70
  -1  -4 -18    5.70    2.00
  -1  -4 -18    1.80    1.80
  -1  -4 -18    4.00    3.00
   1   4  18    1.00    3.50
   1   4  18    2.50    2.50
   1   4  18    1.10    2.70
   2   4  18    2.60    3.30
   2   4  18    1.50    7.10
   2   4  18    5.00    4.50
   3   4  18    4.30    5.50
   3  -5 -18   -2.00    3.90
  -3   5  18   12.40    4.80
   2  -5 -18   17.70    3.70
   2  -5 -18   16.30    3.70
  -2   5  18   19.20    3.70
  -2   5  18   19.20    4.20
  -2   5  18    8.20    4.40
   1  -5 -18   45.70    5.90
   1  -5 -18   43.80    6.10
  -1   5  18   41.50    4.90
   0  -5 -18   -1.20    2.30
   0   5  18   -2.20    3.80
   0   5  18    3.40    2.90
   0   5  18    4.10    2.50
   0   5  18   -1.00    3.00
   1   5  18   16.50    3.30
   1   5  18   19.80    3.50
   2   5  18    8.80    4.40
  -3   6  18   -4.50    5.30
   2  -6 -18    5.90    3.90
   2  -6 -18    8.50    3.70
  -2   6  18   15.80    4.60
  -2   6  18    8.80    4.70
   1  -6 -18   49.20    5.70
  -1   6  18   46.60    5.20
   0  -6 -18    1.20    2.80
   0   6  18    1.70    2.90
   0   6  18    4.00    5.00
   1   6  18    6.80    3.80
  -2   7  18   84.39    9.40
   1  -7 -18   23.10    4.50
  -1   7  18   27.60    5.30
   0  -7 -18   22.10    4.00
   0   7  18    6.90    3.80
   2   8 -19    7.70    5.00
  -2  -8  19   -1.60    5.60
   1   8 -19    3.40    4.00
   0  -8  19   14.60    2.40
   1  -8  19   88.49    6.50
   3   7 -19    4.20    4.90
  -3  -7  19    4.20    3.30
  -2  -7  19   76.59    8.00
   1   7 -19   50.89    5.60
  -1  -7  19   40.20    3.00
   0   7 -19    4.60    2.90
   0  -7  19    2.80    1.70
  -2   7 -19    2.40    3.50
   3  -7  19    6.40    4.50
  -3  -6  19   12.70    3.30
   2   6 -19   21.60    4.30
  -2  -6  19   14.80    4.60
  -2  -6  19   19.90    4.70
   1   6 -19   17.50    3.50
  -1  -6  19   20.20    2.20
   0   6 -19    0.30    2.40
   0   6 -19    4.20    2.60
   0  -6  19    4.00    1.60
   0  -6  19    6.70    3.80
  -1   6 -19    4.90    2.40
  -1   6 -19    2.40    2.50
  -1   6 -19    2.30    2.20
  -2   6 -19    1.70    2.80
  -3   6 -19    4.40    5.80
   3  -6  19    6.50    3.80
  -4  -5  19   64.59    6.60
   3   5 -19    1.90    4.40
  -3  -5  19   -0.50    2.60
   2   5 -19   44.30    4.30
   2   5 -19   45.70    5.30
  -2  -5  19   44.30    3.60
  -2  -5  19   42.70    5.10
   1   5 -19    3.40    2.30
  -1  -5  19    3.50    3.30
  -1  -5  19    0.30    1.50
   0   5 -19   45.30    4.20
   0   5 -19   39.40    3.50
   0   5 -19   45.60    3.60
   0   5 -19   35.00    3.90
   0  -5  19   42.40    4.00
   0  -5  19   44.90    3.10
  -1   5 -19    7.50    2.20
  -1   5 -19   14.50    2.60
  -1   5 -19    9.30    2.30
   1  -5  19   10.80    2.70
   1  -5  19   15.80    3.80
  -2   5 -19    3.40    2.30
  -2   5 -19    2.30    1.90
  -2   5 -19    1.00    2.60
   3  -5  19    3.10    3.10
  -4  -4  19  103.09    7.20
  -3  -4  19    2.60    2.50
  -3  -4  19    0.90    2.30
   2   4 -19   11.20    3.10
  -2  -4  19   16.40    2.90
  -2  -4  19   15.80    2.30
   1   4 -19    3.60    2.20
   1   4 -19    4.50    1.90
  -1  -4  19    7.20    2.40
  -1  -4  19    5.70    1.80
   0   4 -19   -0.80    2.00
   0   4 -19   -0.30    1.40
   0   4 -19   -0.90    1.50
   0   4 -19   -2.10    1.80
   0  -4  19    5.30    2.20
   0  -4  19    1.10    2.00
   0  -4  19    1.70    2.80
  -1   4 -19   15.50    2.40
  -1   4 -19   13.70    2.30
   1  -4  19   14.30    2.90
   1  -4  19   14.60    3.70
  -2   4 -19   79.19    4.50
  -2   4 -19   81.59    5.10
  -2   4 -19   75.79    4.90
   2  -4  19   87.49    5.00
  -3   4 -19   25.20    4.20
   3  -4  19   22.30    3.50
   3  -4  19   30.00    6.10
  -4   4 -19    3.60    4.10
  -4  -3  19    5.40    3.20
  -4  -3  19    4.00    3.40
   3   3 -19   11.00    3.40
  -3  -3  19    5.60    5.30
  -3  -3  19    8.40    2.50
   2   3 -19    8.30    2.90
   2   3 -19    9.50    2.50
   2   3 -19   10.00    2.40
  -2  -3  19   10.50    2.20
   1   3 -19   23.50    2.60
   1   3 -19   23.80    2.90
   1   3 -19   28.80    2.60
   1   3 -19   29.40    3.30
  -1  -3  19   22.70    2.40
  -1  -3  19   21.20    2.90
   0   3 -19   16.30    2.40
   0   3 -19   13.90    2.30
   0   3 -19   13.10    1.80
   0   3 -19   10.60    1.80
   0  -3  19   24.80    2.80
   0  -3  19   13.60    1.80
  -1   3 -19   34.30    2.70
  -1   3 -19   43.50    3.40
  -1   3 -19   36.70    3.30
   1  -3  19   35.00    3.00
   1  -3  19   33.40    4.20
   1  -3  19   29.90    3.20
  -2   3 -19    0.60    2.10
  -2   3 -19   -0.50    2.10
  -2   3 -19   -1.30    1.50
   2  -3  19   -0.70    2.20
   2  -3  19    2.00    1.90
   3  -3  19   -1.20    2.70
   4  -3  19    5.90   10.00
  -4  -2  19   -2.30    3.00
   3   2 -19   71.89    5.50
   3   2 -19   70.39    5.70
  -3  -2  19   73.69    6.20
  -3  -2  19   64.89    4.40
  -3  -2  19   67.69    5.80
   2   2 -19    4.40    2.30
   2   2 -19   11.60    2.20
  -2  -2  19    9.10    2.70
  -2  -2  19    1.10    2.00
   1   2 -19   17.30    2.70
   1   2 -19   12.10    2.20
   1   2 -19   14.30    2.10
   1   2 -19   10.40    1.80
   1   2 -19   16.00    2.10
  -1  -2  19   15.80    2.00
   0   2 -19    4.40    1.90
   0   2 -19    4.40    1.70
   0   2 -19    1.80    1.30
   0   2 -19    2.30    1.30
   0  -2  19    1.00    1.40
   0  -2  19    1.70    1.80
  -1   2 -19   62.89    3.90
  -1   2 -19   58.79    3.40
  -1   2 -19   59.99    4.00
  -1   2 -19   59.29    2.90
   1  -2  19   63.79    4.10
   1  -2  19   60.09    6.60
  -2   2 -19   45.90    4.00
  -2   2 -19   45.00    3.30
  -2   2 -19   38.90    2.80
  -2   2 -19   46.60    4.00
   2  -2  19   50.09    5.10
   2  -2  19   44.00    3.80
   2  -2  19   43.20    4.50
  -3   2 -19    4.70    2.00
  -3   2 -19    6.50    2.90
   3  -2  19   -1.60    3.90
   3  -2  19    2.40    6.30
   3  -2  19    4.50    3.40
   4  -2  19    0.50    7.20
   4  -2  19   -1.90    4.10
   4   1 -19   60.59    5.80
  -4  -1  19   55.59    5.20
   3   1 -19   23.10    3.50
   3   1 -19   18.60    3.70
   3   1 -19   18.50    3.70
  -3  -1  19   14.80    3.80
   2   1 -19    8.30    2.30
   2   1 -19    8.40    2.20
   2   1 -19    9.30    2.40
  -2  -1  19    6.60    2.70
  -2  -1  19    2.10    2.30
   1   1 -19    3.60    1.50
   1   1 -19   -0.70    1.70
   1   1 -19    3.40    1.70
   1   1 -19    2.00    1.80
  -1  -1  19    1.80    2.80
  -1  -1  19    2.50    1.70
  -1  -1  19    2.00    2.00
   0   1 -19  211.88    9.00
   0   1 -19  233.68    8.10
   0   1 -19  233.18    8.10
   0   1 -19  218.08    8.40
   0  -1  19  222.78    8.40
   0  -1  19  225.68    8.70
  -1   1 -19    5.60    1.70
  -1   1 -19    6.70    1.80
  -1   1 -19    5.30    1.30
  -1   1 -19    7.20    1.30
   1  -1  19    0.10    2.10
   1  -1  19    6.40    2.10
   1  -1  19    3.10    1.70
  -2   1 -19   50.29    3.30
  -2   1 -19   46.30    3.00
  -2   1 -19   47.10    6.00
   2  -1  19   48.50    5.00
   2  -1  19   48.70    3.90
   2  -1  19   45.70    3.90
   2  -1  19   43.80    5.30
  -3   1 -19    9.40    5.00
  -3   1 -19    4.40    2.10
   3  -1  19    8.70    4.80
   3  -1  19    7.60    2.90
   3  -1  19    6.80    4.10
  -4   1 -19    4.60    3.70
   4  -1  19    6.10    4.00
   4   0 -19   38.30    5.00
  -4   0  19   43.60    5.00
   3   0 -19    2.30    3.00
   3   0 -19    4.20    3.20
   3   0 -19    2.10    2.90
  -3   0  19   10.10    3.00
  -3   0  19    1.00    3.70
   2   0 -19    3.60    2.00
   2   0 -19   -0.50    2.20
   2   0 -19    3.50    2.30
   2   0 -19    5.10    2.50
   2   0 -19    0.60    2.00
  -2   0  19   -1.60    2.20
  -2   0  19    1.00    2.50
  -2   0  19    4.70    4.60
   1   0 -19    5.40    1.80
   1   0 -19   -2.70    1.90
   1   0 -19    5.30    1.90
   1   0 -19    5.90    1.90
  -1   0  19    0.10    2.20
  -1   0  19    1.80    1.80
  -1   0  19    2.20    2.80
   0   0 -19  172.88    6.90
   0   0 -19  174.58    6.40
   0   0 -19  166.78    7.30
   0   0 -19  168.28    6.50
   0   0  19  167.58    8.90
   0   0  19  160.38    6.80
   0   0  19  176.38    6.50
   0   0  19  174.48    7.30
  -1   0 -19   12.90    1.60
  -1   0 -19   14.50    2.20
  -1   0 -19   17.60    2.90
   1   0  19   16.40    2.60
   1   0  19   14.30    2.40
   1   0  19   15.90    2.10
  -2   0 -19   43.80    3.40
  -2   0 -19   41.30    3.10
  -2   0 -19   38.80    3.60
  -2   0 -19   42.20    4.10
   2   0  19   42.80    4.80
   2   0  19   37.90    3.80
   2   0  19   58.49    6.70
  -3   0 -19    2.40    2.10
   3   0  19   13.20    3.90
   3   0  19    6.60    2.80
   3   0  19    5.40    5.10
  -4   0 -19   44.00    5.90
   4   0  19   43.80    4.50
   4  -1 -19    6.40    4.50
   4  -1 -19   10.60    4.50
   4  -1 -19    9.50    5.10
   3  -1 -19    5.60    3.00
   3  -1 -19    4.10    3.30
  -3   1  19   -6.20    3.90
   2  -1 -19   14.30    2.80
   2  -1 -19    9.70    2.90
   2  -1 -19   14.10    2.70
   2  -1 -19   18.90    2.60
  -2   1  19   16.70    3.20
  -2   1  19   15.40    4.20
   1  -1 -19    9.50    1.90
   1  -1 -19    6.20    2.50
   1  -1 -19    6.80    2.50
   1  -1 -19   10.00    2.10
  -1   1  19    6.00    3.40
  -1   1  19    6.80    2.10
  -1   1  19    5.50    2.40
   0  -1 -19  123.69    5.70
   0  -1 -19  132.89    5.50
   0  -1 -19  122.29    6.10
   0  -1 -19  128.49    5.00
   0   1  19  118.99    7.40
   0   1  19  130.99    6.00
   0   1  19  120.39    5.20
   0   1  19  123.19    5.70
  -1  -1 -19    3.40    1.40
  -1  -1 -19    6.90    2.00
  -1  -1 -19    6.80    1.40
  -1  -1 -19    9.30    2.30
   1   1  19    2.10    2.10
   1   1  19   10.10    3.50
   1   1  19    1.70    2.20
  -2  -1 -19   15.70    2.00
  -2  -1 -19   13.00    2.00
  -2  -1 -19   16.60    2.80
   2   1  19   19.10    3.30
   2   1  19   11.20    4.70
   2   1  19   21.30    2.80
  -3  -1 -19    3.60    3.10
  -3  -1 -19    5.20    2.30
   3   1  19   -5.60    6.10
   3   1  19    1.10    4.70
   3   1  19   -0.10    2.90
   4  -2 -19   16.80    5.40
   4  -2 -19    3.70    4.80
   3  -2 -19   51.49    5.20
   3  -2 -19   41.60    4.80
   3  -2 -19   37.90    6.90
  -3   2  19   39.80    5.20
  -3   2  19   50.99    5.90
  -3   2  19   51.19    5.60
   2  -2 -19   93.69    5.80
   2  -2 -19   84.79    6.00
   2  -2 -19   85.09    5.60
  -2   2  19   86.99    5.80
  -2   2  19   84.69    5.80
   1  -2 -19   25.90    2.90
   1  -2 -19   18.40    2.60
   1  -2 -19   28.20    3.30
  -1   2  19   21.20    2.90
  -1   2  19   30.50    3.40
   0  -2 -19    0.70    1.50
   0  -2 -19    3.30    1.90
   0  -2 -19    3.90    1.70
   0   2  19    4.20    2.30
   0   2  19    2.60    1.80
   0   2  19    0.70    2.00
  -1  -2 -19   23.70    2.90
  -1  -2 -19   21.70    2.60
  -1  -2 -19   26.10    2.50
  -1  -2 -19   25.60    2.80
   1   2  19   27.30    3.00
   1   2  19   20.00    3.00
   1   2  19   26.20    3.00
  -2  -2 -19    5.80    2.00
   2   2  19   -2.50    4.60
   2   2  19    2.10    2.50
   2   2  19    7.40    3.10
   3   2  19   14.50    6.10
   3   2  19   12.20    3.50
   3   2  19    7.90    5.10
   4  -3 -19   34.80    6.50
   4  -3 -19   23.70    5.60
   3  -3 -19   52.49    5.60
   3  -3 -19   47.70    5.20
  -3   3  19   49.50    5.60
   2  -3 -19  110.09    6.60
   2  -3 -19  103.09    6.30
   2  -3 -19  100.99    6.30
  -2   3  19   99.59    7.80
  -2   3  19   95.99    8.60
  -2   3  19  107.89    6.60
   1  -3 -19  165.58    7.50
   1  -3 -19  157.58    7.30
  -1   3  19  166.78    9.20
  -1   3  19  144.39    7.50
  -1   3  19  160.38    7.70
   0  -3 -19   29.20    2.80
   0  -3 -19   24.40    2.70
   0   3  19   24.70    3.30
   0   3  19   27.40    2.70
   0   3  19   25.60    3.30
   0   3  19   15.60    4.10
  -1  -3 -19   11.70    2.30
   1   3  19   16.80    2.90
   1   3  19    9.10    3.80
   1   3  19   14.40    2.80
   2   3  19    0.30    5.00
   2   3  19   -1.80    4.30
   2   3  19    1.40    3.30
   2   3  19    4.10    2.80
   3   3  19   -8.00    5.90
   3   3  19    0.10    5.10
   3  -4 -19  125.29    8.20
  -3   4  19  112.99    8.70
   2  -4 -19   62.89    6.10
  -2   4  19   43.00    7.60
  -2   4  19   62.69    6.90
   1  -4 -19   19.30    4.70
   1  -4 -19   15.60    3.20
   1  -4 -19   17.00    3.40
  -1   4  19   16.90    3.20
   0  -4 -19    2.00    2.00
   0  -4 -19    3.30    2.30
   0  -4 -19    6.50    2.90
   0   4  19    8.60    2.70
   0   4  19   -3.40    5.30
   0   4  19   -3.30    2.30
   0   4  19    2.30    2.90
  -1  -4 -19   30.70    3.10
   1   4  19   21.50    4.50
   1   4  19   20.80    3.20
   2   4  19    1.50    4.50
   3   4  19    1.90    5.80
   3  -5 -19   -3.10    4.40
  -3   5  19    2.20    5.40
   2  -5 -19    0.00    3.10
  -2   5  19    1.10    4.50
  -1   5  19   16.10    4.00
  -1   5  19   18.90    3.80
   0   5  19    1.30    2.80
   1   5  19   25.10    4.00
   1   5  19   31.40    3.80
   2  -6 -19   16.20    4.10
   2  -6 -19   12.60    5.50
  -2   6  19   15.40    5.70
  -1   6  19   19.50    4.30
  -1   6  19   12.60    4.10
   0   6  19    0.20    3.20
   0   6  19    4.80    3.80
   1  -7 -19    7.70    4.40
   0  -7 -19    0.00    4.00
   0   7  19   -1.40    4.80
  -2  -8  20    4.70    6.00
   1   8 -20   41.60    5.60
   0  -8  20   42.70    3.40
   3   7 -20   21.60    6.40
  -3  -7  20   15.30    3.80
   2   7 -20   -2.50    6.40
  -2  -7  20    5.20    5.00
   1   7 -20    8.80    3.60
  -1  -7  20    8.80    2.00
  -1  -7  20   15.30    4.60
   0   7 -20   20.90    3.80
   0  -7  20   28.90    3.00
   0  -7  20   23.50    5.00
   1  -7  20   16.60    3.10
  -3   7 -20   23.10    5.20
  -3  -6  20   29.40    4.00
  -1  -6  20   -1.30    1.80
   0   6 -20    5.60    2.30
   0   6 -20    7.90    2.70
   0   6 -20    6.90    2.70
   0  -6  20    4.00    2.40
  -1   6 -20    8.20    2.60
  -1   6 -20    7.60    2.60
  -1   6 -20    6.40    2.70
   1  -6  20    8.60    3.70
  -2   6 -20   40.40    4.70
   2  -6  20   45.10    5.30
  -3   6 -20   10.80    4.30
   3  -6  20    1.60    5.50
  -3  -5  20  141.49    7.20
   2   5 -20    3.30    3.00
   2   5 -20    3.70    3.10
  -2  -5  20    0.50    2.10
  -2  -5  20    2.60    3.00
  -2  -5  20    4.30    3.90
   1   5 -20   -3.10    2.10
   1   5 -20   -2.70    2.60
  -1  -5  20    0.70    1.80
   0   5 -20    2.60    2.20
   0   5 -20   -1.40    2.30
   0   5 -20   -0.50    2.10
   0   5 -20    1.10    2.00
   0  -5  20    0.90    1.50
   0  -5  20   -3.00    6.50
  -1   5 -20    2.50    2.20
  -1   5 -20    0.00    1.60
  -1   5 -20    0.40    2.20
  -1   5 -20    1.40    2.20
   1  -5  20    7.80    2.90
  -2   5 -20    4.20    2.10
  -2   5 -20   -0.70    2.30
  -2   5 -20   -1.40    2.50
   2  -5  20   -2.00    2.70
  -3   5 -20   35.20    3.90
   3  -5  20   33.00    4.30
  -4  -4  20   -1.20    3.50
  -3  -4  20   12.50    3.80
  -3  -4  20   11.80    2.80
  -2  -4  20   47.10    4.80
  -2  -4  20   34.30    4.50
   1   4 -20    5.60    2.60
   1   4 -20   -0.80    2.50
   1   4 -20    6.50    2.00
  -1  -4  20    1.10    1.70
   0   4 -20   33.60    3.80
   0   4 -20   35.60    3.10
   0   4 -20   34.70    3.60
   0   4 -20   34.60    3.30
   0  -4  20   34.40    3.50
  -1   4 -20   56.49    4.20
  -1   4 -20   66.59    4.50
   1  -4  20   61.89    6.40
   1  -4  20   54.09    4.20
   1  -4  20   55.59    4.20
  -2   4 -20   27.60    3.60
  -2   4 -20   28.40    3.10
   3  -4  20   12.40    4.20
  -4  -3  20    6.20    3.90
  -4  -3  20    1.70    3.40
   3   3 -20   18.50    3.80
   2   3 -20   -2.00    2.60
   2   3 -20    0.10    2.90
  -2  -3  20   -0.60    3.50
  -2  -3  20   -1.10    2.10
   1   3 -20   37.40    3.80
   1   3 -20   42.30    3.70
   1   3 -20   44.20    4.10
   1   3 -20   41.90    3.40
  -1  -3  20   47.40    3.40
  -1  -3  20   43.40    4.20
   0   3 -20   11.50    1.80
   0   3 -20   10.10    2.30
   0   3 -20   12.00    2.30
   0   3 -20   10.10    2.00
   0  -3  20   13.50    2.80
   0  -3  20    9.80    1.80
   0  -3  20    6.60    3.40
  -1   3 -20   33.00    2.80
  -1   3 -20   33.80    3.50
  -1   3 -20   30.60    3.50
   1  -3  20   30.90    3.30
   1  -3  20   34.20    3.00
  -2   3 -20   12.10    2.10
  -2   3 -20   10.40    2.70
   2  -3  20   12.40    2.70
  -3   3 -20   13.10    3.80
  -3   3 -20   13.50    3.50
  -4  -2  20    1.70    3.50
   3   2 -20   36.60    4.30
  -3  -2  20   30.70    4.60
   2   2 -20    9.80    3.30
   2   2 -20    7.40    2.50
   2   2 -20    7.80    2.30
   2   2 -20    8.60    2.50
  -2  -2  20    6.40    2.50
  -2  -2  20    2.50    3.10
   1   2 -20   23.90    3.20
   1   2 -20   27.00    2.60
   1   2 -20   20.60    2.70
  -1  -2  20   20.50    2.70
  -1  -2  20   27.90    2.70
   0   2 -20    6.60    2.10
   0   2 -20    5.50    1.70
   0  -2  20   -1.10    2.30
   0  -2  20    6.20    2.00
   0  -2  20    2.30    1.50
  -1   2 -20   22.00    2.80
  -1   2 -20   18.90    1.80
  -1   2 -20   21.60    2.90
  -1   2 -20   16.40    2.60
   1  -2  20   19.10    3.10
   1  -2  20   14.10    2.70
  -2   2 -20    1.90    1.40
  -2   2 -20    2.10    2.80
  -2   2 -20    3.70    1.80
  -2   2 -20   -0.30    2.10
   2  -2  20    6.80    2.70
   2  -2  20    1.10    3.20
   2  -2  20   -2.60    2.40
  -3   2 -20   32.90    3.00
   3  -2  20   31.50    6.50
   3  -2  20   27.70    5.10
   4   1 -20    0.80    4.50
  -4  -1  20    1.40    3.00
   3   1 -20  118.79   10.40
   3   1 -20   99.79    9.40
   3   1 -20  112.19    7.00
   3   1 -20  119.89    7.10
  -3  -1  20  120.19    7.70
   2   1 -20   72.79    4.80
   2   1 -20   66.39    4.70
   2   1 -20   57.89    4.70
  -2  -1  20   60.29    5.10
   1   1 -20   10.90    3.00
   1   1 -20   15.20    2.20
   1   1 -20   15.90    2.40
   1   1 -20   12.40    2.10
  -1  -1  20    9.80    1.90
  -1  -1  20   12.50    2.70
   0   1 -20   55.89    3.30
   0   1 -20   51.79    3.30
   0   1 -20   50.99    3.70
   0   1 -20   59.29    4.00
   0  -1  20   56.99    4.00
   0  -1  20   56.29    3.50
   0  -1  20   55.99    3.60
  -1   1 -20  309.67   10.50
  -1   1 -20  309.47   10.70
  -1   1 -20  304.77   11.30
  -1   1 -20  305.57   11.60
   1  -1  20  321.07   13.70
   1  -1  20  318.17   11.40
   1  -1  20  324.07   11.70
   1  -1  20  314.77   11.20
  -2   1 -20   56.09    4.30
  -2   1 -20   48.00    3.20
  -2   1 -20   50.69    3.50
   2  -1  20   49.60    5.20
   2  -1  20   54.49    4.20
   2  -1  20   46.70    4.40
  -3   1 -20    3.30    2.70
   3  -1  20    5.90    3.90
   3  -1  20   11.90    6.60
   4   0 -20   11.40    4.80
   3   0 -20   33.70    4.10
   3   0 -20   24.80    3.90
   3   0 -20   34.70    4.30
  -3   0  20   32.30    4.80
   2   0 -20    2.80    2.60
   2   0 -20    2.30    2.50
   2   0 -20    2.30    2.20
   2   0 -20    0.10    2.10
   2   0 -20   -0.40    2.20
   1   0 -20   74.89    6.10
   1   0 -20   82.89    4.50
   1   0 -20   88.69    5.50
   1   0 -20   84.89    4.80
   1   0 -20   90.69    4.90
  -1   0  20   86.79    4.80
   0   0 -20    9.70    2.20
   0   0 -20    7.30    2.40
   0   0 -20   11.10    1.80
   0   0 -20   10.20    1.80
   0   0  20    7.40    2.00
   0   0  20    5.00    3.50
   0   0  20    8.10    1.90
   0   0  20    7.10    2.40
  -1   0 -20  206.28    7.70
  -1   0 -20  213.18    8.90
   1   0  20  208.28   10.30
   1   0  20  216.48    8.70
   1   0  20  204.98    8.40
   1   0  20  218.68    8.70
  -2   0 -20   -0.60    2.20
  -2   0 -20    3.70    1.70
  -2   0 -20    3.30    1.60
   2   0  20    1.90    3.10
   2   0  20   -5.50    2.50
  -3   0 -20    6.60    2.40
   3   0  20    5.70    5.30
   3   0  20    9.60    3.30
   3  -1 -20   26.60    5.70
   3  -1 -20   26.50    4.60
   3  -1 -20   24.70    4.30
  -3   1  20   27.60    4.90
   2  -1 -20    7.20    2.50
   2  -1 -20    0.60    2.60
   2  -1 -20    7.00    3.20
   2  -1 -20    2.30    2.70
   2  -1 -20    9.60    2.90
  -2   1  20    4.80    4.40
   1  -1 -20   -0.20    2.00
   1  -1 -20    0.10    2.30
   1  -1 -20   -4.30    2.00
   1  -1 -20   -0.30    1.70
  -1   1  20   -4.90    4.10
  -1   1  20    2.50    2.40
  -1   1  20   -0.90    2.10
   0  -1 -20   37.00    3.60
   0  -1 -20   39.00    2.80
   0  -1 -20   40.90    3.30
   0  -1 -20   44.10    3.50
   0   1  20   40.10    3.90
   0   1  20   35.60    3.50
   0   1  20   34.00    3.10
  -1  -1 -20   10.70    2.50
  -1  -1 -20   13.10    2.60
  -1  -1 -20    9.40    1.90
  -1  -1 -20   12.50    1.70
   1   1  20   10.20    2.30
   1   1  20   11.10    2.60
   1   1  20    8.50    2.60
  -2  -1 -20    3.60    1.80
  -2  -1 -20    7.20    2.00
   2   1  20    4.20    3.90
   2   1  20   17.10    6.80
   2   1  20    9.90    3.00
  -3  -1 -20    6.20    2.80
   3   1  20    2.00    3.40
   3   1  20    9.20    6.30
   4  -2 -20  143.39   13.60
   4  -2 -20  146.79   10.00
   3  -2 -20   -0.20    3.90
   3  -2 -20   -0.80    3.80
  -3   2  20    1.70    4.10
  -3   2  20   -2.80    3.80
   2  -2 -20   -5.60    2.50
   2  -2 -20    0.10    3.60
   2  -2 -20    5.70    3.40
  -2   2  20    8.60    3.10
  -2   2  20    2.00    2.90
   1  -2 -20   42.70    4.20
   1  -2 -20   39.00    4.30
   1  -2 -20   39.90    4.00
  -1   2  20   31.40    7.90
  -1   2  20   41.90    4.00
   0  -2 -20    6.30    2.40
   0  -2 -20    5.50    2.00
   0   2  20    5.60    2.50
   0   2  20    5.60    2.40
   0   2  20   10.20    2.30
  -1  -2 -20   16.10    2.90
   1   2  20   14.70    2.70
   1   2  20   16.90    4.40
   1   2  20   22.50    3.30
  -2  -2 -20   19.70    2.70
   2   2  20   21.90    3.50
   2   2  20   28.30    5.50
   2   2  20   27.10    4.00
   3   2  20    5.10    5.40
   3   2  20   -2.30    3.70
   3   2  20   10.20    7.10
   3  -3 -20    8.50    4.10
  -3   3  20   17.20    4.70
   2  -3 -20    1.30    3.00
   2  -3 -20    3.10    3.20
  -2   3  20    0.40    3.10
  -2   3  20   10.90    3.60
  -2   3  20    0.00    3.70
  -1   3  20   -1.10    2.60
  -1   3  20    1.20    3.00
   0  -3 -20   38.20    4.30
   0  -3 -20   29.00    5.00
   0   3  20   30.70    6.00
   0   3  20   31.90    3.00
   0   3  20   25.90    3.30
   0   3  20   29.30    3.60
  -1  -3 -20   63.49    5.50
   1   3  20   63.39    4.80
   1   3  20   61.99    4.80
   1   3  20   42.50    6.50
   2   3  20    5.50    4.80
   2   3  20    4.20    3.00
   3   3  20   30.80    7.50
   3   3  20   30.80    6.20
  -3   4  20   29.30    5.40
   2  -4 -20   90.49    6.70
  -2   4  20  102.69    8.20
  -2   4  20  104.39    7.10
   1  -4 -20   17.70    3.70
   1  -4 -20   19.80    3.30
  -1   4  20   14.40    3.20
  -1   4  20   17.00    4.90
   0  -4 -20    9.40    2.80
   0  -4 -20    9.40    2.70
   0   4  20    5.50    3.30
   0   4  20    4.00    3.20
   0   4  20    9.70    2.70
   1   4  20    4.90    3.60
   1   4  20   11.90    3.50
   2   4  20    6.80    3.70
  -3   5  20   -0.10    5.70
   2  -5 -20    9.90    3.60
  -2   5  20    8.20    4.80
  -2   5  20   19.40    4.90
  -2   5  20    6.20    5.50
  -1   5  20   20.40    4.40
   0   5  20    0.30    3.00
   0   5  20    4.00    3.50
   1   5  20   14.80    4.70
   1   5  20   18.20    6.40
   2  -6 -20   39.70    5.10
  -1   6  20    0.60    4.30
  -1   6  20    1.80    4.60
   0   6  20   51.59    6.40
   1   6  20    5.20    4.10
   2   8 -21  105.59    8.90
  -2  -8  21   98.19   11.00
   1   8 -21   27.40    5.10
  -1  -8  21   26.20    7.70
   0  -8  21    0.80    2.10
   2   7 -21   -3.50    4.40
  -2  -7  21   -2.20    5.30
   1   7 -21   20.70    4.20
  -1  -7  21   18.40    2.50
   0   7 -21    0.00    3.40
   0  -7  21    1.90    2.00
  -2  -6  21    0.50    4.70
   1   6 -21    4.70    3.40
  -1  -6  21    3.30    2.10
   0   6 -21   28.90    3.90
   0   6 -21   24.60    3.50
  -1   6 -21   -0.20    3.30
  -1   6 -21    1.30    2.70
  -1   6 -21   -1.20    2.60
  -2   6 -21   53.09    5.50
   2  -6  21   38.10    4.50
  -3   6 -21    0.20    5.80
   2   5 -21   10.30    4.00
  -2  -5  21   15.50    2.50
   1   5 -21    3.30    2.80
   1   5 -21    2.60    2.30
  -1  -5  21    4.30    2.00
   0   5 -21    2.10    2.50
   0   5 -21    3.90    2.70
   0   5 -21    2.30    2.00
   0   5 -21    3.10    2.10
  -1   5 -21   28.10    3.40
  -1   5 -21   28.90    2.80
  -1   5 -21   33.80    3.50
  -1   5 -21   26.20    3.40
   1  -5  21   22.90    6.00
   1  -5  21   28.00    2.90
   1  -5  21   32.10    3.60
  -2   5 -21   -1.60    2.50
  -2   5 -21    0.90    3.00
   2  -5  21   -1.50    2.90
  -3   5 -21    1.40    3.70
   3   4 -21    5.50    3.80
  -3  -4  21    1.50    3.00
   2   4 -21   -6.40    2.80
   1   4 -21   10.80    2.30
   1   4 -21    4.00    2.80
   1   4 -21    9.70    3.90
  -1  -4  21    9.30    2.20
   0   4 -21    1.80    1.70
   0   4 -21    1.50    1.90
   0   4 -21   -3.90    2.10
   0   4 -21   -0.10    2.20
   0  -4  21   -2.40    3.90
  -1   4 -21   10.00    2.40
  -1   4 -21    9.10    2.50
  -1   4 -21    6.70    2.20
   1  -4  21    7.40    2.60
   1  -4  21    3.40    4.00
  -2   4 -21   33.50    3.60
  -3   4 -21   66.29    6.80
  -3   4 -21   56.69    5.10
   3  -4  21   56.89    6.60
  -4  -3  21   11.20    4.00
  -4  -3  21   10.00    3.70
  -3  -3  21    5.60    3.00
   2   3 -21    4.30    3.10
   2   3 -21    4.20    2.70
   1   3 -21    3.40    2.50
   1   3 -21    0.20    1.90
   1   3 -21   -1.60    1.90
  -1  -3  21    6.20    3.60
   0   3 -21   40.60    4.00
   0   3 -21   46.70    3.50
   0   3 -21   44.10    3.70
   0   3 -21   40.90    4.00
   0  -3  21   37.30    3.50
   0  -3  21   48.40    5.70
   0  -3  21   41.90    4.10
  -1   3 -21   11.90    2.40
  -1   3 -21   14.40    2.10
  -1   3 -21   10.20    2.60
   1  -3  21   -0.10    3.80
   1  -3  21   14.90    2.20
   1  -3  21    8.70    2.40
  -2   3 -21    1.40    2.60
  -2   3 -21    1.80    1.80
  -2   3 -21    0.00    2.60
   2  -3  21   -2.30    2.70
   3  -3  21   -2.40    8.20
  -4  -2  21   30.40    4.10
   3   2 -21   61.89    6.10
  -3  -2  21   61.39    7.00
   2   2 -21   10.20    2.60
   2   2 -21   10.10    2.70
   2   2 -21   11.70    3.20
  -2  -2  21    9.80    3.10
   1   2 -21   -4.70    2.20
   1   2 -21    2.10    1.80
   1   2 -21   -0.20    1.90
   1   2 -21    0.60    2.00
  -1  -2  21    2.20    1.90
  -1  -2  21    0.30    2.50
  -1  -2  21    4.70    3.60
   0   2 -21    1.90    2.30
   0   2 -21    2.10    1.60
   0   2 -21    2.50    1.80
   0  -2  21    0.60    1.60
   0  -2  21    3.40    2.40
   0  -2  21   -0.20    2.00
   0  -2  21    1.10    3.30
  -1   2 -21   22.20    3.00
  -1   2 -21   27.70    2.80
  -1   2 -21   34.90    3.40
   1  -2  21   27.80    3.20
   1  -2  21   23.80    3.50
   1  -2  21   31.30    3.60
  -2   2 -21    5.50    2.50
  -2   2 -21    3.80    2.00
   2  -2  21    4.10    2.40
   2  -2  21    3.40    2.70
   2  -2  21    6.90    3.80
   3   1 -21    9.20    3.70
   3   1 -21   11.50    3.50
  -3  -1  21    0.20    4.40
   2   1 -21   13.30    2.90
   2   1 -21   16.50    2.90
   2   1 -21   14.70    2.80
  -2  -1  21   13.50    3.40
  -2  -1  21   13.90    6.40
   1   1 -21    5.50    2.20
   1   1 -21    2.70    1.90
   1   1 -21    1.40    2.80
   1   1 -21    6.40    2.10
  -1  -1  21    6.60    3.50
  -1  -1  21   -3.80    2.40
  -1  -1  21    2.80    2.50
   0   1 -21   49.30    3.80
   0   1 -21   47.50    3.40
   0   1 -21   51.59    3.50
   0   1 -21   48.40    4.10
   0  -1  21   53.29    6.20
   0  -1  21   55.79    4.40
   0  -1  21   48.40    3.60
   0  -1  21   50.09    3.60
  -1   1 -21    2.50    1.50
  -1   1 -21    1.70    1.50
  -1   1 -21    0.50    2.00
   1  -1  21    1.70    2.60
   1  -1  21    5.40    4.80
   1  -1  21   -2.60    2.40
  -2   1 -21   17.40    2.40
  -2   1 -21   28.30    3.30
  -2   1 -21   19.10    2.30
   2  -1  21   20.40    3.00
   2  -1  21   22.80    4.10
   2  -1  21   20.40    4.00
  -3   1 -21    8.50    2.40
  -3   1 -21    5.10    2.60
   4   0 -21   -4.50    5.20
   3   0 -21    3.80    3.80
   3   0 -21    6.20    3.90
   2   0 -21   16.60    3.00
   2   0 -21   27.10    3.50
   2   0 -21   22.20    3.60
   2   0 -21   22.20    3.20
   2   0 -21   17.10    2.90
   1   0 -21   11.40    2.50
   1   0 -21    6.60    3.00
   1   0 -21    9.80    2.30
   1   0 -21    8.10    2.40
  -1   0  21    5.20    2.70
  -1   0  21    8.10    3.60
   0   0 -21   90.79    4.90
   0   0 -21   89.19    4.30
   0   0 -21   99.39    7.90
   0   0 -21   86.39    4.70
   0   0  21   90.79    4.50
   0   0  21   88.39    5.40
   0   0  21   91.79    4.90
   0   0  21   79.89    9.90
  -1   0 -21    3.40    2.20
  -1   0 -21   -1.30    1.60
  -1   0 -21   -1.10    1.50
  -1   0 -21    0.60    2.30
   1   0  21   -3.10    2.60
   1   0  21    3.20    2.60
  -2   0 -21  322.77   11.10
  -2   0 -21  321.77   11.10
   2   0  21  311.57   14.10
   2   0  21  295.77   12.60
  -3   0 -21   11.60    2.60
   3   0  21   16.10    5.00
   4  -1 -21   12.40    6.00
   3  -1 -21    4.30    3.80
   3  -1 -21    8.20    3.70
  -3   1  21   -1.90    4.50
  -3   1  21    4.40    3.80
   2  -1 -21    0.20    2.80
   2  -1 -21    5.10    2.50
   2  -1 -21    1.70    2.60
   2  -1 -21   -2.40    2.80
  -2   1  21    0.90    3.00
  -2   1  21    1.50    5.50
   1  -1 -21    6.50    2.20
   1  -1 -21    5.90    2.50
   1  -1 -21    0.20    2.00
   1  -1 -21    1.20    2.30
  -1   1  21    4.80    4.50
  -1   1  21   -1.00    2.20
  -1   1  21    3.50    2.70
   0  -1 -21    7.70    2.20
   0  -1 -21    6.10    1.70
   0  -1 -21    7.40    2.30
   0   1  21   11.90    2.70
   0   1  21    6.40    2.10
  -1  -1 -21    8.10    1.70
  -1  -1 -21   11.90    2.80
  -1  -1 -21    8.20    2.60
   1   1  21    9.70    3.90
   1   1  21   12.60    2.80
   1   1  21    8.00    2.90
  -2  -1 -21   42.90    3.40
  -2  -1 -21   46.80    3.80
   2   1  21   50.19    5.60
   2   1  21   35.90    3.60
   2   1  21   38.10    7.70
  -3  -1 -21   45.80    4.80
   3   1  21   51.29    5.00
   3   1  21   52.29   10.90
   3  -2 -21  137.29    8.80
   3  -2 -21  130.59    9.60
  -3   2  21  123.59    8.70
   2  -2 -21   23.10    3.70
   2  -2 -21   24.20    3.70
   2  -2 -21   23.40    3.70
   1  -2 -21    7.10    3.10
   1  -2 -21    9.10    2.80
   1  -2 -21    0.20    2.60
  -1   2  21    5.40    3.00
  -1   2  21    5.80    2.70
   0  -2 -21   47.60    3.90
   0  -2 -21   39.20    4.20
   0   2  21   34.60    3.60
   0   2  21   38.40    3.60
   0   2  21   36.10    3.80
  -1  -2 -21    4.50    2.80
  -1  -2 -21    3.20    2.80
   1   2  21    6.60    2.40
   1   2  21    4.10    2.80
  -2  -2 -21    8.60    2.40
   2   2  21    6.90    3.70
   2   2  21    7.70    2.80
   3   2  21    8.00    5.70
   3   2  21    4.50    4.20
   3   2  21    7.80    7.20
   3  -3 -21   10.90    4.30
   3  -3 -21   19.20    5.20
  -3   3  21   22.30    5.30
   2  -3 -21    1.00    3.00
  -2   3  21    3.30    3.90
   1  -3 -21    6.10    2.50
   1  -3 -21    6.80    2.90
  -1   3  21    3.30    4.20
  -1   3  21    5.80    2.90
   0  -3 -21   74.19    5.10
   0   3  21   66.99    5.70
   0   3  21   70.19    5.50
  -1  -3 -21    1.00    2.60
   1   3  21    4.90    3.10
   1   3  21   -1.60    2.80
   2   3  21    8.40    3.40
   2   3  21    7.00    4.00
   3  -4 -21   -5.00    4.40
  -3   4  21   10.20    5.60
  -2   4  21   -2.90    4.40
  -1   4  21    4.00    3.50
  -1   4  21    7.90    3.70
   0   4  21  134.29    7.70
   1   4  21   34.20    4.30
   1   4  21   30.30    4.20
   2   4  21   22.50    6.50
   2  -5 -21   -0.60    3.80
  -2   5  21    5.20    5.80
  -1   5  21   18.00    4.60
   0   5  21    3.30    3.90
   1   5  21   19.10    4.20
  -1   6  21    8.70    5.10
   1   8 -22   36.90    5.30
   0  -8  22   43.50    4.10
   2   7 -22    0.50    4.80
  -2  -7  22    6.80    6.30
   1   7 -22    5.50    3.90
  -1  -7  22    3.10    2.40
   0   7 -22    6.40    3.90
   0  -7  22    1.90    2.20
   2   6 -22   19.10    5.80
  -2  -6  22   13.10    4.20
  -2  -6  22   10.60    5.10
  -1  -6  22   29.10    2.90
   0   6 -22   12.90    3.40
   0   6 -22   10.40    4.10
  -1   6 -22    4.30    3.10
  -1   6 -22    9.10    3.40
  -2   6 -22    5.20    3.70
  -2  -5  22    2.50    2.50
  -2  -5  22   -1.40    4.40
   1   5 -22   10.30    3.40
   1   5 -22   12.40    3.40
   0   5 -22   11.00    3.20
  -1   5 -22   -0.70    2.70
  -1   5 -22    5.30    2.60
  -1   5 -22    1.00    2.70
  -2   5 -22    0.50    2.90
  -2   5 -22   -0.10    3.00
   2  -5  22    0.00    3.10
   3  -5  22    5.10    4.10
  -3  -4  22    9.10    3.40
   2   4 -22    4.60    3.00
   1   4 -22   19.60    2.90
  -1  -4  22   15.90    3.40
  -1  -4  22   11.20    4.60
   0   4 -22    1.30    2.00
   0   4 -22    3.80    2.60
   0   4 -22    2.90    3.90
   0   4 -22    2.40    2.40
   0  -4  22   -0.70    1.80
   0  -4  22    0.00    2.50
  -1   4 -22   27.50    3.40
  -1   4 -22   26.00    2.70
  -1   4 -22   24.70    3.10
   1  -4  22   19.50    3.30
   1  -4  22   32.10    5.10
  -2   4 -22   27.20    3.50
  -2   4 -22   29.60    3.80
   2  -4  22   21.70    3.70
  -3   4 -22   79.09    6.80
   3   3 -22    4.40    3.70
   2   3 -22    6.10    3.20
   1   3 -22   26.60    2.80
   1   3 -22   13.70    3.80
   1   3 -22   16.00    2.90
  -1  -3  22   21.70    2.70
   0   3 -22   25.30    3.00
   0   3 -22   23.90    3.30
   0   3 -22   24.50    2.80
   0  -3  22   18.50    2.60
   0  -3  22   16.00    4.50
  -1   3 -22    4.30    2.30
   1  -3  22    3.00    2.00
   1  -3  22    2.80    2.80
  -2   3 -22  105.49    6.40
  -2   3 -22  100.19    5.40
   2  -3  22  101.99    6.30
  -3   3 -22   27.00    4.60
   3  -3  22   20.40    7.40
   3   2 -22    2.30    3.40
   2   2 -22   -0.60    2.70
  -2  -2  22    6.20    3.20
  -2  -2  22    3.60    4.40
   1   2 -22    7.90    2.60
   1   2 -22    7.30    2.30
   1   2 -22    9.30    4.60
   1   2 -22    5.90    2.10
  -1  -2  22   15.50    5.90
   0   2 -22   11.80    2.40
   0   2 -22   11.10    2.10
   0  -2  22   11.80    2.80
   0  -2  22   13.10    2.40
  -1   2 -22    3.00    2.20
  -1   2 -22   -2.20    2.30
   1  -2  22    1.60    2.70
   1  -2  22    2.60    2.80
   1  -2  22    2.70    2.20
  -2   2 -22   22.00    3.50
  -2   2 -22   19.80    3.40
   2  -2  22   16.70    3.40
   2  -2  22   21.80    4.20
   3  -2  22   -5.40    4.90
   3   1 -22   28.50    5.80
  -3  -1  22   27.10    5.90
   2   1 -22    7.80    2.70
   2   1 -22    9.60    2.80
   2   1 -22    9.00    2.90
  -2  -1  22    4.50    2.80
   1   1 -22   96.99    5.40
   1   1 -22  105.79    6.30
   1   1 -22  102.39    6.30
   1   1 -22   97.89    5.50
   1   1 -22   98.99    5.80
  -1  -1  22   89.39    8.70
   0   1 -22    0.00    1.90
   0   1 -22    2.30    1.90
   0   1 -22    0.90    1.90
   0   1 -22    3.40    2.40
   0  -1  22    2.90    2.50
   0  -1  22    3.20    5.10
  -1   1 -22  157.58    7.50
  -1   1 -22  157.88    6.40
  -1   1 -22  164.48    6.60
   1  -1  22  167.48    7.50
   1  -1  22  164.58    7.60
  -2   1 -22    4.60    2.00
  -2   1 -22    9.40    2.60
  -2   1 -22    9.60    3.10
   2  -1  22    8.90    3.00
   2  -1  22   18.10    4.20
   3  -1  22    6.80    5.30
   3  -1  22   11.10    5.40
   3   0 -22   39.50    5.10
   3   0 -22   28.70    5.80
   3   0 -22   44.40    4.80
  -3   0  22   30.40    5.60
   2   0 -22   22.30    3.30
   2   0 -22   25.30    3.60
   2   0 -22   25.80    3.70
   2   0 -22   22.70    3.60
  -2   0  22   28.10    5.00
  -2   0  22   26.50    5.00
   1   0 -22    9.40    2.40
   1   0 -22   13.20    2.50
   1   0 -22   13.60    3.30
   1   0 -22   10.20    2.60
   0   0 -22   82.09    4.80
   0   0 -22   72.99    4.10
   0   0 -22   71.09    4.50
   0   0 -22   70.69    5.10
   0   0  22   64.69    5.20
   0   0  22   73.69    4.80
  -1   0 -22  150.58    6.20
  -1   0 -22  160.58    7.10
  -1   0 -22  145.39    6.30
   1   0  22  152.78    7.40
   1   0  22  151.58    7.30
   1   0  22  155.18    7.20
  -2   0 -22   28.50    2.90
  -2   0 -22   31.20    3.10
   2   0  22   37.20    3.70
   2   0  22   37.20    4.80
  -3   0 -22  170.98    7.80
   3  -1 -22   -0.10    4.20
   3  -1 -22    0.10    3.90
  -3   1  22    4.90    5.00
   2  -1 -22    8.70    3.40
   2  -1 -22    5.60    3.00
   1  -1 -22    5.40    2.90
   1  -1 -22    3.20    2.60
   1  -1 -22    1.40    2.90
  -1   1  22   -4.20    3.30
  -1   1  22   -2.00    2.30
   0  -1 -22   34.20    3.40
   0  -1 -22   43.00    4.40
   0  -1 -22   29.00    3.20
   0   1  22   30.50    3.50
   0   1  22   28.20    3.80
  -1  -1 -22  136.89    6.20
   1   1  22  129.99    6.90
   1   1  22  137.89    7.00
  -2  -1 -22   -1.20    2.50
   2   1  22   -1.70    3.70
   2   1  22    6.00    3.30
   3   1  22    2.40    3.90
   3  -2 -22   17.50    6.40
   3  -2 -22   16.00    4.90
  -3   2  22   11.10    6.60
  -3   2  22   22.60    5.40
   2  -2 -22   68.39    6.30
   2  -2 -22   69.09    6.10
   1  -2 -22   18.80    5.40
   1  -2 -22   12.80    4.80
  -1   2  22   13.20    3.30
  -1   2  22   13.30    3.50
   0  -2 -22   24.00    4.50
   0  -2 -22   21.50    3.50
   0   2  22   17.90    5.90
   0   2  22   27.00    3.50
   0   2  22   17.20    3.60
  -1  -2 -22    1.60    2.20
   1   2  22    3.20    2.80
   1   2  22    3.40    3.10
  -2  -2 -22  103.49    5.80
   2   2  22  101.99    7.70
   2   2  22   98.79    6.70
   3  -3 -22   80.89   10.50
  -3   3  22   75.39    9.00
   2  -3 -22   94.59    9.70
  -2   3  22   82.39    8.20
  -2   3  22   73.09    7.20
   1  -3 -22    8.20    3.10
  -1   3  22    1.80    3.20
  -1   3  22    3.10    3.40
   0  -3 -22   14.90    3.10
   0   3  22    4.90    3.50
   0   3  22    6.50    3.10
  -1  -3 -22    5.40    3.00
   1   3  22   -1.00    3.30
   1   3  22   -0.60    3.10
   2   3  22   -2.20   10.10
   2  -4 -22   -4.90    4.30
  -2   4  22    2.80    4.90
  -1   4  22   70.19    8.60
   1   4  22    9.50    3.80
   1   4  22   12.50    3.90
   2  -5 -22    1.20    4.30
   0   5  22   28.60    4.90
   1   5  22   15.80    4.70
   1   8 -23  233.08   12.20
   0  -8  23    7.70    2.80
   2   7 -23   17.60    5.80
  -2  -7  23   12.80    6.60
   1   7 -23    6.50    4.70
  -1  -7  23   14.40    6.60
  -1  -7  23    7.50    4.30
   0   7 -23    8.20    4.10
   2   6 -23   82.29    8.90
  -2  -6  23   87.49    9.00
   1   6 -23    0.40    3.90
  -1  -6  23    5.00    2.50
   0   6 -23    5.00    3.90
   0   6 -23    9.60    3.50
  -1   6 -23   34.50    4.30
  -1   6 -23   52.09    6.00
  -2   6 -23    3.00    3.70
   2  -6  23    4.70    4.00
   2   5 -23  114.89    7.90
  -2  -5  23  115.99    6.30
  -2  -5  23   95.29   12.50
  -1  -5  23    1.00    2.40
   0   5 -23   51.19    5.50
   0  -5  23   56.49    4.20
  -1   5 -23  110.59    6.90
  -1   5 -23   95.89    7.10
  -1   5 -23  115.39    6.70
  -2   5 -23    1.80    3.20
  -2   5 -23    4.70    3.50
   2  -5  23   -4.20    4.80
  -3  -4  23    0.20    3.50
  -2  -4  23    9.60    3.10
  -2  -4  23   10.40    5.00
   1   4 -23   16.00    3.40
   1   4 -23   18.10    3.80
   1   4 -23   19.30    3.50
  -1  -4  23   22.20    3.00
   0   4 -23   26.20    3.60
   0   4 -23   18.00    2.90
   0   4 -23   24.40    3.70
   0  -4  23   22.90    2.80
   0  -4  23   24.70    5.00
  -1   4 -23    4.70    2.60
  -1   4 -23    0.20    2.10
  -1   4 -23    2.20    2.60
  -2   4 -23   37.50    4.30
  -2   4 -23   41.30    4.30
  -3   4 -23   -0.30    4.30
  -2  -3  23    2.60    3.20
  -2  -3  23   -5.50    4.50
   1   3 -23   10.30    2.50
   1   3 -23   14.60    2.80
   1   3 -23   15.80    3.30
   0   3 -23   20.60    3.20
   0   3 -23   18.30    3.00
   0  -3  23   14.70    3.30
   0  -3  23   14.70    2.80
  -1   3 -23   22.10    4.30
   1  -3  23   12.00    3.80
   1  -3  23   19.00    3.20
   1  -3  23   13.20    3.10
   2  -3  23   18.50    4.20
   2  -3  23   33.80    5.20
   3   2 -23   49.99    5.20
   2   2 -23   42.40    4.60
   2   2 -23   48.10    4.60
  -2  -2  23   51.69    6.80
   1   2 -23   33.90    3.30
   1   2 -23   36.60    3.50
  -1  -2  23   37.90    5.10
   0   2 -23   -1.80    2.20
   0   2 -23    2.30    1.90
   0   2 -23    3.60    2.60
   0  -2  23    2.00    2.20
  -1   2 -23    0.20    2.00
  -1   2 -23   -0.80    2.30
   1  -2  23    0.40    3.00
  -2   2 -23    7.30    3.20
  -2   2 -23    8.70    2.40
   2  -2  23    5.70    4.40
   2  -2  23    5.50    4.30
   3   1 -23    0.70    3.80
  -3  -1  23    3.70    5.30
   2   1 -23   36.10    4.10
   2   1 -23   34.20    3.70
   1   1 -23   83.69    7.80
   1   1 -23   90.89    5.30
   1   1 -23   74.49    5.20
  -1  -1  23   91.19    6.20
   0   1 -23   24.80    3.40
   0   1 -23   23.40    2.60
   0   1 -23   18.10    2.60
   0  -1  23   24.50    3.70
  -1   1 -23   71.29    4.30
  -1   1 -23   69.69    5.00
  -1   1 -23   73.09    5.10
   1  -1  23   65.99    6.50
   1  -1  23   66.69    5.10
   1  -1  23   69.09    5.70
  -2   1 -23    8.10    2.30
   2  -1  23    7.80    3.10
   2  -1  23    8.80    4.60
  -3   1 -23   24.40    3.30
   3   0 -23    4.40    4.50
   3   0 -23   -5.30    3.90
   3   0 -23   -1.20    4.40
  -3   0  23   -0.50    5.20
   2   0 -23  123.89    7.40
   2   0 -23  112.19    8.90
   2   0 -23  120.79    6.80
   1   0 -23    5.70    2.70
   1   0 -23    0.60    2.40
   1   0 -23   -2.70    4.50
   0   0 -23   18.40    2.40
   0   0 -23   18.20    2.70
  -1   0 -23   17.50    3.40
  -1   0 -23   23.20    2.50
  -1   0 -23   18.00    2.50
  -1   0 -23   16.10    2.80
   1   0  23   19.80    3.20
   1   0  23   15.30    3.50
   1   0  23   20.30    3.50
  -2   0 -23  141.09    6.40
   2   0  23  140.29    9.30
  -3   0 -23   15.90    4.10
   3   0  23   19.60    7.60
   3  -1 -23    7.60    4.50
   3  -1 -23   -1.60    4.50
  -3   1  23   -6.30    5.20
   2  -1 -23    3.40    3.30
   2  -1 -23   14.10    5.50
   2  -1 -23    8.10    3.80
   1  -1 -23    5.40    2.90
   1  -1 -23    4.50    2.80
   0  -1 -23    0.80    2.50
   0   1  23   -1.60    3.30
   0   1  23    5.20    2.80
  -1  -1 -23   55.49    5.40
   1   1  23   50.19    5.20
   1   1  23   57.79    6.50
  -2  -1 -23  142.09    6.60
   2   1  23  133.69    9.30
   3  -2 -23  227.78   11.60
  -3   2  23  215.58   13.20
  -3   2  23  231.98   12.20
   2  -2 -23    5.80    3.90
   1  -2 -23   40.30    3.80
   1  -2 -23   49.00    5.30
  -1   2  23   37.50    4.30
   0  -2 -23    4.70    2.80
   0   2  23    4.70    3.00
   0   2  23    4.20    3.40
  -1  -2 -23   31.40    5.20
  -1  -2 -23   46.60    4.70
   1   2  23   46.40    5.20
   2   2  23   42.70    4.70
   2   2  23    4.90    7.80
  -3   3  23   85.49    8.80
  -2   3  23   29.20    5.70
   1  -3 -23   29.90    4.50
   1  -3 -23   31.50    5.40
  -1   3  23   31.00    4.80
   0  -3 -23   -1.70    3.10
   1   3  23   99.59    9.00
  -2  -3 -23   23.90    4.00
   2   3  23   40.90    8.40
   2   3  23   29.00    4.60
  -2   4  23   91.09    8.50
  -2   4  23   70.49   11.70
  -1   4  23    4.00    4.50
  -1   4  23   16.60    4.80
   0   4  23    0.50    3.90
   1   4  23   75.19    7.50
   0   5  23   -0.90    6.10
   0   7 -24   -1.50    4.50
   2   6 -24  205.38   11.50
  -2  -6  24  205.08   12.90
   1   6 -24    3.80    4.30
   0   6 -24    4.40    3.90
   0   6 -24    6.70    3.70
  -1   6 -24  229.88   10.60
  -2   6 -24   83.59    8.80
  -1   5 -24   86.19    7.10
  -1   5 -24   87.89    7.50
  -1   5 -24   87.09    6.70
  -2   5 -24   14.50    4.10
  -3  -4  24    0.90    4.10
   1   4 -24  185.08    9.70
   1   4 -24  187.48   10.70
   1   4 -24  201.38    9.40
  -1  -4  24  197.68    8.60
   0   4 -24  197.58    8.70
   0   4 -24  216.48    8.80
   0   4 -24  192.08    9.40
  -1   4 -24    7.90    2.90
  -1   4 -24    8.60    3.40
  -2   4 -24   -1.50    3.40
   2  -4  24    4.90    3.80
  -2  -3  24   13.50    5.50
  -2  -3  24    6.40    4.70
   1   3 -24   53.59    5.00
   1   3 -24   42.30    4.60
   0   3 -24  134.89    7.70
   0   3 -24  135.69    7.00
   0   3 -24  139.99    7.60
  -1   3 -24    4.60    3.40
  -1   3 -24    8.20    2.80
  -1   3 -24    8.30    2.50
   1  -3  24    6.60    3.60
   1  -3  24    5.20    3.90
  -2   3 -24    9.70    4.60
   2  -3  24    3.20    5.00
   2  -3  24    0.40    3.70
   2   2 -24   -1.20    3.20
   1   2 -24   14.10    4.10
   1   2 -24    6.90    2.70
  -1  -2  24   12.20    4.50
   0   2 -24    2.90    2.20
   0   2 -24   -1.10    2.50
   0   2 -24   -0.50    3.00
  -1   2 -24   17.60    3.20
  -1   2 -24   14.40    3.40
  -1   2 -24   13.10    2.50
   1  -2  24   12.10    3.80
   1  -2  24   10.80    4.10
  -2   2 -24   54.09    4.50
   2  -2  24   49.50    6.10
   3   1 -24   17.60    4.40
   2   1 -24  134.59    7.70
   2   1 -24  148.79    9.40
   1   1 -24   38.90    5.00
   1   1 -24   32.20    3.60
  -1  -1  24   43.00    5.90
  -1  -1  24   38.10    4.50
   0   1 -24   -0.20    2.10
   0   1 -24   -0.90    2.60
   0  -1  24   -2.60    3.20
  -1   1 -24   14.50    2.50
   1  -1  24   15.10    4.40
   1  -1  24   22.30    3.70
  -2   1 -24    5.90    2.30
   2  -1  24    4.20    4.60
  -3   0  24    6.10    6.40
   2   0 -24   13.10    3.70
   2   0 -24    9.50    4.30
  -2   0  24   14.00    5.40
   1   0 -24   32.20    3.90
   1   0 -24   30.30    4.10
   1   0 -24   29.90    3.80
   0   0 -24   -1.20    2.30
   0   0 -24    2.30    2.30
   0   0 -24   -3.00    2.40
   0   0  24    6.50    3.80
  -1   0 -24   39.60    4.90
  -1   0 -24   37.90    3.50
   1   0  24   30.50    4.30
   2   0  24    3.30    4.40
   2   0  24   -2.80    9.50
   3  -1 -24   -1.70    4.90
   3  -1 -24    9.90    7.20
  -3   1  24   -4.00    6.00
   2  -1 -24   27.60    4.70
   1  -1 -24   30.30    3.60
   1  -1 -24   30.90    4.00
   0  -1 -24   39.80    4.00
   0   1  24   32.00    6.80
  -1  -1 -24   36.40    3.50
  -1  -1 -24   30.30    3.40
   2   1  24   15.90    4.70
   3  -2 -24    8.10    5.80
  -3   2  24    0.80    5.90
  -3   2  24   -1.20    6.80
   2  -2 -24   21.10    4.30
   2  -2 -24   25.50    4.80
   1  -2 -24   15.50    3.90
  -1   2  24   11.10    4.10
  -1   2  24   17.10    4.70
   0  -2 -24   -1.80    2.70
   0  -2 -24   -9.00    2.80
   0   2  24    5.80    4.30
   0   2  24   -0.80    3.30
  -1  -2 -24   22.20    3.50
   1   2  24   13.60    3.80
  -2  -2 -24  176.98    9.40
   2   2  24  168.38   10.10
   1  -3 -24   -0.50    3.90
  -1   3  24    4.10    4.60
   0  -3 -24   22.00    4.10
   0   3  24   18.30    4.00
   1   3  24    7.90    4.20
  -1   4  24   14.70    5.20
   1   7 -25  494.05   20.30
   0   7 -25   43.60    5.70
   2   6 -25  178.18   14.70
  -2  -6  25  176.18   13.30
   0   6 -25    4.40    4.20
   0   6 -25    6.60    4.10
  -1   6 -25    3.30    4.00
  -2  -5  25  198.28   15.00
   1   5 -25    2.40    4.70
   0   5 -25   37.50    4.80
   0   5 -25   32.50    4.60
  -1   5 -25   83.49    7.20
  -1   5 -25   89.09    6.50
  -1   5 -25   75.39    6.80
  -2   5 -25   68.79    7.20
  -2   5 -25   68.09    6.80
   1   4 -25   31.70    4.60
   1   4 -25   28.10    4.00
   0   4 -25  244.58   12.90
   0   4 -25  264.57   13.50
   0   4 -25  291.87   11.00
  -1   4 -25   35.90    3.60
  -1   4 -25   31.70    4.40
  -1   4 -25   28.00    4.00
  -1   4 -25   26.80    4.60
  -2   4 -25    5.90    3.90
  -2   4 -25   -2.60    5.10
   2  -4  25    0.90    5.70
   2  -4  25   -6.60    3.90
   1   3 -25   57.69    6.00
   1   3 -25   54.29    5.50
   0   3 -25   -6.10    3.10
   0   3 -25    4.20    2.80
  -1   3 -25    5.10    2.50
  -1   3 -25    4.10    3.70
   1  -3  25    3.70    3.50
  -2   3 -25    8.50    4.00
  -2   3 -25    6.50    3.70
   2  -3  25    7.20    5.30
   3   2 -25   22.40    5.50
   2   2 -25   85.09    6.70
   1   2 -25  265.17   10.90
   1   2 -25  274.17   12.40
   0   2 -25   16.30    3.10
   0   2 -25   13.50    2.60
  -1   2 -25   15.40    4.60
   1  -2  25    9.60    4.40
   2  -2  25   44.20    5.90
   3   1 -25   -5.80    4.30
   2   1 -25    3.10    3.50
   2   1 -25    1.10    3.70
   1   1 -25   49.40    4.40
   1   1 -25   48.90    4.50
   0   1 -25   52.49    4.90
   0   1 -25   44.70    4.60
   0  -1  25   58.89    5.50
  -1   1 -25   49.10    4.30
   1  -1  25   56.09    5.30
   1  -1  25   53.09    5.60
  -2   1 -25    7.60    2.90
   2  -1  25    0.30    5.20
  -3   0  25   66.59   11.80
   2   0 -25  114.19    7.60
   1   0 -25    1.30    3.00
  -1   0  25   12.70    4.20
   0   0 -25   70.79    6.10
   0   0  25   74.19    7.80
   1   0  25   13.40    7.40
   2   0  25   34.20    5.80
   2  -1 -25   -2.40    4.20
   2  -1 -25   -5.60    3.70
  -2   1  25   -2.40    6.10
   1  -1 -25    4.30    3.60
   0  -1 -25   11.10    3.20
  -1  -1 -25   -2.20    2.90
  -2  -1 -25    9.70    4.20
   2   1  25   -7.20    4.90
   2  -2 -25   13.70    4.90
   1  -2 -25   61.19    5.50
  -1   2  25   47.20    5.20
   0  -2 -25    0.80    3.30
   0   2  25    5.50    5.20
  -1  -2 -25    1.30    3.40
  -1   3  25   14.00    5.00
   1   6 -26    1.10    4.80
   1   5 -26    0.70    4.50
   0   5 -26   58.39    6.10
  -1   5 -26    9.00    4.00
  -1   5 -26   18.70    4.50
   1   4 -26    5.60    4.40
   0   4 -26    2.20    5.70
  -1   4 -26    5.90    3.60
  -1   4 -26    7.50    3.60
   1  -4  26    3.70    4.10
   2  -4  26    0.40    4.70
   1   3 -26  152.88    8.20
   0   3 -26   92.59    6.50
   0   3 -26   90.99    7.00
   0   3 -26  105.39    6.20
  -1   3 -26   41.60    3.90
  -1   3 -26   39.20    5.90
   1  -3  26   42.50    5.30
   2   2 -26    9.10    4.40
   1   2 -26   25.50    3.80
   1   2 -26   28.10    3.90
   0   2 -26   -0.90    3.60
   0   2 -26    7.60    3.10
   0   2 -26    6.50    2.80
  -1   2 -26    1.10    2.70
  -1   2 -26    2.40    3.40
   1  -2  26   -1.70    4.00
  -2   2 -26   10.30    3.10
   2   1 -26   87.69    7.20
   1   1 -26   15.20    3.70
   1   1 -26   27.50    3.80
   0   1 -26    6.80    3.30
   0  -1  26   -2.60    4.10
  -1   1 -26   18.20    3.10
   1  -1  26    7.00    4.40
   2   0 -26   72.19    7.30
   0   0  26   16.70    4.20
   2  -1 -26   -1.70    4.10
   1  -1 -26   24.80    5.10
  -1   1  26   18.70    4.30
   0   1  26   87.39    7.50
   0  -2 -26   12.20    6.00
   1   5 -27   -5.10    4.90
   0   5 -27   24.50    5.70
   0   5 -27   21.90    4.80
  -1   5 -27   23.20    5.20
  -1   5 -27   16.40    5.00
   0   4 -27   28.50    4.70
  -1   4 -27    3.80    4.10
  -1   4 -27    5.90    4.00
   0   3 -27   12.40    3.80
  -1   3 -27    3.90    3.60
   1  -3  27    1.50    4.40
   2   2 -27   38.70    5.20
   1   2 -27   13.80    3.70
   1   2 -27   17.80    4.00
   0   2 -27   36.10    3.90
   0   2 -27   44.20    4.30
   0  -2  27   38.20    5.40
  -1   2 -27    0.50    3.10
   1   1 -27   13.00    4.00
   0  -1  27   20.50    4.90
   2   0 -27   -2.40    4.30
  -1   0  27   30.20    5.10
   0   0  27   43.80    5.30
   0   1  27  103.29   11.00
   0   4 -28    1.50    5.70
   1   3 -28   17.50    5.40
   0   3 -28   13.60    3.80
   0   3 -28   13.60    4.80
   0  -3  28   19.00    6.60
   1   2 -28    0.50    4.90
   1   2 -28   -2.70    3.90
   0   2 -28    6.70    3.30
   0   2 -28   -4.10    3.40
  -1   2 -28   11.80    5.20
   1   1 -28   -2.00    3.90

_computing_structure_solution     'SHELXT 2014/4 (Sheldrick, 2014)'
;
_shelx_hkl_checksum              36930
loop_
_space_group_symop_operation_xyz
'x, y, z'
'-x, -y, -z'
loop_
_atom_site_label
_atom_site_type_symbol
_atom_site_fract_x
_atom_site_fract_y
_atom_site_fract_z
_atom_site_U_iso_or_equiv
_atom_site_adp_type
_atom_site_occupancy
_atom_site_site_symmetry_order
_atom_site_calc_flag
_atom_site_refinement_flags_posn
_atom_site_refinement_flags_adp
O1 O 0.6252(2) 1.01365(11) 0.70924(4) 0.0149(2) Uani 1 1 d . .
O2 O -0.0723(2) 0.63226(11) 0.57043(4) 0.0154(2) Uani 1 1 d . .
O3 O 0.1453(2) 0.41476(11) 0.83759(4) 0.0147(2) Uani 1 1 d . .
N1 N 0.3144(3) 0.80567(12) 0.63843(5) 0.0115(2) Uani 1 1 d . .
C1 C 0.5169(3) 0.95419(14) 0.65216(6) 0.0110(2) Uani 1 1 d . .
C2 C 0.1415(3) 0.74407(14) 0.57577(6) 0.0114(2) Uani 1 1 d . .
C3 C 0.2342(3) 0.82118(14) 0.51740(6) 0.0107(2) Uani 1 1 d . .
C4 C 0.1014(3) 0.75410(15) 0.45315(6) 0.0123(2) Uani 1 1 d . .
H4 H -0.0499 0.6586 0.4465 0.015 Uiso 1 1 calc R U
C5 C 0.1888(3) 0.82643(15) 0.39758(6) 0.0120(2) Uani 1 1 d . .
H5 H 0.0990 0.7784 0.3534 0.014 Uiso 1 1 calc R U
C6 C 0.4038(3) 0.96659(14) 0.40676(6) 0.0106(2) Uani 1 1 d . .
C7 C 0.5420(3) 1.03681(14) 0.47210(6) 0.0100(2) Uani 1 1 d . .
C8 C 0.2784(3) 0.70653(15) 0.69140(6) 0.0114(2) Uani 1 1 d . .
C9 C 0.1262(3) 0.76481(15) 0.74961(6) 0.0135(2) Uani 1 1 d . .
H9 H 0.0472 0.8728 0.7562 0.016 Uiso 1 1 calc R U
C10 C 0.0904(3) 0.66481(15) 0.79792(6) 0.0141(3) Uani 1 1 d . .
H10 H -0.0115 0.7047 0.8381 0.017 Uiso 1 1 calc R U
C11 C 0.2029(3) 0.50563(15) 0.78809(6) 0.0120(2) Uani 1 1 d . .
C12 C 0.3613(3) 0.44887(15) 0.73016(6) 0.0121(2) Uani 1 1 d . .
H12 H 0.4429 0.3415 0.7236 0.015 Uiso 1 1 calc R U
C13 C 0.3987(3) 0.55103(15) 0.68201(6) 0.0125(2) Uani 1 1 d . .
H13 H 0.5075 0.5136 0.6425 0.015 Uiso 1 1 calc R U
C14 C 0.2785(3) 0.25521(15) 0.83178(6) 0.0142(3) Uani 1 1 d . .
H14A H 0.5149 0.2689 0.8284 0.017 Uiso 1 1 calc R U
H14B H 0.1820 0.1785 0.7906 0.017 Uiso 1 1 calc R U
C15 C 0.2025(3) 0.18434(16) 0.89444(6) 0.0156(3) Uani 1 1 d . .
H15A H 0.2988 0.0759 0.8924 0.019 Uiso 1 1 calc R U
H15B H -0.0343 0.1627 0.8950 0.019 Uiso 1 1 calc R U
C16 C 0.3296(3) 0.30131(17) 0.95968(6) 0.0184(3) Uani 1 1 d . .
H16A H 0.2278 0.4083 0.9622 0.022 Uiso 1 1 calc R U
H16B H 0.5651 0.3260 0.9582 0.022 Uiso 1 1 calc R U
C17 C 0.2660(4) 0.2306(2) 1.02350(7) 0.0277(3) Uani 1 1 d . .
H17A H 0.0327 0.2120 1.0269 0.042 Uiso 1 1 calc R U
H17B H 0.3601 0.3102 1.0633 0.042 Uiso 1 1 calc R U
H17C H 0.3643 0.1240 1.0213 0.042 Uiso 1 1 calc R U
loop_
_atom_site_aniso_label
_atom_site_aniso_U_11
_atom_site_aniso_U_22
_atom_site_aniso_U_33
_atom_site_aniso_U_23
_atom_site_aniso_U_13
_atom_site_aniso_U_12
O1 0.0199(5) 0.0140(4) 0.0109(4) 0.0031(3) 0.0005(3) 0.0001(3)
O2 0.0177(5) 0.0143(4) 0.0146(4) 0.0048(3) 0.0018(3) -0.0028(3)
O3 0.0211(5) 0.0136(4) 0.0123(4) 0.0075(3) 0.0059(3) 0.0045(3)
N1 0.0153(5) 0.0108(5) 0.0094(4) 0.0041(4) 0.0023(4) 0.0010(4)
C1 0.0125(6) 0.0092(5) 0.0122(5) 0.0032(4) 0.0028(4) 0.0031(4)
C2 0.0137(6) 0.0100(5) 0.0112(5) 0.0028(4) 0.0024(4) 0.0031(4)
C3 0.0118(6) 0.0091(5) 0.0120(5) 0.0031(4) 0.0025(4) 0.0024(4)
C4 0.0139(6) 0.0094(5) 0.0139(5) 0.0028(4) 0.0017(4) 0.0001(4)
C5 0.0144(6) 0.0113(5) 0.0103(5) 0.0015(4) 0.0010(4) 0.0020(4)
C6 0.0122(6) 0.0104(5) 0.0103(5) 0.0032(4) 0.0025(4) 0.0030(4)
C7 0.0111(6) 0.0089(5) 0.0110(5) 0.0030(4) 0.0020(4) 0.0031(4)
C8 0.0136(6) 0.0120(5) 0.0095(5) 0.0052(4) 0.0005(4) -0.0008(4)
C9 0.0160(6) 0.0115(6) 0.0133(5) 0.0024(4) 0.0016(5) 0.0030(5)
C10 0.0177(6) 0.0152(6) 0.0099(5) 0.0024(4) 0.0045(5) 0.0029(5)
C11 0.0133(6) 0.0130(6) 0.0102(5) 0.0051(4) 0.0001(4) -0.0016(4)
C12 0.0137(6) 0.0101(5) 0.0127(5) 0.0023(4) 0.0008(4) 0.0007(4)
C13 0.0136(6) 0.0136(6) 0.0103(5) 0.0023(4) 0.0028(4) 0.0007(4)
C14 0.0194(6) 0.0116(6) 0.0127(5) 0.0046(4) 0.0023(5) 0.0023(5)
C15 0.0202(6) 0.0138(6) 0.0146(6) 0.0072(5) 0.0020(5) 0.0013(5)
C16 0.0219(7) 0.0214(7) 0.0129(6) 0.0054(5) 0.0024(5) 0.0020(5)
C17 0.0314(8) 0.0397(9) 0.0150(6) 0.0119(6) 0.0033(6) 0.0045(7)
loop_
_atom_type_symbol
_atom_type_description
_atom_type_scat_dispersion_real
_atom_type_scat_dispersion_imag
_atom_type_scat_source
C C 0.0033 0.0016 'International Tables Vol C Tables 4.2.6.8 and 6.1.1.4'
H H 0.0000 0.0000 'International Tables Vol C Tables 4.2.6.8 and 6.1.1.4'
N N 0.0061 0.0033 'International Tables Vol C Tables 4.2.6.8 and 6.1.1.4'
O O 0.0106 0.0060 'International Tables Vol C Tables 4.2.6.8 and 6.1.1.4'
loop_
_geom_angle_atom_site_label_1
_geom_angle_atom_site_label_2
_geom_angle_atom_site_label_3
_geom_angle
_geom_angle_site_symmetry_1
_geom_angle_site_symmetry_3
C11 O3 C14 117.36(9) . .
C1 N1 C2 124.13(10) . .
C1 N1 C8 118.84(10) . .
C2 N1 C8 117.03(10) . .
O1 C1 N1 121.44(10) . .
O1 C1 C6 121.87(11) . 2_676
N1 C1 C6 116.68(10) . 2_676
O2 C2 N1 120.85(10) . .
O2 C2 C3 122.11(11) . .
N1 C2 C3 117.04(10) . .
C4 C3 C7 120.30(10) . 2_676
C4 C3 C2 120.00(11) . .
C7 C3 C2 119.70(10) 2_676 .
C3 C4 C5 120.27(11) . .
C3 C4 H4 119.9 . .
C5 C4 H4 119.9 . .
C6 C5 C4 120.44(11) . .
C6 C5 H5 119.8 . .
C4 C5 H5 119.8 . .
C5 C6 C7 120.04(10) . .
C5 C6 C1 119.75(10) . 2_676
C7 C6 C1 120.19(10) . 2_676
C3 C7 C6 121.06(10) 2_676 .
C3 C7 C7 119.27(13) 2_676 2_676
C6 C7 C7 119.67(13) . 2_676
C13 C8 C9 120.58(11) . .
C13 C8 N1 117.98(10) . .
C9 C8 N1 121.44(11) . .
C10 C9 C8 119.52(11) . .
C10 C9 H9 120.2 . .
C8 C9 H9 120.2 . .
C9 C10 C11 120.40(11) . .
C9 C10 H10 119.8 . .
C11 C10 H10 119.8 . .
O3 C11 C12 124.34(11) . .
O3 C11 C10 115.77(10) . .
C12 C11 C10 119.89(11) . .
C13 C12 C11 119.31(11) . .
C13 C12 H12 120.3 . .
C11 C12 H12 120.3 . .
C8 C13 C12 120.27(11) . .
C8 C13 H13 119.9 . .
C12 C13 H13 119.9 . .
O3 C14 C15 107.57(10) . .
O3 C14 H14A 110.2 . .
C15 C14 H14A 110.2 . .
O3 C14 H14B 110.2 . .
C15 C14 H14B 110.2 . .
H14A C14 H14B 108.5 . .
C14 C15 C16 112.64(11) . .
C14 C15 H15A 109.1 . .
C16 C15 H15A 109.1 . .
C14 C15 H15B 109.1 . .
C16 C15 H15B 109.1 . .
H15A C15 H15B 107.8 . .
C15 C16 C17 113.74(12) . .
C15 C16 H16A 108.8 . .
C17 C16 H16A 108.8 . .
C15 C16 H16B 108.8 . .
C17 C16 H16B 108.8 . .
H16A C16 H16B 107.7 . .
C16 C17 H17A 109.5 . .
C16 C17 H17B 109.5 . .
H17A C17 H17B 109.5 . .
C16 C17 H17C 109.5 . .
H17A C17 H17C 109.5 . .
H17B C17 H17C 109.5 . .
loop_
_geom_bond_atom_site_label_1
_geom_bond_atom_site_label_2
_geom_bond_distance
_geom_bond_site_symmetry_2
O1 C1 1.2127(15) .
O2 C2 1.2128(15) .
O3 C11 1.3620(14) .
O3 C14 1.4364(15) .
N1 C1 1.3995(16) .
N1 C2 1.4081(16) .
N1 C8 1.4529(15) .
C1 C6 1.4864(16) 2_676
C2 C3 1.4815(16) .
C3 C4 1.3789(17) .
C3 C7 1.4094(16) 2_676
C4 C5 1.4047(16) .
C4 H4 0.9500 .
C5 C6 1.3777(17) .
C5 H5 0.9500 .
C6 C7 1.4100(16) .
C6 C1 1.4864(16) 2_676
C7 C3 1.4094(16) 2_676
C7 C7 1.411(2) 2_676
C8 C13 1.3799(17) .
C8 C9 1.3869(17) .
C9 C10 1.3803(17) .
C9 H9 0.9500 .
C10 C11 1.3938(18) .
C10 H10 0.9500 .
C11 C12 1.3935(17) .
C12 C13 1.3910(17) .
C12 H12 0.9500 .
C13 H13 0.9500 .
C14 C15 1.5146(17) .
C14 H14A 0.9900 .
C14 H14B 0.9900 .
C15 C16 1.5221(18) .
C15 H15A 0.9900 .
C15 H15B 0.9900 .
C16 C17 1.5247(18) .
C16 H16A 0.9900 .
C16 H16B 0.9900 .
C17 H17A 0.9800 .
C17 H17B 0.9800 .
C17 H17C 0.9800 .
loop_
_geom_torsion_atom_site_label_1
_geom_torsion_atom_site_label_2
_geom_torsion_atom_site_label_3
_geom_torsion_atom_site_label_4
_geom_torsion
_geom_torsion_site_symmetry_1
_geom_torsion_site_symmetry_4
C2 N1 C1 O1 169.74(11) . .
C8 N1 C1 O1 -10.59(17) . .
C2 N1 C1 C6 -11.22(17) . 2_676
C8 N1 C1 C6 168.44(10) . 2_676
C1 N1 C2 O2 -166.71(11) . .
C8 N1 C2 O2 13.62(17) . .
C1 N1 C2 C3 13.62(17) . .
C8 N1 C2 C3 -166.05(10) . .
O2 C2 C3 C4 -7.22(18) . .
N1 C2 C3 C4 172.45(11) . .
O2 C2 C3 C7 172.72(11) . 2_676
N1 C2 C3 C7 -7.62(16) . 2_676
C7 C3 C4 C5 0.20(18) 2_676 .
C2 C3 C4 C5 -179.87(11) . .
C3 C4 C5 C6 -1.06(18) . .
C4 C5 C6 C7 1.07(18) . .
C4 C5 C6 C1 -177.42(11) . 2_676
C5 C6 C7 C3 179.15(11) . 2_676
C1 C6 C7 C3 -2.37(17) 2_676 2_676
C5 C6 C7 C7 -0.2(2) . 2_676
C1 C6 C7 C7 178.24(13) 2_676 2_676
C1 N1 C8 C13 -113.09(13) . .
C2 N1 C8 C13 66.60(15) . .
C1 N1 C8 C9 67.34(15) . .
C2 N1 C8 C9 -112.97(13) . .
C13 C8 C9 C10 -1.10(18) . .
N1 C8 C9 C10 178.46(11) . .
C8 C9 C10 C11 -0.71(19) . .
C14 O3 C11 C12 4.89(17) . .
C14 O3 C11 C10 -175.48(11) . .
C9 C10 C11 O3 -177.69(11) . .
C9 C10 C11 C12 1.96(19) . .
O3 C11 C12 C13 178.21(11) . .
C10 C11 C12 C13 -1.41(18) . .
C9 C8 C13 C12 1.65(19) . .
N1 C8 C13 C12 -177.93(11) . .
C11 C12 C13 C8 -0.38(18) . .
C11 O3 C14 C15 176.17(10) . .
O3 C14 C15 C16 -56.78(14) . .
C14 C15 C16 C17 -178.12(11) . .
