#------------------------------------------------------------------------------
#$Date: 2017-08-12 04:54:37 +0300 (Sat, 12 Aug 2017) $
#$Revision: 199722 $
#$URL: file:///home/coder/svn-repositories/cod/cif/7/12/05/7120543.cif $
#------------------------------------------------------------------------------
#
# This file is available in the Crystallography Open Database (COD),
# http://www.crystallography.net/
#
# All data on this site have been placed in the public domain by the
# contributors.
#
data_7120543
loop_
_publ_author_name
'Saini, Anoop Kumar'
'Natarajan, Kaushik'
'Mobin, Shaikh M.'
_publ_section_title
;
 A new multitalented azine ligand: elastic bending,
 single-crystal-to-single-crystal transformation and a fluorescence
 turn--on Al(III) sensor
;
_journal_name_full               'Chem. Commun.'
_journal_paper_doi               10.1039/C7CC04392A
_journal_year                    2017
_chemical_formula_sum            'C14 H10 Br2 N2'
_chemical_formula_weight         366.06
_space_group_crystal_system      monoclinic
_space_group_IT_number           14
_space_group_name_Hall           '-P 2ybc'
_space_group_name_H-M_alt        'P 1 21/c 1'
_symmetry_space_group_name_Hall  '-P 2ybc'
_symmetry_space_group_name_H-M   'P 1 21/c 1'
_atom_sites_solution_hydrogens   geom
_audit_creation_method           SHELXL-2014/7
_audit_update_record
;
2017-07-31 deposited with the CCDC.
2017-08-11 downloaded from the CCDC.
;
_cell_angle_alpha                90
_cell_angle_beta                 90.434(10)
_cell_angle_gamma                90
_cell_formula_units_Z            2
_cell_length_a                   3.8997(4)
_cell_length_b                   7.1770(5)
_cell_length_c                   24.082(3)
_cell_measurement_reflns_used    356
_cell_measurement_temperature    293(2)
_cell_measurement_theta_max      23.3780
_cell_measurement_theta_min      4.4000
_cell_volume                     673.99(12)
_computing_cell_refinement       'CrysAlis RED, Oxford Diffraction Ltd.,'
_computing_data_collection       'CrysAlis CCD, Oxford Diffraction Ltd.,'
_computing_data_reduction        'CrysAlis RED, Oxford Diffraction Ltd.,'
_computing_molecular_graphics    Ortep3
_computing_publication_material  Shelx97
_computing_structure_refinement  'SHELXL-2014/7 (Sheldrick, 2014)'
_computing_structure_solution    'SHELXS-97 (Sheldrick, 1997)'
_diffrn_ambient_temperature      293(2)
_diffrn_detector_area_resol_mean 15.9948
_diffrn_measured_fraction_theta_full 0.991
_diffrn_measured_fraction_theta_max 0.873
_diffrn_measurement_device_type  'OXFORD DIFFRACTION SUPER NOVA'
_diffrn_measurement_method       \w/q-scan
_diffrn_radiation_monochromator  graphite
_diffrn_radiation_source         'Micro-Focus (Mo) X-ray Source'
_diffrn_radiation_type           MoK\a
_diffrn_radiation_wavelength     0.71073
_diffrn_reflns_av_unetI/netI     0.0707
_diffrn_reflns_Laue_measured_fraction_full 0.991
_diffrn_reflns_Laue_measured_fraction_max 0.873
_diffrn_reflns_limit_h_max       4
_diffrn_reflns_limit_h_min       -4
_diffrn_reflns_limit_k_max       9
_diffrn_reflns_limit_k_min       -9
_diffrn_reflns_limit_l_max       32
_diffrn_reflns_limit_l_min       -32
_diffrn_reflns_number            4630
_diffrn_reflns_point_group_measured_fraction_full 0.991
_diffrn_reflns_point_group_measured_fraction_max 0.873
_diffrn_reflns_theta_full        25.242
_diffrn_reflns_theta_max         28.906
_diffrn_reflns_theta_min         3.305
_exptl_absorpt_coefficient_mu    5.996
_exptl_absorpt_correction_T_max  1.00000
_exptl_absorpt_correction_T_min  0.16001
_exptl_absorpt_correction_type   multi-scan
_exptl_absorpt_process_details
;
CrysAlisPro, Agilent Technologies,
Version 1.171.37.35 (release 13-08-2014 CrysAlis171 .NET)
(compiled Aug 13 2014,18:06:01)
Empirical absorption correction using spherical harmonics,
 implemented in SCALE3 ABSPACK scaling algorithm.
;
_exptl_crystal_colour            COLOURLESS
_exptl_crystal_density_diffrn    1.804
_exptl_crystal_density_method    'not measured'
_exptl_crystal_description       BLOCK
_exptl_crystal_F_000             356
_exptl_crystal_size_max          0.230
_exptl_crystal_size_mid          0.110
_exptl_crystal_size_min          0.090
_refine_diff_density_max         2.699
_refine_diff_density_min         -0.808
_refine_diff_density_rms         0.280
_refine_ls_extinction_method     none
_refine_ls_goodness_of_fit_ref   1.171
_refine_ls_hydrogen_treatment    constr
_refine_ls_matrix_type           full
_refine_ls_number_parameters     84
_refine_ls_number_reflns         4630
_refine_ls_number_restraints     60
_refine_ls_restrained_S_all      1.170
_refine_ls_R_factor_all          0.1737
_refine_ls_R_factor_gt           0.1250
_refine_ls_shift/su_max          0.000
_refine_ls_shift/su_mean         0.000
_refine_ls_structure_factor_coef Fsqd
_refine_ls_weighting_details
'w=1/[\s^2^(Fo^2^)+(0.2000P)^2^] where P=(Fo^2^+2Fc^2^)/3'
_refine_ls_weighting_scheme      calc
_refine_ls_wR_factor_gt          0.3152
_refine_ls_wR_factor_ref         0.3734
_reflns_Friedel_coverage         0.000
_reflns_number_gt                2696
_reflns_number_total             4630
_reflns_threshold_expression     'I > 2\s(I)'
_cod_data_source_file            c7cc04392a7.cif
_cod_data_source_block           L2
_cod_database_code               7120543
_shelx_shelxl_version_number     2014/7
_shelx_space_group_comment
;
The symmetry employed for this shelxl refinement is uniquely defined
by the following loop, which should always be used as a source of
symmetry information in preference to the above space-group names.
They are only intended as comments.
;
_shelx_estimated_absorpt_t_min   0.339
_shelx_estimated_absorpt_t_max   0.614
_shelx_res_file
;

    shelx.res created by SHELXL-2014/7

TITL shelxt_a.res in P2(1)/c
CELL  0.71073   3.8997   7.1770  24.0820   90.000   90.434   90.000
ZERR     2.00   0.0004   0.0005   0.0033    0.000    0.010    0.000
LATT   1
SYMM  - X, 1/2 + Y, 1/2 - Z
SFAC  C    H    N    BR
UNIT  28 20 4 4
MERG   0
SIZE 0.23 0.11 0.09
OMIT    -1  -1  -7
OMIT     0  -1   9
OMIT     1   1   7
OMIT     1  -1   7
OMIT     3   1   3
OMIT     1  -1  11
OMIT     1  -1   7
OMIT     1   3   1
OMIT     0   0 -12
OMIT     0  -3   2
OMIT    -1   3   0
OMIT     0   4  -3
OMIT     2   2   5
OMIT     3   0   8
OMIT     1   3 -14
OMIT    -1   1  -7
OMIT     2   0 -10
OMIT    -1   1  14
OMIT     3   3   0
OMIT    -1   0  12
OMIT    -2  -1   6
OMIT     0   3  12
OMIT     0   1  -9
OMIT     0   1  -3
OMIT     0   1  -3
OMIT     0   1   3
OMIT     2   1   1
OMIT    -2   1  -1
OMIT    -2   1  -1
OMIT     2   1   1
OMIT     0   1  -7
OMIT    -1   1   1
OMIT     0   1   7
OMIT    -1   1   1
OMIT     1   1  -1
OMIT     1  -1  -1
OMIT     0   4   2
OMIT    -1  -2   4
OMIT     0  -1   7
OMIT    -1   2   4
OMIT     1   1   1
OMIT     1  -2  -4
OMIT    -1   1  -1
OMIT     1   1 -14
OMIT     3   2  -1
OMIT     0   4  -2
OMIT     0   4  -2
OMIT     0   4   2
OMIT    -1   1  -1
OMIT    -1  -1  -1
OMIT     0  -4  -2
OMIT    -1   4  -4
OMIT    -1   1 -11
OMIT    -1   4  -4
OMIT     1   4   4
OMIT     1  -3   0
OMIT     0  -4   2
OMIT    -1   3  -4
OMIT     0   3   2
OMIT     1   2  -4
OMIT     3   2  -4
OMIT     0   3  -2
OMIT    -1   0   0
OMIT     1   0   0
OMIT     0   3  -2
OMIT     1   3   4
OMIT    -2   4 -16
OMIT    -2   8   5
OMIT    -1   0   0
OMIT     0  -3  -2
OMIT     0   4   3
OMIT     1   3  12
OMIT     1   3   0
OMIT     1   1   9
OMIT     0   0  12
OMIT     0   3  -6
OMIT     0   3   6
OMIT    -1   3  -8
OMIT     3   2  -2
OMIT    -1  -3  -8
RIGU
FMAP   2
PLAN   20
ACTA
BOND   $H
L.S.  10
WGHT    0.200000
BASF   0.00597
FVAR       4.30047   0.50000
BR1   4    0.913803    0.177432    0.312987    11.00000    0.07936    0.07504 =
         0.10880   -0.03306    0.00411    0.00511
N1    3    0.559129    0.912004    0.489645    11.00000    0.03820    0.02639 =
         0.05261   -0.00728   -0.00077    0.01333
C1    1    0.489128    0.889843    0.438876    11.00000    0.03121    0.02244 =
         0.05101   -0.00654    0.00202    0.00614
AFIX  43
H1    2    0.371914    0.982886    0.419701    11.00000   -1.20000
AFIX   0
C2    1    0.590194    0.718963    0.409553    11.00000    0.02602    0.02143 =
         0.03564    0.00413    0.00615    0.00373
C3    1    0.740075    0.567954    0.437192    11.00000    0.03201    0.03135 =
         0.03277    0.00030   -0.00105    0.00847
AFIX  43
H3    2    0.778006    0.574133    0.475321    11.00000   -1.20000
AFIX   0
C4    1    0.832848    0.408688    0.408160    11.00000    0.02778    0.02488 =
         0.03937   -0.00086    0.00183    0.01320
AFIX  43
H4    2    0.932148    0.307947    0.426486    11.00000   -1.20000
AFIX   0
C5    1    0.776369    0.403095    0.353178    11.00000    0.02528    0.02887 =
         0.04199   -0.01110    0.00091   -0.00055
C6    1    0.623127    0.551885    0.323480    11.00000    0.03960    0.03551 =
         0.03169   -0.00011    0.00006    0.00301
AFIX  43
H6    2    0.590456    0.544970    0.285241    11.00000   -1.20000
AFIX   0
C7    1    0.525515    0.704477    0.352306    11.00000    0.03279    0.03513 =
         0.03456    0.00140   -0.00749   -0.00110
AFIX  43
H7    2    0.413884    0.801223    0.333914    11.00000   -1.20000
AFIX   0
HKLF    5

REM  shelxt_a.res in P2(1)/c
REM R1 =  0.1250 for    2696 Fo > 4sig(Fo)  and  0.1737 for all    4630 data
REM     84 parameters refined using     60 restraints

END

WGHT      0.2000      0.0000

REM Highest difference peak  2.699,  deepest hole -0.808,  1-sigma level  0.280
Q1    1   0.8814  0.2730  0.2677  11.00000  0.05    2.70
Q2    1   1.0079  0.1047  0.3533  11.00000  0.05    1.76
Q3    1   0.8830  0.2900  0.3224  11.00000  0.05    1.64
Q4    1   0.6191  0.7322  0.3943  11.00000  0.05    1.16
Q5    1   0.9969  0.2514  0.3653  11.00000  0.05    0.93
Q6    1   0.5000  1.0000  0.5000  10.50000  0.05    0.86
Q7    1   0.5970  0.9415  0.4769  11.00000  0.05    0.85
Q8    1   0.5252  0.8476  0.4358  11.00000  0.05    0.83
Q9    1   0.6527  0.5435  0.4314  11.00000  0.05    0.78
Q10   1   0.7424  0.4326  0.4087  11.00000  0.05    0.75
Q11   1   0.7412  0.5269  0.4213  11.00000  0.05    0.70
Q12   1   0.7820  0.1188  0.2688  11.00000  0.05    0.69
Q13   1   0.6440  0.4923  0.3211  11.00000  0.05    0.63
Q14   1   0.6585  0.6329  0.4386  11.00000  0.05    0.60
Q15   1   0.7395  0.5259  0.4579  11.00000  0.05    0.57
Q16   1   0.5000  0.5000  0.5000  10.50000  0.05    0.50
Q17   1   1.0586  0.5253  0.3592  11.00000  0.05    0.46
Q18   1   0.6744  0.8827  0.3224  11.00000  0.05    0.41
Q19   1  -0.0254  1.0070  0.3994  11.00000  0.05    0.39
Q20   1   0.2703  0.7457  0.4418  11.00000  0.05    0.36
;
_shelx_res_checksum              6948
_shelx_hkl_file
;
   0   0  -457432.80 1221.89  -2
   0   0   457432.80 1221.89   1
   0   0  -5  154.84  100.06  -2
   0   0   5  154.84  100.06   1
   0   0  -6  124987    2248  -2
   0   0   6  124987    2248   1
   0   0  -7  802.28  250.79  -2
   0   0   7  802.28  250.79   1
   0   0  -8  228103    3544  -2
   0   0   8  228103    3544   1
   0   0  -9  426.79  232.41  -2
   0   0   9  426.79  232.41   1
   0   0 -1019616.40 1142.88  -2
   0   0  1019616.40 1142.88   1
   0   0 -11  498.29  235.42  -2
   0   0  11  498.29  235.42   1
   0   0 -1261788.80 2174.49  -2
   0   0  1261788.80 2174.49   1
   0   0 -13  664.99  294.78  -2
   0   0  13  664.99  294.78   1
   0   0 -14 1297.83  377.19  -2
   0   0  14 1297.83  377.19   1
   0   0 -15  465.37  247.43  -2
   0   0  15  465.37  247.43   1
   0   0 -1618172.80 1377.66  -2
   0   0  1618172.80 1377.66   1
   0   0 -17 1065.15  397.45  -2
   0   0  17 1065.15  397.45   1
   0   0 -18 6685.29  907.41  -2
   0   0  18 6685.29  907.41   1
   0   0 -19 1717.72  476.31  -2
   0   0  19 1717.72  476.31   1
   0   0 -20 2025.69  558.05  -2
   0   0  20 2025.69  558.05   1
   0   0 -21 1553.11  544.77  -2
   0   0  21 1553.11  544.77   1
   0   0 -22 9327.63 1177.35  -2
   0   0  22 9327.63 1177.35   1
   0   0 -23 2433.24  652.57  -2
   0   0  23 2433.24  652.57   1
   0   0 -2413121.90 1508.70  -2
   0   0  2413121.90 1508.70   1
   0   0 -25 2647.64  785.23  -2
   0   0  25 2647.64  785.23   1
   0   0 -26 1211.78  571.28  -2
   0   0  26 1211.78  571.28   1
   0   0 -27 1089.05  540.83  -2
   0   0  27 1089.05  540.83   1
   0   0 -28 1585.29  634.72  -2
   0   0  28 1585.29  634.72   1
   0   0 -29 1861.60  704.66  -2
   0   0  29 1861.60  704.66   1
   0   0 -30 1967.98  730.39  -2
   0   0  30 1967.98  730.39   1
   0  -1   228662.40  688.95  -2
   0   1  -228662.40  688.95   1
   0  -1  -227522.40  731.72  -2
   0   1   227522.40  731.72   1
   0  -1   321139.90  671.98  -2
   0   1  -321139.90  671.98   1
   0  -1  -320017.50  674.94  -2
   0   1   320017.50  674.94   1
   0  -1   319389.90  597.16  -2
   0   1  -319389.90  597.16   1
   0  -1  -4  359542    3074  -2
   0   1   4  359542    3074   1
   0  -1   4  355252    2803  -2
   0   1  -4  355252    2803   1
   0  -1   4  369777    3181  -2
   0   1  -4  369777    3181   1
   0  -1   584291.20 1489.97  -2
   0   1  -584291.20 1489.97   1
   0  -1  -585137.50 1642.78  -2
   0   1   585137.50 1642.78   1
   0  -1   653314.60 1291.17  -2
   0   1  -653314.60 1291.17   1
   0   1  -652119.70 1327.33  -2
   0  -1   652119.70 1327.33   1
   0  -1  -650818.50 1398.84  -2
   0   1   650818.50 1398.84   1
   0  -1  -7 2631.94  344.86  -2
   0   1   7 2631.94  344.86   1
   0   1  -7 2207.13  312.62  -2
   0  -1   7 2207.13  312.62   1
   0  -1   7 2178.98  275.94  -2
   0   1  -7 2178.98  275.94   1
   0   1  -8 3137.13  385.58  -2
   0  -1   8 3137.13  385.58   1
   0  -1  -8 3096.39  413.81  -2
   0   1   8 3096.39  413.81   1
   0  -1   8 3142.20  350.54  -2
   0   1  -8 3142.20  350.54   1
   0  -1   9 1376.64  235.70  -2
   0   1  -9 1376.64  235.70   1
   0   1  -9 1526.94  284.30  -2
   0  -1   9 1526.94  284.30   1
   0  -1  -9 1232.95  260.32  -2
   0   1   9 1232.95  260.32   1
   0   1 -1013212.00  855.07  -2
   0  -1  1013212.00  855.07   1
   0  -1 -1013428.70  944.12  -2
   0   1  1013428.70  944.12   1
   0  -1  1013763.60  821.15  -2
   0   1 -1013763.60  821.15   1
   0   1 -11 8306.79  720.84  -2
   0  -1  11 8306.79  720.84   1
   0  -1 -11 9058.29  801.21  -2
   0   1  11 9058.29  801.21   1
   0   1 -1238001.40 1610.81  -2
   0  -1  1238001.40 1610.81   1
   0  -1 -1241087.00 1805.87  -2
   0   1  1241087.00 1805.87   1
   0  -1 -13 8118.54  862.31  -2
   0   1  13 8118.54  862.31   1
   0   1 -13 8317.23  789.22  -2
   0  -1  13 8317.23  789.22   1
   0   1 -1412914.00 1013.59  -2
   0  -1  1412914.00 1013.59   1
   0  -1 -1413045.80 1124.09  -2
   0   1  1413045.80 1124.09   1
   0  -1 -15 4804.19  712.26  -2
   0   1  15 4804.19  712.26   1
   0   1 -15 5020.81  666.28  -2
   0  -1  15 5020.81  666.28   1
   0   1 -16 1633.29  435.55  -2
   0  -1  16 1633.29  435.55   1
   0  -1 -16  933.78  308.57  -2
   0   1  16  933.78  308.57   1
   0  -1 -17 4335.83  763.91  -2
   0   1  17 4335.83  763.91   1
   0   1 -17 4322.75  688.45  -2
   0  -1  17 4322.75  688.45   1
   0   1 -18 3935.19  682.86  -2
   0  -1  18 3935.19  682.86   1
   0  -1 -18 5056.91  798.14  -2
   0   1  18 5056.91  798.14   1
   0   1 -19  952.03  410.58  -2
   0  -1  19  952.03  410.58   1
   0  -1 -19  472.88  230.21  -2
   0   1  19  472.88  230.21   1
   0  -1 -2014165.90 1466.58  -2
   0   1  2014165.90 1466.58   1
   0   1 -2012856.50 1255.79  -2
   0  -1  2012856.50 1255.79   1
   0  -1  21   -9.04  251.93  -2
   0   1 -21   -9.04  251.93   1
   0   1 -21   38.81  150.07  -2
   0  -1  21   38.81  150.07   1
   0  -1 -21   75.39  270.76  -2
   0   1  21   75.39  270.76   1
   0  -1 -22  452.92  318.81  -2
   0   1  22  452.92  318.81   1
   0  -1  22  182.68  176.73  -2
   0   1 -22  182.68  176.73   1
   0   1 -22  786.62  352.96  -2
   0  -1  22  786.62  352.96   1
   0   1 -23   91.26  176.90  -2
   0  -1  23   91.26  176.90   1
   0  -1  23 -166.43  270.24  -2
   0   1 -23 -166.43  270.24   1
   0  -1 -23 -199.24  270.90  -2
   0   1  23 -199.24  270.90   1
   0   1 -24  228.65  246.88  -2
   0  -1  24  228.65  246.88   1
   0  -1 -24   35.89  268.43  -2
   0   1  24   35.89  268.43   1
   0  -1  24 -304.36  328.35  -2
   0   1 -24 -304.36  328.35   1
   0  -1  25 -225.48  286.43  -2
   0   1 -25 -225.48  286.43   1
   0   1 -25   19.93  169.70  -2
   0  -1  25   19.93  169.70   1
   0  -1 -25 -155.04  268.24  -2
   0   1  25 -155.04  268.24   1
   0  -1 -26  723.59  427.99  -2
   0   1  26  723.59  427.99   1
   0   1 -26  377.47  364.51  -2
   0  -1  26  377.47  364.51   1
   0  -1  26    1.48  268.62  -2
   0   1 -26    1.48  268.62   1
   0   1 -27  269.44  356.43  -2
   0  -1  27  269.44  356.43   1
   0  -1 -27  314.90  353.48  -2
   0   1  27  314.90  353.48   1
   0  -1  27 -260.72  250.90  -2
   0   1 -27 -260.72  250.90   1
   0  -1 -28 1756.43  680.26  -2
   0   1  28 1756.43  680.26   1
   0   1 -28 1327.86  558.30  -2
   0  -1  28 1327.86  558.30   1
   0  -1 -29  476.24  474.80  -2
   0   1  29  476.24  474.80   1
   0   1 -29  781.40  429.24  -2
   0  -1  29  781.40  429.24   1
   0  -1 -30  458.03  442.01  -2
   0   1  30  458.03  442.01   1
   0   1 -30  449.52  496.01  -2
   0  -1  30  449.52  496.01   1
   0  -2   049505.80 1051.06  -2
   0   2   049505.80 1051.06   1
   0  -2   050092.70 1168.42  -2
   0   2   050092.70 1168.42   1
   0  -2   198271.90 1634.74  -2
   0   2  -198271.90 1634.74   1
   0  -2  -192925.40 1551.65  -2
   0   2   192925.40 1551.65   1
   0  -2  -195479.20 1526.94  -2
   0   2   195479.20 1526.94   1
   0  -2   195237.00 1506.76  -2
   0   2  -195237.00 1506.76   1
   0  -2   2  105472    1613  -2
   0   2  -2  105472    1613   1
   0  -2  -2  108700    1867  -2
   0   2   2  108700    1867   1
   0  -2  -2  107637    1692  -2
   0   2   2  107637    1692   1
   0  -2   2  108487    1794  -2
   0   2  -2  108487    1794   1
   0  -2  -347789.50 1278.30  -2
   0   2   347789.50 1278.30   1
   0  -2   347264.00 1130.00  -2
   0   2  -347264.00 1130.00   1
   0  -2   347401.90 1225.00  -2
   0   2  -347401.90 1225.00   1
   0  -2  -4 3844.21  386.44  -2
   0   2   4 3844.21  386.44   1
   0  -2   4 3726.13  356.83  -2
   0   2  -4 3726.13  356.83   1
   0  -2   4 3888.76  352.75  -2
   0   2  -4 3888.76  352.75   1
   0   2  -548560.30 1377.34  -2
   0  -2   548560.30 1377.34   1
   0  -2  -547793.80 1424.21  -2
   0   2   547793.80 1424.21   1
   0  -2   549944.80 1279.33  -2
   0   2  -549944.80 1279.33   1
   0  -2   549419.80 1377.53  -2
   0   2  -549419.80 1377.53   1
   0  -2  -6 5919.21  500.56  -2
   0   2   6 5919.21  500.56   1
   0   2  -6 5826.48  504.81  -2
   0  -2   6 5826.48  504.81   1
   0  -2   6 5866.76  457.87  -2
   0   2  -6 5866.76  457.87   1
   0  -2   6 5662.82  510.97  -2
   0   2  -6 5662.82  510.97   1
   0  -2   786530.80 1845.13  -2
   0   2  -786530.80 1845.13   1
   0  -2   788688.30 2064.62  -2
   0   2  -788688.30 2064.62   1
   0   2  -782738.60 2010.94  -2
   0  -2   782738.60 2010.94   1
   0  -2  -783150.20 1985.85  -2
   0   2   783150.20 1985.85   1
   0  -2   814290.00  878.30  -2
   0   2  -814290.00  878.30   1
   0   2  -812854.10  823.86  -2
   0  -2   812854.10  823.86   1
   0  -2  -813445.60  863.97  -2
   0   2   813445.60  863.97   1
   0  -2   813317.40  747.16  -2
   0   2  -813317.40  747.16   1
   0  -2   949053.80 1511.55  -2
   0   2  -949053.80 1511.55   1
   0  -2   948058.80 1683.25  -2
   0   2  -948058.80 1683.25   1
   0  -2  -947036.80 1679.88  -2
   0   2   947036.80 1679.88   1
   0  -2 -1013604.20  947.97  -2
   0   2  1013604.20  947.97   1
   0  -2  1013683.40  949.07  -2
   0   2 -1013683.40  949.07   1
   0  -2  1014856.50  873.43  -2
   0   2 -1014856.50  873.43   1
   0  -2 -11  873.97  289.81  -2
   0   2  11  873.97  289.81   1
   0  -2  11  635.44  241.13  -2
   0   2 -11  635.44  241.13   1
   0  -2  11  777.90  242.30  -2
   0   2 -11  777.90  242.30   1
   0  -2 -12 1168.32  329.67  -2
   0   2  12 1168.32  329.67   1
   0  -2  12 1635.60  339.13  -2
   0   2 -12 1635.60  339.13   1
   0  -2  13 3974.62  509.90  -2
   0   2 -13 3974.62  509.90   1
   0  -2 -13 3889.47  594.14  -2
   0   2  13 3889.47  594.14   1
   0  -2  14 4687.98  579.81  -2
   0   2 -14 4687.98  579.81   1
   0  -2 -14 3494.25  591.39  -2
   0   2  14 3494.25  591.39   1
   0  -2  1530192.70 1484.22  -2
   0   2 -1530192.70 1484.22   1
   0  -2 -1527200.40 1718.95  -2
   0   2  1527200.40 1718.95   1
   0  -2 -16  620.76  270.42  -2
   0   2  16  620.76  270.42   1
   0  -2  16 1391.89  373.31  -2
   0   2 -16 1391.89  373.31   1
   0  -2 -17 4288.56  739.29  -2
   0   2  17 4288.56  739.29   1
   0  -2  17 4892.91  655.19  -2
   0   2 -17 4892.91  655.19   1
   0  -2  18 9084.63  905.60  -2
   0   2 -18 9084.63  905.60   1
   0  -2 -18 7790.04 1021.09  -2
   0   2  18 7790.04 1021.09   1
   0  -2 -19 -282.86  348.48  -2
   0   2  19 -282.86  348.48   1
   0  -2  19  281.82  185.59  -2
   0   2 -19  281.82  185.59   1
   0  -2  20  744.12  267.86  -2
   0   2 -20  744.12  267.86   1
   0  -2 -20  854.79  346.16  -2
   0   2  20  854.79  346.16   1
   0  -2  21 3578.03  638.62  -2
   0   2 -21 3578.03  638.62   1
   0  -2 -21 2169.75  566.03  -2
   0   2  21 2169.75  566.03   1
   0  -2  22 1584.82  456.70  -2
   0   2 -22 1584.82  456.70   1
   0  -2 -22  428.73  278.88  -2
   0   2  22  428.73  278.88   1
   0  -2 -23  328.36  360.29  -2
   0   2  23  328.36  360.29   1
   0  -2  23  880.21  366.34  -2
   0   2 -23  880.21  366.34   1
   0  -2 -24  992.17  434.88  -2
   0   2  24  992.17  434.88   1
   0  -2  24 1059.42  399.08  -2
   0   2 -24 1059.42  399.08   1
   0  -2 -25 1155.81  575.67  -2
   0   2  25 1155.81  575.67   1
   0  -2  25 1929.66  565.06  -2
   0   2 -25 1929.66  565.06   1
   0  -2  26  853.16  410.38  -2
   0   2 -26  853.16  410.38   1
   0  -2 -26  630.53  411.10  -2
   0   2  26  630.53  411.10   1
   0  -2 -27 -415.80  425.47  -2
   0   2  27 -415.80  425.47   1
   0  -2  27  203.16  218.93  -2
   0   2 -27  203.16  218.93   1
   0  -2  28 1372.01  648.45  -2
   0   2 -28 1372.01  648.45   1
   0  -2 -28 -213.52  370.23  -2
   0   2  28 -213.52  370.23   1
   0  -2 -29 -203.80  319.91  -2
   0   2  29 -203.80  319.91   1
   0  -2  29  433.25  471.48  -2
   0   2 -29  433.25  471.48   1
   0   3   0   30.55   49.25  -2
   0  -3   0   30.55   49.25   1
   0  -3   0    3.03   65.02  -2
   0   3   0    3.03   65.02   1
   0  -3   0   29.71   91.57  -2
   0   3   0   29.71   91.57   1
   0  -3   114452.90  710.28  -2
   0   3  -114452.90  710.28   1
   0   3   115020.50  861.02  -2
   0  -3  -115020.50  861.02   1
   0   3  -114819.50  832.00  -2
   0  -3   114819.50  832.00   1
   0  -3  -115508.40  730.71  -2
   0   3   115508.40  730.71   1
   0  -3   114915.10  795.28  -2
   0   3  -114915.10  795.28   1
   0  -3  -114454.90  739.91  -2
   0   3   114454.90  739.91   1
   0   3  -2 1556.95  268.19  -2
   0  -3   2 1556.95  268.19   1
   0   3   2 1665.17  278.70  -2
   0  -3  -2 1665.17  278.70   1
   0  -3  -2 2095.21  309.20  -2
   0   3   2 2095.21  309.20   1
   0  -3   2 1656.45  263.03  -2
   0   3  -2 1656.45  263.03   1
   0  -3   2 1724.23  266.13  -2
   0   3  -2 1724.23  266.13   1
   0  -3  -2 1455.82  243.01  -2
   0   3   2 1455.82  243.01   1
   0  -3  -368821.40 1640.83  -2
   0   3   368821.40 1640.83   1
   0   3  -369542.50 1842.59  -2
   0  -3   369542.50 1842.59   1
   0  -3  -373644.70 1036.51  -2
   0   3   373644.70 1036.51   1
   0   3   373923.90 1970.08  -2
   0  -3  -373923.90 1970.08   1
   0  -3   367867.30 1565.22  -2
   0   3  -367867.30 1565.22   1
   0  -3   370765.10 1777.78  -2
   0   3  -370765.10 1777.78   1
   0  -3  -370708.50 1837.59  -2
   0   3   370708.50 1837.59   1
   0   3   4  276.54  135.38  -2
   0  -3  -4  276.54  135.38   1
   0   3  -4  349.64  136.54  -2
   0  -3   4  349.64  136.54   1
   0  -3  -4  439.52  171.71  -2
   0   3   4  439.52  171.71   1
   0  -3   4  495.27  164.24  -2
   0   3  -4  495.27  164.24   1
   0  -3   4  317.02  102.30  -2
   0   3  -4  317.02  102.30   1
   0  -3   5  127664    2267  -2
   0   3  -5  127664    2267   1
   0   3  -5  124806    2687  -2
   0  -3   5  124806    2687   1
   0  -3  -5  128670    2707  -2
   0   3   5  128670    2707   1
   0  -3   5  126041    2453  -2
   0   3  -5  126041    2453   1
   0  -3   6  125006    2542  -2
   0   3  -6  125006    2542   1
   0  -3  -6  128859    2765  -2
   0   3   6  128859    2765   1
   0  -3   6  130004    2333  -2
   0   3  -6  130004    2333   1
   0  -3   714169.80  895.35  -2
   0   3  -714169.80  895.35   1
   0  -3  -714527.40  947.30  -2
   0   3   714527.40  947.30   1
   0  -3   8  190.56  169.19  -2
   0   3  -8  190.56  169.19   1
   0  -3  -8  347.55  226.38  -2
   0   3   8  347.55  226.38   1
   0   3   8   73.00   60.51  -2
   0  -3  -8   73.00   60.51   1
   0  -3   8  406.08  238.85  -2
   0   3  -8  406.08  238.85   1
   0  -3   927479.60 1203.06  -2
   0   3  -927479.60 1203.06   1
   0  -3   924577.80 1271.29  -2
   0   3  -924577.80 1271.29   1
   0  -3  -923703.20 1246.11  -2
   0   3   923703.20 1246.11   1
   0  -3  10  214.78  175.59  -2
   0   3 -10  214.78  175.59   1
   0  -3 -10  246.75  177.51  -2
   0   3  10  246.75  177.51   1
   0  -3  10  266.31  160.51  -2
   0   3 -10  266.31  160.51   1
   0  -3  1138920.50 1738.77  -2
   0   3 -1138920.50 1738.77   1
   0  -3 -1139514.40 1769.67  -2
   0   3  1139514.40 1769.67   1
   0  -3  1143789.80 1605.12  -2
   0   3 -1143789.80 1605.12   1
   0  -3  12 3864.21  520.89  -2
   0   3 -12 3864.21  520.89   1
   0  -3  12 5685.32  732.97  -2
   0   3 -12 5685.32  732.97   1
   0  -3 -12 6549.43  806.56  -2
   0   3  12 6549.43  806.56   1
   0  -3  1331411.70 1695.06  -2
   0   3 -1331411.70 1695.06   1
   0  -3  1335128.40 1530.71  -2
   0   3 -1335128.40 1530.71   1
   0  -3 -1330789.10 1707.87  -2
   0   3  1330789.10 1707.87   1
   0  -3 -1415386.50 1256.31  -2
   0   3  1415386.50 1256.31   1
   0  -3  1416266.70 1078.20  -2
   0   3 -1416266.70 1078.20   1
   0  -3  1414872.30 1242.09  -2
   0   3 -1414872.30 1242.09   1
   0  -3  15 4211.39  720.27  -2
   0   3 -15 4211.39  720.27   1
   0  -3  15 3692.38  525.35  -2
   0   3 -15 3692.38  525.35   1
   0  -3 -15 4821.02  771.63  -2
   0   3  15 4821.02  771.63   1
   0  -3  16   88.34  180.85  -2
   0   3 -16   88.34  180.85   1
   0  -3 -16  681.28  414.83  -2
   0   3  16  681.28  414.83   1
   0  -3  16  789.88  390.99  -2
   0   3 -16  789.88  390.99   1
   0  -3  1710353.90 1169.31  -2
   0   3 -1710353.90 1169.31   1
   0  -3  1711360.00  985.46  -2
   0   3 -1711360.00  985.46   1
   0  -3 -1711784.40 1246.09  -2
   0   3  1711784.40 1246.09   1
   0  -3  1815320.20 1430.88  -2
   0   3 -1815320.20 1430.88   1
   0  -3  1817137.40 1244.49  -2
   0   3 -1817137.40 1244.49   1
   0  -3 -1817741.90 1593.79  -2
   0   3  1817741.90 1593.79   1
   0  -3  19 5501.87  716.13  -2
   0   3 -19 5501.87  716.13   1
   0  -3  19 5291.67  873.71  -2
   0   3 -19 5291.67  873.71   1
   0  -3 -19 6274.72  977.41  -2
   0   3  19 6274.72  977.41   1
   0  -3 -20 3623.77  756.03  -2
   0   3  20 3623.77  756.03   1
   0  -3  20 2674.47  485.81  -2
   0   3 -20 2674.47  485.81   1
   0  -3  20 2591.05  641.63  -2
   0   3 -20 2591.05  641.63   1
   0  -3  21  975.16  403.30  -2
   0   3 -21  975.16  403.30   1
   0  -3  21  -85.88  312.60  -2
   0   3 -21  -85.88  312.60   1
   0  -3 -21 1242.98  476.88  -2
   0   3  21 1242.98  476.88   1
   0  -3 -22  -28.63  254.41  -2
   0   3  22  -28.63  254.41   1
   0  -3  22 -214.90  265.94  -2
   0   3 -22 -214.90  265.94   1
   0  -3  22  638.99  409.35  -2
   0   3 -22  638.99  409.35   1
   0  -3  23  -79.64  178.25  -2
   0   3 -23  -79.64  178.25   1
   0  -3  23 -737.16  393.38  -2
   0   3 -23 -737.16  393.38   1
   0  -3 -23 -403.83  328.65  -2
   0   3  23 -403.83  328.65   1
   0  -3 -24 -472.48  463.87  -2
   0   3  24 -472.48  463.87   1
   0  -3  24  456.41  362.30  -2
   0   3 -24  456.41  362.30   1
   0  -3  24-1133.53  443.46  -2
   0   3 -24-1133.53  443.46   1
   0  -3 -25  590.89  354.14  -2
   0   3  25  590.89  354.14   1
   0  -3  25  661.79  436.38  -2
   0   3 -25  661.79  436.38   1
   0  -3  25 -373.82  319.08  -2
   0   3 -25 -373.82  319.08   1
   0  -3  26 -848.38  428.89  -2
   0   3 -26 -848.38  428.89   1
   0  -3 -26-1286.06  682.37  -2
   0   3  26-1286.06  682.37   1
   0  -3  26  329.87  310.79  -2
   0   3 -26  329.87  310.79   1
   0  -3 -27 -481.34  499.73  -2
   0   3  27 -481.34  499.73   1
   0  -3  27  648.38  486.91  -2
   0   3 -27  648.38  486.91   1
   0  -3 -28 -436.75  594.18  -2
   0   3  28 -436.75  594.18   1
   0  -3  28  -53.49  230.79  -2
   0   3 -28  -53.49  230.79   1
   0  -4   017527.40  904.37  -2
   0   4   017527.40  904.37   1
   0   4   015089.50  989.32  -2
   0  -4   015089.50  989.32   1
   0  -4   014473.80  843.23  -2
   0   4   014473.80  843.23   1
   0  -4   163416.10 1870.67  -2
   0   4  -163416.10 1870.67   1
   0   4  -160657.50 1967.18  -2
   0  -4   160657.50 1967.18   1
   0   4   160538.80 2042.73  -2
   0  -4  -160538.80 2042.73   1
   0  -4   167444.60 1804.08  -2
   0   4  -167444.60 1804.08   1
   0  -4  -161566.40 1753.45  -2
   0   4   161566.40 1753.45   1
   0  -4   2 5901.42  553.29  -2
   0   4  -2 5901.42  553.29   1
   0   4  -2 4814.03  567.08  -2
   0  -4   2 4814.03  567.08   1
   0  -4  -2 6151.16  629.13  -2
   0   4   2 6151.16  629.13   1
   0   4   2 5665.79  617.11  -2
   0  -4  -2 5665.79  617.11   1
   0  -4  -2 6547.03  581.85  -2
   0   4   2 6547.03  581.85   1
   0  -4   2 5872.39  571.68  -2
   0   4  -2 5872.39  571.68   1
   0  -4  -3  277.43  190.17  -2
   0   4   3  277.43  190.17   1
   0  -4  -3   83.35   87.97  -2
   0   4   3   83.35   87.97   1
   0  -4   3  218.77  152.48  -2
   0   4  -3  218.77  152.48   1
   0  -4   3   71.76  123.67  -2
   0   4  -3   71.76  123.67   1
   0   4   3  228.69  175.06  -2
   0  -4  -3  228.69  175.06   1
   0  -4   4  765.75  236.73  -2
   0   4  -4  765.75  236.73   1
   0  -4   4  698.74  243.98  -2
   0   4  -4  698.74  243.98   1
   0  -4  -4  523.87  189.80  -2
   0   4   4  523.87  189.80   1
   0  -4   514492.30  946.09  -2
   0   4  -514492.30  946.09   1
   0  -4   516027.60  886.22  -2
   0   4  -516027.60  886.22   1
   0  -4  -514088.90  978.67  -2
   0   4   514088.90  978.67   1
   0  -4   6 8186.76  748.27  -2
   0   4  -6 8186.76  748.27   1
   0  -4   6 8477.01  650.80  -2
   0   4  -6 8477.01  650.80   1
   0  -4  -6 8217.21  776.06  -2
   0   4   6 8217.21  776.06   1
   0  -4   715293.10 1025.92  -2
   0   4  -715293.10 1025.92   1
   0  -4   717026.30  941.59  -2
   0   4  -717026.30  941.59   1
   0  -4  -715225.70 1075.40  -2
   0   4   715225.70 1075.40   1
   0  -4   8 1743.03  378.49  -2
   0   4  -8 1743.03  378.49   1
   0  -4  -8 2078.93  443.88  -2
   0   4   8 2078.93  443.88   1
   0  -4   8 1977.51  315.03  -2
   0   4  -8 1977.51  315.03   1
   0  -4   919354.70 1074.27  -2
   0   4  -919354.70 1074.27   1
   0  -4  -916072.70 1142.36  -2
   0   4   916072.70 1142.36   1
   0  -4   916031.00 1115.92  -2
   0   4  -916031.00 1115.92   1
   0  -4  10 1343.33  342.12  -2
   0   4 -10 1343.33  342.12   1
   0  -4 -10 1229.75  336.47  -2
   0   4  10 1229.75  336.47   1
   0  -4  10 2208.87  435.30  -2
   0   4 -10 2208.87  435.30   1
   0  -4  11 8215.15  852.21  -2
   0   4 -11 8215.15  852.21   1
   0  -4  11 9735.68  816.98  -2
   0   4 -11 9735.68  816.98   1
   0  -4 -11 8062.36  844.98  -2
   0   4  11 8062.36  844.98   1
   0  -4  12 3173.29  503.01  -2
   0   4 -12 3173.29  503.01   1
   0  -4  12 2446.81  508.12  -2
   0   4 -12 2446.81  508.12   1
   0  -4 -12 2448.62  508.60  -2
   0   4  12 2448.62  508.60   1
   0   4  12 1942.48  274.37  -2
   0  -4 -12 1942.48  274.37   1
   0  -4  13 5986.34  682.99  -2
   0   4 -13 5986.34  682.99   1
   0  -4 -13 4770.97  699.10  -2
   0   4  13 4770.97  699.10   1
   0   4  13 4298.92  428.03  -2
   0  -4 -13 4298.92  428.03   1
   0  -4  13 4990.34  707.01  -2
   0   4 -13 4990.34  707.01   1
   0  -4  14  289.06  236.91  -2
   0   4 -14  289.06  236.91   1
   0  -4 -14  -43.10  243.30  -2
   0   4  14  -43.10  243.30   1
   0  -4  14   70.69  149.65  -2
   0   4 -14   70.69  149.65   1
   0  -4  15  153.16  250.49  -2
   0   4 -15  153.16  250.49   1
   0  -4 -15  157.15  166.74  -2
   0   4  15  157.15  166.74   1
   0  -4  15  220.50  251.40  -2
   0   4 -15  220.50  251.40   1
   0  -4 -16 4033.65  721.40  -2
   0   4  16 4033.65  721.40   1
   0  -4  16 3113.97  549.51  -2
   0   4 -16 3113.97  549.51   1
   0  -4  16 3014.33  629.87  -2
   0   4 -16 3014.33  629.87   1
   0  -4  17 5939.10  740.61  -2
   0   4 -17 5939.10  740.61   1
   0  -4 -17 6481.89  960.18  -2
   0   4  17 6481.89  960.18   1
   0  -4  17 5985.57  881.61  -2
   0   4 -17 5985.57  881.61   1
   0  -4 -18  603.16  442.70  -2
   0   4  18  603.16  442.70   1
   0  -4  18  427.91  231.18  -2
   0   4 -18  427.91  231.18   1
   0  -4  18  455.26  365.22  -2
   0   4 -18  455.26  365.22   1
   0  -4  19 7525.27  866.22  -2
   0   4 -19 7525.27  866.22   1
   0  -4  19 7606.64 1050.43  -2
   0   4 -19 7606.64 1050.43   1
   0  -4 -19 8349.97 1177.09  -2
   0   4  19 8349.97 1177.09   1
   0  -4  20  324.55  246.66  -2
   0   4 -20  324.55  246.66   1
   0  -4  20   68.69  211.73  -2
   0   4 -20   68.69  211.73   1
   0  -4 -20  605.53  392.39  -2
   0   4  20  605.53  392.39   1
   0  -4  21 -344.48  263.62  -2
   0   4 -21 -344.48  263.62   1
   0  -4 -21   96.48  239.66  -2
   0   4  21   96.48  239.66   1
   0  -4  21   66.27  233.38  -2
   0   4 -21   66.27  233.38   1
   0  -4  22  426.74  290.53  -2
   0   4 -22  426.74  290.53   1
   0  -4 -22  331.41  300.15  -2
   0   4  22  331.41  300.15   1
   0  -4  22 -269.12  293.49  -2
   0   4 -22 -269.12  293.49   1
   0  -4  23 2407.17  683.46  -2
   0   4 -23 2407.17  683.46   1
   0  -4 -23 3026.52  823.63  -2
   0   4  23 3026.52  823.63   1
   0  -4  23 2922.91  600.07  -2
   0   4 -23 2922.91  600.07   1
   0  -4  24  243.30  279.87  -2
   0   4 -24  243.30  279.87   1
   0  -4 -24  620.71  410.40  -2
   0   4  24  620.71  410.40   1
   0  -4  24  161.71  180.24  -2
   0   4 -24  161.71  180.24   1
   0  -4  25  274.87  287.81  -2
   0   4 -25  274.87  287.81   1
   0  -4  25  399.64  260.18  -2
   0   4 -25  399.64  260.18   1
   0  -4 -25  550.57  363.33  -2
   0   4  25  550.57  363.33   1
   0  -4  26  298.03  345.30  -2
   0   4 -26  298.03  345.30   1
   0  -4 -26 -583.62  492.19  -2
   0   4  26 -583.62  492.19   1
   0  -4  27 1358.71  618.11  -2
   0   4 -27 1358.71  618.11   1
   0  -4 -27  530.86  500.03  -2
   0   4  27  530.86  500.03   1
   0  -5   0  317.06  211.29  -2
   0   5   0  317.06  211.29   1
   0  -5   0  159.41  113.00  -2
   0   5   0  159.41  113.00   1
   0  -5   1  316.63  231.21  -2
   0   5  -1  316.63  231.21   1
   0  -5   1   -5.53  100.34  -2
   0   5  -1   -5.53  100.34   1
   0  -5  -1  317.84  203.10  -2
   0   5   1  317.84  203.10   1
   0  -5   220142.60 1196.46  -2
   0   5  -220142.60 1196.46   1
   0  -5  -222733.00 1191.40  -2
   0   5   222733.00 1191.40   1
   0  -5  -220351.60 1281.87  -2
   0   5   220351.60 1281.87   1
   0  -5   222696.20 1155.47  -2
   0   5  -222696.20 1155.47   1
   0  -5   321943.20 1282.30  -2
   0   5  -321943.20 1282.30   1
   0  -5  -322682.90 1226.48  -2
   0   5   322682.90 1226.48   1
   0  -5  -321603.60 1338.95  -2
   0   5   321603.60 1338.95   1
   0  -5   324855.60 1234.83  -2
   0   5  -324855.60 1234.83   1
   0  -5  -410731.50  939.26  -2
   0   5   410731.50  939.26   1
   0  -5   410387.40  915.41  -2
   0   5  -410387.40  915.41   1
   0  -5   411928.80  844.91  -2
   0   5  -411928.80  844.91   1
   0  -5   5 8053.68  709.05  -2
   0   5  -5 8053.68  709.05   1
   0  -5  -5 7212.01  781.11  -2
   0   5   5 7212.01  781.11   1
   0  -5   5 6804.73  727.35  -2
   0   5  -5 6804.73  727.35   1
   0  -5   6 5027.14  653.77  -2
   0   5  -6 5027.14  653.77   1
   0  -5  -6 4113.08  607.84  -2
   0   5   6 4113.08  607.84   1
   0  -5   6 5450.54  594.65  -2
   0   5  -6 5450.54  594.65   1
   0  -5   7 8918.82  758.98  -2
   0   5  -7 8918.82  758.98   1
   0  -5  -7 9302.05  974.75  -2
   0   5   7 9302.05  974.75   1
   0  -5   7 8375.74  852.93  -2
   0   5  -7 8375.74  852.93   1
   0  -5   8 3136.64  483.13  -2
   0   5  -8 3136.64  483.13   1
   0  -5   8 2471.12  474.58  -2
   0   5  -8 2471.12  474.58   1
   0  -5  -8 2616.45  511.61  -2
   0   5   8 2616.45  511.61   1
   0  -5  -9 1206.60  396.98  -2
   0   5   9 1206.60  396.98   1
   0  -5   9  995.78  274.72  -2
   0   5  -9  995.78  274.72   1
   0  -5   9  870.68  296.99  -2
   0   5  -9  870.68  296.99   1
   0  -5  1012782.30 1106.01  -2
   0   5 -1012782.30 1106.01   1
   0  -5 -1011961.40 1109.64  -2
   0   5  1011961.40 1109.64   1
   0  -5  1012965.20  965.80  -2
   0   5 -1012965.20  965.80   1
   0  -5  11 5201.64  613.89  -2
   0   5 -11 5201.64  613.89   1
   0  -5 -11 5829.25  782.28  -2
   0   5  11 5829.25  782.28   1
   0  -5  11 4474.11  695.39  -2
   0   5 -11 4474.11  695.39   1
   0  -5  12 7925.57  941.47  -2
   0   5 -12 7925.57  941.47   1
   0  -5 -12 7551.60  909.80  -2
   0   5  12 7551.60  909.80   1
   0  -5  12 8516.49  812.35  -2
   0   5 -12 8516.49  812.35   1
   0  -5  1311783.40  977.33  -2
   0   5 -1311783.40  977.33   1
   0  -5  1310691.70 1128.97  -2
   0   5 -1310691.70 1128.97   1
   0  -5 -1311567.80 1175.88  -2
   0   5  1311567.80 1175.88   1
   0  -5 -14  460.74  238.99  -2
   0   5  14  460.74  238.99   1
   0  -5  14  762.04  351.28  -2
   0   5 -14  762.04  351.28   1
   0  -5  14  471.80  248.62  -2
   0   5 -14  471.80  248.62   1
   0  -5  15 1430.80  445.38  -2
   0   5 -15 1430.80  445.38   1
   0  -5 -15  938.81  366.33  -2
   0   5  15  938.81  366.33   1
   0  -5  15 1610.48  416.92  -2
   0   5 -15 1610.48  416.92   1
   0  -5  16  895.46  386.16  -2
   0   5 -16  895.46  386.16   1
   0  -5  16  457.78  318.07  -2
   0   5 -16  457.78  318.07   1
   0  -5 -16  186.64  155.60  -2
   0   5  16  186.64  155.60   1
   0  -5 -17   18.45  345.97  -2
   0   5  17   18.45  345.97   1
   0  -5  17  323.64  279.75  -2
   0   5 -17  323.64  279.75   1
   0  -5  17  998.47  396.81  -2
   0   5 -17  998.47  396.81   1
   0  -5  18 4261.29  835.98  -2
   0   5 -18 4261.29  835.98   1
   0  -5  18 4984.80  751.42  -2
   0   5 -18 4984.80  751.42   1
   0  -5 -18 5242.02  953.73  -2
   0   5  18 5242.02  953.73   1
   0  -5  19 1498.83  530.52  -2
   0   5 -19 1498.83  530.52   1
   0  -5 -19 2282.94  685.77  -2
   0   5  19 2282.94  685.77   1
   0  -5  19 2221.29  567.48  -2
   0   5 -19 2221.29  567.48   1
   0  -5 -20 1187.67  564.18  -2
   0   5  20 1187.67  564.18   1
   0  -5  20  610.94  392.95  -2
   0   5 -20  610.94  392.95   1
   0  -5  20 1664.86  491.10  -2
   0   5 -20 1664.86  491.10   1
   0  -5 -21 1093.39  488.40  -2
   0   5  21 1093.39  488.40   1
   0  -5  21 1440.53  470.18  -2
   0   5 -21 1440.53  470.18   1
   0  -5  21 1230.53  529.69  -2
   0   5 -21 1230.53  529.69   1
   0  -5  22  372.96  376.14  -2
   0   5 -22  372.96  376.14   1
   0  -5  22  441.43  339.35  -2
   0   5 -22  441.43  339.35   1
   0  -5 -22  402.63  377.08  -2
   0   5  22  402.63  377.08   1
   0  -5  23 1102.81  456.04  -2
   0   5 -23 1102.81  456.04   1
   0  -5  23  303.90  321.61  -2
   0   5 -23  303.90  321.61   1
   0  -5 -23  314.05  334.66  -2
   0   5  23  314.05  334.66   1
   0  -5 -24  920.77  597.08  -2
   0   5  24  920.77  597.08   1
   0  -5  24  763.87  432.53  -2
   0   5 -24  763.87  432.53   1
   0  -5  24 1130.16  456.30  -2
   0   5 -24 1130.16  456.30   1
   0  -5 -25 -270.31  398.44  -2
   0   5  25 -270.31  398.44   1
   0  -5  25   83.42  246.20  -2
   0   5 -25   83.42  246.20   1
   0  -5  26  344.95  281.25  -2
   0   5 -26  344.95  281.25   1
   0  -6   0 1621.21  363.29  -2
   0   6   0 1621.21  363.29   1
   0  -6   1 9752.17  907.27  -2
   0   6  -1 9752.17  907.27   1
   0  -6  -112151.80  961.41  -2
   0   6   112151.80  961.41   1
   0  -6   112278.50 1011.45  -2
   0   6  -112278.50 1011.45   1
   0  -6  -110861.90 1037.48  -2
   0   6   110861.90 1037.48   1
   0  -6  -219112.00 1219.95  -2
   0   6   219112.00 1219.95   1
   0  -6  -217098.70 1317.65  -2
   0   6   217098.70 1317.65   1
   0  -6   215773.20 1150.71  -2
   0   6  -215773.20 1150.71   1
   0  -6   218094.60 1201.32  -2
   0   6  -218094.60 1201.32   1
   0  -6  -3 2248.28  559.17  -2
   0   6   3 2248.28  559.17   1
   0  -6   3 3156.92  573.37  -2
   0   6  -3 3156.92  573.37   1
   0  -6   3 2816.26  513.06  -2
   0   6  -3 2816.26  513.06   1
   0  -6   4   28.97  112.96  -2
   0   6  -4   28.97  112.96   1
   0  -6   4  450.79  295.49  -2
   0   6  -4  450.79  295.49   1
   0  -6  -4  128.22  195.40  -2
   0   6   4  128.22  195.40   1
   0  -6  -5 -254.25  195.50  -2
   0   6   5 -254.25  195.50   1
   0  -6   5  122.79  138.67  -2
   0   6  -5  122.79  138.67   1
   0  -6   5  363.42  257.98  -2
   0   6  -5  363.42  257.98   1
   0  -6   6 9821.08 1002.00  -2
   0   6  -6 9821.08 1002.00   1
   0  -6  -6 8577.96  973.66  -2
   0   6   6 8577.96  973.66   1
   0  -6   6 9537.50  849.58  -2
   0   6  -6 9537.50  849.58   1
   0  -6  -7 1189.76  353.44  -2
   0   6   7 1189.76  353.44   1
   0  -6   7 2197.12  456.07  -2
   0   6  -7 2197.12  456.07   1
   0  -6   7 1082.09  365.89  -2
   0   6  -7 1082.09  365.89   1
   0  -6   8 9877.73  901.20  -2
   0   6  -8 9877.73  901.20   1
   0  -6   8 8902.53  971.71  -2
   0   6  -8 8902.53  971.71   1
   0  -6  -8 8742.08 1000.26  -2
   0   6   8 8742.08 1000.26   1
   0  -6   9 4176.52  686.50  -2
   0   6  -9 4176.52  686.50   1
   0  -6  -9 4457.28  735.53  -2
   0   6   9 4457.28  735.53   1
   0  -6   9 5010.09  675.13  -2
   0   6  -9 5010.09  675.13   1
   0  -6 -10 3091.63  656.04  -2
   0   6  10 3091.63  656.04   1
   0  -6  10 2297.29  546.93  -2
   0   6 -10 2297.29  546.93   1
   0  -6  10 3263.38  557.46  -2
   0   6 -10 3263.38  557.46   1
   0  -6  11  504.49  226.26  -2
   0   6 -11  504.49  226.26   1
   0  -6 -11  539.53  327.40  -2
   0   6  11  539.53  327.40   1
   0  -6  11  136.79  228.89  -2
   0   6 -11  136.79  228.89   1
   0  -6  12  739.29  290.18  -2
   0   6 -12  739.29  290.18   1
   0  -6  12  543.24  277.80  -2
   0   6 -12  543.24  277.80   1
   0  -6 -12  762.12  368.84  -2
   0   6  12  762.12  368.84   1
   0  -6 -13  679.24  362.80  -2
   0   6  13  679.24  362.80   1
   0  -6  13  531.43  346.25  -2
   0   6 -13  531.43  346.25   1
   0  -6  13  515.48  285.94  -2
   0   6 -13  515.48  285.94   1
   0  -6 -14 7265.42 1035.44  -2
   0   6  14 7265.42 1035.44   1
   0  -6  14 8070.82  860.34  -2
   0   6 -14 8070.82  860.34   1
   0  -6  14 7501.49 1041.73  -2
   0   6 -14 7501.49 1041.73   1
   0  -6  15  150.90  192.88  -2
   0   6 -15  150.90  192.88   1
   0  -6 -15  272.69  309.74  -2
   0   6  15  272.69  309.74   1
   0  -6  15  244.49  226.63  -2
   0   6 -15  244.49  226.63   1
   0  -6  16 3281.53  548.29  -2
   0   6 -16 3281.53  548.29   1
   0  -6  16 2546.11  696.96  -2
   0   6 -16 2546.11  696.96   1
   0  -6 -16 2757.26  713.26  -2
   0   6  16 2757.26  713.26   1
   0  -6 -17  541.67  319.36  -2
   0   6  17  541.67  319.36   1
   0  -6  17  985.48  483.88  -2
   0   6 -17  985.48  483.88   1
   0  -6  17  487.18  267.30  -2
   0   6 -17  487.18  267.30   1
   0  -6 -18  231.94  283.90  -2
   0   6  18  231.94  283.90   1
   0  -6  18  554.72  245.84  -2
   0   6 -18  554.72  245.84   1
   0  -6  19 1144.90  345.96  -2
   0   6 -19 1144.90  345.96   1
   0  -6 -19 1817.70  612.39  -2
   0   6  19 1817.70  612.39   1
   0  -6  19 1264.68  517.13  -2
   0   6 -19 1264.68  517.13   1
   0  -6 -20  812.64  501.80  -2
   0   6  20  812.64  501.80   1
   0  -6  20  846.03  487.73  -2
   0   6 -20  846.03  487.73   1
   0  -6  20 -205.32  229.34  -2
   0   6 -20 -205.32  229.34   1
   0  -6  21  454.43  353.98  -2
   0   6 -21  454.43  353.98   1
   0  -6  21  164.51  186.63  -2
   0   6 -21  164.51  186.63   1
   0  -6  22  -63.62  243.80  -2
   0   6 -22  -63.62  243.80   1
   0  -6 -22  852.48  559.26  -2
   0   6  22  852.48  559.26   1
   0  -6  22  607.67  406.30  -2
   0   6 -22  607.67  406.30   1
   0  -6  23  685.08  471.85  -2
   0   6 -23  685.08  471.85   1
   0  -6  24   -1.41  320.46  -2
   0   6 -24   -1.41  320.46   1
   0  -7   0  750.95  351.23  -2
   0   7   0  750.95  351.23   1
   0  -7   0  423.99  243.95  -2
   0   7   0  423.99  243.95   1
   0  -7  -1 3066.79  614.37  -2
   0   7   1 3066.79  614.37   1
   0  -7  -1 3392.37  563.42  -2
   0   7   1 3392.37  563.42   1
   0  -7   1 3692.08  585.42  -2
   0   7  -1 3692.08  585.42   1
   0  -7  -2  948.24  400.29  -2
   0   7   2  948.24  400.29   1
   0  -7   2  660.14  282.15  -2
   0   7  -2  660.14  282.15   1
   0  -7   2 1337.93  422.71  -2
   0   7  -2 1337.93  422.71   1
   0  -7  -3 3681.86  739.99  -2
   0   7   3 3681.86  739.99   1
   0  -7   3 4826.73  729.08  -2
   0   7  -3 4826.73  729.08   1
   0  -7   3 3348.71  594.80  -2
   0   7  -3 3348.71  594.80   1
   0  -7   4 2374.51  503.38  -2
   0   7  -4 2374.51  503.38   1
   0  -7  -4 1752.28  557.38  -2
   0   7   4 1752.28  557.38   1
   0  -7   4 1486.56  432.45  -2
   0   7  -4 1486.56  432.45   1
   0  -7   5 1429.34  380.84  -2
   0   7  -5 1429.34  380.84   1
   0  -7  -5 1156.04  378.68  -2
   0   7   5 1156.04  378.68   1
   0  -7   5 1646.74  456.62  -2
   0   7  -5 1646.74  456.62   1
   0  -7  -6 5546.44  831.19  -2
   0   7   6 5546.44  831.19   1
   0  -7   6 7760.65  837.99  -2
   0   7  -6 7760.65  837.99   1
   0  -7   6 6187.15  838.53  -2
   0   7  -6 6187.15  838.53   1
   0  -7   7 1232.03  432.63  -2
   0   7  -7 1232.03  432.63   1
   0  -7  -7 1083.48  463.51  -2
   0   7   7 1083.48  463.51   1
   0  -7   7 1191.13  398.42  -2
   0   7  -7 1191.13  398.42   1
   0  -7   8  165.83  258.83  -2
   0   7  -8  165.83  258.83   1
   0  -7  -8  -13.42  228.69  -2
   0   7   8  -13.42  228.69   1
   0  -7   8   56.15  205.49  -2
   0   7  -8   56.15  205.49   1
   0  -7   9 3650.25  606.19  -2
   0   7  -9 3650.25  606.19   1
   0  -7  -9 3210.48  722.52  -2
   0   7   9 3210.48  722.52   1
   0  -7   9 2546.47  613.36  -2
   0   7  -9 2546.47  613.36   1
   0  -7 -10 1844.12  620.24  -2
   0   7  10 1844.12  620.24   1
   0  -7  10 1151.51  462.67  -2
   0   7 -10 1151.51  462.67   1
   0  -7  10 2171.23  508.06  -2
   0   7 -10 2171.23  508.06   1
   0  -7  11  817.23  379.49  -2
   0   7 -11  817.23  379.49   1
   0  -7 -11 1152.64  441.51  -2
   0   7  11 1152.64  441.51   1
   0  -7  11  428.11  309.90  -2
   0   7 -11  428.11  309.90   1
   0  -7 -12 3591.20  788.39  -2
   0   7  12 3591.20  788.39   1
   0  -7  12 4596.74  736.53  -2
   0   7 -12 4596.74  736.53   1
   0  -7  12 3819.20  777.55  -2
   0   7 -12 3819.20  777.55   1
   0  -7 -13  725.87  388.71  -2
   0   7  13  725.87  388.71   1
   0  -7  13  502.00  319.60  -2
   0   7 -13  502.00  319.60   1
   0  -7  13  578.43  340.98  -2
   0   7 -13  578.43  340.98   1
   0  -7 -14 3250.39  756.75  -2
   0   7  14 3250.39  756.75   1
   0  -7  14 3452.79  637.73  -2
   0   7 -14 3452.79  637.73   1
   0  -7  14 2688.57  657.03  -2
   0   7 -14 2688.57  657.03   1
   0  -7 -15  805.02  407.86  -2
   0   7  15  805.02  407.86   1
   0  -7  15 1595.55  474.95  -2
   0   7 -15 1595.55  474.95   1
   0  -7  15  989.40  461.32  -2
   0   7 -15  989.40  461.32   1
   0  -7 -16  -64.81  328.34  -2
   0   7  16  -64.81  328.34   1
   0  -7  16  -36.15  166.23  -2
   0   7 -16  -36.15  166.23   1
   0  -7  16  196.21  238.21  -2
   0   7 -16  196.21  238.21   1
   0  -7  17  281.91  373.31  -2
   0   7 -17  281.91  373.31   1
   0  -7 -17   52.38  258.36  -2
   0   7  17   52.38  258.36   1
   0  -7  17  339.09  257.03  -2
   0   7 -17  339.09  257.03   1
   0  -7 -18 1462.41  539.06  -2
   0   7  18 1462.41  539.06   1
   0  -7  18 2044.66  518.77  -2
   0   7 -18 2044.66  518.77   1
   0  -7  18 1516.72  537.21  -2
   0   7 -18 1516.72  537.21   1
   0  -7  19  128.66  236.23  -2
   0   7 -19  128.66  236.23   1
   0  -7  19  325.73  315.60  -2
   0   7 -19  325.73  315.60   1
   0  -7 -19 -171.32  326.69  -2
   0   7  19 -171.32  326.69   1
   0  -7  20  -65.41  178.61  -2
   0   7 -20  -65.41  178.61   1
   0  -7  20   10.30  240.83  -2
   0   7 -20   10.30  240.83   1
   0  -7  21  166.19  189.82  -2
   0   7 -21  166.19  189.82   1
   0  -7  21  163.61  248.97  -2
   0   7 -21  163.61  248.97   1
   0  -7  22  684.39  447.37  -2
   0   7 -22  684.39  447.37   1
   0  -8   0 3864.29  773.54  -2
   0   8   0 3864.29  773.54   1
   0  -8   0 3860.08  656.26  -2
   0   8   0 3860.08  656.26   1
   0  -8   1 1505.44  385.70  -2
   0   8  -1 1505.44  385.70   1
   0  -8   1 1884.75  596.53  -2
   0   8  -1 1884.75  596.53   1
   0  -8  -1 1444.88  496.80  -2
   0   8   1 1444.88  496.80   1
   0  -8   2 1487.40  532.24  -2
   0   8  -2 1487.40  532.24   1
   0  -8  -2 1150.94  471.52  -2
   0   8   2 1150.94  471.52   1
   0  -8   2 1010.52  321.55  -2
   0   8  -2 1010.52  321.55   1
   0  -8  -3   -6.62  225.16  -2
   0   8   3   -6.62  225.16   1
   0  -8   3  153.65  218.94  -2
   0   8  -3  153.65  218.94   1
   0  -8   4  101.90  207.03  -2
   0   8  -4  101.90  207.03   1
   0  -8   4  472.13  321.38  -2
   0   8  -4  472.13  321.38   1
   0  -8  -4  196.53  210.04  -2
   0   8   4  196.53  210.04   1
   0  -8   5  760.58  362.92  -2
   0   8  -5  760.58  362.92   1
   0  -8  -5  496.64  329.10  -2
   0   8   5  496.64  329.10   1
   0  -8   5  569.59  325.15  -2
   0   8  -5  569.59  325.15   1
   0  -8  -6  820.86  381.54  -2
   0   8   6  820.86  381.54   1
   0  -8   6 1269.66  433.26  -2
   0   8  -6 1269.66  433.26   1
   0  -8   6  889.37  338.06  -2
   0   8  -6  889.37  338.06   1
   0  -8   7 1546.93  490.49  -2
   0   8  -7 1546.93  490.49   1
   0  -8   7 2848.18  619.30  -2
   0   8  -7 2848.18  619.30   1
   0  -8  -7 1632.58  573.43  -2
   0   8   7 1632.58  573.43   1
   0  -8   8 2405.08  557.30  -2
   0   8  -8 2405.08  557.30   1
   0  -8  -8 1952.56  575.80  -2
   0   8   8 1952.56  575.80   1
   0  -8   8 1987.30  571.02  -2
   0   8  -8 1987.30  571.02   1
   0  -8  -9  684.76  452.95  -2
   0   8   9  684.76  452.95   1
   0  -8   9 -223.78  246.38  -2
   0   8  -9 -223.78  246.38   1
   0  -8   9  738.93  354.05  -2
   0   8  -9  738.93  354.05   1
   0  -8 -10 1952.58  644.15  -2
   0   8  10 1952.58  644.15   1
   0  -8  10 1124.28  410.32  -2
   0   8 -10 1124.28  410.32   1
   0  -8  10 1074.26  403.67  -2
   0   8 -10 1074.26  403.67   1
   0  -8  11  199.15  305.10  -2
   0   8 -11  199.15  305.10   1
   0  -8 -11  836.30  461.98  -2
   0   8  11  836.30  461.98   1
   0  -8  11  150.85  268.43  -2
   0   8 -11  150.85  268.43   1
   0  -8 -12  758.99  501.58  -2
   0   8  12  758.99  501.58   1
   0  -8  12  -89.08  244.35  -2
   0   8 -12  -89.08  244.35   1
   0  -8  12  264.37  279.03  -2
   0   8 -12  264.37  279.03   1
   0  -8 -13  901.78  474.03  -2
   0   8  13  901.78  474.03   1
   0  -8  13 1449.71  466.47  -2
   0   8 -13 1449.71  466.47   1
   0  -8  14  564.98  349.89  -2
   0   8 -14  564.98  349.89   1
   0  -8  15 1019.85  393.62  -2
   0   8 -15 1019.85  393.62   1
   0  -8  16 1073.63  409.30  -2
   0   8 -16 1073.63  409.30   1
   0  -8  17  119.93  208.26  -2
   0   8 -17  119.93  208.26   1
   0  -8  18  556.02  359.28  -2
   0   8 -18  556.02  359.28   1
   0  -9   3 1618.55  476.36  -2
   0   9  -3 1618.55  476.36   1
   0  -9   4  140.83  216.55  -2
   0   9  -4  140.83  216.55   1
   0  -9   5  308.95  259.52  -2
   0   9  -5  308.95  259.52   1
  -1   0 -31 -162.70  230.16  -2
  -1   0  31 -162.70  230.16   1
  -1   0 -30  402.29  435.62  -2
  -1   0  30  402.29  435.62   1
  -1   0 -29 -249.11  274.70  -2
  -1   0  29 -249.11  274.70   1
  -1   0 -28  261.37  344.20  -2
  -1   0  28  261.37  344.20   1
  -1   0 -27   84.43  292.68  -2
  -1   0  27   84.43  292.68   1
  -1   0 -26  465.29  360.06  -2
  -1   0  26  465.29  360.06   1
  -1   0 -25  487.77  374.66  -2
  -1   0  25  487.77  374.66   1
  -1   0 -24  658.59  441.39  -2
  -1   0  24  658.59  441.39   1
  -1   0 -23  262.58  311.89  -2
  -1   0  23  262.58  311.89   1
  -1   0 -22 7864.72 1064.06  -2
  -1   0  22 7864.72 1064.06   1
  -1   0 -21  209.62  264.44  -2
  -1   0  21  209.62  264.44   1
  -1   0 -20 4906.70  776.41  -2
  -1   0  20 4906.70  776.41   1
  -1   0 -19  -35.40  151.78  -2
  -1   0  19  -35.40  151.78   1
  -1   0 -18 1414.11  415.67  -2
  -1   0  18 1414.11  415.67   1
  -1   0 -17  197.44  227.45  -2
  -1   0  17  197.44  227.45   1
  -1   0 -1610272.60  971.54  -2
  -1   0  1610272.60  971.54   1
  -1   0 -15   95.52  205.98  -2
  -1   0  15   95.52  205.98   1
  -1   0 -1419098.70 1217.08  -2
  -1   0  1419098.70 1217.08   1
  -1   0 -13   55.47  132.20  -2
  -1   0  13   55.47  132.20   1
  -1   0 -12  353.19  182.58  -2
  -1   0  12  353.19  182.58   1
   1   0  11  -22.37  113.93  -2
   1   0 -11  -22.37  113.93   1
  -1   0 -11   19.27   67.57  -2
  -1   0  11   19.27   67.57   1
  -1   0 -10 1378.88  426.16  -2
  -1   0  10 1378.88  426.16   1
  -1   0 -10 1374.39  273.83  -2
  -1   0  10 1374.39  273.83   1
   1   0  10 1297.09  290.35  -2
   1   0 -10 1297.09  290.35   1
   1   0  10 1405.34  207.91  -2
   1   0 -10 1405.34  207.91   1
   1   0  10 1470.44  472.55  -2
   1   0 -10 1470.44  472.55   1
   1   0   9   80.83  131.64  -2
   1   0  -9   80.83  131.64   1
   1   0   9  202.59  222.79  -2
   1   0  -9  202.59  222.79   1
   1   0   9  122.09  110.12  -2
   1   0  -9  122.09  110.12   1
  -1   0  -9  315.93  278.23  -2
  -1   0   9  315.93  278.23   1
   1   0   9    9.51   90.60  -2
   1   0  -9    9.51   90.60   1
  -1   0  -9   89.50  115.68  -2
  -1   0   9   89.50  115.68   1
   1   0   850920.50 1603.74  -2
   1   0  -850920.50 1603.74   1
  -1   0  -847513.20 1341.78  -2
  -1   0   847513.20 1341.78   1
   1   0   849945.10 1090.94  -2
   1   0  -849945.10 1090.94   1
   1   0   848218.40 1492.04  -2
   1   0  -848218.40 1492.04   1
  -1   0  -846310.00 2368.81  -2
  -1   0   846310.00 2368.81   1
   1   0   7  450.67  166.59  -2
   1   0  -7  450.67  166.59   1
  -1   0  -7  221.57  227.63  -2
  -1   0   7  221.57  227.63   1
  -1   0  -7  173.77  128.10  -2
  -1   0   7  173.77  128.10   1
   1   0   7   69.66  114.67  -2
   1   0  -7   69.66  114.67   1
   1   0   7   65.91   89.72  -2
   1   0  -7   65.91   89.72   1
  -1   0  -7  209.46  137.71  -2
  -1   0   7  209.46  137.71   1
   1   0   7  277.55  305.00  -2
   1   0  -7  277.55  305.00   1
  -1   0  -679777.50 3046.12  -2
  -1   0   679777.50 3046.12   1
   1   0   693283.80 3170.85  -2
   1   0  -693283.80 3170.85   1
   1   0   680390.00 1581.00  -2
   1   0  -680390.00 1581.00   1
   1   0   683978.90 1401.24  -2
   1   0  -683978.90 1401.24   1
  -1   0  -683348.70 1482.96  -2
  -1   0   683348.70 1482.96   1
  -1   0  -683576.90 1474.26  -2
  -1   0   683576.90 1474.26   1
   1   0   690180.80 1891.76  -2
   1   0  -690180.80 1891.76   1
  -1   0  -5   78.50  193.73  -2
  -1   0   5   78.50  193.73   1
   1   0   5  -20.37   46.15  -2
   1   0  -5  -20.37   46.15   1
   1   0   5   97.63   74.47  -2
   1   0  -5   97.63   74.47   1
  -1   0  -5  104.31   74.01  -2
  -1   0   5  104.31   74.01   1
  -1   0  -429149.10  866.27  -2
  -1   0   429149.10  866.27   1
  -1   0  -430304.10  625.78  -2
  -1   0   430304.10  625.78   1
  -1   0  -432763.90 1027.52  -2
  -1   0   432763.90 1027.52   1
   1   0   431210.50  986.99  -2
   1   0  -431210.50  986.99   1
  -1   0  -426632.40 1782.07  -2
  -1   0   426632.40 1782.07   1
   1   0   429630.90  695.41  -2
   1   0  -429630.90  695.41   1
  -1   0  -3   79.36   39.50  -2
  -1   0   3   79.36   39.50   1
  -1   0  -3  166.35  147.28  -2
  -1   0   3  166.35  147.28   1
  -1   0  -3  246.48  246.89  -2
  -1   0   3  246.48  246.89   1
   1   0   3   -3.42   38.40  -2
   1   0  -3   -3.42   38.40   1
   1   0   3   20.57   90.81  -2
   1   0  -3   20.57   90.81   1
  -1   0  -3  -22.64   49.99  -2
  -1   0   3  -22.64   49.99   1
  -1   0  -213267.30  563.70  -2
  -1   0   213267.30  563.70   1
  -1   0  -214958.40  616.40  -2
  -1   0   214958.40  616.40   1
   1   0   213220.20  801.58  -2
   1   0  -213220.20  801.58   1
  -1   0  -214217.80  470.97  -2
  -1   0   214217.80  470.97   1
  -1   0  -212768.10 1196.86  -2
  -1   0   212768.10 1196.86   1
   1   0   213849.70  601.92  -2
   1   0  -213849.70  601.92   1
  -1   0  -1  134.85  239.05  -2
  -1   0   1  134.85  239.05   1
  -1   0  -1  216.70  149.82  -2
  -1   0   1  216.70  149.82   1
  -1   0  -1   43.83   42.41  -2
  -1   0   1   43.83   42.41   1
   1   0   1   47.85   86.84  -2
   1   0  -1   47.85   86.84   1
   1   0   1  -10.61   36.98  -2
   1   0  -1  -10.61   36.98   1
  -1   0   0 2013.44  226.36  -2
  -1   0   0 2013.44  226.36   1
  -1   0   0 1909.05  466.22  -2
  -1   0   0 1909.05  466.22   1
  -1   0   0 1785.66  208.46  -2
  -1   0   0 1785.66  208.46   1
   1   0   0 1827.29  213.85  -2
   1   0   0 1827.29  213.85   1
  -1   0   1   42.68   50.43  -2
  -1   0  -1   42.68   50.43   1
  -1   0   1  170.98   79.12  -2
  -1   0  -1  170.98   79.12   1
  -1   0   2  951437   10115  -2
  -1   0  -2  951437   10115   1
   1   0  -2  965159    4804  -2
   1   0   2  965159    4804   1
   1   0  -3 1982.92  361.38  -2
   1   0   3 1982.92  361.38   1
  -1   0   3  421.90  192.16  -2
  -1   0  -3  421.90  192.16   1
  -1   0   422432.60  908.24  -2
  -1   0  -422432.60  908.24   1
  -1   0   423982.70 1607.14  -2
  -1   0  -423982.70 1607.14   1
  -1   0   422329.40  732.74  -2
  -1   0  -422329.40  732.74   1
   1   0  -423898.30  959.38  -2
   1   0   423898.30  959.38   1
   1   0  -420947.00 1435.31  -2
   1   0   420947.00 1435.31   1
  -1   0   5   92.17   81.42  -2
  -1   0  -5   92.17   81.42   1
   1   0  -5   61.96   62.00  -2
   1   0   5   61.96   62.00   1
  -1   0   5  -29.33  178.15  -2
  -1   0  -5  -29.33  178.15   1
   1   0  -5   33.47   85.27  -2
   1   0   5   33.47   85.27   1
  -1   0   5   32.81   72.33  -2
  -1   0  -5   32.81   72.33   1
   1   0  -5  -44.82  106.22  -2
   1   0   5  -44.82  106.22   1
  -1   0   6 1484.45  272.00  -2
  -1   0  -6 1484.45  272.00   1
  -1   0   6 1624.49  436.53  -2
  -1   0  -6 1624.49  436.53   1
   1   0  -6 1273.56  253.05  -2
   1   0   6 1273.56  253.05   1
   1   0  -6 1249.51  351.67  -2
   1   0   6 1249.51  351.67   1
   1   0  -6 1692.40  190.16  -2
   1   0   6 1692.40  190.16   1
  -1   0   7   55.20  108.15  -2
  -1   0  -7   55.20  108.15   1
  -1   0   7  -46.11  127.50  -2
  -1   0  -7  -46.11  127.50   1
   1   0  -7  -77.89  123.19  -2
   1   0   7  -77.89  123.19   1
   1   0  -7  -31.02   57.07  -2
   1   0   7  -31.02   57.07   1
   1   0  -7   18.91  122.90  -2
   1   0   7   18.91  122.90   1
  -1   0   849926.70 1771.03  -2
  -1   0  -849926.70 1771.03   1
   1   0  -853112.40 2328.64  -2
   1   0   853112.40 2328.64   1
   1   0  -857074.10 1109.51  -2
   1   0   857074.10 1109.51   1
  -1   0   852576.70 2412.81  -2
  -1   0  -852576.70 2412.81   1
   1   0  -854123.90 1835.68  -2
   1   0   854123.90 1835.68   1
   1   0  -9  114.55   80.15  -2
   1   0   9  114.55   80.15   1
   1   0  -9  165.16  174.49  -2
   1   0   9  165.16  174.49   1
  -1   0   9  118.31  148.77  -2
  -1   0  -9  118.31  148.77   1
   1   0 -10  108087    1580  -2
   1   0  10  108087    1580   1
  -1   0  10  100428    3242  -2
  -1   0 -10  100428    3242   1
   1   0 -10  107230    2882  -2
   1   0  10  107230    2882   1
   1   0 -11  214.43  124.74  -2
   1   0  11  214.43  124.74   1
   1   0 -11   25.53  178.80  -2
   1   0  11   25.53  178.80   1
   1   0 -1221214.60 1361.76  -2
   1   0  1221214.60 1361.76   1
   1   0 -13  260.55  262.51  -2
   1   0  13  260.55  262.51   1
   1   0 -1430887.50 1783.28  -2
   1   0  1430887.50 1783.28   1
   1   0 -15  176.73  221.16  -2
   1   0  15  176.73  221.16   1
   1   0 -16 4577.24  764.37  -2
   1   0  16 4577.24  764.37   1
   1   0 -17  -20.90  160.97  -2
   1   0  17  -20.90  160.97   1
   1   0 -1819015.80 1531.07  -2
   1   0  1819015.80 1531.07   1
   1   0 -19  201.09  194.28  -2
   1   0  19  201.09  194.28   1
   1   0 -20 2132.62  550.63  -2
   1   0  20 2132.62  550.63   1
   1   0 -21  425.39  325.37  -2
   1   0  21  425.39  325.37   1
   1   0 -22  186.02  204.90  -2
   1   0  22  186.02  204.90   1
   1   0 -23  596.34  394.37  -2
   1   0  23  596.34  394.37   1
   1   0 -24 3108.74  813.12  -2
   1   0  24 3108.74  813.12   1
   1   0 -25  353.35  406.79  -2
   1   0  25  353.35  406.79   1
   1   0 -26 4858.07 1034.23  -2
   1   0  26 4858.07 1034.23   1
   1   0 -27  632.21  507.84  -2
   1   0  27  632.21  507.84   1
   1   0 -28 1441.32  685.85  -2
   1   0  28 1441.32  685.85   1
   1   0 -29  606.61  468.16  -2
   1   0  29  606.61  468.16   1
  -1   0  32 -787.35  476.82  -2
  -1   0 -32 -787.35  476.82   1
  -1  -1 -31  685.62  440.33  -2
  -1   1  31  685.62  440.33   1
  -1  -1 -30  915.59  545.77  -2
  -1   1  30  915.59  545.77   1
  -1  -1 -29  436.88  446.08  -2
  -1   1  29  436.88  446.08   1
   1  -1  29  637.33  453.29  -2
   1   1 -29  637.33  453.29   1
   1  -1  28 1744.63  701.69  -2
   1   1 -28 1744.63  701.69   1
  -1  -1 -28 1049.70  588.97  -2
  -1   1  28 1049.70  588.97   1
  -1  -1 -27 2174.93  728.30  -2
  -1   1  27 2174.93  728.30   1
   1  -1  27 1774.44  713.81  -2
   1   1 -27 1774.44  713.81   1
  -1   1 -27 1254.56  541.42  -2
  -1  -1  27 1254.56  541.42   1
  -1   1 -26 1585.06  591.67  -2
  -1  -1  26 1585.06  591.67   1
  -1  -1 -26 2210.32  721.45  -2
  -1   1  26 2210.32  721.45   1
   1  -1  26 2060.06  718.40  -2
   1   1 -26 2060.06  718.40   1
  -1  -1 -25  808.64  416.48  -2
  -1   1  25  808.64  416.48   1
   1  -1  25  267.45  353.28  -2
   1   1 -25  267.45  353.28   1
  -1   1 -25  423.63  374.17  -2
  -1  -1  25  423.63  374.17   1
  -1  -1 -24 1650.83  620.80  -2
  -1   1  24 1650.83  620.80   1
  -1   1 -24 1953.26  616.48  -2
  -1  -1  24 1953.26  616.48   1
   1  -1  24 2205.95  678.51  -2
   1   1 -24 2205.95  678.51   1
  -1   1 -23  228.17  243.59  -2
  -1  -1  23  228.17  243.59   1
   1  -1  23   16.43  273.73  -2
   1   1 -23   16.43  273.73   1
  -1  -1 -23  -90.85  262.84  -2
  -1   1  23  -90.85  262.84   1
  -1  -1 -22 1322.29  466.48  -2
  -1   1  22 1322.29  466.48   1
  -1   1 -22 1362.42  463.90  -2
  -1  -1  22 1362.42  463.90   1
   1  -1  22  985.90  449.40  -2
   1   1 -22  985.90  449.40   1
   1  -1  21  156.75  192.46  -2
   1   1 -21  156.75  192.46   1
  -1   1 -21  -53.80  164.34  -2
  -1  -1  21  -53.80  164.34   1
   1  -1  21   41.78   98.17  -2
   1   1 -21   41.78   98.17   1
  -1  -1 -21 -268.91  287.92  -2
  -1   1  21 -268.91  287.92   1
   1  -1  20 4114.00  789.28  -2
   1   1 -20 4114.00  789.28   1
   1  -1  20 5611.55  600.67  -2
   1   1 -20 5611.55  600.67   1
  -1  -1 -20 6507.04  970.42  -2
  -1   1  20 6507.04  970.42   1
  -1   1 -20 5708.49  819.43  -2
  -1  -1  20 5708.49  819.43   1
   1  -1  19 1771.75  508.64  -2
   1   1 -19 1771.75  508.64   1
   1  -1  19 1962.81  357.70  -2
   1   1 -19 1962.81  357.70   1
  -1  -1 -19 2771.11  592.79  -2
  -1   1  19 2771.11  592.79   1
  -1   1 -19 2591.57  540.67  -2
  -1  -1  19 2591.57  540.67   1
   1  -1  18 7509.95  977.15  -2
   1   1 -18 7509.95  977.15   1
  -1   1 -18 7730.24  886.56  -2
  -1  -1  18 7730.24  886.56   1
  -1  -1 -18 8250.89 1042.38  -2
  -1   1  18 8250.89 1042.38   1
   1  -1  18 7546.06  647.03  -2
   1   1 -18 7546.06  647.03   1
   1   1  18 8560.38 1092.80  -2
   1  -1 -18 8560.38 1092.80   1
  -1  -1 -17 1776.68  467.15  -2
  -1   1  17 1776.68  467.15   1
   1   1  17 1655.80  494.07  -2
   1  -1 -17 1655.80  494.07   1
   1  -1  17 1980.13  244.01  -2
   1   1 -17 1980.13  244.01   1
  -1   1 -17 1815.22  442.68  -2
  -1  -1  17 1815.22  442.68   1
   1  -1  17 1248.08  385.14  -2
   1   1 -17 1248.08  385.14   1
  -1   1 -17 1450.45  439.48  -2
  -1  -1  17 1450.45  439.48   1
  -1  -1 -17 1411.67  218.57  -2
  -1   1  17 1411.67  218.57   1
   1  -1  17 1465.82  293.20  -2
   1   1 -17 1465.82  293.20   1
  -1  -1 -16   23.64  218.42  -2
  -1   1  16   23.64  218.42   1
  -1   1 -16  103.43  189.68  -2
  -1  -1  16  103.43  189.68   1
   1  -1  16  189.41  133.00  -2
   1   1 -16  189.41  133.00   1
  -1   1 -16  212.75  181.25  -2
  -1  -1  16  212.75  181.25   1
   1  -1  16  117.38   89.42  -2
   1   1 -16  117.38   89.42   1
   1  -1  16   92.32  182.55  -2
   1   1 -16   92.32  182.55   1
  -1  -1 -16   88.60   67.11  -2
  -1   1  16   88.60   67.11   1
   1   1  16  172.05  212.74  -2
   1  -1 -16  172.05  212.74   1
  -1   1 -15 6487.37  726.00  -2
  -1  -1  15 6487.37  726.00   1
  -1   1 -15 5210.55  835.63  -2
  -1  -1  15 5210.55  835.63   1
  -1  -1 -15 5637.13  419.82  -2
  -1   1  15 5637.13  419.82   1
   1  -1  15 6140.68  503.10  -2
   1   1 -15 6140.68  503.10   1
  -1  -1 -15 6922.72  813.22  -2
  -1   1  15 6922.72  813.22   1
   1   1  15 6951.52  983.19  -2
   1  -1 -15 6951.52  983.19   1
   1  -1  15 6483.78  821.65  -2
   1   1 -15 6483.78  821.65   1
   1  -1  15 6705.78  427.94  -2
   1   1 -15 6705.78  427.94   1
  -1   1 -14 1384.16  345.88  -2
  -1  -1  14 1384.16  345.88   1
   1  -1  14 1202.66  368.16  -2
   1   1 -14 1202.66  368.16   1
  -1  -1 -14  977.86  182.58  -2
  -1   1  14  977.86  182.58   1
  -1   1 -14  815.61  333.81  -2
  -1  -1  14  815.61  333.81   1
   1  -1  14 1477.47  209.82  -2
   1   1 -14 1477.47  209.82   1
   1  -1  14 1418.25  234.56  -2
   1   1 -14 1418.25  234.56   1
  -1  -1 -14 1195.49  323.66  -2
  -1   1  14 1195.49  323.66   1
   1   1  14 1218.42  429.44  -2
   1  -1 -14 1218.42  429.44   1
  -1  -1 -13 4893.27  647.17  -2
  -1   1  13 4893.27  647.17   1
  -1  -1 -13 4625.23  387.44  -2
  -1   1  13 4625.23  387.44   1
   1  -1  13 5648.56  393.20  -2
   1   1 -13 5648.56  393.20   1
   1  -1  13 6033.28  740.35  -2
   1   1 -13 6033.28  740.35   1
  -1   1 -13 5283.39  614.73  -2
  -1  -1  13 5283.39  614.73   1
   1  -1  13 4963.07  400.89  -2
   1   1 -13 4963.07  400.89   1
  -1   1 -13 4936.49  812.92  -2
  -1  -1  13 4936.49  812.92   1
   1   1  13 6026.19  917.40  -2
   1  -1 -13 6026.19  917.40   1
   1  -1  1214674.60  626.74  -2
   1   1 -1214674.60  626.74   1
   1  -1  1216304.10  666.98  -2
   1   1 -1216304.10  666.98   1
  -1   1 -1213574.70 1362.23  -2
  -1  -1  1213574.70 1362.23   1
  -1  -1 -1214588.30 1032.74  -2
  -1   1  1214588.30 1032.74   1
   1  -1  1217911.30 1197.08  -2
   1   1 -1217911.30 1197.08   1
   1   1  1217334.30 1557.70  -2
   1  -1 -1217334.30 1557.70   1
  -1   1 -1215541.20  982.17  -2
  -1  -1  1215541.20  982.17   1
   1   1  1214588.80  720.52  -2
   1  -1 -1214588.80  720.52   1
  -1  -1 -1215179.60  687.46  -2
  -1   1  1215179.60  687.46   1
   1   1  1127412.10 1322.93  -2
   1  -1 -1127412.10 1322.93   1
   1   1  1132436.60 2124.56  -2
   1  -1 -1132436.60 2124.56   1
   1  -1  1125663.30  758.17  -2
   1   1 -1125663.30  758.17   1
   1  -1  1133542.10 1571.71  -2
   1   1 -1133542.10 1571.71   1
   1  -1  1130345.70 1542.18  -2
   1   1 -1130345.70 1542.18   1
   1  -1  1128811.60  907.35  -2
   1   1 -1128811.60  907.35   1
   1   1  1129090.00  968.06  -2
   1  -1 -1129090.00  968.06   1
  -1   1 -1127354.00 1921.41  -2
  -1  -1  1127354.00 1921.41   1
  -1  -1 -1126587.50  913.03  -2
  -1   1  1126587.50  913.03   1
  -1  -1 -1127281.20 1331.89  -2
  -1   1  1127281.20 1331.89   1
   1  -1  1050309.30  945.98  -2
   1   1 -1050309.30  945.98   1
  -1  -1 -1054991.60 1782.00  -2
  -1   1  1054991.60 1782.00   1
   1  -1  1066467.10 2093.48  -2
   1   1 -1066467.10 2093.48   1
  -1  -1 -1051977.90 1252.12  -2
  -1   1  1051977.90 1252.12   1
   1  -1  1058912.80 1303.44  -2
   1   1 -1058912.80 1303.44   1
   1   1  1059793.60 1287.09  -2
   1  -1 -1059793.60 1287.09   1
  -1   1 -1050879.30 2614.65  -2
  -1  -1  1050879.30 2614.65   1
   1   1  1063241.40 2932.32  -2
   1  -1 -1063241.40 2932.32   1
   1   1  1056776.80 1790.64  -2
   1  -1 -1056776.80 1790.64   1
   1  -1  1058496.20 2000.13  -2
   1   1 -1058496.20 2000.13   1
   1   1   912172.00  777.45  -2
   1  -1  -912172.00  777.45   1
   1   1   913722.70 1386.48  -2
   1  -1  -913722.70 1386.48   1
   1  -1   912328.10  612.77  -2
   1   1  -912328.10  612.77   1
   1  -1   910196.30  373.93  -2
   1   1  -910196.30  373.93   1
  -1   1  -911022.10 1242.78  -2
  -1  -1   911022.10 1242.78   1
   1  -1   913531.90  916.64  -2
   1   1  -913531.90  916.64   1
   1  -1   912196.80  831.78  -2
   1   1  -912196.80  831.78   1
   1   1   912389.10  550.27  -2
   1  -1  -912389.10  550.27   1
  -1  -1  -911116.70  588.79  -2
  -1   1   911116.70  588.79   1
  -1  -1  -912046.90  787.40  -2
  -1   1   912046.90  787.40   1
   1   1   815289.60  586.80  -2
   1  -1  -815289.60  586.80   1
  -1  -1  -815088.90  832.65  -2
  -1   1   815088.90  832.65   1
   1  -1   815405.90  928.52  -2
   1   1  -815405.90  928.52   1
  -1  -1  -813798.90  655.24  -2
  -1   1   813798.90  655.24   1
   1  -1   814630.20  840.62  -2
   1   1  -814630.20  840.62   1
  -1   1  -813415.00 1370.41  -2
  -1  -1   813415.00 1370.41   1
   1   1   816767.90 1505.93  -2
   1  -1  -816767.90 1505.93   1
   1   1   814608.70  792.61  -2
   1  -1  -814608.70  792.61   1
   1  -1   7  541.06   63.36  -2
   1   1  -7  541.06   63.36   1
   1   1   7  776.59  127.94  -2
   1  -1  -7  776.59  127.94   1
   1  -1   7 1017.96  217.63  -2
   1   1  -7 1017.96  217.63   1
   1  -1   7  937.82  233.51  -2
   1   1  -7  937.82  233.51   1
  -1  -1  -7  843.05  183.71  -2
  -1   1   7  843.05  183.71   1
   1   1   7 1194.99  425.72  -2
   1  -1  -7 1194.99  425.72   1
  -1  -1  -7 1004.03  208.63  -2
  -1   1   7 1004.03  208.63   1
   1   1   7 1042.17  214.94  -2
   1  -1  -7 1042.17  214.94   1
  -1   1  -7  745.97  383.94  -2
  -1  -1   7  745.97  383.94   1
   1   1   6 5766.89  439.03  -2
   1  -1  -6 5766.89  439.03   1
   1  -1   6 5135.65  494.09  -2
   1   1  -6 5135.65  494.09   1
  -1  -1  -6 5155.61  309.33  -2
  -1   1   6 5155.61  309.33   1
  -1   1  -6 4685.75  821.98  -2
  -1  -1   6 4685.75  821.98   1
  -1  -1  -6 5531.38  425.10  -2
  -1   1   6 5531.38  425.10   1
   1   1   6 6374.29  956.18  -2
   1  -1  -6 6374.29  956.18   1
  -1  -1  -6 5237.93  420.84  -2
  -1   1   6 5237.93  420.84   1
   1  -1   6 5270.10  427.77  -2
   1   1  -6 5270.10  427.77   1
   1   1   6 5404.42  338.20  -2
   1  -1  -6 5404.42  338.20   1
   1  -1   512066.90  730.18  -2
   1   1  -512066.90  730.18   1
   1   1   512920.70  598.99  -2
   1  -1  -512920.70  598.99   1
  -1  -1  -513255.50  662.64  -2
  -1   1   513255.50  662.64   1
  -1   1  -512080.70 1315.14  -2
  -1  -1   512080.70 1315.14   1
   1   1   511663.40  823.91  -2
   1  -1  -511663.40  823.91   1
   1  -1   512889.80  611.40  -2
   1   1  -512889.80  611.40   1
  -1  -1  -512335.50  446.63  -2
  -1   1   512335.50  446.63   1
   1   1   514093.50  562.62  -2
   1  -1  -514093.50  562.62   1
  -1  -1  -512598.70  567.63  -2
  -1   1   512598.70  567.63   1
  -1   1  -510163.00  298.10  -2
  -1  -1   510163.00  298.10   1
  -1  -1  -462555.10 1432.09  -2
  -1   1   462555.10 1432.09   1
  -1  -1  -461910.70  997.76  -2
  -1   1   461910.70  997.76   1
   1  -1   461896.80 1594.72  -2
   1   1  -461896.80 1594.72   1
   1   1   463730.30 1205.97  -2
   1  -1  -463730.30 1205.97   1
  -1  -1  -462156.50 1127.89  -2
  -1   1   462156.50 1127.89   1
  -1   1  -457052.30  717.25  -2
  -1  -1   457052.30  717.25   1
   1   1   462411.50 1213.90  -2
   1  -1  -462411.50 1213.90   1
   1   1   461537.30 1846.19  -2
   1  -1  -461537.30 1846.19   1
   1   1   459408.20 1180.76  -2
   1  -1  -459408.20 1180.76   1
   1   1   3  311789    2806  -2
   1  -1  -3  311789    2806   1
  -1  -1  -3  303938    2352  -2
  -1   1   3  303938    2352   1
  -1   1  -3  307613    1905  -2
  -1  -1   3  307613    1905   1
   1  -1   3  304168    3455  -2
   1   1  -3  304168    3455   1
  -1  -1  -3  306506    2398  -2
  -1   1   3  306506    2398   1
   1   1   3  299615    3990  -2
   1  -1  -3  299615    3990   1
  -1  -1  -3  303816    3091  -2
  -1   1   3  303816    3091   1
   1   1   3  307550    2375  -2
   1  -1  -3  307550    2375   1
   1   1   2  619270    4157  -2
   1  -1  -2  619270    4157   1
  -1  -1  -2  561586    4065  -2
  -1   1   2  561586    4065   1
  -1  -1  -2  642684    3697  -2
  -1   1   2  642684    3697   1
   1   1   2  596073    5512  -2
   1  -1  -2  596073    5512   1
   1   1   2  604520    2859  -2
   1  -1  -2  604520    2859   1
  -1  -1  -2  600573    3030  -2
  -1   1   2  600573    3030   1
   1  -1   2  603823    4747  -2
   1   1  -2  603823    4747   1
   1  -1   147387.80 1330.04  -2
   1   1  -147387.80 1330.04   1
  -1  -1  -146855.20  693.56  -2
  -1   1   146855.20  693.56   1
  -1  -1  -149508.00 1097.05  -2
  -1   1   149508.00 1097.05   1
   1   1   145398.80  706.84  -2
   1  -1  -145398.80  706.84   1
   1  -1   039176.30 1283.69  -2
   1   1   039176.30 1283.69   1
   1  -1   040150.60  922.65  -2
   1   1   040150.60  922.65   1
  -1  -1   041438.00 1079.89  -2
  -1   1   041438.00 1079.89   1
  -1  -1   038793.40 1065.24  -2
  -1   1   038793.40 1065.24   1
   1  -1   039059.60 1185.69  -2
   1   1   039059.60 1185.69   1
  -1   1   1 2513.16  248.06  -2
  -1  -1  -1 2513.16  248.06   1
  -1  -1   1 2277.88  167.78  -2
  -1   1  -1 2277.88  167.78   1
   1  -1  -1 1684.52  232.44  -2
   1   1   1 1684.52  232.44   1
   1  -1  -1 2401.31  327.77  -2
   1   1   1 2401.31  327.77   1
  -1  -1   1 2930.72  314.73  -2
  -1   1  -1 2930.72  314.73   1
   1  -1  -1 2793.06  260.22  -2
   1   1   1 2793.06  260.22   1
  -1   1   2  104394    1737  -2
  -1  -1  -2  104394    1737   1
  -1  -1   2  101369    1571  -2
  -1   1  -2  101369    1571   1
  -1  -1   2  100795    1905  -2
  -1   1  -2  100795    1905   1
  -1   1   2  103214    2197  -2
  -1  -1  -2  103214    2197   1
   1  -1  -298774.10 1622.08  -2
   1   1   298774.10 1622.08   1
   1  -1  -320898.00  819.69  -2
   1   1   320898.00  819.69   1
  -1  -1   321341.10  937.61  -2
  -1   1  -321341.10  937.61   1
  -1   1   321502.00  866.64  -2
  -1  -1  -321502.00  866.64   1
  -1  -1   321363.10  800.33  -2
  -1   1  -321363.10  800.33   1
  -1  -1   320544.80  788.58  -2
  -1   1  -320544.80  788.58   1
  -1  -1   486401.40 1770.05  -2
  -1   1  -486401.40 1770.05   1
  -1   1   488171.20 1818.99  -2
  -1  -1  -488171.20 1818.99   1
   1   1  -481923.40 3161.26  -2
   1  -1   481923.40 3161.26   1
   1  -1  -483816.50 1762.06  -2
   1   1   483816.50 1762.06   1
  -1  -1   483220.70 1950.75  -2
  -1   1  -483220.70 1950.75   1
  -1  -1   479548.40 1537.23  -2
  -1   1  -479548.40 1537.23   1
  -1   1   527401.80 1069.42  -2
  -1  -1  -527401.80 1069.42   1
  -1  -1   526020.00 1132.23  -2
  -1   1  -526020.00 1132.23   1
   1   1  -527394.70 1820.33  -2
   1  -1   527394.70 1820.33   1
   1  -1  -526697.20 1065.36  -2
   1   1   526697.20 1065.36   1
  -1  -1   525240.50  877.00  -2
  -1   1  -525240.50  877.00   1
  -1  -1   526835.00 1067.96  -2
  -1   1  -526835.00 1067.96   1
   1   1  -526487.60  988.74  -2
   1  -1   526487.60  988.74   1
   1   1  -692901.40 3342.06  -2
   1  -1   692901.40 3342.06   1
   1   1  -691726.20 1935.10  -2
   1  -1   691726.20 1935.10   1
   1  -1  -691884.50 2114.31  -2
   1   1   691884.50 2114.31   1
  -1  -1   686663.40 1570.95  -2
  -1   1  -686663.40 1570.95   1
  -1  -1   694012.40 2181.25  -2
  -1   1  -694012.40 2181.25   1
  -1  -1   690132.00 2188.16  -2
  -1   1  -690132.00 2188.16   1
  -1   1   697760.80 2163.28  -2
  -1  -1  -697760.80 2163.28   1
   1  -1  -7 1699.82  322.60  -2
   1   1   7 1699.82  322.60   1
  -1   1   7 1659.05  305.96  -2
  -1  -1  -7 1659.05  305.96   1
   1   1  -7 1857.49  307.07  -2
   1  -1   7 1857.49  307.07   1
   1   1  -7 1531.51  454.47  -2
   1  -1   7 1531.51  454.47   1
  -1  -1   7 1539.87  218.18  -2
  -1   1  -7 1539.87  218.18   1
  -1  -1   7 1880.18  330.91  -2
  -1   1  -7 1880.18  330.91   1
  -1   1   7 1688.97  533.74  -2
  -1  -1  -7 1688.97  533.74   1
  -1  -1   8 7684.19  747.16  -2
  -1   1  -8 7684.19  747.16   1
  -1   1   8 7209.51 1024.81  -2
  -1  -1  -8 7209.51 1024.81   1
   1   1  -8 7698.93  952.73  -2
   1  -1   8 7698.93  952.73   1
   1   1  -8 6595.12  610.88  -2
   1  -1   8 6595.12  610.88   1
  -1  -1   8 6683.77  424.25  -2
  -1   1  -8 6683.77  424.25   1
   1  -1  -8 7400.17  690.92  -2
   1   1   8 7400.17  690.92   1
   1   1  -912293.80 1196.17  -2
   1  -1   912293.80 1196.17   1
   1  -1  -914877.20 1000.31  -2
   1   1   914877.20 1000.31   1
   1   1  -913284.90  891.37  -2
   1  -1   913284.90  891.37   1
  -1   1   912414.10 1328.00  -2
  -1  -1  -912414.10 1328.00   1
  -1  -1   911722.80  558.42  -2
  -1   1  -911722.80  558.42   1
   1  -1 -1016748.00 1123.15  -2
   1   1  1016748.00 1123.15   1
  -1   1  1015546.30 1395.63  -2
  -1  -1 -1015546.30 1395.63   1
   1   1 -1014977.30 1296.68  -2
   1  -1  1014977.30 1296.68   1
   1   1 -1015968.80 1018.98  -2
   1  -1  1015968.80 1018.98   1
  -1  -1  1013881.20  598.16  -2
  -1   1 -1013881.20  598.16   1
   1   1 -11 2133.85  503.37  -2
   1  -1  11 2133.85  503.37   1
   1  -1 -11 2000.81  413.57  -2
   1   1  11 2000.81  413.57   1
  -1  -1  11 2042.63  232.90  -2
  -1   1 -11 2042.63  232.90   1
   1   1 -11 2566.39  452.57  -2
   1  -1  11 2566.39  452.57   1
  -1   1  11 2355.21  549.90  -2
  -1  -1 -11 2355.21  549.90   1
   1  -1 -1211429.30 1001.94  -2
   1   1  1211429.30 1001.94   1
  -1  -1  1210234.70  490.24  -2
  -1   1 -1210234.70  490.24   1
   1   1 -1211235.00  943.45  -2
   1  -1  1211235.00  943.45   1
   1  -1 -1212474.40  588.55  -2
   1   1  1212474.40  588.55   1
   1   1 -1211624.00 1102.08  -2
   1  -1  1211624.00 1102.08   1
  -1   1  12 9984.13 1088.07  -2
  -1  -1 -12 9984.13 1088.07   1
  -1   1  1311009.70 1130.37  -2
  -1  -1 -1311009.70 1130.37   1
   1  -1 -1312548.70 1100.61  -2
   1   1  1312548.70 1100.61   1
  -1  -1  1311013.60  498.89  -2
  -1   1 -1311013.60  498.89   1
   1  -1 -1313318.90  590.67  -2
   1   1  1313318.90  590.67   1
   1   1 -1311330.40 1018.26  -2
   1  -1  1311330.40 1018.26   1
   1   1 -1311781.70 1100.24  -2
   1  -1  1311781.70 1100.24   1
   1  -1 -14 5024.20  771.94  -2
   1   1  14 5024.20  771.94   1
   1   1 -14 5365.48  752.51  -2
   1  -1  14 5365.48  752.51   1
  -1  -1  14 5640.02  358.46  -2
  -1   1 -14 5640.02  358.46   1
   1  -1 -14 6432.23  401.66  -2
   1   1  14 6432.23  401.66   1
  -1   1  14 5217.29  772.29  -2
  -1  -1 -14 5217.29  772.29   1
   1   1 -14 5438.92  727.01  -2
   1  -1  14 5438.92  727.01   1
   1   1 -15  422.95  226.48  -2
   1  -1  15  422.95  226.48   1
   1  -1 -15  535.78  268.16  -2
   1   1  15  535.78  268.16   1
  -1   1  15  314.52  189.47  -2
  -1  -1 -15  314.52  189.47   1
   1  -1 -15  452.33  107.73  -2
   1   1  15  452.33  107.73   1
   1   1 -15  501.01  293.21  -2
   1  -1  15  501.01  293.21   1
   1  -1 -16 4960.18  351.87  -2
   1   1  16 4960.18  351.87   1
   1   1 -16 4053.42  616.06  -2
   1  -1  16 4053.42  616.06   1
   1   1 -16 5152.31  748.85  -2
   1  -1  16 5152.31  748.85   1
   1  -1 -16 4789.38  791.32  -2
   1   1  16 4789.38  791.32   1
  -1   1  16 3856.52  638.69  -2
  -1  -1 -16 3856.52  638.69   1
   1   1 -17  646.95  376.62  -2
   1  -1  17  646.95  376.62   1
  -1   1  17  239.24  202.99  -2
  -1  -1 -17  239.24  202.99   1
   1  -1 -17  242.37   95.15  -2
   1   1  17  242.37   95.15   1
   1  -1 -17  -90.29  319.13  -2
   1   1  17  -90.29  319.13   1
   1  -1 -18 -116.48  340.19  -2
   1   1  18 -116.48  340.19   1
   1   1 -18  376.06  326.33  -2
   1  -1  18  376.06  326.33   1
   1  -1 -18  180.82   88.86  -2
   1   1  18  180.82   88.86   1
   1  -1 -19 2869.82  675.49  -2
   1   1  19 2869.82  675.49   1
   1   1 -19 3177.49  658.70  -2
   1  -1  19 3177.49  658.70   1
   1   1 -20 4938.39  825.08  -2
   1  -1  20 4938.39  825.08   1
   1  -1 -20 5493.68  910.93  -2
   1   1  20 5493.68  910.93   1
   1  -1 -21  443.78  323.98  -2
   1   1  21  443.78  323.98   1
   1   1 -21 1484.51  503.94  -2
   1  -1  21 1484.51  503.94   1
   1  -1 -22 9875.86 1426.04  -2
   1   1  22 9875.86 1426.04   1
   1   1 -22 9772.43 1251.29  -2
   1  -1  22 9772.43 1251.29   1
   1   1 -23  343.62  333.36  -2
   1  -1  23  343.62  333.36   1
   1  -1 -23   66.27  229.74  -2
   1   1  23   66.27  229.74   1
   1  -1 -24  111.78  219.03  -2
   1   1  24  111.78  219.03   1
  -1  -1  24 -155.96  423.93  -2
  -1   1 -24 -155.96  423.93   1
   1   1 -24  301.35  349.42  -2
   1  -1  24  301.35  349.42   1
   1  -1 -25 -205.85  212.34  -2
   1   1  25 -205.85  212.34   1
  -1  -1  25 -589.03  461.54  -2
  -1   1 -25 -589.03  461.54   1
   1   1 -25  379.81  372.96  -2
   1  -1  25  379.81  372.96   1
   1   1 -26  165.11  292.54  -2
   1  -1  26  165.11  292.54   1
   1  -1 -26  -71.96  222.27  -2
   1   1  26  -71.96  222.27   1
   1  -1 -27  239.12  402.68  -2
   1   1  27  239.12  402.68   1
  -1  -1  27 -545.36  438.04  -2
  -1   1 -27 -545.36  438.04   1
   1   1 -27  340.11  424.37  -2
   1  -1  27  340.11  424.37   1
   1   1 -28  183.57  291.79  -2
   1  -1  28  183.57  291.79   1
   1  -1 -28  474.51  426.61  -2
   1   1  28  474.51  426.61   1
  -1  -1  28   53.08  361.87  -2
  -1   1 -28   53.08  361.87   1
   1  -1 -29  592.45  427.60  -2
   1   1  29  592.45  427.60   1
   1   1 -29  513.04  412.29  -2
   1  -1  29  513.04  412.29   1
  -1  -1  29 -231.93  378.84  -2
  -1   1 -29 -231.93  378.84   1
  -1  -1  30 -121.26  328.25  -2
  -1   1 -30 -121.26  328.25   1
  -1  -1  31   75.59  246.82  -2
  -1   1 -31   75.59  246.82   1
  -1  -2 -30  -89.53  350.84  -2
  -1   2  30  -89.53  350.84   1
  -1  -2 -29 -118.28  235.93  -2
  -1   2  29 -118.28  235.93   1
   1  -2  28   62.31  277.42  -2
   1   2 -28   62.31  277.42   1
  -1  -2 -28    1.60  227.94  -2
  -1   2  28    1.60  227.94   1
   1  -2  27  335.16  356.03  -2
   1   2 -27  335.16  356.03   1
  -1  -2 -27  102.82  297.02  -2
  -1   2  27  102.82  297.02   1
   1  -2  26  112.45  226.92  -2
   1   2 -26  112.45  226.92   1
  -1  -2 -26  279.40  311.57  -2
  -1   2  26  279.40  311.57   1
   1  -2  25 -108.54  213.72  -2
   1   2 -25 -108.54  213.72   1
  -1  -2 -25  -39.29  313.19  -2
  -1   2  25  -39.29  313.19   1
   1  -2  24  569.91  342.76  -2
   1   2 -24  569.91  342.76   1
  -1  -2 -24  587.41  338.89  -2
  -1   2  24  587.41  338.89   1
  -1  -2 -23 2011.92  591.91  -2
  -1   2  23 2011.92  591.91   1
   1  -2  23 1050.20  424.48  -2
   1   2 -23 1050.20  424.48   1
  -1  -2 -22  110.19  233.27  -2
  -1   2  22  110.19  233.27   1
   1  -2  22  357.71  277.89  -2
   1   2 -22  357.71  277.89   1
   1  -2  21  -56.14  188.14  -2
   1   2 -21  -56.14  188.14   1
  -1  -2 -21 -252.83  340.50  -2
  -1   2  21 -252.83  340.50   1
   1  -2  21 -204.17  275.24  -2
   1   2 -21 -204.17  275.24   1
   1  -2  20 5660.22  956.22  -2
   1   2 -20 5660.22  956.22   1
  -1  -2 -20 5529.08  889.94  -2
  -1   2  20 5529.08  889.94   1
   1  -2  20 4420.62  495.70  -2
   1   2 -20 4420.62  495.70   1
   1  -2  19 6108.09  935.31  -2
   1   2 -19 6108.09  935.31   1
  -1  -2 -19 6260.26  932.02  -2
  -1   2  19 6260.26  932.02   1
   1  -2  19 5013.89  525.14  -2
   1   2 -19 5013.89  525.14   1
   1   2  19 6187.50 1054.79  -2
   1  -2 -19 6187.50 1054.79   1
   1  -2  19 5958.54  422.39  -2
   1   2 -19 5958.54  422.39   1
   1   2  18 -214.02  234.84  -2
   1  -2 -18 -214.02  234.84   1
   1  -2  18  -29.83  141.48  -2
   1   2 -18  -29.83  141.48   1
   1  -2  18 -322.84  187.49  -2
   1   2 -18 -322.84  187.49   1
   1  -2  18   91.83   77.49  -2
   1   2 -18   91.83   77.49   1
  -1  -2 -18   58.59  216.62  -2
  -1   2  18   58.59  216.62   1
   1  -2  17  192.86   89.93  -2
   1   2 -17  192.86   89.93   1
   1  -2  17  194.01  196.27  -2
   1   2 -17  194.01  196.27   1
  -1  -2 -17  167.73  135.68  -2
  -1   2  17  167.73  135.68   1
   1  -2  17  371.32  140.41  -2
   1   2 -17  371.32  140.41   1
   1  -2  1619879.10  847.17  -2
   1   2 -1619879.10  847.17   1
  -1  -2 -1618683.00 1406.48  -2
  -1   2  1618683.00 1406.48   1
   1   2  1620072.40 1931.51  -2
   1  -2 -1620072.40 1931.51   1
   1  -2  1619041.60 1469.31  -2
   1   2 -1619041.60 1469.31   1
  -1   2 -1613379.70 1512.04  -2
  -1  -2  1613379.70 1512.04   1
   1  -2  1615123.00  812.31  -2
   1   2 -1615123.00  812.31   1
  -1  -2 -1516211.50 1281.72  -2
  -1   2  1516211.50 1281.72   1
   1  -2  1519332.80 1440.77  -2
   1   2 -1519332.80 1440.77   1
   1  -2  1514341.60  746.38  -2
   1   2 -1514341.60  746.38   1
   1   2  1520528.00 2000.12  -2
   1  -2 -1520528.00 2000.12   1
  -1   2 -1513279.60 1541.72  -2
  -1  -2  1513279.60 1541.72   1
  -1  -2 -14 9625.71  943.39  -2
  -1   2  14 9625.71  943.39   1
   1  -2  14 9886.22 1005.70  -2
   1   2 -14 9886.22 1005.70   1
   1  -2  14 8777.79  570.78  -2
   1   2 -14 8777.79  570.78   1
  -1   2 -14 9020.19 1296.14  -2
  -1  -2  14 9020.19 1296.14   1
   1  -2  1317419.40 1267.38  -2
   1   2 -1317419.40 1267.38   1
  -1  -2 -1315408.50 1145.07  -2
  -1   2  1315408.50 1145.07   1
   1  -2  1315046.50  722.86  -2
   1   2 -1315046.50  722.86   1
   1   2  12 1573.08  281.17  -2
   1  -2 -12 1573.08  281.17   1
  -1  -2 -12 1778.20  399.58  -2
  -1   2  12 1778.20  399.58   1
   1  -2  12 1937.48  429.25  -2
   1   2 -12 1937.48  429.25   1
   1  -2  12 1943.04  268.38  -2
   1   2 -12 1943.04  268.38   1
   1  -2  11 1420.86  337.72  -2
   1   2 -11 1420.86  337.72   1
   1   2  11 1170.29  239.05  -2
   1  -2 -11 1170.29  239.05   1
  -1  -2 -11 1441.76  329.08  -2
  -1   2  11 1441.76  329.08   1
   1  -2  11 1474.34  208.72  -2
   1   2 -11 1474.34  208.72   1
  -1  -2 -1012491.90  876.93  -2
  -1   2  1012491.90  876.93   1
   1  -2  1012387.60  553.32  -2
   1   2 -1012387.60  553.32   1
   1   2  1012374.60  714.14  -2
   1  -2 -1012374.60  714.14   1
   1  -2  1013988.80 1022.87  -2
   1   2 -1013988.80 1022.87   1
   1   2   9  395.44  138.53  -2
   1  -2  -9  395.44  138.53   1
   1  -2   9  340.30   88.31  -2
   1   2  -9  340.30   88.31   1
   1  -2   9  504.47  195.96  -2
   1   2  -9  504.47  195.96   1
   1  -2   9  743.33  247.06  -2
   1   2  -9  743.33  247.06   1
   1   2   9  638.99  260.94  -2
   1  -2  -9  638.99  260.94   1
   1   2   9  539.47  189.81  -2
   1  -2  -9  539.47  189.81   1
  -1  -2  -9  330.49  118.37  -2
  -1   2   9  330.49  118.37   1
  -1   2  -9  356.83  110.23  -2
  -1  -2   9  356.83  110.23   1
   1  -2   870128.80 1235.58  -2
   1   2  -870128.80 1235.58   1
  -1   2  -868285.10 1430.61  -2
  -1  -2   868285.10 1430.61   1
   1  -2   864628.80 1899.42  -2
   1   2  -864628.80 1899.42   1
   1   2   865028.20 2110.82  -2
   1  -2  -865028.20 2110.82   1
   1   2   870334.50 1624.30  -2
   1  -2  -870334.50 1624.30   1
   1   2   870647.80 1977.60  -2
   1  -2  -870647.80 1977.60   1
   1  -2   873055.30 2155.23  -2
   1   2  -873055.30 2155.23   1
  -1  -2  -867202.80 1825.17  -2
  -1   2   867202.80 1825.17   1
  -1  -2  -7  144969    2513  -2
  -1   2   7  144969    2513   1
   1   2   7  145876    3093  -2
   1  -2  -7  145876    3093   1
  -1   2  -7  145033    1983  -2
  -1  -2   7  145033    1983   1
   1   2   7  152829    2350  -2
   1  -2  -7  152829    2350   1
  -1  -2  -7  149701    2168  -2
  -1   2   7  149701    2168   1
   1  -2   7  146438    1735  -2
   1   2  -7  146438    1735   1
   1   2   7  153518    2770  -2
   1  -2  -7  153518    2770   1
  -1  -2  -640049.40 1242.88  -2
  -1   2   640049.40 1242.88   1
   1  -2   645250.20 1609.18  -2
   1   2  -645250.20 1609.18   1
   1  -2   642160.60  952.53  -2
   1   2  -642160.60  952.53   1
   1   2   641783.00 1622.20  -2
   1  -2  -641783.00 1622.20   1
  -1   2  -641401.00 1010.69  -2
  -1  -2   641401.00 1010.69   1
   1   2   642268.70 1402.03  -2
   1  -2  -642268.70 1402.03   1
   1   2   644290.00 1287.57  -2
   1  -2  -644290.00 1287.57   1
  -1  -2  -645321.70 1191.22  -2
  -1   2   645321.70 1191.22   1
   1   2   521636.40 1121.95  -2
   1  -2  -521636.40 1121.95   1
   1  -2   522513.20  716.59  -2
   1   2  -522513.20  716.59   1
   1  -2   520845.80 1071.85  -2
   1   2  -520845.80 1071.85   1
  -1   2  -522237.40  710.34  -2
  -1  -2   522237.40  710.34   1
   1   2   523030.30  921.42  -2
   1  -2  -523030.30  921.42   1
  -1  -2  -523053.80  796.56  -2
  -1   2   523053.80  796.56   1
  -1  -2  -522482.90  940.32  -2
  -1   2   522482.90  940.32   1
   1  -2   4 3142.51  407.95  -2
   1   2  -4 3142.51  407.95   1
  -1  -2  -4 3442.23  315.21  -2
  -1   2   4 3442.23  315.21   1
   1   2   4 3882.15  403.56  -2
   1  -2  -4 3882.15  403.56   1
  -1  -2  -4 2824.94  418.61  -2
  -1   2   4 2824.94  418.61   1
  -1  -2  -4 3040.57  327.05  -2
  -1   2   4 3040.57  327.05   1
  -1   2  -4 3234.89  263.03  -2
  -1  -2   4 3234.89  263.03   1
  -1  -2  -3 1862.64  258.34  -2
  -1   2   3 1862.64  258.34   1
   1  -2   3 1696.25  291.54  -2
   1   2  -3 1696.25  291.54   1
   1   2   3 1948.98  280.24  -2
   1  -2  -3 1948.98  280.24   1
  -1   2  -3 1764.66  202.78  -2
  -1  -2   3 1764.66  202.78   1
  -1  -2  -3 1777.04  327.39  -2
  -1   2   3 1777.04  327.39   1
  -1  -2  -3 1735.96  217.32  -2
  -1   2   3 1735.96  217.32   1
   1  -2   218169.10  950.37  -2
   1   2  -218169.10  950.37   1
  -1  -2  -218756.70 1053.46  -2
  -1   2   218756.70 1053.46   1
  -1   2  -221470.40  745.38  -2
  -1  -2   221470.40  745.38   1
   1   2   220268.30  915.52  -2
   1  -2  -220268.30  915.52   1
  -1  -2  -221273.60  794.10  -2
  -1   2   221273.60  794.10   1
  -1  -2  -119301.30  795.15  -2
  -1   2   119301.30  795.15   1
  -1   2  -119023.20  746.60  -2
  -1  -2   119023.20  746.60   1
   1  -2   116783.30  911.80  -2
   1   2  -116783.30  911.80   1
   1  -2   041476.40 1310.39  -2
   1   2   041476.40 1310.39   1
   1  -2   040117.00 1384.61  -2
   1   2   040117.00 1384.61   1
   1  -2   039793.10 1196.29  -2
   1   2   039793.10 1196.29   1
  -1  -2   043203.50 1243.08  -2
  -1   2   043203.50 1243.08   1
   1  -2  -135130.60 1251.60  -2
   1   2   135130.60 1251.60   1
  -1  -2   138946.00 1205.83  -2
  -1   2  -138946.00 1205.83   1
   1  -2  -138756.80 1220.77  -2
   1   2   138756.80 1220.77   1
   1  -2  -138818.40 1225.03  -2
   1   2   138818.40 1225.03   1
  -1  -2   227471.30  580.94  -2
  -1   2  -227471.30  580.94   1
   1  -2  -232636.90 1177.64  -2
   1   2   232636.90 1177.64   1
  -1  -2   231898.00 1155.28  -2
  -1   2  -231898.00 1155.28   1
   1  -2  -227519.70 1125.07  -2
   1   2   227519.70 1125.07   1
   1  -2  -321997.00  983.83  -2
   1   2   321997.00  983.83   1
  -1   2   323531.30 1037.62  -2
  -1  -2  -323531.30 1037.62   1
  -1  -2   321542.60  973.79  -2
  -1   2  -321542.60  973.79   1
  -1   2   324073.80  979.15  -2
  -1  -2  -324073.80  979.15   1
  -1   2   481608.00 1821.76  -2
  -1  -2  -481608.00 1821.76   1
  -1  -2   475250.60 1903.96  -2
  -1   2  -475250.60 1903.96   1
   1  -2  -475240.80 1843.14  -2
   1   2   475240.80 1843.14   1
  -1   2   520069.40 1038.11  -2
  -1  -2  -520069.40 1038.11   1
  -1  -2   518166.70  982.90  -2
  -1   2  -518166.70  982.90   1
  -1   2   519621.90  906.84  -2
  -1  -2  -519621.90  906.84   1
  -1  -2   518558.70  948.45  -2
  -1   2  -518558.70  948.45   1
   1  -2  -517786.20  929.14  -2
   1   2   517786.20  929.14   1
  -1  -2   613212.30  862.77  -2
  -1   2  -613212.30  862.77   1
   1  -2  -611266.10  775.92  -2
   1   2   611266.10  775.92   1
  -1  -2   611444.30  785.05  -2
  -1   2  -611444.30  785.05   1
  -1  -2   716939.00 1038.61  -2
  -1   2  -716939.00 1038.61   1
   1  -2  -716876.70  998.74  -2
   1   2   716876.70  998.74   1
   1  -2  -812359.80  878.31  -2
   1   2   812359.80  878.31   1
  -1  -2   811994.00  902.74  -2
  -1   2  -811994.00  902.74   1
   1  -2  -946601.80 1806.81  -2
   1   2   946601.80 1806.81   1
  -1  -2   944894.00 1822.07  -2
  -1   2  -944894.00 1822.07   1
   1  -2 -1016230.80 1122.28  -2
   1   2  1016230.80 1122.28   1
  -1  -2  1016797.70 1147.74  -2
  -1   2 -1016797.70 1147.74   1
  -1  -2  1113981.40 1086.48  -2
  -1   2 -1113981.40 1086.48   1
   1  -2 -1114154.80 1092.72  -2
   1   2  1114154.80 1092.72   1
  -1  -2  12 7346.58  806.17  -2
  -1   2 -12 7346.58  806.17   1
   1  -2 -12 7375.38  849.72  -2
   1   2  12 7375.38  849.72   1
   1  -2 -13 5395.75  770.05  -2
   1   2  13 5395.75  770.05   1
  -1  -2  13 4235.20  691.35  -2
  -1   2 -13 4235.20  691.35   1
  -1  -2  13 4745.19  428.86  -2
  -1   2 -13 4745.19  428.86   1
   1  -2 -14 2253.73  491.61  -2
   1   2  14 2253.73  491.61   1
  -1  -2  14 2085.50  447.02  -2
  -1   2 -14 2085.50  447.02   1
  -1  -2  14 1958.07  273.93  -2
  -1   2 -14 1958.07  273.93   1
  -1  -2  15 3988.79  679.84  -2
  -1   2 -15 3988.79  679.84   1
   1   2 -15 4715.46  847.79  -2
   1  -2  15 4715.46  847.79   1
  -1  -2  15 3503.83  336.27  -2
  -1   2 -15 3503.83  336.27   1
   1  -2 -15 4600.45  738.78  -2
   1   2  15 4600.45  738.78   1
   1  -2 -1616547.50 1427.26  -2
   1   2  1616547.50 1427.26   1
  -1  -2  1612295.80  600.45  -2
  -1   2 -1612295.80  600.45   1
  -1  -2  1615253.30 1280.35  -2
  -1   2 -1615253.30 1280.35   1
   1   2 -1614641.50 1420.31  -2
   1  -2  1614641.50 1420.31   1
  -1   2  1612296.70 1461.37  -2
  -1  -2 -1612296.70 1461.37   1
  -1  -2  1729474.90 1822.48  -2
  -1   2 -1729474.90 1822.48   1
  -1   2  1721230.50 1827.19  -2
  -1  -2 -1721230.50 1827.19   1
   1   2 -1727489.80 1880.33  -2
   1  -2  1727489.80 1880.33   1
  -1  -2  1722244.80  785.89  -2
  -1   2 -1722244.80  785.89   1
   1  -2 -1730289.50 1996.32  -2
   1   2  1730289.50 1996.32   1
   1  -2 -18   42.01  160.67  -2
   1   2  18   42.01  160.67   1
   1   2 -18  383.49  299.89  -2
   1  -2  18  383.49  299.89   1
  -1  -2  18  214.14  260.31  -2
  -1   2 -18  214.14  260.31   1
   1   2 -18  306.22  198.78  -2
   1  -2  18  306.22  198.78   1
   1   2 -19  204.47  297.56  -2
   1  -2  19  204.47  297.56   1
  -1  -2  19   53.03  186.72  -2
  -1   2 -19   53.03  186.72   1
   1  -2 -19  353.54  143.10  -2
   1   2  19  353.54  143.10   1
   1  -2 -19    1.10  199.13  -2
   1   2  19    1.10  199.13   1
  -1  -2  20  316.07  189.17  -2
  -1   2 -20  316.07  189.17   1
   1  -2 -20  238.89  233.88  -2
   1   2  20  238.89  233.88   1
   1   2 -20  473.87  319.00  -2
   1  -2  20  473.87  319.00   1
   1   2 -21  420.59  320.18  -2
   1  -2  21  420.59  320.18   1
   1  -2 -21 -354.84  382.86  -2
   1   2  21 -354.84  382.86   1
  -1  -2  21 -331.07  313.38  -2
  -1   2 -21 -331.07  313.38   1
   1  -2 -22 -795.23  600.55  -2
   1   2  22 -795.23  600.55   1
  -1  -2  22 -307.68  269.08  -2
  -1   2 -22 -307.68  269.08   1
   1  -2 -23 -200.67  329.66  -2
   1   2  23 -200.67  329.66   1
  -1  -2  23  492.23  274.13  -2
  -1   2 -23  492.23  274.13   1
   1  -2 -24 -446.72  490.46  -2
   1   2  24 -446.72  490.46   1
  -1  -2  24   55.24  218.24  -2
  -1   2 -24   55.24  218.24   1
   1  -2 -25 1465.17  583.16  -2
   1   2  25 1465.17  583.16   1
  -1  -2  25 1610.74  488.12  -2
  -1   2 -25 1610.74  488.12   1
   1  -2 -26   68.49  305.21  -2
   1   2  26   68.49  305.21   1
  -1  -2  26   17.85  220.90  -2
  -1   2 -26   17.85  220.90   1
  -1  -2  27  136.40  209.18  -2
  -1   2 -27  136.40  209.18   1
   1  -2 -27 -390.16  520.03  -2
   1   2  27 -390.16  520.03   1
  -1  -2  28  264.46  293.99  -2
  -1   2 -28  264.46  293.99   1
   1  -2 -28 -235.57  351.37  -2
   1   2  28 -235.57  351.37   1
  -1  -2  29 -297.45  289.25  -2
  -1   2 -29 -297.45  289.25   1
  -1  -2  30 -126.37  265.73  -2
  -1   2 -30 -126.37  265.73   1
  -1  -2  31  -59.78  231.21  -2
  -1   2 -31  -59.78  231.21   1
  -1  -3 -29 -182.12  387.69  -2
  -1   3  29 -182.12  387.69   1
  -1  -3 -28 -344.48  397.87  -2
  -1   3  28 -344.48  397.87   1
  -1  -3 -27 -360.71  478.10  -2
  -1   3  27 -360.71  478.10   1
   1  -3  27   44.57  268.88  -2
   1   3 -27   44.57  268.88   1
  -1  -3 -26 -235.97  459.14  -2
  -1   3  26 -235.97  459.14   1
   1  -3  26  350.23  414.66  -2
   1   3 -26  350.23  414.66   1
   1  -3  25  549.55  355.85  -2
   1   3 -25  549.55  355.85   1
  -1  -3 -25 -371.45  432.86  -2
  -1   3  25 -371.45  432.86   1
   1  -3  24  172.08  314.66  -2
   1   3 -24  172.08  314.66   1
  -1  -3 -24  -75.46  331.04  -2
  -1   3  24  -75.46  331.04   1
  -1  -3 -23 -363.84  375.01  -2
  -1   3  23 -363.84  375.01   1
   1  -3  23  232.04  246.15  -2
   1   3 -23  232.04  246.15   1
  -1  -3 -22  453.73  281.73  -2
  -1   3  22  453.73  281.73   1
   1  -3  22  852.83  430.16  -2
   1   3 -22  852.83  430.16   1
  -1  -3 -21 1489.25  457.66  -2
  -1   3  21 1489.25  457.66   1
   1  -3  21 1690.37  545.29  -2
   1   3 -21 1690.37  545.29   1
  -1  -3 -20  541.81  230.33  -2
  -1   3  20  541.81  230.33   1
   1  -3  20  404.36  316.67  -2
   1   3 -20  404.36  316.67   1
   1  -3  20  627.77  252.90  -2
   1   3 -20  627.77  252.90   1
  -1  -3 -19 2024.90  554.74  -2
  -1   3  19 2024.90  554.74   1
   1  -3  19 2439.83  660.54  -2
   1   3 -19 2439.83  660.54   1
   1  -3  19 2318.91  404.49  -2
   1   3 -19 2318.91  404.49   1
   1  -3  18 5314.09  873.24  -2
   1   3 -18 5314.09  873.24   1
   1  -3  18 5927.28  606.64  -2
   1   3 -18 5927.28  606.64   1
  -1  -3 -18 4990.45  840.78  -2
  -1   3  18 4990.45  840.78   1
   1  -3  17 1535.66  463.90  -2
   1   3 -17 1535.66  463.90   1
  -1  -3 -17 1605.85  451.66  -2
  -1   3  17 1605.85  451.66   1
   1  -3  17 2144.25  378.67  -2
   1   3 -17 2144.25  378.67   1
   1  -3  16 4119.65  737.04  -2
   1   3 -16 4119.65  737.04   1
   1  -3  16 4950.01  505.95  -2
   1   3 -16 4950.01  505.95   1
  -1  -3 -16 4579.40  744.07  -2
  -1   3  16 4579.40  744.07   1
  -1  -3 -15 4186.53  667.44  -2
  -1   3  15 4186.53  667.44   1
   1  -3  15 3362.15  648.68  -2
   1   3 -15 3362.15  648.68   1
   1  -3  15 3777.92  431.00  -2
   1   3 -15 3777.92  431.00   1
   1  -3  14  159.98  101.91  -2
   1   3 -14  159.98  101.91   1
   1   3  14  440.49  241.10  -2
   1  -3 -14  440.49  241.10   1
   1  -3  14  421.87  286.49  -2
   1   3 -14  421.87  286.49   1
  -1  -3 -14  377.58  233.49  -2
  -1   3  14  377.58  233.49   1
  -1  -3 -13 3965.80  595.77  -2
  -1   3  13 3965.80  595.77   1
   1  -3  13 4317.65  682.58  -2
   1   3 -13 4317.65  682.58   1
   1   3  13 4828.45  676.31  -2
   1  -3 -13 4828.45  676.31   1
   1  -3  13 3509.31  370.47  -2
   1   3 -13 3509.31  370.47   1
   1  -3  12 2567.23  541.61  -2
   1   3 -12 2567.23  541.61   1
  -1  -3 -12 2273.33  414.51  -2
  -1   3  12 2273.33  414.51   1
  -1   3 -12 1527.01  324.10  -2
  -1  -3  12 1527.01  324.10   1
   1  -3  12 2109.02  288.51  -2
   1   3 -12 2109.02  288.51   1
   1   3  12 2100.68  425.15  -2
   1  -3 -12 2100.68  425.15   1
  -1  -3 -1128411.50 1474.14  -2
  -1   3  1128411.50 1474.14   1
   1  -3  1127343.50 1577.68  -2
   1   3 -1127343.50 1577.68   1
   1  -3  1126044.60  976.53  -2
   1   3 -1126044.60  976.53   1
   1   3  1127175.60 1475.26  -2
   1  -3 -1127175.60 1475.26   1
  -1   3 -1125259.40 1206.02  -2
  -1  -3  1125259.40 1206.02   1
   1  -3  10  178.57  132.79  -2
   1   3 -10  178.57  132.79   1
  -1   3 -10  -47.41   63.68  -2
  -1  -3  10  -47.41   63.68   1
  -1  -3 -10 -118.95  134.59  -2
  -1   3  10 -118.95  134.59   1
   1   3  10  -19.33  109.79  -2
   1  -3 -10  -19.33  109.79   1
   1  -3  10   71.34  199.44  -2
   1   3 -10   71.34  199.44   1
  -1   3  -929332.10 1191.90  -2
  -1  -3   929332.10 1191.90   1
  -1  -3  -928537.70 1354.42  -2
  -1   3   928537.70 1354.42   1
   1  -3   929142.20  993.99  -2
   1   3  -929142.20  993.99   1
   1  -3   929850.90 1558.43  -2
   1   3  -929850.90 1558.43   1
   1   3   930384.90 1502.01  -2
   1  -3  -930384.90 1502.01   1
   1  -3   8  -16.03  100.55  -2
   1   3  -8  -16.03  100.55   1
  -1   3  -8 -296.87  153.66  -2
  -1  -3   8 -296.87  153.66   1
  -1  -3  -8  160.22  162.15  -2
  -1   3   8  160.22  162.15   1
   1   3   8  127.06  160.61  -2
   1  -3  -8  127.06  160.61   1
   1  -3   8  110.60   92.07  -2
   1   3  -8  110.60   92.07   1
  -1  -3  -716213.50  970.92  -2
  -1   3   716213.50  970.92   1
  -1   3  -714762.80  779.83  -2
  -1  -3   714762.80  779.83   1
  -1  -3  -715245.00  834.53  -2
  -1   3   715245.00  834.53   1
   1  -3   715528.10  717.76  -2
   1   3  -715528.10  717.76   1
   1  -3   714431.10 1036.54  -2
   1   3  -714431.10 1036.54   1
   1  -3   6 2756.78  448.96  -2
   1   3  -6 2756.78  448.96   1
  -1  -3  -6 2627.82  356.66  -2
  -1   3   6 2627.82  356.66   1
  -1   3  -6 2704.02  339.67  -2
  -1  -3   6 2704.02  339.67   1
   1  -3   6 2658.64  305.64  -2
   1   3  -6 2658.64  305.64   1
  -1  -3  -6 2732.85  413.34  -2
  -1   3   6 2732.85  413.34   1
   1  -3   512124.80  918.30  -2
   1   3  -512124.80  918.30   1
   1  -3   512578.30  674.87  -2
   1   3  -512578.30  674.87   1
  -1  -3  -512020.90  689.57  -2
  -1   3   512020.90  689.57   1
  -1   3  -512157.70  685.90  -2
  -1  -3   512157.70  685.90   1
  -1  -3  -511157.80  765.40  -2
  -1   3   511157.80  765.40   1
  -1  -3  -510383.10  812.12  -2
  -1   3   510383.10  812.12   1
   1  -3   462496.20 2024.91  -2
   1   3  -462496.20 2024.91   1
  -1  -3  -464806.10 1584.31  -2
  -1   3   464806.10 1584.31   1
   1  -3   463127.00 1532.11  -2
   1   3  -463127.00 1532.11   1
  -1   3  -465561.60 1557.95  -2
  -1  -3   465561.60 1557.95   1
  -1  -3  -464345.10 1784.01  -2
  -1   3   464345.10 1784.01   1
   1  -3   3  105588    2604  -2
   1   3  -3  105588    2604   1
  -1  -3  -398511.00 2585.82  -2
  -1   3   398511.00 2585.82   1
  -1  -3  -3  113583    2130  -2
  -1   3   3  113583    2130   1
  -1  -3  -3  104697    2239  -2
  -1   3   3  104697    2239   1
   1   3   397411.30 1556.79  -2
   1  -3  -397411.30 1556.79   1
  -1   3  -3  106740    1966  -2
  -1  -3   3  106740    1966   1
  -1  -3  -2  250.44  119.93  -2
  -1   3   2  250.44  119.93   1
  -1   3  -2  212.22   89.24  -2
  -1  -3   2  212.22   89.24   1
   1   3   2  229.73   72.03  -2
   1  -3  -2  229.73   72.03   1
  -1  -3  -2  410.64  280.64  -2
  -1   3   2  410.64  280.64   1
   1  -3   2  -41.09  145.03  -2
   1   3  -2  -41.09  145.03   1
  -1   3  -147986.70 1365.01  -2
  -1  -3   147986.70 1365.01   1
  -1  -3  -145675.90 1335.57  -2
  -1   3   145675.90 1335.57   1
   1  -3   147198.40 1713.12  -2
   1   3  -147198.40 1713.12   1
   1   3   142418.10  835.72  -2
   1  -3  -142418.10  835.72   1
  -1  -3   0 1626.11  257.83  -2
  -1   3   0 1626.11  257.83   1
   1   3   0 1375.59  142.46  -2
   1  -3   0 1375.59  142.46   1
   1  -3   0 1392.47  284.25  -2
   1   3   0 1392.47  284.25   1
   1  -3   0 1942.65  336.78  -2
   1   3   0 1942.65  336.78   1
   1  -3  -1 1199.24  258.29  -2
   1   3   1 1199.24  258.29   1
   1  -3  -1  612.73  161.78  -2
   1   3   1  612.73  161.78   1
  -1  -3   1  813.41  118.49  -2
  -1   3  -1  813.41  118.49   1
   1  -3  -1 1059.29  213.87  -2
   1   3   1 1059.29  213.87   1
   1  -3  -2   61.10   65.73  -2
   1   3   2   61.10   65.73   1
   1  -3  -2  134.65   80.23  -2
   1   3   2  134.65   80.23   1
   1  -3  -2  114.05   95.46  -2
   1   3   2  114.05   95.46   1
  -1  -3   2  173.15   64.06  -2
  -1   3  -2  173.15   64.06   1
   1  -3  -336880.00 1431.20  -2
   1   3   336880.00 1431.20   1
  -1  -3   333641.50  910.85  -2
  -1   3  -333641.50  910.85   1
  -1  -3   336045.30 1376.22  -2
  -1   3  -336045.30 1376.22   1
  -1  -3   4 2805.32  280.31  -2
  -1   3  -4 2805.32  280.31   1
   1  -3  -4 3361.24  476.77  -2
   1   3   4 3361.24  476.77   1
  -1  -3   4 2708.08  404.44  -2
  -1   3  -4 2708.08  404.44   1
  -1  -3   537194.20 1457.93  -2
  -1   3  -537194.20 1457.93   1
   1  -3  -538771.30 1550.91  -2
   1   3   538771.30 1550.91   1
  -1  -3   536363.10 1091.71  -2
  -1   3  -536363.10 1091.71   1
  -1  -3   6 1015.28  215.00  -2
  -1   3  -6 1015.28  215.00   1
   1  -3  -6 1086.61  294.38  -2
   1   3   6 1086.61  294.38   1
  -1  -3   6  882.55  199.80  -2
  -1   3  -6  882.55  199.80   1
   1  -3  -725506.70 1298.42  -2
   1   3   725506.70 1298.42   1
  -1  -3   723762.30 1035.02  -2
  -1   3  -723762.30 1035.02   1
  -1   3   725563.50  912.33  -2
  -1  -3  -725563.50  912.33   1
  -1  -3   727708.90 1338.11  -2
  -1   3  -727708.90 1338.11   1
   1  -3  -826446.40 1384.66  -2
   1   3   826446.40 1384.66   1
  -1   3   826325.70  985.46  -2
  -1  -3  -826325.70  985.46   1
  -1  -3   828029.60 1380.42  -2
  -1   3  -828029.60 1380.42   1
   1  -3  -9 3544.43  552.54  -2
   1   3   9 3544.43  552.54   1
  -1  -3   9 3133.74  474.92  -2
  -1   3  -9 3133.74  474.92   1
  -1  -3   9 2589.35  420.43  -2
  -1   3  -9 2589.35  420.43   1
   1  -3 -10  682.74  260.28  -2
   1   3  10  682.74  260.28   1
  -1  -3  10  326.00  115.42  -2
  -1   3 -10  326.00  115.42   1
  -1  -3  10  523.28  232.15  -2
  -1   3 -10  523.28  232.15   1
   1  -3 -1110175.00  955.42  -2
   1   3  1110175.00  955.42   1
  -1  -3  1110397.40  967.52  -2
  -1   3 -1110397.40  967.52   1
   1  -3 -12 -159.99  139.46  -2
   1   3  12 -159.99  139.46   1
  -1  -3  12  533.94  292.01  -2
  -1   3 -12  533.94  292.01   1
   1  -3 -1315681.80 1291.95  -2
   1   3  1315681.80 1291.95   1
  -1  -3  1314588.40 1202.63  -2
  -1   3 -1314588.40 1202.63   1
  -1  -3  14 2163.22  545.34  -2
  -1   3 -14 2163.22  545.34   1
   1  -3 -14 2336.93  546.17  -2
   1   3  14 2336.93  546.17   1
  -1  -3  1511773.30 1134.08  -2
  -1   3 -1511773.30 1134.08   1
   1  -3 -1512390.60 1229.82  -2
   1   3  1512390.60 1229.82   1
   1  -3 -1611923.80 1273.54  -2
   1   3  1611923.80 1273.54   1
  -1  -3  1612187.80 1159.85  -2
  -1   3 -1612187.80 1159.85   1
   1  -3 -17 4059.65  814.58  -2
   1   3  17 4059.65  814.58   1
  -1  -3  17 5008.81  796.19  -2
  -1   3 -17 5008.81  796.19   1
  -1  -3  18  614.64  409.38  -2
  -1   3 -18  614.64  409.38   1
   1  -3 -18  -93.00  179.39  -2
   1   3  18  -93.00  179.39   1
   1  -3 -19 4361.67  857.33  -2
   1   3  19 4361.67  857.33   1
  -1  -3  19 4476.92  814.10  -2
  -1   3 -19 4476.92  814.10   1
  -1  -3  20 7254.83 1006.90  -2
  -1   3 -20 7254.83 1006.90   1
   1  -3 -20 6069.20 1038.18  -2
   1   3  20 6069.20 1038.18   1
   1  -3 -21 6661.53 1110.89  -2
   1   3  21 6661.53 1110.89   1
  -1  -3  21 6471.83  984.05  -2
  -1   3 -21 6471.83  984.05   1
   1  -3 -22   36.40  217.63  -2
   1   3  22   36.40  217.63   1
  -1  -3  22 1111.99  483.77  -2
  -1   3 -22 1111.99  483.77   1
  -1  -3  23 1567.58  561.83  -2
  -1   3 -23 1567.58  561.83   1
   1  -3 -23  800.07  523.55  -2
   1   3  23  800.07  523.55   1
   1  -3 -24 1380.42  535.59  -2
   1   3  24 1380.42  535.59   1
  -1  -3  24 2281.79  633.09  -2
  -1   3 -24 2281.79  633.09   1
  -1  -3  25  218.49  322.54  -2
  -1   3 -25  218.49  322.54   1
   1  -3 -25 -310.15  380.01  -2
   1   3  25 -310.15  380.01   1
   1  -3 -26 -745.78  582.14  -2
   1   3  26 -745.78  582.14   1
  -1  -3  26  227.35  306.20  -2
  -1   3 -26  227.35  306.20   1
   1  -3 -27  216.10  253.25  -2
   1   3  27  216.10  253.25   1
  -1  -3  27 1072.78  561.91  -2
  -1   3 -27 1072.78  561.91   1
  -1  -3  28  578.56  404.00  -2
  -1   3 -28  578.56  404.00   1
  -1  -3  28  324.38  375.66  -2
  -1   3 -28  324.38  375.66   1
  -1  -3  29 1203.07  584.33  -2
  -1   3 -29 1203.07  584.33   1
  -1  -3  30  968.63  568.16  -2
  -1   3 -30  968.63  568.16   1
  -1  -4 -28 -661.18  463.10  -2
  -1   4  28 -661.18  463.10   1
  -1  -4 -27 -504.40  473.52  -2
  -1   4  27 -504.40  473.52   1
  -1  -4 -26  241.91  269.90  -2
  -1   4  26  241.91  269.90   1
   1  -4  26 -270.18  377.92  -2
   1   4 -26 -270.18  377.92   1
  -1  -4 -25  619.00  438.84  -2
  -1   4  25  619.00  438.84   1
   1  -4  25  417.65  410.66  -2
   1   4 -25  417.65  410.66   1
  -1  -4 -24 -125.43  275.15  -2
  -1   4  24 -125.43  275.15   1
   1  -4  24   30.63  253.24  -2
   1   4 -24   30.63  253.24   1
  -1  -4 -23  -17.52  238.88  -2
  -1   4  23  -17.52  238.88   1
   1  -4  23  546.86  375.17  -2
   1   4 -23  546.86  375.17   1
   1  -4  22 1819.02  618.78  -2
   1   4 -22 1819.02  618.78   1
  -1  -4 -22 1709.70  556.45  -2
  -1   4  22 1709.70  556.45   1
   1  -4  21 6951.49 1128.61  -2
   1   4 -21 6951.49 1128.61   1
  -1  -4 -21 6244.34 1102.21  -2
  -1   4  21 6244.34 1102.21   1
   1  -4  20  896.76  464.51  -2
   1   4 -20  896.76  464.51   1
  -1  -4 -20  385.87  383.06  -2
  -1   4  20  385.87  383.06   1
   1  -4  19 -131.15  165.02  -2
   1   4 -19 -131.15  165.02   1
   1  -4  19  -50.95  196.34  -2
   1   4 -19  -50.95  196.34   1
  -1  -4 -19  233.21  308.52  -2
  -1   4  19  233.21  308.52   1
   1   4  19  128.07  218.48  -2
   1  -4 -19  128.07  218.48   1
   1  -4  18  772.60  409.07  -2
   1   4 -18  772.60  409.07   1
  -1  -4 -18 1220.55  506.65  -2
  -1   4  18 1220.55  506.65   1
   1  -4  18  693.71  234.09  -2
   1   4 -18  693.71  234.09   1
   1   4  18  682.68  340.33  -2
   1  -4 -18  682.68  340.33   1
   1  -4  17 8980.18 1140.91  -2
   1   4 -17 8980.18 1140.91   1
   1  -4  17 8966.91  729.44  -2
   1   4 -17 8966.91  729.44   1
   1   4  1710027.50 1073.24  -2
   1  -4 -1710027.50 1073.24   1
  -1  -4 -17 9345.48 1131.54  -2
  -1   4  17 9345.48 1131.54   1
   1  -4  16 1324.01  501.21  -2
   1   4 -16 1324.01  501.21   1
  -1  -4 -16  919.90  431.75  -2
  -1   4  16  919.90  431.75   1
   1  -4  16  402.78  204.45  -2
   1   4 -16  402.78  204.45   1
   1   4  16  536.60  302.30  -2
   1  -4 -16  536.60  302.30   1
  -1  -4 -1515363.90 1306.05  -2
  -1   4  1515363.90 1306.05   1
   1  -4  1514743.10 1383.16  -2
   1   4 -1514743.10 1383.16   1
   1   4  1516741.50 1289.82  -2
   1  -4 -1516741.50 1289.82   1
   1  -4  1514921.70  902.22  -2
   1   4 -1514921.70  902.22   1
  -1  -4 -14 1788.19  440.21  -2
  -1   4  14 1788.19  440.21   1
   1  -4  14 2494.32  381.35  -2
   1   4 -14 2494.32  381.35   1
   1   4  14 2085.53  460.14  -2
   1  -4 -14 2085.53  460.14   1
   1  -4  14 2157.85  545.45  -2
   1   4 -14 2157.85  545.45   1
  -1  -4 -13 5645.40  754.10  -2
  -1   4  13 5645.40  754.10   1
   1  -4  13 5337.83  794.14  -2
   1   4 -13 5337.83  794.14   1
   1   4  13 6267.46  752.30  -2
   1  -4 -13 6267.46  752.30   1
   1  -4  13 6135.85  573.10  -2
   1   4 -13 6135.85  573.10   1
   1   4  12 3347.00  526.20  -2
   1  -4 -12 3347.00  526.20   1
   1  -4  12 3428.46  428.11  -2
   1   4 -12 3428.46  428.11   1
   1  -4  12 3264.13  612.06  -2
   1   4 -12 3264.13  612.06   1
  -1  -4 -12 2978.49  544.45  -2
  -1   4  12 2978.49  544.45   1
  -1  -4 -11  416.00  221.07  -2
  -1   4  11  416.00  221.07   1
   1  -4  11  505.62  277.01  -2
   1   4 -11  505.62  277.01   1
   1  -4  11  740.19  214.78  -2
   1   4 -11  740.19  214.78   1
  -1  -4 -10 1219.36  363.29  -2
  -1   4  10 1219.36  363.29   1
   1  -4  10  862.66  362.22  -2
   1   4 -10  862.66  362.22   1
   1  -4  10 1084.72  266.80  -2
   1   4 -10 1084.72  266.80   1
  -1  -4  -940558.90 1794.70  -2
  -1   4   940558.90 1794.70   1
   1  -4   940141.10 1998.72  -2
   1   4  -940141.10 1998.72   1
   1  -4   943597.20 1420.87  -2
   1   4  -943597.20 1420.87   1
   1  -4   8  122.70  210.35  -2
   1   4  -8  122.70  210.35   1
  -1  -4  -8  494.59  249.43  -2
  -1   4   8  494.59  249.43   1
   1  -4   8  524.07  208.15  -2
   1   4  -8  524.07  208.15   1
  -1  -4  -721566.70 1330.68  -2
  -1   4   721566.70 1330.68   1
   1  -4   717760.20 1269.42  -2
   1   4  -717760.20 1269.42   1
  -1  -4  -719182.40 1061.09  -2
  -1   4   719182.40 1061.09   1
   1  -4   719974.30  979.82  -2
   1   4  -719974.30  979.82   1
  -1  -4  -6  817.48  224.56  -2
  -1   4   6  817.48  224.56   1
   1   4   6  538.51  165.75  -2
   1  -4  -6  538.51  165.75   1
   1  -4   6  807.81  242.12  -2
   1   4  -6  807.81  242.12   1
  -1  -4  -6  532.84  174.49  -2
  -1   4   6  532.84  174.49   1
   1  -4   6  727.76  291.40  -2
   1   4  -6  727.76  291.40   1
   1  -4   521840.30 1066.42  -2
   1   4  -521840.30 1066.42   1
  -1  -4  -519854.80 1169.42  -2
  -1   4   519854.80 1169.42   1
  -1  -4  -516505.90 1042.02  -2
  -1   4   516505.90 1042.02   1
  -1  -4  -520786.20 1068.01  -2
  -1   4   520786.20 1068.01   1
   1  -4   519481.20 1280.90  -2
   1   4  -519481.20 1280.90   1
   1   4   517472.10  876.58  -2
   1  -4  -517472.10  876.58   1
   1   4   414716.90  785.65  -2
   1  -4  -414716.90  785.65   1
   1  -4   415566.60 1128.74  -2
   1   4  -415566.60 1128.74   1
   1  -4   417104.30  944.61  -2
   1   4  -417104.30  944.61   1
  -1  -4  -415916.80  914.38  -2
  -1   4   415916.80  914.38   1
  -1  -4  -416147.40 1023.39  -2
  -1   4   416147.40 1023.39   1
  -1  -4  -3  158.04  158.73  -2
  -1   4   3  158.04  158.73   1
   1   4   3   76.66   76.52  -2
   1  -4  -3   76.66   76.52   1
  -1  -4  -3  408.20  203.74  -2
  -1   4   3  408.20  203.74   1
   1  -4   3  -12.88  142.72  -2
   1   4  -3  -12.88  142.72   1
  -1  -4  -3   27.03   93.76  -2
  -1   4   3   27.03   93.76   1
  -1  -4  -2  391.74  175.43  -2
  -1   4   2  391.74  175.43   1
   1   4   2  392.68  112.64  -2
   1  -4  -2  392.68  112.64   1
   1  -4   2  319.51  162.27  -2
   1   4  -2  319.51  162.27   1
   1  -4   1 8166.04  781.97  -2
   1   4  -1 8166.04  781.97   1
   1   4   1 7452.42  475.19  -2
   1  -4  -1 7452.42  475.19   1
  -1  -4  -1 8214.70  662.64  -2
  -1   4   1 8214.70  662.64   1
   1   4   0 2015.36  233.26  -2
   1  -4   0 2015.36  233.26   1
   1  -4   0 2213.44  400.01  -2
   1   4   0 2213.44  400.01   1
   1  -4   0 2747.06  454.73  -2
   1   4   0 2747.06  454.73   1
  -1  -4   0 2311.68  356.82  -2
  -1   4   0 2311.68  356.82   1
  -1  -4   141148.40 1462.38  -2
  -1   4  -141148.40 1462.38   1
   1   4  -141262.00 1195.51  -2
   1  -4   141262.00 1195.51   1
   1  -4  -139631.00 1699.06  -2
   1   4   139631.00 1699.06   1
  -1  -4   211853.00  635.69  -2
  -1   4  -211853.00  635.69   1
   1  -4  -210561.10  628.08  -2
   1   4   210561.10  628.08   1
  -1  -4   213047.60  862.89  -2
  -1   4  -213047.60  862.89   1
   1  -4  -213218.00  951.16  -2
   1   4   213218.00  951.16   1
  -1  -4   349893.00 1343.64  -2
  -1   4  -349893.00 1343.64   1
  -1  -4   348336.40 1733.12  -2
  -1   4  -348336.40 1733.12   1
   1  -4  -412744.70  980.44  -2
   1   4   412744.70  980.44   1
  -1  -4   413453.50  949.84  -2
  -1   4  -413453.50  949.84   1
  -1  -4   412011.50  691.68  -2
  -1   4  -412011.50  691.68   1
  -1  -4   5  480.34  153.10  -2
  -1   4  -5  480.34  153.10   1
   1  -4  -5  628.24  210.01  -2
   1   4   5  628.24  210.01   1
  -1  -4   6 5006.49  651.25  -2
  -1   4  -6 5006.49  651.25   1
  -1  -4   6 3702.53  420.76  -2
  -1   4  -6 3702.53  420.76   1
   1  -4  -6 3855.02  583.73  -2
   1   4   6 3855.02  583.73   1
   1  -4  -725136.00 1439.25  -2
   1   4   725136.00 1439.25   1
  -1  -4   723270.30 1090.98  -2
  -1   4  -723270.30 1090.98   1
  -1  -4   726471.10 1427.30  -2
  -1   4  -726471.10 1427.30   1
  -1  -4   8 3199.29  438.93  -2
  -1   4  -8 3199.29  438.93   1
   1  -4  -8 3818.13  588.99  -2
   1   4   8 3818.13  588.99   1
  -1  -4   8 3536.80  583.58  -2
  -1   4  -8 3536.80  583.58   1
  -1  -4   919928.60 1100.92  -2
  -1   4  -919928.60 1100.92   1
   1  -4  -922385.50 1393.16  -2
   1   4   922385.50 1393.16   1
  -1  -4   923100.60 1368.83  -2
  -1   4  -923100.60 1368.83   1
  -1  -4  10  552.18  254.14  -2
  -1   4 -10  552.18  254.14   1
   1  -4 -10  819.35  274.68  -2
   1   4  10  819.35  274.68   1
  -1  -4  10  724.07  250.55  -2
  -1   4 -10  724.07  250.55   1
   1  -4 -1119822.70 1431.79  -2
   1   4  1119822.70 1431.79   1
  -1  -4  1116806.30 1147.81  -2
  -1   4 -1116806.30 1147.81   1
  -1  -4  1120648.70 1353.18  -2
  -1   4 -1120648.70 1353.18   1
  -1  -4  12 1644.20  411.93  -2
  -1   4 -12 1644.20  411.93   1
  -1  -4  12 1780.17  455.26  -2
  -1   4 -12 1780.17  455.26   1
   1  -4 -12 1890.54  478.02  -2
   1   4  12 1890.54  478.02   1
  -1  -4  13  261.63  225.36  -2
  -1   4 -13  261.63  225.36   1
  -1  -4  13   51.00  164.79  -2
  -1   4 -13   51.00  164.79   1
   1  -4 -13  155.80  174.54  -2
   1   4  13  155.80  174.54   1
   1  -4 -14 2595.20  576.98  -2
   1   4  14 2595.20  576.98   1
  -1  -4  14 2066.34  444.74  -2
  -1   4 -14 2066.34  444.74   1
  -1  -4  14 2260.61  505.34  -2
  -1   4 -14 2260.61  505.34   1
  -1  -4  1510177.30 1050.43  -2
  -1   4 -1510177.30 1050.43   1
  -1  -4  1512440.00 1139.11  -2
  -1   4 -1512440.00 1139.11   1
   1  -4 -1513936.20 1334.00  -2
   1   4  1513936.20 1334.00   1
  -1  -4  16 1455.51  330.45  -2
  -1   4 -16 1455.51  330.45   1
  -1  -4  16 1245.57  394.43  -2
  -1   4 -16 1245.57  394.43   1
   1  -4 -17  588.84  359.94  -2
   1   4  17  588.84  359.94   1
  -1  -4  17 -119.39  283.02  -2
  -1   4 -17 -119.39  283.02   1
  -1  -4  17  269.67  183.15  -2
  -1   4 -17  269.67  183.15   1
  -1  -4  18  200.94  295.48  -2
  -1   4 -18  200.94  295.48   1
  -1  -4  18  762.08  330.67  -2
  -1   4 -18  762.08  330.67   1
  -1  -4  19  652.15  216.62  -2
  -1   4 -19  652.15  216.62   1
   1  -4 -19 1533.31  555.21  -2
   1   4  19 1533.31  555.21   1
  -1  -4  19  863.21  406.26  -2
  -1   4 -19  863.21  406.26   1
   1  -4 -20   91.98  280.81  -2
   1   4  20   91.98  280.81   1
  -1  -4  20   -6.42  219.68  -2
  -1   4 -20   -6.42  219.68   1
  -1  -4  21 -471.96  374.18  -2
  -1   4 -21 -471.96  374.18   1
   1  -4 -21  184.38  243.16  -2
   1   4  21  184.38  243.16   1
  -1  -4  21  264.14  271.57  -2
  -1   4 -21  264.14  271.57   1
  -1  -4  22  499.26  331.85  -2
  -1   4 -22  499.26  331.85   1
  -1  -4  22 -258.61  368.46  -2
  -1   4 -22 -258.61  368.46   1
   1  -4 -22   17.90  199.48  -2
   1   4  22   17.90  199.48   1
  -1  -4  23 -651.06  446.88  -2
  -1   4 -23 -651.06  446.88   1
   1  -4 -23 -140.60  294.78  -2
   1   4  23 -140.60  294.78   1
  -1  -4  23 -176.10  269.76  -2
  -1   4 -23 -176.10  269.76   1
   1  -4 -24 -131.05  238.22  -2
   1   4  24 -131.05  238.22   1
  -1  -4  24  167.80  196.82  -2
  -1   4 -24  167.80  196.82   1
  -1  -4  25 -642.03  511.24  -2
  -1   4 -25 -642.03  511.24   1
   1  -4 -25  231.23  284.77  -2
   1   4  25  231.23  284.77   1
  -1  -4  25  227.66  340.64  -2
  -1   4 -25  227.66  340.64   1
  -1  -4  26 -354.67  392.83  -2
  -1   4 -26 -354.67  392.83   1
   1  -4 -26 -297.36  355.11  -2
   1   4  26 -297.36  355.11   1
  -1  -4  26 -209.97  339.22  -2
  -1   4 -26 -209.97  339.22   1
  -1  -4  27 -834.68  555.78  -2
  -1   4 -27 -834.68  555.78   1
  -1  -4  27  737.75  421.29  -2
  -1   4 -27  737.75  421.29   1
  -1  -4  28-1272.78  557.23  -2
  -1   4 -28-1272.78  557.23   1
  -1  -4  29 -414.66  456.61  -2
  -1   4 -29 -414.66  456.61   1
  -1  -5 -26  257.38  227.25  -2
  -1   5  26  257.38  227.25   1
  -1  -5 -25  225.25  299.86  -2
  -1   5  25  225.25  299.86   1
   1  -5  24  735.93  463.50  -2
   1   5 -24  735.93  463.50   1
  -1  -5 -24 -355.29  388.25  -2
  -1   5  24 -355.29  388.25   1
  -1  -5 -23  247.22  267.57  -2
  -1   5  23  247.22  267.57   1
   1  -5  23  186.91  327.38  -2
   1   5 -23  186.91  327.38   1
  -1  -5 -22 -306.92  336.94  -2
  -1   5  22 -306.92  336.94   1
   1  -5  22  242.92  374.41  -2
   1   5 -22  242.92  374.41   1
  -1  -5 -21 3495.39  884.37  -2
  -1   5  21 3495.39  884.37   1
   1  -5  21 3629.53  898.42  -2
   1   5 -21 3629.53  898.42   1
  -1  -5 -20  383.67  367.92  -2
  -1   5  20  383.67  367.92   1
   1  -5  20  465.20  431.22  -2
   1   5 -20  465.20  431.22   1
  -1  -5 -19 1312.85  526.85  -2
  -1   5  19 1312.85  526.85   1
   1  -5  19 1279.72  508.75  -2
   1   5 -19 1279.72  508.75   1
  -1  -5 -18  966.56  496.74  -2
  -1   5  18  966.56  496.74   1
   1  -5  18 1242.20  319.31  -2
   1   5 -18 1242.20  319.31   1
   1  -5  18 1207.04  453.68  -2
   1   5 -18 1207.04  453.68   1
   1  -5  17  131.07  251.90  -2
   1   5 -17  131.07  251.90   1
  -1  -5 -17   70.38  166.21  -2
  -1   5  17   70.38  166.21   1
   1  -5  17  358.24  235.70  -2
   1   5 -17  358.24  235.70   1
   1  -5  16 5106.18  882.75  -2
   1   5 -16 5106.18  882.75   1
  -1  -5 -16 4629.72  789.16  -2
  -1   5  16 4629.72  789.16   1
   1  -5  16 5419.66  636.88  -2
   1   5 -16 5419.66  636.88   1
  -1  -5 -15 1761.87  494.02  -2
  -1   5  15 1761.87  494.02   1
   1  -5  15 1907.08  575.97  -2
   1   5 -15 1907.08  575.97   1
   1  -5  15 2274.07  428.20  -2
   1   5 -15 2274.07  428.20   1
   1  -5  14  318.96  192.98  -2
   1   5 -14  318.96  192.98   1
  -1  -5 -14  366.00  207.84  -2
  -1   5  14  366.00  207.84   1
   1  -5  14  474.13  293.07  -2
   1   5 -14  474.13  293.07   1
  -1  -5 -13 2529.48  562.29  -2
  -1   5  13 2529.48  562.29   1
   1  -5  13 2907.18  459.73  -2
   1   5 -13 2907.18  459.73   1
   1  -5  13 2454.42  594.76  -2
   1   5 -13 2454.42  594.76   1
   1  -5  12  353.57  268.50  -2
   1   5 -12  353.57  268.50   1
  -1  -5 -12  143.79  133.32  -2
  -1   5  12  143.79  133.32   1
   1  -5  12  311.73  194.01  -2
   1   5 -12  311.73  194.01   1
  -1  -5 -11 6343.63  842.66  -2
  -1   5  11 6343.63  842.66   1
   1  -5  11 7628.31  970.57  -2
   1   5 -11 7628.31  970.57   1
   1  -5  11 7484.71  696.48  -2
   1   5 -11 7484.71  696.48   1
  -1  -5 -10 6002.07  791.39  -2
  -1   5  10 6002.07  791.39   1
   1  -5  10 6377.17  647.64  -2
   1   5 -10 6377.17  647.64   1
   1  -5  10 5793.74  827.38  -2
   1   5 -10 5793.74  827.38   1
  -1  -5  -9 3575.10  596.17  -2
  -1   5   9 3575.10  596.17   1
   1  -5   9 3578.31  493.88  -2
   1   5  -9 3578.31  493.88   1
   1  -5   9 3233.41  634.57  -2
   1   5  -9 3233.41  634.57   1
   1  -5   812222.20  911.48  -2
   1   5  -812222.20  911.48   1
  -1  -5  -812364.20 1118.78  -2
  -1   5   812364.20 1118.78   1
   1  -5   811932.40 1157.75  -2
   1   5  -811932.40 1157.75   1
   1  -5   7  112.01  229.30  -2
   1   5  -7  112.01  229.30   1
   1  -5   7   84.00  134.00  -2
   1   5  -7   84.00  134.00   1
  -1  -5  -7 -252.05  182.14  -2
  -1   5   7 -252.05  182.14   1
  -1  -5  -7   12.11  138.49  -2
  -1   5   7   12.11  138.49   1
   1   5   6   50.93   74.98  -2
   1  -5  -6   50.93   74.98   1
   1  -5   6  233.02  220.56  -2
   1   5  -6  233.02  220.56   1
   1  -5   6  378.88  209.71  -2
   1   5  -6  378.88  209.71   1
  -1  -5  -6  153.59  156.93  -2
  -1   5   6  153.59  156.93   1
  -1  -5  -6  272.35  192.42  -2
  -1   5   6  272.35  192.42   1
   1  -5   5 3755.99  616.41  -2
   1   5  -5 3755.99  616.41   1
   1   5   5 3063.92  432.67  -2
   1  -5  -5 3063.92  432.67   1
  -1  -5  -5 3706.17  566.48  -2
  -1   5   5 3706.17  566.48   1
   1  -5   5 3798.68  492.93  -2
   1   5  -5 3798.68  492.93   1
  -1  -5  -5 3868.87  521.32  -2
  -1   5   5 3868.87  521.32   1
  -1  -5  -5 2718.29  447.70  -2
  -1   5   5 2718.29  447.70   1
   1   5   4 3736.83  451.49  -2
   1  -5  -4 3736.83  451.49   1
   1  -5   4 4308.48  633.81  -2
   1   5  -4 4308.48  633.81   1
  -1  -5  -4 4523.59  631.58  -2
  -1   5   4 4523.59  631.58   1
  -1  -5  -4 3056.38  480.53  -2
  -1   5   4 3056.38  480.53   1
   1  -5   4 4056.79  525.66  -2
   1   5  -4 4056.79  525.66   1
  -1  -5  -4 4573.16  568.37  -2
  -1   5   4 4573.16  568.37   1
  -1  -5  -3 4057.12  573.16  -2
  -1   5   3 4057.12  573.16   1
  -1  -5  -3 3605.53  493.72  -2
  -1   5   3 3605.53  493.72   1
   1  -5   3 3505.67  552.86  -2
   1   5  -3 3505.67  552.86   1
   1   5   3 3193.13  396.80  -2
   1  -5  -3 3193.13  396.80   1
  -1  -5  -2 2080.07  433.33  -2
  -1   5   2 2080.07  433.33   1
   1   5   2 1239.81  257.72  -2
   1  -5  -2 1239.81  257.72   1
   1  -5   2 1701.19  413.68  -2
   1   5  -2 1701.19  413.68   1
  -1  -5  -2 2026.88  371.10  -2
  -1   5   2 2026.88  371.10   1
   1  -5   142044.10 1928.07  -2
   1   5  -142044.10 1928.07   1
   1   5   139700.90 1351.35  -2
   1  -5  -139700.90 1351.35   1
   1  -5   0 9789.32  969.21  -2
   1   5   0 9789.32  969.21   1
   1   5   0 9045.45  661.28  -2
   1  -5   0 9045.45  661.28   1
   1  -5   010385.50 1001.85  -2
   1   5   010385.50 1001.85   1
  -1  -5   010216.90  873.97  -2
  -1   5   010216.90  873.97   1
  -1  -5   1 3544.96  488.72  -2
  -1   5  -1 3544.96  488.72   1
   1   5  -1 2691.71  346.99  -2
   1  -5   1 2691.71  346.99   1
   1  -5  -1 4250.29  611.18  -2
   1   5   1 4250.29  611.18   1
   1  -5  -1 3609.19  577.69  -2
   1   5   1 3609.19  577.69   1
  -1  -5   2  411.03  165.99  -2
  -1   5  -2  411.03  165.99   1
   1  -5  -2  542.31  275.33  -2
   1   5   2  542.31  275.33   1
  -1  -5   2  425.64  169.51  -2
  -1   5  -2  425.64  169.51   1
   1   5  -2   35.79  126.85  -2
   1  -5   2   35.79  126.85   1
   1  -5  -2  123.21   95.98  -2
   1   5   2  123.21   95.98   1
  -1  -5   3 5315.78  601.66  -2
  -1   5  -3 5315.78  601.66   1
  -1  -5   3 5465.47  508.70  -2
  -1   5  -3 5465.47  508.70   1
   1  -5  -3 6786.09  774.32  -2
   1   5   3 6786.09  774.32   1
  -1  -5   4 5786.50  549.60  -2
  -1   5  -4 5786.50  549.60   1
  -1  -5   4 6467.78  676.99  -2
  -1   5  -4 6467.78  676.99   1
   1  -5  -4 5642.28  710.26  -2
   1   5   4 5642.28  710.26   1
  -1  -5   510104.60  861.72  -2
  -1   5  -510104.60  861.72   1
   1  -5  -510393.10 1001.77  -2
   1   5   510393.10 1001.77   1
  -1  -5   5 8755.14  687.19  -2
  -1   5  -5 8755.14  687.19   1
  -1  -5   6 6151.74  603.96  -2
  -1   5  -6 6151.74  603.96   1
  -1  -5   6 6483.77  722.24  -2
  -1   5  -6 6483.77  722.24   1
   1  -5  -6 6707.00  829.74  -2
   1   5   6 6707.00  829.74   1
  -1  -5   7 6050.95  616.27  -2
  -1   5  -7 6050.95  616.27   1
  -1  -5   7 6727.70  779.20  -2
  -1   5  -7 6727.70  779.20   1
   1  -5  -7 7118.78  847.10  -2
   1   5   7 7118.78  847.10   1
  -1  -5   8 2969.10  563.62  -2
  -1   5  -8 2969.10  563.62   1
  -1  -5   8 1901.63  367.77  -2
  -1   5  -8 1901.63  367.77   1
   1  -5  -8 2480.68  544.71  -2
   1   5   8 2480.68  544.71   1
   1  -5  -9 1458.88  423.90  -2
   1   5   9 1458.88  423.90   1
  -1  -5   9 1180.73  282.01  -2
  -1   5  -9 1180.73  282.01   1
  -1  -5   9 2413.04  569.46  -2
  -1   5  -9 2413.04  569.46   1
   1  -5 -10 1613.74  449.24  -2
   1   5  10 1613.74  449.24   1
  -1  -5  10 1290.55  316.34  -2
  -1   5 -10 1290.55  316.34   1
  -1  -5  10 2226.06  528.42  -2
  -1   5 -10 2226.06  528.42   1
   1  -5 -11 5159.43  783.91  -2
   1   5  11 5159.43  783.91   1
  -1  -5  11 4328.02  592.91  -2
  -1   5 -11 4328.02  592.91   1
  -1  -5  11 6516.01  851.34  -2
  -1   5 -11 6516.01  851.34   1
  -1  -5  12 3244.45  636.86  -2
  -1   5 -12 3244.45  636.86   1
   1  -5 -12 2766.91  568.28  -2
   1   5  12 2766.91  568.28   1
  -1  -5  12 2369.34  474.72  -2
  -1   5 -12 2369.34  474.72   1
   1  -5 -13  290.20  267.46  -2
   1   5  13  290.20  267.46   1
  -1  -5  13  601.84  363.82  -2
  -1   5 -13  601.84  363.82   1
  -1  -5  13  264.37  207.35  -2
  -1   5 -13  264.37  207.35   1
   1  -5 -14 5578.89  865.99  -2
   1   5  14 5578.89  865.99   1
  -1  -5  14 4241.66  677.22  -2
  -1   5 -14 4241.66  677.22   1
  -1  -5  14 6315.34  896.10  -2
  -1   5 -14 6315.34  896.10   1
  -1  -5  15 2809.71  599.26  -2
  -1   5 -15 2809.71  599.26   1
   1  -5 -15 4079.62  772.43  -2
   1   5  15 4079.62  772.43   1
  -1  -5  15 4379.77  751.94  -2
  -1   5 -15 4379.77  751.94   1
  -1  -5  16  938.69  359.48  -2
  -1   5 -16  938.69  359.48   1
   1  -5 -16  558.31  177.61  -2
   1   5  16  558.31  177.61   1
  -1  -5  16 1061.27  441.99  -2
  -1   5 -16 1061.27  441.99   1
   1  -5 -17 1779.87  550.65  -2
   1   5  17 1779.87  550.65   1
  -1  -5  17 1175.64  415.26  -2
  -1   5 -17 1175.64  415.26   1
  -1  -5  17 1022.40  373.24  -2
  -1   5 -17 1022.40  373.24   1
  -1  -5  18  924.57  375.67  -2
  -1   5 -18  924.57  375.67   1
   1  -5 -18 1226.19  532.49  -2
   1   5  18 1226.19  532.49   1
  -1  -5  18  936.24  377.41  -2
  -1   5 -18  936.24  377.41   1
  -1  -5  19  204.08  186.57  -2
  -1   5 -19  204.08  186.57   1
  -1  -5  19   59.87  185.46  -2
  -1   5 -19   59.87  185.46   1
  -1  -5  20  967.40  441.24  -2
  -1   5 -20  967.40  441.24   1
   1  -5 -20 1456.18  553.47  -2
   1   5  20 1456.18  553.47   1
  -1  -5  20  830.87  371.19  -2
  -1   5 -20  830.87  371.19   1
  -1  -5  21  855.44  407.39  -2
  -1   5 -21  855.44  407.39   1
  -1  -5  21  607.53  370.52  -2
  -1   5 -21  607.53  370.52   1
  -1  -5  22  293.70  225.98  -2
  -1   5 -22  293.70  225.98   1
   1  -5 -22  814.41  482.10  -2
   1   5  22  814.41  482.10   1
  -1  -5  22  368.37  253.01  -2
  -1   5 -22  368.37  253.01   1
   1  -5 -23 1506.64  658.22  -2
   1   5  23 1506.64  658.22   1
  -1  -5  23  554.53  391.52  -2
  -1   5 -23  554.53  391.52   1
  -1  -5  23  385.07  307.77  -2
  -1   5 -23  385.07  307.77   1
  -1  -5  24  293.33  251.56  -2
  -1   5 -24  293.33  251.56   1
   1  -5 -24  386.47  364.08  -2
   1   5  24  386.47  364.08   1
  -1  -5  24   48.45  191.01  -2
  -1   5 -24   48.45  191.01   1
  -1  -5  25   -7.32  199.72  -2
  -1   5 -25   -7.32  199.72   1
  -1  -5  25 -153.14  342.49  -2
  -1   5 -25 -153.14  342.49   1
  -1  -5  26  149.99  443.04  -2
  -1   5 -26  149.99  443.04   1
  -1  -5  26  123.77  225.02  -2
  -1   5 -26  123.77  225.02   1
  -1  -5  27 -159.52  339.20  -2
  -1   5 -27 -159.52  339.20   1
  -1  -6 -23  494.86  443.56  -2
  -1   6  23  494.86  443.56   1
  -1  -6 -22   96.44  226.18  -2
  -1   6  22   96.44  226.18   1
   1  -6  22  251.73  252.17  -2
   1   6 -22  251.73  252.17   1
  -1  -6 -21  217.74  383.49  -2
  -1   6  21  217.74  383.49   1
   1  -6  21   36.58  251.29  -2
   1   6 -21   36.58  251.29   1
  -1  -6 -20  989.95  533.46  -2
  -1   6  20  989.95  533.46   1
   1  -6  20  804.40  495.21  -2
   1   6 -20  804.40  495.21   1
  -1  -6 -19  199.58  233.88  -2
  -1   6  19  199.58  233.88   1
   1  -6  19  149.45  202.06  -2
   1   6 -19  149.45  202.06   1
  -1  -6 -18   47.28  222.78  -2
  -1   6  18   47.28  222.78   1
   1  -6  18  296.38  255.20  -2
   1   6 -18  296.38  255.20   1
   1  -6  17 2025.70  419.59  -2
   1   6 -17 2025.70  419.59   1
   1  -6  17 1525.15  557.58  -2
   1   6 -17 1525.15  557.58   1
  -1  -6 -17 1691.19  527.88  -2
  -1   6  17 1691.19  527.88   1
   1  -6  16 2376.29  460.79  -2
   1   6 -16 2376.29  460.79   1
   1  -6  16 2552.35  684.89  -2
   1   6 -16 2552.35  684.89   1
  -1  -6 -16 1821.67  542.20  -2
  -1   6  16 1821.67  542.20   1
   1  -6  15 1386.35  555.14  -2
   1   6 -15 1386.35  555.14   1
   1  -6  15 1409.13  372.65  -2
   1   6 -15 1409.13  372.65   1
  -1  -6 -15  926.86  359.55  -2
  -1   6  15  926.86  359.55   1
  -1  -6 -14 5162.32  886.43  -2
  -1   6  14 5162.32  886.43   1
   1  -6  14 5327.39  922.77  -2
   1   6 -14 5327.39  922.77   1
   1  -6  14 6482.59  737.18  -2
   1   6 -14 6482.59  737.18   1
   1  -6  13   82.77  203.01  -2
   1   6 -13   82.77  203.01   1
  -1  -6 -13  297.46  238.66  -2
  -1   6  13  297.46  238.66   1
   1  -6  13  390.04  205.85  -2
   1   6 -13  390.04  205.85   1
  -1  -6 -12 5163.93  837.06  -2
  -1   6  12 5163.93  837.06   1
   1  -6  12 4679.30  828.45  -2
   1   6 -12 4679.30  828.45   1
   1  -6  12 5819.16  699.72  -2
   1   6 -12 5819.16  699.72   1
   1  -6  11 2001.75  581.10  -2
   1   6 -11 2001.75  581.10   1
  -1  -6 -11 2236.46  583.38  -2
  -1   6  11 2236.46  583.38   1
   1  -6  11 2293.76  479.45  -2
   1   6 -11 2293.76  479.45   1
   1  -6  10 1168.72  450.85  -2
   1   6 -10 1168.72  450.85   1
  -1  -6 -10 1090.19  429.77  -2
  -1   6  10 1090.19  429.77   1
   1  -6  10 1094.61  327.40  -2
   1   6 -10 1094.61  327.40   1
   1  -6   9  458.66  269.52  -2
   1   6  -9  458.66  269.52   1
   1  -6   9 1267.32  359.38  -2
   1   6  -9 1267.32  359.38   1
  -1  -6  -9  863.79  359.11  -2
  -1   6   9  863.79  359.11   1
  -1  -6  -8 5048.26  804.57  -2
  -1   6   8 5048.26  804.57   1
   1  -6   8 4575.45  752.25  -2
   1   6  -8 4575.45  752.25   1
   1  -6   8 5295.36  669.45  -2
   1   6  -8 5295.36  669.45   1
  -1  -6  -7  644.34  217.76  -2
  -1   6   7  644.34  217.76   1
   1  -6   7  975.93  367.52  -2
   1   6  -7  975.93  367.52   1
  -1  -6  -7 1183.93  378.29  -2
  -1   6   7 1183.93  378.29   1
   1  -6   7 1154.72  353.09  -2
   1   6  -7 1154.72  353.09   1
   1  -6   611259.50 1182.53  -2
   1   6  -611259.50 1182.53   1
  -1  -6  -611231.70 1113.36  -2
  -1   6   611231.70 1113.36   1
   1  -6   611558.80  976.80  -2
   1   6  -611558.80  976.80   1
  -1  -6  -611457.50 1010.44  -2
  -1   6   611457.50 1010.44   1
  -1  -6  -5 -173.12  183.83  -2
  -1   6   5 -173.12  183.83   1
   1  -6   5 -116.00  144.76  -2
   1   6  -5 -116.00  144.76   1
  -1  -6  -5  159.99  214.60  -2
  -1   6   5  159.99  214.60   1
   1  -6   5  -12.81  201.49  -2
   1   6  -5  -12.81  201.49   1
   1  -6   4 2535.48  525.73  -2
   1   6  -4 2535.48  525.73   1
  -1  -6  -4 3126.54  593.47  -2
  -1   6   4 3126.54  593.47   1
  -1  -6  -4 3008.06  508.84  -2
  -1   6   4 3008.06  508.84   1
  -1  -6  -3 1008.66  400.17  -2
  -1   6   3 1008.66  400.17   1
   1  -6   3  599.85  312.19  -2
   1   6  -3  599.85  312.19   1
  -1  -6  -3 1188.13  353.71  -2
  -1   6   3 1188.13  353.71   1
   1  -6   2 2095.84  474.62  -2
   1   6  -2 2095.84  474.62   1
  -1  -6  -2 2177.86  501.31  -2
  -1   6   2 2177.86  501.31   1
  -1  -6  -2 2306.75  444.92  -2
  -1   6   2 2306.75  444.92   1
   1  -6   1 4253.43  680.94  -2
   1   6  -1 4253.43  680.94   1
   1  -6   1 3551.22  641.68  -2
   1   6  -1 3551.22  641.68   1
  -1  -6  -1 3502.40  556.00  -2
  -1   6   1 3502.40  556.00   1
   1  -6   012999.50 1173.07  -2
   1   6   012999.50 1173.07   1
  -1  -6   013285.70 1033.77  -2
  -1   6   013285.70 1033.77   1
   1  -6   012279.20 1131.23  -2
   1   6   012279.20 1131.23   1
   1  -6  -1  637.20  309.59  -2
   1   6   1  637.20  309.59   1
  -1  -6   1  940.35  322.41  -2
  -1   6  -1  940.35  322.41   1
  -1  -6   2  289.15  206.60  -2
  -1   6  -2  289.15  206.60   1
   1  -6  -2  418.99  244.17  -2
   1   6   2  418.99  244.17   1
   1  -6  -3 9732.79 1034.41  -2
   1   6   3 9732.79 1034.41   1
  -1  -6   310882.50  968.91  -2
  -1   6  -310882.50  968.91   1
  -1  -6   3 7875.06  691.25  -2
  -1   6  -3 7875.06  691.25   1
  -1  -6   4 7250.79  680.05  -2
  -1   6  -4 7250.79  680.05   1
   1  -6  -4 8552.04  976.52  -2
   1   6   4 8552.04  976.52   1
  -1  -6   4 8882.48  895.80  -2
  -1   6  -4 8882.48  895.80   1
  -1  -6   5  586.03  333.70  -2
  -1   6  -5  586.03  333.70   1
   1  -6  -5  107.98  242.60  -2
   1   6   5  107.98  242.60   1
  -1  -6   5  313.94  224.41  -2
  -1   6  -5  313.94  224.41   1
  -1  -6   6 1633.84  364.70  -2
  -1   6  -6 1633.84  364.70   1
   1  -6  -6 1931.71  464.55  -2
   1   6   6 1931.71  464.55   1
  -1  -6   6 1836.65  383.85  -2
  -1   6  -6 1836.65  383.85   1
  -1  -6   7   50.45  176.91  -2
  -1   6  -7   50.45  176.91   1
   1  -6  -7  229.18  264.87  -2
   1   6   7  229.18  264.87   1
  -1  -6   7  177.74  144.06  -2
  -1   6  -7  177.74  144.06   1
  -1  -6   8 5443.72  666.22  -2
  -1   6  -8 5443.72  666.22   1
   1  -6  -8 7143.13  965.72  -2
   1   6   8 7143.13  965.72   1
  -1  -6   8 6130.22  748.72  -2
  -1   6  -8 6130.22  748.72   1
  -1  -6   9 1290.65  353.79  -2
  -1   6  -9 1290.65  353.79   1
  -1  -6   9 1345.24  373.63  -2
  -1   6  -9 1345.24  373.63   1
   1  -6  -9 1613.93  497.93  -2
   1   6   9 1613.93  497.93   1
  -1  -6  10 4519.14  701.39  -2
  -1   6 -10 4519.14  701.39   1
  -1  -6  10 4216.37  648.22  -2
  -1   6 -10 4216.37  648.22   1
   1  -6 -10 4266.67  749.60  -2
   1   6  10 4266.67  749.60   1
   1  -6 -11 6011.40  912.70  -2
   1   6  11 6011.40  912.70   1
  -1  -6  11 4890.89  693.88  -2
  -1   6 -11 4890.89  693.88   1
  -1  -6  11 6586.38  809.84  -2
  -1   6 -11 6586.38  809.84   1
  -1  -6  12  800.50  352.73  -2
  -1   6 -12  800.50  352.73   1
  -1  -6  12 1157.02  395.96  -2
  -1   6 -12 1157.02  395.96   1
   1  -6 -12 1442.28  534.32  -2
   1   6  12 1442.28  534.32   1
  -1  -6  13  888.86  365.38  -2
  -1   6 -13  888.86  365.38   1
   1  -6 -13  329.24  224.60  -2
   1   6  13  329.24  224.60   1
  -1  -6  13  550.18  275.18  -2
  -1   6 -13  550.18  275.18   1
  -1  -6  14  827.40  408.82  -2
  -1   6 -14  827.40  408.82   1
   1  -6 -14  313.93  311.67  -2
   1   6  14  313.93  311.67   1
  -1  -6  14   67.73  138.00  -2
  -1   6 -14   67.73  138.00   1
   1  -6 -15 -262.88  248.80  -2
   1   6  15 -262.88  248.80   1
  -1  -6  15   89.96  241.26  -2
  -1   6 -15   89.96  241.26   1
   1  -6 -16 6125.22 1006.69  -2
   1   6  16 6125.22 1006.69   1
  -1  -6  16 4749.25  834.46  -2
  -1   6 -16 4749.25  834.46   1
  -1  -6  16 7735.06 1033.20  -2
  -1   6 -16 7735.06 1033.20   1
  -1  -6  17  630.87  430.17  -2
  -1   6 -17  630.87  430.17   1
   1  -6 -17 -549.47  472.85  -2
   1   6  17 -549.47  472.85   1
  -1  -6  17  225.87  237.96  -2
  -1   6 -17  225.87  237.96   1
  -1  -6  18 1915.51  600.66  -2
  -1   6 -18 1915.51  600.66   1
   1  -6 -18  966.04  448.59  -2
   1   6  18  966.04  448.59   1
  -1  -6  18  984.83  408.58  -2
  -1   6 -18  984.83  408.58   1
  -1  -6  19 1295.62  562.78  -2
  -1   6 -19 1295.62  562.78   1
   1  -6 -19 1900.55  684.96  -2
   1   6  19 1900.55  684.96   1
  -1  -6  19  109.43  231.85  -2
  -1   6 -19  109.43  231.85   1
  -1  -6  20   45.71  195.40  -2
  -1   6 -20   45.71  195.40   1
   1  -6 -20 1538.90  600.66  -2
   1   6  20 1538.90  600.66   1
  -1  -6  20 1263.48  535.95  -2
  -1   6 -20 1263.48  535.95   1
  -1  -6  21  408.01  322.34  -2
  -1   6 -21  408.01  322.34   1
   1  -6 -21  707.71  508.67  -2
   1   6  21  707.71  508.67   1
  -1  -6  21 1442.17  552.76  -2
  -1   6 -21 1442.17  552.76   1
  -1  -6  22 1470.62  568.80  -2
  -1   6 -22 1470.62  568.80   1
  -1  -6  23  764.50  475.55  -2
  -1   6 -23  764.50  475.55   1
  -1  -6  24 1081.44  548.51  -2
  -1   6 -24 1081.44  548.51   1
   1  -7  19 -303.38  282.56  -2
   1   7 -19 -303.38  282.56   1
  -1  -7 -19 -159.97  440.79  -2
  -1   7  19 -159.97  440.79   1
   1  -7  18 1092.40  590.24  -2
   1   7 -18 1092.40  590.24   1
  -1  -7 -18  742.75  375.48  -2
  -1   7  18  742.75  375.48   1
   1  -7  17  934.20  500.00  -2
   1   7 -17  934.20  500.00   1
  -1  -7 -17  589.69  412.30  -2
  -1   7  17  589.69  412.30   1
   1  -7  16 1467.03  629.68  -2
   1   7 -16 1467.03  629.68   1
  -1  -7 -16  953.72  382.42  -2
  -1   7  16  953.72  382.42   1
   1  -7  15  685.65  425.11  -2
   1   7 -15  685.65  425.11   1
  -1  -7 -15  615.89  418.58  -2
  -1   7  15  615.89  418.58   1
   1  -7  15  917.80  367.15  -2
   1   7 -15  917.80  367.15   1
   1  -7  14  206.82  387.97  -2
   1   7 -14  206.82  387.97   1
  -1  -7 -14  268.18  223.74  -2
  -1   7  14  268.18  223.74   1
   1  -7  14  543.82  275.85  -2
   1   7 -14  543.82  275.85   1
   1  -7  13  546.73  354.37  -2
   1   7 -13  546.73  354.37   1
  -1  -7 -13  514.72  378.79  -2
  -1   7  13  514.72  378.79   1
   1  -7  13  411.15  263.05  -2
   1   7 -13  411.15  263.05   1
   1  -7  12 4050.29  871.16  -2
   1   7 -12 4050.29  871.16   1
  -1  -7 -12 4676.97  857.21  -2
  -1   7  12 4676.97  857.21   1
   1  -7  12 4711.35  723.98  -2
   1   7 -12 4711.35  723.98   1
  -1  -7 -11  750.19  445.31  -2
  -1   7  11  750.19  445.31   1
   1  -7  11  282.36  257.16  -2
   1   7 -11  282.36  257.16   1
   1  -7  11 -141.20  258.86  -2
   1   7 -11 -141.20  258.86   1
  -1  -7 -10 5449.05  936.00  -2
  -1   7  10 5449.05  936.00   1
   1  -7  10 4504.47  670.24  -2
   1   7 -10 4504.47  670.24   1
   1  -7  10 4626.43  888.30  -2
   1   7 -10 4626.43  888.30   1
  -1  -7  -9  284.55  298.13  -2
  -1   7   9  284.55  298.13   1
   1  -7   9  780.72  329.94  -2
   1   7  -9  780.72  329.94   1
   1  -7   9  766.62  407.78  -2
   1   7  -9  766.62  407.78   1
  -1  -7  -8  848.20  377.23  -2
  -1   7   8  848.20  377.23   1
   1  -7   8  838.17  277.96  -2
   1   7  -8  838.17  277.96   1
   1  -7   8  704.42  339.10  -2
   1   7  -8  704.42  339.10   1
   1  -7   7  612.75  232.80  -2
   1   7  -7  612.75  232.80   1
  -1  -7  -7  685.32  350.43  -2
  -1   7   7  685.32  350.43   1
   1  -7   7  509.79  283.26  -2
   1   7  -7  509.79  283.26   1
  -1  -7  -6  353.34  247.84  -2
  -1   7   6  353.34  247.84   1
  -1  -7  -6  -85.05  264.64  -2
  -1   7   6  -85.05  264.64   1
   1  -7   6  180.40  249.28  -2
   1   7  -6  180.40  249.28   1
  -1  -7  -5  360.15  307.12  -2
  -1   7   5  360.15  307.12   1
   1  -7   5  432.74  395.26  -2
   1   7  -5  432.74  395.26   1
  -1  -7  -5  -46.62  227.31  -2
  -1   7   5  -46.62  227.31   1
   1  -7   411701.30 1245.07  -2
   1   7  -411701.30 1245.07   1
  -1  -7  -412070.40 1264.21  -2
  -1   7   412070.40 1264.21   1
  -1  -7  -411936.60 1113.28  -2
  -1   7   411936.60 1113.28   1
   1  -7   3 2518.75  659.59  -2
   1   7  -3 2518.75  659.59   1
  -1  -7  -3 2368.27  565.70  -2
  -1   7   3 2368.27  565.70   1
  -1  -7  -3 2578.89  542.56  -2
  -1   7   3 2578.89  542.56   1
   1  -7   2 2273.73  561.34  -2
   1   7  -2 2273.73  561.34   1
  -1  -7  -2 2212.87  533.97  -2
  -1   7   2 2212.87  533.97   1
   1  -7   2 2970.08  646.25  -2
   1   7  -2 2970.08  646.25   1
  -1  -7  -2 2305.87  490.89  -2
  -1   7   2 2305.87  490.89   1
  -1  -7  -1 1414.11  399.33  -2
  -1   7   1 1414.11  399.33   1
   1  -7   1 1916.25  535.40  -2
   1   7  -1 1916.25  535.40   1
  -1  -7  -1 1337.06  462.52  -2
  -1   7   1 1337.06  462.52   1
   1  -7   1 1877.00  514.25  -2
   1   7  -1 1877.00  514.25   1
   1  -7   0  458.36  357.84  -2
   1   7   0  458.36  357.84   1
  -1  -7   0  241.03  216.66  -2
  -1   7   0  241.03  216.66   1
   1  -7  -1 1632.86  470.33  -2
   1   7   1 1632.86  470.33   1
  -1  -7   1 1178.77  357.34  -2
  -1   7  -1 1178.77  357.34   1
   1  -7  -2  -22.61  199.93  -2
   1   7   2  -22.61  199.93   1
  -1  -7   2  340.87  267.90  -2
  -1   7  -2  340.87  267.90   1
  -1  -7   3  597.00  327.17  -2
  -1   7  -3  597.00  327.17   1
   1  -7  -3  106.29  229.15  -2
   1   7   3  106.29  229.15   1
   1  -7  -4 5519.69  847.58  -2
   1   7   4 5519.69  847.58   1
  -1  -7   4 5655.72  759.80  -2
  -1   7  -4 5655.72  759.80   1
   1  -7  -5   -9.06  296.99  -2
   1   7   5   -9.06  296.99   1
  -1  -7   5 1107.35  408.74  -2
  -1   7  -5 1107.35  408.74   1
  -1  -7   6 3221.22  588.07  -2
  -1   7  -6 3221.22  588.07   1
   1  -7  -6 2933.61  644.21  -2
   1   7   6 2933.61  644.21   1
  -1  -7   7  747.25  387.73  -2
  -1   7  -7  747.25  387.73   1
   1  -7  -7 -298.00  303.47  -2
   1   7   7 -298.00  303.47   1
  -1  -7   8  458.49  248.24  -2
  -1   7  -8  458.49  248.24   1
   1  -7  -8 1095.15  486.23  -2
   1   7   8 1095.15  486.23   1
  -1  -7   9  395.02  284.58  -2
  -1   7  -9  395.02  284.58   1
   1  -7  -9  473.69  414.56  -2
   1   7   9  473.69  414.56   1
   1  -7 -10  484.71  291.76  -2
   1   7  10  484.71  291.76   1
  -1  -7  10  208.52  318.13  -2
  -1   7 -10  208.52  318.13   1
  -1  -7  11 2341.30  515.70  -2
  -1   7 -11 2341.30  515.70   1
   1  -7 -11 2428.58  639.66  -2
   1   7  11 2428.58  639.66   1
   1  -7 -12 2063.75  618.91  -2
   1   7  12 2063.75  618.91   1
  -1  -7  12 1804.93  436.66  -2
  -1   7 -12 1804.93  436.66   1
  -1  -7  13  389.79  219.11  -2
  -1   7 -13  389.79  219.11   1
   1  -7 -13   15.70  254.26  -2
   1   7  13   15.70  254.26   1
  -1  -7  14 2396.13  540.59  -2
  -1   7 -14 2396.13  540.59   1
   1  -7 -14 2442.18  687.67  -2
   1   7  14 2442.18  687.67   1
   1  -7 -15  391.62  301.08  -2
   1   7  15  391.62  301.08   1
  -1  -7  15  170.82  194.35  -2
  -1   7 -15  170.82  194.35   1
  -1  -7  16 -251.82  319.67  -2
  -1   7 -16 -251.82  319.67   1
   1  -7 -16  -72.43  245.69  -2
   1   7  16  -72.43  245.69   1
  -1  -7  17 1008.46  415.00  -2
  -1   7 -17 1008.46  415.00   1
   1  -7 -17  518.73  351.13  -2
   1   7  17  518.73  351.13   1
  -1  -7  18 -283.44  320.83  -2
  -1   7 -18 -283.44  320.83   1
  -1  -7  19 -517.07  401.93  -2
  -1   7 -19 -517.07  401.93   1
   1  -8  15 -678.29  429.42  -2
   1   8 -15 -678.29  429.42   1
  -1  -8 -14  630.66  497.59  -2
  -1   8  14  630.66  497.59   1
   1  -8  14  903.60  539.02  -2
   1   8 -14  903.60  539.02   1
  -1  -8 -13  661.80  394.22  -2
  -1   8  13  661.80  394.22   1
   1  -8  13  599.70  427.20  -2
   1   8 -13  599.70  427.20   1
   1  -8  13  731.46  323.82  -2
   1   8 -13  731.46  323.82   1
   1  -8  12   14.78  189.50  -2
   1   8 -12   14.78  189.50   1
  -1  -8 -12  460.36  351.33  -2
  -1   8  12  460.36  351.33   1
   1  -8  12  110.09  256.38  -2
   1   8 -12  110.09  256.38   1
  -1  -8 -11 1228.11  585.70  -2
  -1   8  11 1228.11  585.70   1
   1  -8  11  537.23  261.07  -2
   1   8 -11  537.23  261.07   1
   1  -8  11  849.76  472.89  -2
   1   8 -11  849.76  472.89   1
   1  -8  10 -359.05  317.83  -2
   1   8 -10 -359.05  317.83   1
   1  -8  10   46.61  210.92  -2
   1   8 -10   46.61  210.92   1
  -1  -8  -9   75.20  251.67  -2
  -1   8   9   75.20  251.67   1
   1  -8   9 -295.41  290.63  -2
   1   8  -9 -295.41  290.63   1
   1  -8   9  115.14  329.58  -2
   1   8  -9  115.14  329.58   1
  -1  -8  -8 1215.01  391.06  -2
  -1   8   8 1215.01  391.06   1
   1  -8   8 1321.43  518.22  -2
   1   8  -8 1321.43  518.22   1
  -1  -8  -7   80.13  230.69  -2
  -1   8   7   80.13  230.69   1
   1  -8   7  -54.44  163.68  -2
   1   8  -7  -54.44  163.68   1
  -1  -8  -6 1052.53  496.48  -2
  -1   8   6 1052.53  496.48   1
   1  -8   6  644.53  407.49  -2
   1   8  -6  644.53  407.49   1
   1  -8   5 2306.31  616.71  -2
   1   8  -5 2306.31  616.71   1
  -1  -8  -5 2494.96  660.19  -2
  -1   8   5 2494.96  660.19   1
   1  -8   4  -69.62  190.89  -2
   1   8  -4  -69.62  190.89   1
  -1  -8  -4 -119.60  272.75  -2
  -1   8   4 -119.60  272.75   1
   1  -8   4  461.31  392.09  -2
   1   8  -4  461.31  392.09   1
  -1  -8  -4 -430.76  327.68  -2
  -1   8   4 -430.76  327.68   1
  -1  -8  -3  587.83  352.18  -2
  -1   8   3  587.83  352.18   1
  -1  -8  -3  818.06  332.92  -2
  -1   8   3  818.06  332.92   1
   1  -8   3 1149.54  462.40  -2
   1   8  -3 1149.54  462.40   1
   1  -8   3 1039.27  419.67  -2
   1   8  -3 1039.27  419.67   1
  -1  -8  -2  331.47  369.20  -2
  -1   8   2  331.47  369.20   1
   1  -8   2  566.16  372.72  -2
   1   8  -2  566.16  372.72   1
  -1  -8  -2  337.18  257.18  -2
  -1   8   2  337.18  257.18   1
   1  -8   1  786.71  401.70  -2
   1   8  -1  786.71  401.70   1
  -1  -8  -1  513.97  412.86  -2
  -1   8   1  513.97  412.86   1
  -1  -8  -1  120.01  234.96  -2
  -1   8   1  120.01  234.96   1
   1  -8   0  491.72  331.89  -2
   1   8   0  491.72  331.89   1
  -1  -8   0 1356.46  538.60  -2
  -1   8   0 1356.46  538.60   1
  -1  -8   0 1301.47  445.96  -2
  -1   8   0 1301.47  445.96   1
  -1  -8   1 2675.92  571.12  -2
  -1   8  -1 2675.92  571.12   1
   1  -8  -1 2760.17  669.43  -2
   1   8   1 2760.17  669.43   1
  -1  -8   1 3080.19  741.23  -2
  -1   8  -1 3080.19  741.23   1
   1  -8  -2 1213.77  463.61  -2
   1   8   2 1213.77  463.61   1
  -1  -8   2 1804.19  507.50  -2
  -1   8  -2 1804.19  507.50   1
   1  -8  -3  445.31  287.88  -2
   1   8   3  445.31  287.88   1
  -1  -8   3  777.96  335.20  -2
  -1   8  -3  777.96  335.20   1
  -1  -8   4  500.46  344.15  -2
  -1   8  -4  500.46  344.15   1
   1  -8  -4   86.91  206.34  -2
   1   8   4   86.91  206.34   1
   1  -8  -5   93.74  241.62  -2
   1   8   5   93.74  241.62   1
  -1  -8   5  237.67  247.38  -2
  -1   8  -5  237.67  247.38   1
   1  -8  -6  310.77  209.13  -2
   1   8   6  310.77  209.13   1
  -1  -8   6 1732.31  529.18  -2
  -1   8  -6 1732.31  529.18   1
  -1  -8   7 1047.40  427.72  -2
  -1   8  -7 1047.40  427.72   1
   1  -8  -7  116.07  265.11  -2
   1   8   7  116.07  265.11   1
   1  -8  -8 2036.64  706.47  -2
   1   8   8 2036.64  706.47   1
  -1  -8   8 1956.35  528.03  -2
  -1   8  -8 1956.35  528.03   1
  -1  -8   9 1256.36  486.15  -2
  -1   8  -9 1256.36  486.15   1
   1  -8  -9 1101.75  509.81  -2
   1   8   9 1101.75  509.81   1
   1  -8 -10 2661.67  718.32  -2
   1   8  10 2661.67  718.32   1
  -1  -8  10 2660.50  661.70  -2
  -1   8 -10 2660.50  661.70   1
  -1  -8  11  611.82  409.41  -2
  -1   8 -11  611.82  409.41   1
   1  -8 -11  407.41  389.35  -2
   1   8  11  407.41  389.35   1
  -1  -8  12  348.22  316.49  -2
  -1   8 -12  348.22  316.49   1
   1  -8 -12  977.43  480.11  -2
   1   8  12  977.43  480.11   1
  -1  -8  13  891.26  392.66  -2
  -1   8 -13  891.26  392.66   1
   1  -9  10   48.88  304.38  -2
   1   9 -10   48.88  304.38   1
   1  -9   9  790.76  484.87  -2
   1   9  -9  790.76  484.87   1
   1  -9   8 -335.05  260.62  -2
   1   9  -8 -335.05  260.62   1
   1  -9   7  291.69  333.52  -2
   1   9  -7  291.69  333.52   1
   1  -9   6  164.87  262.31  -2
   1   9  -6  164.87  262.31   1
   2   0 -28  680.17  449.98   1
   2   0 -27 -249.84  364.57   1
   2   0 -26 -333.32  320.21   1
  -2   0  26  275.71  274.49   1
   2   0 -25 -359.85  378.50   1
  -2   0  25   16.09  233.93   1
  -2   0  24  765.98  352.47   1
   2   0 -24  110.96  244.88   1
  -2   0  23  283.25  248.83   1
   2   0 -23  -58.05  222.10   1
  -2   0  22 2299.80  557.65   1
   2   0 -22 1822.05  602.57   1
  -2   0  21  129.72  265.08   1
   2   0 -21  -91.07  204.95   1
  -2   0  20 2899.66  575.41   1
   2   0 -20 2758.98  651.05   1
   2   0 -19  271.89  262.69   1
  -2   0  19   76.80  167.87   1
   2   0 -18  516.01  335.86   1
  -2   0  18  316.24  224.00   1
   2   0 -17  220.59  231.43   1
  -2   0  17   42.54  102.49   1
   2   0 -16 2369.79  546.73   1
  -2   0  16 1686.36  371.55   1
  -2   0  15  247.17  168.36   1
   2   0 -15  183.80  206.65   1
   2   0 -1412522.60 1114.83   1
  -2   0  1410795.00  805.74   1
  -2   0  13  288.85  180.60   1
   2   0 -13  -98.44  139.60   1
   2   0 -13  322.13  263.90   1
   2   0 -1213753.90 1077.88   1
   2   0 -1214361.30  906.20   1
  -2   0  1210540.30  737.32   1
   2   0 -12 9383.44  729.81   1
   2   0 -11  237.74  218.64   1
   2   0 -11   77.03  165.96   1
   2   0 -11 -158.29  125.96   1
   2   0 -10  308.68  165.55   1
   2   0 -10  129.65   52.36   1
   2   0 -10  396.43  161.78   1
   2   0  -9   15.44  120.26   1
   2   0  -9  -42.16   58.18   1
   2   0  -9   73.98  101.43   1
   2   0  -9   14.94  178.78   1
   2   0  -8 8064.89  460.95   1
   2   0  -811317.00  863.64   1
   2   0  -811092.40 1112.30   1
   2   0  -8 9753.51  699.46   1
   2   0  -7   90.45   58.93   1
   2   0  -7  362.91  229.77   1
   2   0  -7  662.70  311.05   1
   2   0  -7  421.15  342.99   1
  -2   0   7   19.28   22.58   1
   2   0  -660236.30 1883.94   1
   2   0  -657263.20 1666.55   1
  -2   0   5   50.92  101.22   1
   2   0  -5  219.69  201.07   1
   2   0  -5 2326.82  695.81   1
   2   0  -5 2477.32  569.58   1
  -2   0   5  -20.64   67.01   1
   2   0  -428552.50 1220.35   1
  -2   0   429622.70 1278.10   1
  -2   0   427954.50  866.60   1
   2   0  -427419.80 1645.04   1
  -2   0   3   27.22   68.16   1
   2   0  -3  146.35  142.66   1
   2   0  -2 7912.21  630.21   1
  -2   0   2 8791.63  662.44   1
  -2   0   2 8118.96  561.43   1
   2   0  -2 7685.33  838.02   1
  -2   0   1  -35.65   97.69   1
   2   0  -1  132.47  110.70   1
  -2   0   037638.40 1380.60   1
   2   0   032579.00 1205.89   1
  -2   0  -1  736.54  233.26   1
   2   0   1  293.41  109.67   1
  -2   0  -1  352.67  113.16   1
   2   0   233856.90  996.45   1
  -2   0  -234788.20  985.50   1
   2   0   3  348.00  176.17   1
  -2   0  -3  323.13  140.76   1
  -2   0  -3  695.38  245.50   1
  -2   0  -451483.70 1731.73   1
  -2   0  -449219.40 1449.97   1
   2   0   446917.30 1427.77   1
   2   0   5  183.43  172.12   1
  -2   0  -5   77.47  116.90   1
   2   0   5  587.41  544.72   1
   2   0   6   67.67   74.52   1
  -2   0  -6   62.75   61.15   1
   2   0   7    2.58   93.44   1
   2   0   7   81.63  176.28   1
   2   0   8  865.05  240.53   1
   2   0   8  881.98  460.76   1
   2   0   9  -47.11   94.57   1
   2   0   9  115.89  324.35   1
   2   0  1025727.70 1443.30   1
   2   0  11    7.56  175.86   1
   2   0  12 5041.67  729.91   1
   2   0  13  120.41  166.25   1
   2   0  14 2781.07  563.94   1
   2   0  15 -252.95  285.23   1
   2   0  16 3125.74  625.71   1
   2   0  17   81.35  194.90   1
   2   0  18 2803.37  610.58   1
   2   0  19  -28.70  181.48   1
   2   0  20 5319.55  985.96   1
   2   0  21  320.04  363.34   1
   2   0  22  -29.43  296.55   1
   2   0  23   33.53  254.52   1
   2   0  24  743.47  544.27   1
   2   0  25  600.81  467.49   1
   2   0  26 2186.91  763.96   1
   2   0  27  815.01  545.20   1
   2  -1 -28  219.63  298.89   1
   2  -1 -27  400.51  427.33   1
   2   1 -27   54.80  237.56   1
   2  -1 -26  291.00  324.87   1
   2   1 -26   59.67  279.00   1
  -2   1  25 1202.06  502.89   1
   2  -1 -25  270.95  314.59   1
   2   1 -25  453.15  347.46   1
  -2   1  24  425.99  349.79   1
   2  -1 -24  481.73  315.38   1
   2   1 -24  668.38  383.61   1
   2   1 -23 -114.97  201.97   1
  -2   1  23  422.01  286.13   1
   2  -1 -23 -207.54  210.94   1
  -2   1  22 3622.21  721.50   1
   2  -1 -22 1850.35  548.83   1
   2   1 -22 3216.79  783.68   1
   2  -1 -21 -165.96  195.96   1
   2   1 -21  149.10  241.62   1
   2  -1 -20  198.51  177.80   1
   2   1 -20  505.32  308.71   1
  -2   1  20  776.94  318.52   1
  -2   1  19  356.34  251.35   1
   2   1 -19  861.28  439.04   1
   2  -1 -19  346.52  269.66   1
  -2   1  18 9040.25  973.66   1
   2   1 -1810641.10 1242.02   1
   2  -1 -18 8109.29 1019.77   1
   2   1 -1812229.60  855.34   1
  -2   1  17 2513.39  509.26   1
   2   1 -17 3150.88  455.87   1
   2   1 -17 2994.10  654.13   1
   2  -1 -17 1971.13  515.24   1
  -2   1  16 5358.44  687.68   1
   2   1 -16 5595.51  839.61   1
   2  -1 -16 5373.04  797.99   1
   2   1 -16 6255.13  600.52   1
  -2   1  15 1512.82  355.47   1
   2  -1 -15 1500.12  422.96   1
   2   1 -15 1905.84  502.16   1
   2   1 -15 1492.97  301.43   1
   2  -1 -14 -134.30   94.00   1
  -2   1  14  -21.03   83.15   1
   2  -1 -14  387.34  221.15   1
   2   1 -14  236.12  208.83   1
   2   1 -14   80.96  121.57   1
   2  -1 -13 2709.74  495.15   1
   2   1 -13 2672.52  537.59   1
  -2   1  13 2379.76  383.02   1
   2   1 -13 1853.91  386.85   1
   2  -1 -13 2307.07  397.54   1
   2   1 -13 2673.13  377.56   1
   2  -1 -13 1454.85  214.69   1
   2  -1 -13 2581.39  603.07   1
   2  -1 -12 1019.05  298.17   1
   2   1 -12  933.93  300.20   1
  -2   1  12  842.20  246.75   1
   2  -1 -12  918.37  172.04   1
   2   1 -12  568.89  211.19   1
   2  -1 -12  937.75  252.53   1
   2   1 -12 1456.66  285.79   1
   2  -1 -12  854.92  375.40   1
  -2   1  11  309.41  159.39   1
   2   1 -11  237.84  136.69   1
   2  -1 -11  295.59  117.72   1
   2  -1 -11   48.04   76.87   1
   2   1 -11  516.32  195.27   1
   2  -1 -11  253.23  312.88   1
   2  -1 -11  518.20  246.97   1
   2   1 -11  705.25  312.86   1
  -2   1  1029807.90 1204.40   1
   2   1 -1029847.40 1328.49   1
   2  -1 -1030442.90 1168.08   1
   2  -1 -1033651.00 1489.12   1
   2   1 -1036894.80 1764.07   1
   2  -1 -1036374.00 2105.37   1
   2   1 -1034423.90 1320.84   1
   2  -1 -1030987.90  983.94   1
  -2   1   921708.80  944.22   1
   2  -1  -921507.60  879.04   1
   2   1  -927936.70 1508.08   1
   2  -1  -923204.40  886.15   1
   2   1  -922225.10 1078.59   1
   2  -1  -924394.70 1203.51   1
   2  -1  -926373.50 1773.38   1
   2   1  -924381.70 1129.71   1
  -2   1   814643.50  718.38   1
   2  -1  -812926.40  619.68   1
   2   1  -817063.00 1152.52   1
   2   1  -815716.90  837.96   1
   2  -1  -814585.60  891.39   1
   2  -1  -818527.30 1467.67   1
  -2   1   815297.20  556.78   1
   2   1  -816328.60  915.67   1
   2  -1  -815270.20  745.25   1
  -2   1   710604.00  547.81   1
   2  -1  -710325.50  647.43   1
   2   1  -713252.60 1007.24   1
   2  -1  -710292.60  725.64   1
   2  -1  -712536.10 1183.23   1
   2   1  -711138.80 1133.28   1
   2   1  -711882.90  781.85   1
   2   1  -710991.60  628.66   1
  -2   1   710615.90  467.53   1
  -2   1   6  -74.74   77.95   1
   2   1  -6   96.72   71.13   1
  -2   1   6   32.36   40.25   1
   2   1  -6   -0.21   89.88   1
   2  -1  -6   81.13   94.62   1
   2   1  -6  362.03  217.64   1
  -2  -1   6   -3.89   27.66   1
   2   1  -6  238.68  227.49   1
   2  -1  -6  330.96  284.17   1
   2   1  -5 1346.44  187.39   1
  -2   1   5 1128.29  128.72   1
   2  -1  -5 1322.33  380.21   1
   2   1  -5 1663.98  350.44   1
   2  -1  -5 1263.95  241.85   1
   2   1  -5 1428.19  281.73   1
  -2   1   5 1666.40  230.42   1
   2   1  -5 1195.13  349.92   1
   2   1  -4 5022.16  538.65   1
   2  -1  -4 5205.37  457.89   1
  -2   1   4 4998.51  464.84   1
   2  -1  -4 6141.43  775.09   1
   2   1  -4 5035.71  701.91   1
  -2   1   4 5219.96  403.58   1
   2  -1  -3 5226.54  436.01   1
   2   1  -3 4506.21  500.20   1
   2   1  -3 4945.56  342.48   1
  -2   1   3 5920.00  476.13   1
   2   1  -3 5785.92  744.16   1
  -2   1   3 6375.51  471.96   1
   2  -1  -212632.80  669.32   1
  -2   1   214294.90  707.09   1
   2   1  -215260.00 1203.61   1
   2   1  -213534.40  894.72   1
  -2   1   213604.50  737.57   1
   2   1  -211214.80  488.30   1
  -2   1   182210.80 1239.44   1
   2   1  -181907.50 1413.54   1
  -2   1   184154.10 1669.12   1
  -2   1   184489.70 1948.44   1
   2   1  -179709.40 2623.57   1
   2  -1  -180158.70 1625.93   1
   2   1   0  142689    2814   1
  -2   1   0  132976    1853   1
   2   1   0  136803    1976   1
  -2   1   0  139386    2188   1
  -2   1   0  136435    2616   1
   2   1   1 6865.59  519.15   1
  -2   1  -1 6037.01  484.58   1
  -2   1  -1 7915.37  699.90   1
   2   1   1 7679.49  702.54   1
  -2   1  -223974.60  956.99   1
   2   1   225039.70 1006.65   1
  -2   1  -228548.00 1082.63   1
  -2  -1  -226240.00  980.32   1
  -2   1  -225745.70 1254.25   1
  -2   1  -3 3009.98  370.70   1
  -2   1  -3 3166.71  394.50   1
   2   1   3 3289.60  402.37   1
  -2  -1  -3 3313.25  381.29   1
  -2   1  -3 3432.78  482.94   1
  -2   1  -417472.80  958.96   1
   2   1   418853.30  994.28   1
  -2  -1  -420190.70  993.15   1
   2  -1   416627.70 1935.28   1
  -2   1  -418406.90 1143.59   1
  -2   1  -418183.20  911.58   1
  -2   1  -5 8500.25  708.38   1
   2   1   5 8746.68  711.25   1
  -2   1  -5 8996.17  849.64   1
  -2  -1  -510072.50  739.26   1
   2  -1   5 8793.11 1423.21   1
   2   1   635591.90 1499.29   1
  -2   1  -634119.80 1481.34   1
  -2   1  -636644.80 1742.47   1
   2  -1   635997.80 2815.58   1
   2  -1   717954.70 1012.31   1
   2   1   719152.20 1161.83   1
   2  -1   719547.00 2098.30   1
  -2   1  -717303.50 1226.88   1
   2   1   831810.80 1555.89   1
  -2   1  -828692.00 1634.89   1
   2  -1   829358.90 2503.66   1
   2  -1   832502.70 1412.91   1
   2  -1   9  923.43  312.03   1
   2   1   9  651.13  237.76   1
   2  -1   9  432.41  382.99   1
   2  -1  10 6462.63  696.14   1
   2   1  10 7000.34  809.82   1
   2  -1  10 5271.19 1122.08   1
   2  -1  11 1330.18  372.55   1
   2   1  11 1117.87  372.51   1
   2  -1  11 1324.76  546.24   1
   2  -1  1217696.80 1236.21   1
   2  -1  1217492.70 1946.88   1
   2   1  1219008.40 1428.64   1
   2  -1  13  398.34  293.46   1
   2   1  13  -60.99  134.03   1
   2  -1  13  826.06  517.01   1
   2  -1  1417856.00 1339.91   1
   2   1  1419044.30 1550.44   1
   2  -1  1416752.60 1900.62   1
   2  -1  1514057.10 1217.72   1
   2   1  1516768.40 1552.70   1
   2  -1  1514017.10 1739.95   1
   2  -1  16  972.47  425.48   1
   2   1  16  574.07  304.53   1
   2  -1  16 1242.33  633.55   1
   2  -1  17  -30.58  135.23   1
   2   1  17  -43.56  170.97   1
   2  -1  18  464.91  314.08   1
   2   1  18  308.17  214.44   1
   2  -1  19  149.50  173.46   1
   2   1  19 -215.63  302.93   1
   2  -1  20  -49.23  200.92   1
   2   1  20 -288.51  342.99   1
   2  -1  21  852.09  468.45   1
   2   1  21 1935.60  571.64   1
   2  -1  22 2519.60  683.00   1
   2   1  22 2368.70  726.42   1
  -2   1 -22 1615.02  452.56   1
   2  -1  23  949.94  508.03   1
  -2   1 -23  180.82  277.66   1
   2   1  23 1098.40  494.99   1
   2   1  24 1262.91  554.68   1
  -2   1 -24  521.77  304.03   1
   2  -1  25  408.41  410.35   1
   2   1  25  -24.02  295.16   1
  -2   1 -25 -612.83  503.24   1
   2  -1  26  340.98  318.51   1
   2   1  26  390.35  361.94   1
  -2   1 -26 -305.18  377.08   1
   2   1  27   45.83  282.78   1
  -2   1 -27 -571.97  520.58   1
  -2   1 -28 -679.94  562.64   1
   2  -2 -28  982.40  605.98   1
   2  -2 -27  559.01  415.94   1
   2   2 -26  101.26  271.36   1
   2  -2 -26  171.48  378.56   1
   2  -2 -25  195.31  264.73   1
   2   2 -25  391.41  376.36   1
  -2   2  24  309.22  288.50   1
   2  -2 -24  465.32  374.95   1
   2   2 -24  -97.91  201.50   1
  -2   2  23  650.80  386.44   1
   2   2 -23  875.26  436.47   1
   2  -2 -23   93.00  185.14   1
   2  -2 -22    7.01  163.47   1
  -2   2  22  182.27  211.94   1
   2   2 -22  397.70  413.93   1
   2  -2 -21  902.22  412.73   1
  -2   2  21 1562.10  500.20   1
   2  -2 -20 -370.90  371.12   1
  -2   2  20   39.85  178.58   1
   2   2 -20  322.05  296.27   1
   2  -2 -19  137.28  258.20   1
  -2   2  19  608.60  271.96   1
   2   2 -19  735.64  384.76   1
   2  -2 -19  209.99  203.44   1
   2   2 -19 1006.99  258.50   1
   2   2 -18 1863.12  579.82   1
  -2   2  18  978.57  359.42   1
   2  -2 -18  380.29  210.75   1
   2  -2 -18 1478.09  561.38   1
   2  -2 -18 1144.69  589.79   1
   2   2 -18 1177.98  268.17   1
   2  -2 -17 1780.06  465.92   1
   2   2 -17 3054.88  719.42   1
  -2   2  17 2194.13  533.53   1
   2  -2 -17 3057.80 1013.46   1
   2   2 -17 2823.56  410.49   1
   2  -2 -17 2965.22  739.59   1
   2   2 -16  308.06  302.43   1
  -2   2  16 -178.94  220.67   1
   2  -2 -16  104.00  119.76   1
   2  -2 -16   61.56  244.98   1
   2  -2 -16  -84.04  418.83   1
   2   2 -16   39.32  104.33   1
   2   2 -15 1631.58  481.65   1
   2  -2 -15 1627.89  499.19   1
   2   2 -15 1553.04  312.66   1
  -2   2  15 1407.07  358.95   1
   2  -2 -15 1285.80  389.47   1
   2  -2 -15 1521.62  764.62   1
  -2   2  14 3985.43  586.09   1
   2   2 -14 4989.67  781.17   1
   2  -2 -14 4315.04  637.27   1
   2  -2 -14 5514.98  901.92   1
   2   2 -14 4707.96  547.77   1
   2  -2 -14 6678.88 1512.27   1
  -2   2  1316222.60 1122.41   1
   2   2 -1319533.40 1484.20   1
   2  -2 -1314952.70 1106.92   1
   2  -2 -1319011.90 1616.60   1
   2   2 -1318172.60 1056.18   1
   2  -2 -1316357.80 2280.35   1
   2  -2 -1312958.20  833.12   1
  -2   2  12 7014.96  710.65   1
   2  -2 -12 6221.79  662.86   1
   2   2 -12 8626.74  982.10   1
   2  -2 -12 6888.99  725.50   1
   2  -2 -12 8041.47 1049.52   1
   2   2 -12 8213.96  728.71   1
   2  -2 -12 5860.87  561.63   1
   2  -2 -12 7514.56 1538.44   1
  -2   2  11 4830.30  558.88   1
   2  -2 -11 4112.20  507.64   1
   2   2 -11 5584.17  778.46   1
   2  -2 -11 4628.49 1247.59   1
   2  -2 -11 4578.98  556.93   1
   2  -2 -11 5405.52  853.94   1
   2   2 -11 5429.43  594.71   1
   2  -2 -11 3675.52  442.25   1
   2  -2 -10 1593.71  318.31   1
   2  -2 -10 1402.93  297.69   1
   2   2 -10 1602.39  340.41   1
   2  -2 -10 1079.58  226.89   1
  -2   2  10 1833.46  330.87   1
   2   2 -10 1995.08  464.01   1
   2  -2 -10 2192.26  533.91   1
   2  -2 -10 1356.58  643.63   1
   2   2 -10 2278.47  399.37   1
   2   2  -9  282.43  213.07   1
   2   2  -9  148.40  113.52   1
   2  -2  -9 -331.03  169.55   1
  -2  -2   9   58.36   45.61   1
  -2   2   9  124.93  135.76   1
   2   2  -9  245.45  182.41   1
   2  -2  -9   62.33  103.40   1
   2  -2  -9  -10.54  334.58   1
   2  -2  -9  154.04  204.11   1
  -2   2   9    6.15   75.75   1
  -2   2   8 1693.39  282.54   1
   2  -2  -8 1646.89  306.85   1
   2   2  -8 1501.13  364.52   1
   2  -2  -8 1346.02  261.57   1
   2  -2  -8 1027.67  642.37   1
   2  -2  -8 1883.41  494.06   1
  -2   2   8 1484.45  233.77   1
  -2  -2   8 1068.32  132.07   1
   2   2  -8 1581.73  301.58   1
  -2   2   7  645.94  153.36   1
  -2  -2   7  400.92   87.47   1
   2   2  -7  932.09  346.06   1
  -2   2   7  472.11   79.57   1
   2  -2  -7  872.05  569.95   1
   2  -2  -7  771.10  245.05   1
   2  -2  -7 1129.32  458.45   1
   2  -2  -7  563.87  169.46   1
   2   2  -636299.00 1739.75   1
  -2   2   632170.50 1063.54   1
   2  -2  -626798.40  977.27   1
   2  -2  -635478.60 2009.26   1
   2  -2  -630120.10 2990.04   1
  -2   2   630237.30 1007.30   1
  -2  -2   627044.70  746.72   1
   2  -2  -629595.60 1347.77   1
   2  -2  -5  112715    1873   1
  -2   2   5  121807    2076   1
   2  -2  -5  118902    2767   1
   2   2  -5  117275    3502   1
  -2  -2   5  114382    1652   1
   2  -2  -456585.10 1195.62   1
  -2   2   470421.20 1507.50   1
   2   2  -477787.50 2480.42   1
   2   2  -469042.40 2625.09   1
  -2  -2   462100.50 1329.09   1
  -2   2   467063.40 1603.20   1
   2  -2  -462486.90 2078.74   1
   2   2  -3 1725.61  521.61   1
   2  -2  -3 1011.00  367.89   1
  -2   2   3  445.48  146.76   1
   2  -2  -3  607.79  128.26   1
  -2   2   3 1585.35  345.32   1
   2   2  -3 1179.11  278.38   1
  -2   2   2  197.22  159.57   1
   2   2  -2 -113.76  119.72   1
   2   2  -2   66.23  172.35   1
   2   2  -1 9662.78  811.71   1
   2   2  -1 8814.57  659.19   1
  -2   2   1 8416.12  641.90   1
   2   2  -1 8547.23  866.77   1
   2   2   024022.30 1280.90   1
   2   2   022849.60 1021.74   1
   2   2   022815.30 1376.27   1
  -2   2   023210.40 1118.04   1
   2   2   115669.80  841.80   1
  -2   2  -115519.80  804.04   1
   2   2   117429.80 1121.44   1
  -2   2  -116509.80  976.68   1
  -2   2  -212406.80  747.58   1
   2   2   212342.10  776.86   1
  -2   2  -210268.20  468.05   1
  -2   2  -211234.90  856.67   1
  -2   2  -312074.40  780.53   1
  -2   2  -311050.40  557.50   1
   2   2   312552.60  818.80   1
  -2  -2  -311739.00  825.57   1
   2  -2   311875.00 1764.71   1
  -2   2  -312925.50  954.54   1
  -2   2  -414873.00  917.19   1
  -2   2  -416445.80 1100.30   1
   2   2   415152.00  927.94   1
   2  -2   414177.00 1947.92   1
  -2   2  -5  681.98  350.75   1
   2   2   5  293.13  159.88   1
   2  -2   5  216.99  443.17   1
   2   2   615312.00 1015.39   1
  -2   2  -615175.50 1124.42   1
   2  -2   614194.00 1917.21   1
   2  -2   7  432.49  698.73   1
   2   2   7  784.64  305.10   1
  -2   2  -7  612.91  319.78   1
   2   2   811726.00  979.01   1
   2  -2   810808.90 1695.09   1
  -2   2  -8 9625.70  981.08   1
   2   2   9 2210.28  463.12   1
  -2   2  -9 1923.65  468.12   1
   2  -2   9 1124.98  584.32   1
   2   2  10 2357.82  502.07   1
  -2   2 -10 2285.52  545.86   1
   2  -2  10 3179.91  906.83   1
   2   2  11 7061.28  855.84   1
   2  -2  11 6108.81 1257.98   1
  -2   2 -11 5400.51  805.66   1
   2   2  12 5486.56  766.48   1
  -2   2 -12 4488.39  750.40   1
   2  -2  12 5441.56 1198.13   1
   2   2  13 1829.68  471.47   1
  -2   2 -13 1666.19  516.03   1
   2  -2  13 1571.79  713.64   1
   2   2  14 5397.07  831.31   1
  -2   2 -14 5044.25  839.60   1
   2  -2  14 5016.56 1106.63   1
   2   2  15 3344.84  630.72   1
  -2   2 -15 3266.87  689.33   1
   2  -2  15 3116.77  863.31   1
   2   2  16  751.73  342.73   1
  -2   2 -16  703.35  278.81   1
   2  -2  16 1197.41  563.79   1
   2   2  17 1703.03  534.71   1
  -2   2 -17  992.81  364.61   1
   2  -2  17 1345.61  595.03   1
   2   2  1811298.30 1399.41   1
  -2   2 -1810165.60 1313.84   1
   2  -2  1810766.40 1569.57   1
   2   2  1912350.60 1523.94   1
  -2   2 -1911638.00 1405.09   1
   2   2  20  668.66  380.04   1
  -2   2 -20  791.59  328.59   1
   2   2  21  -57.13  409.07   1
  -2   2 -21  -17.52  268.67   1
   2   2  22 -384.40  522.45   1
  -2   2 -22 -344.65  380.12   1
   2   2  23 -345.98  390.63   1
  -2   2 -23 -145.85  304.57   1
   2   2  24 -249.97  324.01   1
  -2   2 -24  498.01  390.88   1
   2   2  25 -117.94  286.64   1
  -2   2 -25  235.00  237.45   1
   2   2  26 -176.75  285.11   1
  -2   2 -26  381.17  278.24   1
  -2   2 -27  580.36  311.61   1
   2  -3 -28 1284.78  676.85   1
   2  -3 -27  909.58  545.04   1
   2   3 -25  569.21  426.50   1
   2  -3 -25  312.54  375.85   1
   2   3 -24  -61.29  255.47   1
  -2   3  24 -285.49  422.40   1
   2  -3 -24 -120.75  280.80   1
   2   3 -23  656.53  386.55   1
  -2   3  23  -62.85  371.32   1
   2  -3 -23  610.42  436.10   1
   2   3 -22  542.21  353.42   1
  -2   3  22  201.55  254.39   1
   2  -3 -22  405.97  309.68   1
   2   3 -21   99.03  237.05   1
  -2   3  21 -581.46  430.11   1
   2  -3 -21 -126.09  312.09   1
   2   3 -20 1036.99  483.79   1
  -2   3  20  553.27  284.19   1
   2  -3 -20  -92.13  235.74   1
   2  -3 -19 2932.65 1136.73   1
  -2   3  19 1983.49  518.76   1
   2   3 -19 2581.02  448.05   1
   2  -3 -19 2334.24  664.91   1
   2   3 -19 3093.44  724.23   1
   2  -3 -18  170.40  320.46   1
  -2   3  18  604.98  310.16   1
   2   3 -18  918.09  282.25   1
   2  -3 -18  907.54  450.30   1
   2   3 -18  867.04  427.24   1
  -2   3  17 5046.41  809.50   1
   2   3 -17 6397.77  996.36   1
   2  -3 -17 6564.42 1067.35   1
   2   3 -17 6412.25  706.23   1
   2  -3 -17 6175.05 1581.74   1
   2   3 -16  710.94  266.64   1
  -2   3  16  362.16  255.86   1
   2   3 -16 1069.92  497.69   1
   2  -3 -16  515.78  351.97   1
   2  -3 -16  729.02  692.55   1
  -2   3  15 1085.68  364.97   1
   2   3 -15 1845.67  401.02   1
   2  -3 -15 1533.16  522.59   1
   2   3 -15 1700.83  501.27   1
   2  -3 -15 1870.49  897.55   1
  -2   3  14  162.72  165.53   1
   2   3 -14  127.21  265.42   1
   2  -3 -14  -23.79  178.97   1
   2  -3 -14  467.20  447.64   1
   2  -3 -13  945.13  738.65   1
  -2   3  13  220.88  225.05   1
   2   3 -13  251.55  265.21   1
   2  -3 -13   97.33  194.52   1
  -2   3  12 5244.54  658.34   1
   2   3 -12 4838.41  778.49   1
   2  -3 -12 4784.90  853.43   1
   2  -3 -12 5428.48 1452.97   1
  -2   3  11 9744.30  849.22   1
   2   3 -1110933.80 1161.12   1
   2  -3 -11 7701.21  690.72   1
   2  -3 -1110355.80 1166.31   1
   2  -3 -1111522.20 2070.37   1
  -2  -3  11 8860.67  559.02   1
  -2  -3  10  138.79  100.30   1
   2   3 -10  467.07  354.06   1
  -2   3  10   56.05   92.36   1
   2  -3 -10   92.92  323.83   1
  -2   3  10  140.36  114.07   1
   2  -3 -10  224.30  159.90   1
   2  -3 -10  195.57  649.83   1
  -2   3   921017.80 1151.29   1
   2   3  -921091.90 1495.78   1
  -2   3   918990.80 1018.37   1
  -2  -3   917779.50  790.68   1
  -2  -3   8  815.62  180.70   1
   2   3  -8 1214.30  433.41   1
  -2   3   8 1123.61  263.89   1
   2  -3  -8  790.75  200.87   1
  -2   3   8 1321.48  272.12   1
  -2   3   7 6740.79  605.97   1
   2   3  -7 7084.34  853.83   1
   2  -3  -7 4973.17  401.46   1
  -2   3   7 6646.75  551.22   1
  -2  -3   7 5935.10  455.74   1
  -2   3   6 5692.77  565.60   1
   2   3  -6 5460.25  742.85   1
  -2  -3   6 4331.56  379.14   1
  -2   3   6 5224.12  495.97   1
  -2  -3   5  725.85  177.10   1
  -2   3   5  580.41  174.83   1
   2  -3  -5  207.54   57.41   1
  -2   3   5  552.59  155.49   1
   2   3  -5  499.12  192.06   1
  -2   3   4  686.45  204.29   1
  -2  -3   4  785.76  192.01   1
  -2   3   4  555.46  183.63   1
   2   3  -4  693.04  238.45   1
   2   3  -4  855.91  350.52   1
   2   3  -310612.00  976.83   1
  -2   3   3 9749.19  699.23   1
   2   3  -3 9874.68  768.41   1
   2   3  -3 9020.44  922.50   1
  -2   3   310127.40  717.16   1
   2   3  -2 6467.29  800.57   1
   2   3  -2 6421.23  616.42   1
   2   3  -2 6771.79  813.31   1
  -2   3   2 7034.14  628.44   1
   2   3  -130616.20 1615.13   1
   2   3  -129388.80 1321.57   1
   2   3  -126347.90 1528.17   1
  -2   3   129975.10 1319.70   1
  -2   3   0 1118.29  340.37   1
   2   3   0  988.53  454.20   1
   2   3   0  157.88  142.01   1
   2   3   112188.40  924.62   1
   2   3   1 9390.89  866.77   1
  -2   3  -111009.50  848.13   1
   2   3   1 9974.09  915.85   1
  -2   3  -2 1086.50  292.85   1
   2   3   2 1226.96  329.80   1
  -2   3  -3  768.71  249.66   1
   2   3   3  967.61  286.39   1
  -2   3  -4   31.69  142.59   1
   2   3   4  367.38  237.74   1
  -2   3  -4  197.00   60.08   1
   2   3   517773.60 1134.25   1
  -2   3  -516025.80 1152.41   1
  -2   3  -6  -88.56  187.21   1
   2   3   6  205.59  193.23   1
   2   3   718466.70 1250.29   1
  -2  -3  -714947.10 1205.55   1
  -2   3  -715426.90 1167.20   1
  -2   3  -8  902.26  318.53   1
   2   3   8  923.56  292.11   1
  -2  -3  -8  748.58  334.74   1
   2   3   9 5909.03  736.01   1
  -2  -3  -9 4569.31  701.96   1
  -2   3  -9 5784.25  794.79   1
  -2   3 -10  616.12  394.31   1
   2   3  10  681.47  320.47   1
   2  -3  10 1213.98  753.28   1
   2  -3  11  463.12  531.72   1
  -2   3 -11  400.25  318.06   1
   2   3  11  429.74  304.87   1
  -2   3 -12  345.77  362.67   1
   2   3  12  292.13  268.19   1
   2  -3  12  682.78  496.61   1
   2   3  13 6375.62  895.92   1
   2  -3  13 5669.99 1368.44   1
  -2   3 -13 6653.75  974.93   1
   2  -3  14  828.95  617.71   1
  -2   3 -14  668.08  413.43   1
   2   3  14  521.64  318.14   1
   2   3  15 5306.08  897.84   1
  -2   3 -15 5322.33  930.06   1
   2  -3  15 5428.19 1269.18   1
   2   3  16  752.70  356.54   1
  -2   3 -16  938.38  471.66   1
   2  -3  16  512.64  496.32   1
   2   3  17  881.17  388.35   1
  -2   3 -17  846.51  421.54   1
   2  -3  17 1706.77  754.37   1
   2   3  18  142.10  194.59   1
  -2   3 -18  705.54  421.82   1
   2   3  18  632.98  261.29   1
   2  -3  18  663.36  607.33   1
   2   3  19 -205.69  324.80   1
  -2   3 -19  365.58  355.22   1
   2   3  20  113.40  203.76   1
  -2   3 -20  126.02  317.37   1
   2   3  21   44.83  235.63   1
  -2   3 -21  572.98  400.87   1
   2   3  22   67.66  266.74   1
  -2   3 -22  965.88  507.51   1
   2   3  23  396.14  365.93   1
  -2   3 -23  965.18  533.56   1
   2   3  24-1253.48  792.26   1
  -2   3 -24  257.48  393.95   1
   2   3  25 -330.26  457.88   1
  -2   3 -25  336.62  406.91   1
  -2   3 -26  844.57  529.59   1
   2   4 -24 -210.38  360.32   1
   2   4 -23  -22.59  278.96   1
  -2   4  22 -251.16  378.27   1
   2   4 -22  -19.96  235.35   1
   2   4 -21 -199.73  301.30   1
  -2   4  21   73.58  168.46   1
  -2   4  20 1792.33  574.94   1
   2  -4 -20 1610.03  640.55   1
   2   4 -20 2279.59  703.93   1
   2  -4 -19 2531.33  728.31   1
  -2   4  19 2404.26  632.13   1
   2   4 -19 2152.63  653.10   1
   2  -4 -19 1975.28 1094.80   1
  -2   4  18 1303.44  475.04   1
   2   4 -18 1691.39  607.53   1
   2  -4 -18  884.56  452.52   1
   2  -4 -18 1836.62 1087.88   1
  -2   4  17  488.82  323.65   1
   2   4 -17  645.93  423.54   1
   2  -4 -17  265.24  348.95   1
   2  -4 -17  443.24  653.83   1
  -2   4  16 1042.00  402.38   1
   2   4 -16  857.20  464.55   1
   2  -4 -16  368.95  340.45   1
   2  -4 -16 1010.54  912.39   1
  -2   4  15 3005.50  601.61   1
   2   4 -15 2939.34  696.53   1
   2  -4 -15 2862.58  696.28   1
  -2   4  14  388.70  253.85   1
   2   4 -14  269.48  370.05   1
  -2   4  13 6998.72  850.32   1
   2   4 -13 7607.59 1054.46   1
   2   4 -12 1573.56  491.81   1
  -2   4  12 1472.33  366.75   1
  -2   4  11 5930.32  730.98   1
   2   4 -11 6370.19  916.29   1
  -2   4  10 3634.22  569.25   1
   2   4 -10 3831.00  721.53   1
  -2   4  10 3184.25  484.32   1
   2   4  -9  -13.67  157.16   1
  -2   4   9   93.01  193.05   1
  -2   4   9  110.92  103.24   1
   2   4  -8  791.03  386.92   1
  -2   4   8  551.54  230.79   1
   2  -4  -8  332.91  152.93   1
  -2   4   8  823.95  308.14   1
   2   4  -721500.60 1572.88   1
  -2   4   721875.80 1266.27   1
  -2   4   721088.60 1118.82   1
  -2   4   6   -9.25  115.14   1
   2   4  -6  197.76  336.80   1
  -2   4   6  174.87  151.15   1
   2   4  -5 9090.75 1011.62   1
  -2   4   5 7971.47  745.24   1
  -2   4   5 8313.41  716.01   1
  -2   4   4 1151.97  285.97   1
  -2   4   4 1053.20  290.82   1
   2   4  -4 1020.72  458.86   1
   2   4  -325188.50 1629.44   1
  -2   4   326474.00 1350.98   1
   2   4  -325351.90 1376.06   1
   2   4  -322378.90 1503.32   1
  -2   4   326474.20 1278.62   1
   2   4  -210172.80 1035.22   1
   2   4  -210937.00  916.40   1
  -2   4   210229.30  809.81   1
   2   4  -210646.60 1037.28   1
  -2   4   1 1638.51  328.49   1
   2   4  -1 1896.13  389.47   1
   2   4  -1 1579.75  410.58   1
   2   4  -1 2177.62  472.62   1
  -2   4   0    1.95  135.55   1
   2   4   0   37.21  175.66   1
   2   4   0 -136.99  174.92   1
   2   4   0  208.45  215.08   1
   2   4   112730.00  996.81   1
  -2   4  -112883.60  977.81   1
   2   4   110304.60  895.31   1
   2   4   111351.50 1051.30   1
   2   4   2 2279.65  464.82   1
  -2   4  -2 3680.57  626.13   1
   2   4   318856.40 1255.08   1
  -2   4  -318421.30 1251.83   1
   2   4   4 3359.05  594.65   1
  -2   4  -4 3382.69  602.76   1
   2   4   512837.60 1043.66   1
  -2   4  -513063.60 1091.31   1
  -2   4  -6  918.61  347.65   1
  -2   4  -6  596.36  143.20   1
  -2   4  -7   99.60  147.01   1
   2   4   7  217.96  224.32   1
  -2   4  -7  171.26  103.75   1
  -2   4  -8  595.67  260.07   1
  -2   4  -8  727.84  190.84   1
   2   4   8  784.86  296.12   1
   2   4   911000.20 1087.80   1
  -2   4  -9 8083.86  643.69   1
  -2   4  -9 9564.13 1021.76   1
  -2   4 -10 1919.82  355.98   1
  -2   4 -10 1813.00  448.44   1
   2   4  10 2787.24  545.08   1
   2   4  11 7469.90  938.16   1
  -2   4 -11 6067.89  661.48   1
  -2   4 -11 7229.72  908.82   1
  -2   4 -12 -223.66  326.13   1
   2   4  12  155.31  253.82   1
  -2   4 -12  601.29  285.74   1
  -2   4 -13 5204.10  678.47   1
  -2   4 -13 6460.78  914.72   1
  -2   4 -14  231.25  240.62   1
   2   4  14  666.72  389.35   1
  -2   4 -14  288.01  272.71   1
  -2   4 -15 -208.74  346.17   1
   2   4  15  400.60  371.46   1
  -2   4 -15  149.48  194.56   1
   2  -4  15  938.50  824.67   1
   2  -4  16 2179.65 1010.64   1
  -2   4 -16  586.61  268.85   1
   2   4  16 2384.20  659.75   1
  -2   4 -16 1542.54  434.23   1
  -2   4 -17 2398.25  564.35   1
  -2   4 -17 3608.87  642.44   1
   2   4  17 4063.20  896.48   1
   2  -4  17 4038.70 1288.53   1
  -2   4 -18 -367.52  506.70   1
   2   4  18  948.86  509.65   1
  -2   4 -18  488.08  371.95   1
   2   4  19 1391.78  504.04   1
  -2   4 -19  905.68  395.46   1
   2   4  20 -125.08  240.74   1
  -2   4 -20   73.28  183.42   1
  -2   4 -21  156.97  256.32   1
   2   4  21 1986.62  706.82   1
  -2   4 -21 1180.35  442.14   1
   2   4  22  232.51  225.93   1
  -2   4 -22  354.28  327.72   1
  -2   4 -23-1026.65  496.86   1
   2   4  23 -300.95  341.95   1
  -2   4 -23   46.00  304.98   1
  -2   4 -24 -521.80  343.03   1
   2   4  24  145.39  245.60   1
  -2   4 -24  574.43  363.37   1
  -2   5  21  -55.01  238.82   1
   2   5 -21  508.07  392.14   1
  -2   5  20  -40.68  184.05   1
   2   5 -20 -113.56  220.96   1
  -2   5  19 3912.21  872.00   1
   2   5 -19 3415.78  879.04   1
  -2   5  18  553.97  366.30   1
   2   5 -18  102.10  282.90   1
   2   5 -17 1896.66  627.48   1
  -2   5  17 2074.37  643.56   1
   2   5 -16 2078.75  616.76   1
  -2   5  16 2669.43  631.92   1
   2   5 -15  139.29  264.39   1
  -2   5  15 -135.90  258.48   1
   2   5 -14 2178.76  637.25   1
  -2   5  14 2325.34  570.59   1
   2   5 -13 2453.75  651.34   1
  -2   5  13 2698.71  594.29   1
   2   5 -12 2060.35  609.38   1
  -2   5  12 2129.68  524.51   1
  -2   5  11 5105.05  730.66   1
   2   5 -11 5317.22  887.65   1
   2   5 -10  453.98  298.71   1
  -2   5  10  977.65  357.40   1
  -2   5  10  492.52  215.62   1
   2   5  -9 3467.52  717.22   1
  -2   5   9 3467.33  603.99   1
  -2   5   9 2824.08  505.99   1
  -2   5   8 3444.41  589.48   1
  -2   5   8 3633.61  577.28   1
   2   5  -8 3363.41  699.50   1
  -2   5   7 -180.89  241.46   1
   2   5  -7  -15.25  168.01   1
  -2   5   7  351.69  189.96   1
  -2   5   6 2849.45  513.69   1
   2   5  -6 2565.96  577.51   1
  -2   5   6 2721.47  461.79   1
  -2   5   5 1288.22  339.34   1
   2   5  -5 1149.34  410.40   1
  -2   5   5 1125.16  313.17   1
  -2   5   4 2588.19  488.90   1
   2   5  -4 2564.85  512.46   1
  -2   5   4 2987.67  493.24   1
   2   5  -4 1801.83  491.41   1
  -2   5   3  679.66  293.00   1
   2   5  -3  510.00  320.18   1
  -2   5   3  272.18  195.13   1
   2   5  -3  392.37  238.60   1
   2   5  -3  504.62  332.08   1
   2   5  -2 3787.62  661.12   1
   2   5  -2 4120.40  647.94   1
  -2   5   2 4848.08  660.57   1
  -2   5   2 4578.27  590.73   1
   2   5  -2 3770.05  604.94   1
  -2   5   1  467.92  222.41   1
   2   5  -1  735.88  416.69   1
   2   5  -1  434.33  254.71   1
   2   5  -1  949.27  322.86   1
  -2   5   0  322.04  216.15   1
   2   5   0  565.10  523.88   1
   2   5   0  434.98  263.22   1
   2   5   0  294.56  223.02   1
   2   5   129496.60 1717.01   1
  -2   5  -128629.10 1525.15   1
  -2   5  -2 1448.65  432.42   1
   2   5   2 1224.48  434.25   1
  -2   5  -3 1203.05  396.56   1
   2   5   3 1744.69  405.36   1
  -2   5  -4 3616.27  631.65   1
   2   5   4 3205.43  613.95   1
   2   5   5 6453.52  851.78   1
  -2   5  -5 6016.96  804.62   1
  -2   5  -6 2362.87  595.54   1
   2   5   6 1648.58  450.96   1
   2   5   7 4946.41  740.61   1
  -2   5  -7 5637.21  817.67   1
  -2   5  -8 1797.56  542.97   1
   2   5   8 1062.47  378.05   1
   2   5   9 6648.15  896.04   1
  -2   5  -9 7062.11  919.42   1
  -2   5 -10  391.09  356.24   1
   2   5  10   59.82  269.61   1
  -2   5 -11  533.29  304.52   1
   2   5  11 -190.30  244.48   1
  -2   5 -12  811.52  377.88   1
   2   5  12  608.22  359.20   1
   2   5  13 9624.87 1218.13   1
  -2   5 -1310305.50 1174.19   1
  -2   5 -14  185.92  315.64   1
   2   5  14  170.46  239.25   1
  -2   5 -15  195.66  266.23   1
   2   5  15  468.78  426.39   1
  -2   5 -16  430.66  316.00   1
   2   5  16 1294.19  545.92   1
  -2   5 -17    4.74  267.42   1
   2   5  17  364.96  383.38   1
  -2   5 -18   17.95  217.43   1
   2   5  18  126.69  193.69   1
  -2   5 -19 -551.34  413.31   1
   2   5  19   66.38  220.47   1
  -2   5 -20  198.01  309.56   1
   2   5  20  159.59  270.04   1
  -2   5 -21 -167.64  321.58   1
   2   5  21  267.75  389.24   1
  -2   5 -22 -299.38  339.38   1
   2   5  22 -374.15  381.76   1
  -2   6  19  323.09  285.33   1
   2   6 -18  989.81  535.74   1
  -2   6  18  464.84  335.42   1
   2   6 -17  788.43  479.10   1
  -2   6  17  723.14  404.96   1
   2   6 -16  554.82  383.58   1
  -2   6  16 -534.98  370.96   1
   2   6 -15 1017.04  485.91   1
  -2   6  15 1132.66  430.96   1
   2   6 -14 1641.53  573.30   1
  -2   6  14 1744.84  499.30   1
   2   6 -13  403.38  331.31   1
  -2   6  13  561.69  313.71   1
   2   6 -12 3979.27  867.91   1
  -2   6  12 4316.30  778.63   1
  -2   6  11  880.74  362.71   1
   2   6 -11  377.73  365.74   1
  -2   6  10 2161.55  544.67   1
   2   6 -10 1612.40  511.65   1
  -2   6   9 1785.87  497.70   1
  -2   6   9 1363.57  384.45   1
   2   6  -9 1299.70  455.19   1
  -2   6   8  218.58  195.26   1
   2   6  -8  300.77  259.28   1
  -2   6   8  168.97  202.60   1
  -2   6   7  712.91  267.43   1
   2   6  -7 1195.74  470.76   1
  -2   6   7 1099.42  372.98   1
  -2   6   6 3678.01  654.64   1
  -2   6   6 4099.99  625.55   1
   2   6  -6 3554.97  779.93   1
  -2   6   5  686.97  300.80   1
  -2   6   5  441.06  265.39   1
   2   6  -5 1212.44  491.05   1
   2   6  -5  450.96  467.02   1
   2   6  -4 6828.78 1013.21   1
  -2   6   4 8437.96  976.79   1
   2   6  -4 7537.05  940.96   1
  -2   6   4 8195.88  874.12   1
  -2   6   3  365.18  298.86   1
   2   6  -3  110.83  392.30   1
  -2   6   3  331.33  287.56   1
   2   6  -3  518.97  389.17   1
   2   6  -3  292.66  239.54   1
  -2   6   2  198.82  223.04   1
   2   6  -2   -3.13  199.06   1
   2   6  -2   43.73  217.95   1
  -2   6   2  270.92  254.97   1
  -2   6   1 1592.16  418.45   1
   2   6  -1  954.02  411.94   1
   2   6  -1 1530.19  462.21   1
  -2   6   1 1827.29  499.58   1
  -2   6   0 1993.60  459.58   1
   2   6   0 1723.12  467.79   1
   2   6   0 1832.29  512.15   1
  -2   6  -1  276.58  220.86   1
   2   6   1  -31.22  158.90   1
   2   6   2 5733.09  824.96   1
  -2   6  -2 4773.92  676.25   1
  -2   6  -3   69.74  147.02   1
   2   6   3  266.22  214.96   1
  -2   6  -4  600.34  257.72   1
   2   6   4  562.67  195.59   1
  -2   6  -5  298.60  144.53   1
   2   6   5  777.23  424.82   1
  -2   6  -6  285.59  172.43   1
   2   6   6 1540.48  523.34   1
  -2   6  -7  -99.90  269.39   1
   2   6   7  614.43  364.78   1
  -2   6  -8 3020.73  623.76   1
   2   6   8 2450.70  616.94   1
  -2   6  -9  574.09  392.82   1
   2   6   9  172.11  272.60   1
  -2   6 -10 1606.22  563.38   1
   2   6  10 1160.50  426.99   1
  -2   6 -11  724.96  451.07   1
   2   6  11   27.86  196.29   1
  -2   6 -12 3554.80  793.67   1
   2   6  12 2283.41  638.00   1
  -2   6 -13 1009.52  492.56   1
   2   6  13  529.36  278.86   1
  -2   6 -14  832.79  475.10   1
   2   6  14  -12.42  365.68   1
  -2   6 -15  874.96  448.80   1
   2   6  15  505.46  197.69   1
  -2   6 -16  391.22  376.92   1
   2   6  16  437.37  362.69   1
  -2   6 -17 1180.98  571.69   1
   2   6  17  835.61  517.32   1
  -2   6 -18 2432.56  717.01   1
   2   6  18 1972.75  703.54   1
  -2   6 -19  480.50  452.91   1
   2   6  19  837.15  451.29   1
  -2   7  17 -562.37  401.15   1
  -2   7  16  418.68  297.71   1
   2   7 -15  598.46  480.60   1
  -2   7  15  358.69  297.30   1
  -2   7  14  -82.97  228.01   1
   2   7 -14  129.29  253.38   1
  -2   7  13  617.85  405.63   1
   2   7 -13  311.62  340.97   1
  -2   7  12  474.65  332.93   1
   2   7 -12  686.06  515.99   1
  -2   7  11  466.14  337.78   1
   2   7 -11  391.27  430.99   1
  -2   7  10 1798.43  536.54   1
   2   7 -10 1716.28  621.82   1
  -2   7   9  741.67  436.80   1
   2   7  -9 -309.05  292.59   1
  -2   7   8 2635.25  635.04   1
   2   7  -8 2386.65  691.88   1
  -2   7   8 2542.57  565.73   1
  -2   7   7  410.54  297.25   1
   2   7  -7  734.39  470.81   1
  -2   7   7  550.20  319.31   1
  -2   7   6 -143.16  248.60   1
   2   7  -6  508.77  343.06   1
   2   7  -6  198.15  278.17   1
  -2   7   6  171.59  235.15   1
  -2   7   5  320.18  242.22   1
   2   7  -5  179.61  315.88   1
   2   7  -5  760.73  391.72   1
  -2   7   5  387.08  267.10   1
   2   7  -4  100.27  307.95   1
  -2   7   4  180.16  205.83   1
   2   7  -4  366.61  325.63   1
  -2   7   4  264.11  203.13   1
   2   7  -3 1098.81  631.65   1
  -2   7   3  297.31  281.22   1
   2   7  -3  901.66  532.26   1
  -2   7   3  702.31  364.85   1
  -2   7   2 6349.21  844.34   1
   2   7  -2 5762.93  952.07   1
  -2   7   2 5532.11  881.70   1
   2   7  -2 5832.29  981.79   1
   2   7  -1  292.64  331.60   1
  -2   7   1  139.01  202.18   1
  -2   7   1  393.17  315.57   1
  -2   7   0 1663.02  475.85   1
   2   7   0  827.41  327.16   1
  -2   7   0 1292.59  410.20   1
  -2   7  -1  402.19  326.03   1
   2   7   1  212.03  247.56   1
  -2   7  -2 -256.97  223.94   1
   2   7   2 -416.05  302.61   1
  -2   7  -3   90.21  174.79   1
   2   7   3  136.98  212.78   1
  -2   7  -4 -132.59  164.10   1
   2   7   4 -186.79  284.08   1
  -2   7  -5  420.03  316.50   1
   2   7   5  633.45  400.60   1
  -2   7  -6 3849.58  695.69   1
   2   7   6 4220.73  827.85   1
  -2   7  -7  -10.51  220.92   1
   2   7   7  688.61  437.42   1
  -2   7  -8 2212.37  544.29   1
   2   7   8 3078.21  745.58   1
  -2   7  -9  278.75  277.10   1
   2   7   9  531.71  405.64   1
  -2   7 -10   86.89  214.40   1
   2   7  10  354.63  342.58   1
  -2   7 -11 -488.00  397.23   1
   2   7  11  332.95  357.89   1
  -2   7 -12 -194.78  317.67   1
   2   7  12  -90.81  258.68   1
  -2   7 -13 -331.19  322.11   1
   2   7  13 -145.04  332.75   1
  -2   7 -14 1035.50  508.38   1
   2   7  14  268.54  267.88   1
   2   7  15 -415.97  470.81   1
  -2   8  13  284.02  365.88   1
  -2   8  12   76.58  265.92   1
  -2   8  11  887.89  439.90   1
  -2   8  10  149.38  314.35   1
  -2   8   9  653.99  437.20   1
  -2   8   8   21.85  259.48   1
   2   8  -8  297.47  397.80   1
   2   8  -8  483.99  362.17   1
  -2   8   7  433.14  312.28   1
   2   8  -7  474.63  385.68   1
   2   8  -7 1232.11  496.92   1
  -2   8   7  720.52  355.14   1
   2   8  -6  480.00  413.64   1
  -2   8   6  973.29  419.42   1
   2   8  -6 1483.72  571.90   1
  -2   8   6  625.36  318.48   1
  -2   8   5  630.99  396.94   1
   2   8  -5  878.49  502.85   1
  -2   8   5  318.51  268.29   1
   2   8  -5  963.16  440.30   1
  -2   8   4  312.99  313.31   1
   2   8  -4 -189.13  218.62   1
  -2   8   4  560.65  387.13   1
   2   8  -4  767.22  542.36   1
  -2   8   3  533.89  341.82   1
   2   8  -3 1178.21  468.88   1
  -2   8   3 1064.26  455.63   1
   2   8  -2 -202.09  261.59   1
  -2   8   2  189.87  261.01   1
  -2   8   2  338.79  271.10   1
   2   8  -1  314.84  237.86   1
  -2   8   1  769.58  442.22   1
  -2   8   1 1424.72  503.67   1
   2   8   0  164.25  285.07   1
  -2   8   0  115.54  317.71   1
  -2   8   0  189.51  284.26   1
   2   8   1  274.14  323.47   1
  -2   8  -1  234.65  289.85   1
  -2   8  -1  256.61  284.17   1
   2   8   2 1079.11  468.76   1
  -2   8  -2 1316.82  465.29   1
  -2   8  -3 1360.33  470.83   1
   2   8   3  839.50  449.29   1
  -2   8  -4  445.24  341.68   1
   2   8   4   56.86  256.20   1
  -2   8  -5  -31.56  187.83   1
   2   8   5  146.03  289.17   1
   2   8   6   71.76  252.57   1
   2   8   7  473.65  366.71   1
   2   8   8  443.09  327.30   1
   3   0 -26 -407.58  370.74   1
   3   0 -25 -322.03  386.43   1
   3   0 -24  682.38  433.99   1
   3   0 -24  394.36  357.84   1
   3   0 -23   45.73  274.93   1
   3   0 -23   95.49  331.39   1
   3   0 -22  608.77  457.38   1
   3   0 -22 -433.43  392.67   1
   3   0 -21  410.69  339.77   1
   3   0 -21  300.55  282.44   1
   3   0 -20 5062.82  957.09   1
   3   0 -20 5406.58 1214.48   1
   3   0 -19  642.82  509.92   1
   3   0 -19  753.17  431.75   1
   3   0 -18 2018.87  600.54   1
   3   0 -18 2654.13  826.73   1
   3   0 -17   55.31  179.11   1
   3   0 -17  313.95  260.39   1
   3   0 -16  -68.27  178.00   1
   3   0 -16   -6.98  353.53   1
   3   0 -15  110.39  235.84   1
   3   0 -15  256.41  310.60   1
   3   0 -14 1723.84  470.29   1
   3   0 -14 1877.91  667.69   1
   3   0 -13  849.29  396.74   1
   3   0 -13  705.05  478.64   1
   3   0 -1217640.20 1397.40   1
   3   0 -1217481.80 1847.11   1
   3   0 -1218542.80 1284.81   1
   3   0 -11  473.00  289.73   1
   3   0 -11  226.85  411.49   1
   3   0 -10 3902.88  623.89   1
   3   0 -10 5105.94  715.32   1
   3   0 -10 3880.78  858.66   1
   3   0  -9  -39.17  146.29   1
   3   0  -9  767.64  333.73   1
   3   0  -9  168.18  317.61   1
   3   0  -9 -448.77  417.33   1
  -3   0   8  297.54   70.43   1
   3   0  -8  810.64  286.99   1
   3   0  -8  840.12  429.83   1
   3   0  -8 1029.46  342.98   1
   3   0  -8 1133.35  804.22   1
  -3   0   7  343.59  129.82   1
   3   0  -7  309.32  346.39   1
   3   0  -7  219.35  220.10   1
   3   0  -7  441.35  314.11   1
   3   0  -610446.80  944.73   1
   3   0  -610538.80 2029.50   1
   3   0  -6 8227.02 1130.67   1
   3   0  -610394.90  928.04   1
  -3   0   6 6538.83  445.46   1
   3   0  -5 2340.86  802.83   1
   3   0  -5 4120.88  644.65   1
   3   0  -5  609.22  306.67   1
   3   0  -5 2345.71 1131.96   1
   3   0  -417686.70 1183.65   1
   3   0  -416050.70 2436.32   1
   3   0  -418784.50 1245.00   1
  -3   0   414543.10  834.71   1
   3   0  -3 1336.12  456.66   1
  -3   0   3  899.42  259.20   1
   3   0  -2 7855.32  782.91   1
  -3   0   2 6534.74  636.47   1
   3   0  -2 8359.99 1834.59   1
   3   0  -2 7139.92  733.13   1
  -3   0   1  423.56  200.97   1
   3   0  -1 2529.31  498.36   1
   3   0  -1 1611.07  943.05   1
   3   0   0 6739.72  754.24   1
  -3   0   0 5707.31  647.12   1
   3   0   0 7048.01 1639.77   1
  -3   0  -1  297.56  159.50   1
   3   0   1 3002.92  546.24   1
   3   0   1 2713.34 1158.23   1
   3   0   219072.30 1214.60   1
  -3   0  -215728.00 1202.22   1
   3   0   218081.40 2566.14   1
   3   0   3 6000.63  764.04   1
   3   0   3 4194.71 1502.16   1
  -3   0  -422052.50 1019.46   1
   3   0   429310.30 1575.16   1
   3   0   426525.50 3067.12   1
   3   0   422088.90  977.66   1
   3   0   5 1014.36  279.87   1
  -3   0  -5  698.25  250.09   1
   3   0   5 1784.20 1146.58   1
   3   0   610189.60  776.75   1
   3   0   610181.50  948.20   1
   3   0   6 9004.45 1921.67   1
   3   0   7  937.76  300.55   1
   3   0   7 3418.73  582.51   1
   3   0   7 2290.34 1170.15   1
   3   0   8  748.48  285.18   1
   3   0   8 2236.30  484.11   1
   3   0   9  509.28  278.89   1
   3   0   9 1851.44  464.76   1
   3   0  10 6345.98  758.99   1
   3   0  10 8416.92  893.60   1
   3   0  11  683.29  359.92   1
   3   0  11 1452.45  449.42   1
   3   0  1221890.20 1505.13   1
   3   0  1226710.20 1542.84   1
   3   0  13 1193.26  418.89   1
   3   0  14  992.26  359.24   1
   3   0  15  164.16  235.07   1
   3   0  16  263.03  262.98   1
   3   0  17  395.63  303.02   1
   3   0  18  996.69  400.45   1
   3   0  19  388.27  292.04   1
   3   0  20 1471.10  551.87   1
   3   0  21  764.00  468.37   1
   3   0  22  371.50  361.02   1
   3   0  23  417.82  322.60   1
   3   0  24  526.22  468.29   1
   3   0  25  320.85  338.48   1
   3  -1 -26  153.13  253.05   1
   3  -1 -25  -23.65  278.07   1
   3   1 -25  -67.78  344.82   1
   3  -1 -24  519.44  414.13   1
   3  -1 -24  504.39  459.81   1
   3   1 -24  381.29  382.49   1
   3  -1 -23  711.94  512.06   1
   3  -1 -23  392.85  365.65   1
   3   1 -23    2.78  302.36   1
   3  -1 -22  456.21  346.28   1
   3  -1 -22  -13.41  364.48   1
   3   1 -22 -131.39  272.39   1
   3  -1 -21 1026.91  461.92   1
   3  -1 -21  677.61  520.04   1
   3   1 -21  659.80  440.11   1
   3  -1 -20 1165.93  466.04   1
   3   1 -20  873.90  469.89   1
   3  -1 -20  854.90  440.11   1
   3  -1 -19  175.90  291.36   1
   3   1 -19  368.48  366.68   1
   3  -1 -19   73.31  261.42   1
   3  -1 -18  309.74  271.26   1
   3   1 -18  356.83  311.94   1
   3   1 -18  934.46  403.32   1
   3  -1 -18  233.93  339.07   1
   3   1 -18  631.30  483.07   1
   3  -1 -17  -52.61  280.72   1
   3   1 -17  593.92  385.79   1
   3  -1 -17  151.68  208.34   1
   3   1 -17  679.16  346.71   1
   3   1 -17  252.29  442.01   1
   3  -1 -17 1017.50  991.01   1
   3   1 -16 4057.08  804.53   1
   3   1 -16 5520.50  760.58   1
   3  -1 -16 4693.00 1026.82   1
   3  -1 -16 3319.31  652.93   1
   3   1 -16 3946.16 1003.24   1
   3  -1 -16 5665.84 1772.79   1
   3   1 -15  520.20  308.30   1
   3   1 -15 1501.08  462.44   1
   3  -1 -15  746.41  495.75   1
   3  -1 -15  847.72  358.69   1
   3   1 -15  426.61  381.12   1
   3  -1 -15 1093.00  798.32   1
   3   1 -14 1558.62  536.22   1
   3  -1 -14 1845.66  465.61   1
   3   1 -14 1961.12  434.05   1
   3   1 -14 2181.22  712.52   1
   3  -1 -14 2725.11 1501.39   1
   3  -1 -14 1578.19  602.40   1
   3   1 -13  138.27  188.80   1
   3   1 -13   57.62  252.14   1
   3  -1 -13  215.86  226.66   1
   3  -1 -13  -61.68  217.51   1
   3  -1 -13   85.13  490.16   1
   3   1 -13  179.91  237.90   1
   3   1 -12  -26.09  197.02   1
   3  -1 -12  -13.49  140.37   1
   3  -1 -12 -387.16  382.60   1
   3   1 -12 -318.85  200.42   1
   3   1 -12 -140.27  251.32   1
   3  -1 -12  645.41  604.48   1
   3   1 -11  254.44  227.60   1
   3  -1 -11    9.89  138.88   1
   3  -1 -11  374.78  445.82   1
   3   1 -11  544.19  261.60   1
   3   1 -11  382.02  371.57   1
   3  -1 -11 -179.21  440.36   1
   3   1 -10 1202.53  367.99   1
   3  -1 -10 1323.84  331.64   1
   3  -1 -10 1558.62  606.15   1
   3   1 -10 1321.11  359.76   1
   3   1 -10 1381.06  539.26   1
   3  -1 -10 1178.53  933.91   1
   3   1  -9  965.01  391.47   1
   3  -1  -9  603.72  280.63   1
   3  -1  -9 1270.74  540.76   1
   3   1  -9 1063.69  363.75   1
   3   1  -9  695.05  444.23   1
  -3   1   9  296.78  117.52   1
   3  -1  -9 1483.50  969.14   1
   3   1  -824919.90 1589.45   1
   3  -1  -822110.70 1289.02   1
   3  -1  -822494.70 1937.25   1
   3   1  -821211.40 1908.77   1
  -3   1   816496.60  662.63   1
   3   1  -823262.80 1385.91   1
   3  -1  -821190.80 2926.91   1
   3  -1  -7 7204.23  732.61   1
   3   1  -7 7874.59  919.19   1
   3  -1  -7 9331.16 1323.64   1
   3   1  -7 6887.37 1147.82   1
   3   1  -7 7418.52  854.76   1
  -3   1   7 4681.64  377.79   1
   3  -1  -7 7526.01 1816.98   1
   3  -1  -6 3770.30  520.75   1
   3   1  -6 4979.29  722.55   1
   3   1  -6 5098.13  682.21   1
   3   1  -6 4250.25  876.63   1
  -3   1   6 3846.86  396.01   1
  -3  -1   6 2731.67  310.22   1
   3  -1  -6 4814.58 1376.24   1
  -3  -1   5 1640.07  259.67   1
   3   1  -5 2711.20  736.08   1
   3  -1  -5 2139.47  386.70   1
   3   1  -5 2923.20  485.34   1
  -3   1   5 1942.64  308.90   1
   3   1  -5 2285.37  476.98   1
   3  -1  -5 2823.28 1166.77   1
  -3   1   4  235.10  100.59   1
  -3  -1   4   31.15  128.84   1
   3  -1  -4  472.61  184.49   1
   3   1  -4  712.11  413.39   1
   3   1  -4  482.76  239.44   1
   3   1  -4  390.07  228.45   1
  -3   1   3   43.00  109.28   1
   3   1  -3  776.50  402.37   1
   3   1  -3  634.76  283.92   1
   3  -1  -3  105.48  324.65   1
   3   1  -3  863.13  336.14   1
   3  -1  -3  422.11  188.60   1
   3   1  -2 8516.07  830.28   1
  -3   1   2 7457.75  664.56   1
   3  -1  -2 7942.08 1659.37   1
   3   1  -2 9520.50  895.76   1
   3   1  -1 4117.13  598.19   1
  -3   1   1 2711.41  459.24   1
   3  -1  -1 4189.42 1238.49   1
   3   1  -1 3811.27  621.52   1
   3   1   0 4949.50  356.23   1
   3   1   0 6048.26  707.19   1
  -3   1   0 6308.79  695.03   1
   3  -1   0 4778.76 1374.63   1
   3   1   1 3817.80  369.30   1
  -3   1  -1 4570.57  624.57   1
   3   1   1 6322.60  734.60   1
   3  -1   1 5264.22 1368.64   1
   3   1   2 7815.63  595.73   1
  -3   1  -2 8977.10  877.44   1
   3   1   2 9516.68  880.17   1
   3  -1   210664.70 1979.89   1
   3   1   3  676.63  190.48   1
  -3   1  -3 1561.61  416.19   1
  -3   1  -3  586.00  168.26   1
  -3  -1  -3  844.11  224.00   1
   3   1   3 2500.99  482.48   1
   3  -1   3 2201.32  929.07   1
   3   1   4 1590.40  289.66   1
  -3   1  -4 1193.79  260.76   1
  -3   1  -4 2035.10  472.34   1
  -3  -1  -4 1301.73  291.40   1
   3   1   4 1846.76  408.06   1
   3  -1   4 1555.32  877.96   1
   3   1   5  366.29   94.66   1
  -3   1  -5  540.75  246.02   1
   3   1   5 1013.49  309.57   1
   3  -1   5  778.64  616.46   1
   3   1   6 3469.81  493.84   1
  -3   1  -6 2578.92  534.00   1
   3   1   6 3854.79  570.71   1
   3  -1   6 2623.90 1016.81   1
   3   1   7 1296.64  347.52   1
  -3   1  -7 1395.08  424.04   1
   3   1   7 1903.26  470.18   1
   3  -1   7 1395.76  757.75   1
   3   1   8 7863.18  856.44   1
   3   1   8 8705.76  866.79   1
  -3   1  -8 7147.79  951.05   1
   3  -1   8 7619.06 1735.09   1
   3   1   9 1284.84  357.30   1
  -3   1  -9  974.24  356.85   1
   3   1   9 1630.22  402.47   1
   3  -1   9 1561.97  859.47   1
   3   1  10 3484.16  616.88   1
  -3   1 -10 2011.12  540.31   1
   3   1  10 3943.38  595.95   1
   3  -1  10 4182.51 1252.43   1
   3   1  11 -213.30  229.99   1
  -3   1 -11 -347.37  334.78   1
   3   1  11  124.43  175.26   1
   3  -1  11  438.53  367.19   1
   3   1  12 2960.51  577.75   1
  -3   1 -12 1633.72  471.05   1
   3   1  12 3214.10  560.03   1
   3  -1  12 3099.15 1151.10   1
   3  -1  12 3390.27  578.73   1
   3   1  13  451.86  303.49   1
  -3   1 -13 -260.99  442.28   1
   3   1  13  774.53  309.48   1
   3  -1  13 1932.05  917.20   1
   3  -1  13 1064.64  361.22   1
   3   1  14 3766.37  696.96   1
  -3   1 -14 2575.84  603.67   1
   3   1  14 3727.84  588.54   1
   3  -1  14 3851.92 1279.66   1
   3  -1  14 3982.94  674.20   1
   3  -1  15  809.22  392.51   1
   3   1  15  717.80  390.21   1
  -3   1 -15 -377.73  394.76   1
   3   1  15  631.66  305.86   1
   3  -1  15  204.02  480.90   1
   3   1  16 7866.02 1153.84   1
  -3   1 -16 5499.88 1031.31   1
   3   1  16 9700.96  982.53   1
   3  -1  16 8714.06 1060.16   1
   3   1  17 4885.72  935.22   1
  -3   1 -17 3385.67  803.30   1
   3   1  17 6013.84  848.75   1
   3  -1  17 4700.41  853.69   1
   3   1  18  474.07  391.70   1
  -3   1 -18 -223.57  406.60   1
   3  -1  19  256.71  328.49   1
   3   1  19  150.25  276.33   1
  -3   1 -19 -240.15  456.41   1
   3  -1  20  429.01  379.67   1
   3   1  20  154.00  243.63   1
   3  -1  21  124.04  200.12   1
   3   1  21  148.93  223.21   1
   3  -1  22  506.16  376.27   1
   3   1  22  580.29  366.31   1
  -3   1 -22 -433.25  494.91   1
   3  -1  23  938.38  469.12   1
   3   1  23  795.63  470.05   1
  -3   1 -23 -515.04  530.91   1
   3   1  24 1101.35  578.89   1
   3  -1  24  818.06  450.10   1
   3   1  25  638.62  466.51   1
   3  -1  25 1433.01  602.08   1
   3  -2 -25 -214.56  482.99   1
   3   2 -24  129.63  270.70   1
   3  -2 -24  115.87  394.61   1
   3   2 -23  219.87  286.91   1
   3  -2 -23   83.09  387.00   1
   3   2 -22  528.34  400.83   1
   3  -2 -22 1020.24  640.27   1
   3   2 -21  442.83  394.13   1
   3  -2 -21  479.50  410.47   1
   3  -2 -20  950.58  430.45   1
   3   2 -20  724.33  460.98   1
   3  -2 -20  474.11  488.61   1
   3  -2 -19 1301.79  475.56   1
   3   2 -19 1668.57  606.70   1
   3  -2 -19 1450.61  648.71   1
   3   2 -19 1601.82  429.99   1
   3  -2 -19 1639.58 1095.74   1
   3  -2 -18  604.89  326.25   1
   3   2 -18  213.90  267.41   1
   3  -2 -18 -595.92  424.21   1
   3   2 -18  -92.46  179.10   1
   3  -2 -18 -136.38  407.09   1
   3  -2 -17  252.56  251.91   1
   3   2 -17  349.99  349.31   1
   3  -2 -17  105.08  349.90   1
   3   2 -17 -305.52  260.05   1
   3  -2 -17   -2.99  473.62   1
   3  -2 -16  332.47  242.31   1
   3   2 -16  158.49  237.10   1
   3  -2 -16   46.69  289.95   1
   3   2 -16  237.86  159.29   1
   3  -2 -16  586.45  708.63   1
   3  -2 -15  -69.52  124.24   1
   3   2 -15  185.71  219.15   1
   3  -2 -15  647.31  425.13   1
   3   2 -15  172.18  195.44   1
   3   2 -15  424.70  464.15   1
   3  -2 -15  131.33  386.70   1
   3   2 -14  891.49  437.25   1
   3  -2 -14  405.67  398.78   1
   3   2 -14  450.40  215.98   1
   3  -2 -14  767.29  294.49   1
   3   2 -14  412.06  404.26   1
   3  -2 -14  445.39  717.76   1
   3   2 -13 2995.74  660.67   1
   3  -2 -13 2509.65  489.06   1
   3  -2 -13 2471.76  741.53   1
   3   2 -13 1924.24  401.15   1
   3   2 -13 2656.43  782.55   1
   3  -2 -13 2209.60 1095.86   1
   3   2 -12  766.96  399.23   1
   3  -2 -12  714.45  273.08   1
   3  -2 -12  812.51  472.08   1
   3   2 -12  469.91  245.59   1
   3   2 -12  245.50  262.06   1
   3  -2 -12  884.68  808.56   1
   3   2 -11 5677.32  869.11   1
   3   2 -11 4494.10  951.96   1
   3  -2 -11 4729.06  610.62   1
   3  -2 -11 6260.73 1101.65   1
   3   2 -11 5741.62  730.45   1
   3  -2 -11 5116.01 1578.32   1
   3   2 -10 1377.40  487.82   1
   3  -2 -10  753.18  239.07   1
   3  -2 -10 1244.76  577.35   1
   3   2 -10 1059.46  315.29   1
   3   2 -10 1052.66  518.70   1
  -3   2  10  681.38  184.65   1
   3  -2 -10 2300.15 1055.92   1
   3   2  -9 1825.69  522.01   1
   3  -2  -9 1391.03  307.40   1
   3   2  -9 1556.97  415.85   1
   3   2  -9 1460.47  514.24   1
   3  -2  -9 1239.42  796.63   1
  -3   2   9 1326.32  240.02   1
  -3   2   8  424.92  162.55   1
   3   2  -8  272.54  196.64   1
   3   2  -8  218.26  290.89   1
   3  -2  -8  373.73  454.30   1
   3  -2  -8  272.47  166.97   1
   3   2  -8  397.79  250.22   1
  -3   2   7   52.88   86.78   1
   3   2  -7  227.83  158.97   1
   3   2  -7  195.78  237.62   1
   3  -2  -7  -23.29  102.65   1
   3  -2  -7 -467.45  655.12   1
   3   2  -7  -58.94  203.82   1
  -3   2   6   88.03   82.22   1
   3   2  -6  216.19   98.24   1
   3  -2  -6  348.71  157.49   1
   3   2  -6  425.76  223.09   1
   3   2  -6  556.64  336.38   1
   3   2  -6  223.62  170.29   1
   3  -2  -6  125.46  438.16   1
  -3   2   5 2113.40  335.84   1
   3   2  -5 1034.17  188.60   1
   3  -2  -5 1505.31  260.73   1
   3   2  -5 1427.14  504.37   1
   3   2  -5 2173.41  481.62   1
   3   2  -5 1847.09  433.97   1
   3  -2  -5 1644.73  870.16   1
   3   2  -4 4551.25  802.89   1
   3   2  -4 3913.89  852.33   1
   3   2  -4 5502.66  718.44   1
  -3   2   4 3044.83  462.70   1
   3  -2  -4 4230.10 1496.89   1
   3   2  -341218.50 2049.59   1
   3   2  -332234.20 1108.16   1
   3   2  -333018.20 2203.22   1
   3   2  -335043.60 1764.45   1
  -3   2   334926.60 1465.07   1
   3  -2  -334455.60 3739.76   1
   3   2  -220708.20 1450.09   1
   3   2  -212867.60  752.94   1
   3   2  -221801.60 1830.43   1
  -3   2   215316.00 1002.32   1
   3  -2  -219564.60 2869.61   1
   3   2  -222282.40 1384.57   1
  -3   2   1  421.79  225.71   1
   3   2  -1  907.28  250.43   1
   3   2  -1 4489.63  682.38   1
   3  -2  -1 3634.06 1311.09   1
   3   2  -1 3066.47  638.72   1
  -3   2   0 -182.97  207.55   1
   3   2   0  645.48  226.54   1
   3   2   0 1426.59  412.11   1
   3  -2   0 2266.90 1038.34   1
   3   2   0  193.89  205.50   1
   3   2   1 3503.32  452.86   1
  -3   2  -1 2974.35  452.23   1
   3   2   1 3954.13  591.91   1
   3  -2   1 4900.42 1378.12   1
   3   2   2 4229.68  524.71   1
   3   2   2 5466.22  704.03   1
  -3   2  -2 4473.18  641.07   1
   3  -2   2 4687.45 1439.45   1
   3   2   3 8936.25  791.65   1
   3   2   3 9789.20  924.06   1
  -3   2  -310053.00  991.42   1
   3  -2   3 8467.60 1849.55   1
   3   2   4 2845.32  467.42   1
   3   2   4 4907.59  712.04   1
  -3   2  -4 4099.63  712.51   1
   3  -2   4 3263.99 1207.04   1
   3   2   5 7264.51  772.32   1
  -3   2  -5 7013.61  908.03   1
   3   2   5 7657.06  848.28   1
   3  -2   5 5883.58 1546.25   1
   3   2   6 4513.03  626.73   1
   3   2   6 5689.87  713.46   1
  -3   2  -6 4592.77  747.24   1
   3  -2   6 4725.07 1335.89   1
   3   2   7  188.87  152.01   1
  -3   2  -7  566.39  402.02   1
   3   2   7  168.51  205.90   1
   3  -2   7 -255.11  662.15   1
   3   2   8  935.60  302.12   1
  -3   2  -8 1053.46  414.62   1
   3   2   8  744.82  290.43   1
   3  -2   8   27.01  352.98   1
   3   2   9 3712.99  635.03   1
  -3   2  -9 3455.75  707.36   1
   3   2   9 3502.11  566.45   1
   3  -2   9 3834.47 1243.40   1
   3   2  10 3988.64  658.34   1
  -3   2 -10 3628.95  751.61   1
   3   2  10 4534.29  661.32   1
   3  -2  10 3705.50 1272.89   1
   3   2  11  948.27  316.39   1
  -3   2 -11 1218.60  466.33   1
   3   2  11 1249.20  344.53   1
   3  -2  11 1332.23  765.41   1
   3   2  12  532.99  284.20   1
  -3   2 -12  543.75  374.10   1
   3   2  12  806.88  283.43   1
   3  -2  12  318.46  514.67   1
   3   2  13  801.01  323.22   1
  -3   2 -13 1240.25  489.25   1
   3   2  13 1372.60  357.79   1
   3  -2  13 1416.27  719.19   1
   3   2  14  628.66  271.68   1
  -3   2 -14  428.36  311.07   1
   3   2  14  873.62  309.10   1
   3  -2  14  231.48  570.97   1
   3   2  15 -468.66  396.89   1
  -3   2 -15  514.41  325.17   1
   3   2  15  -94.61  206.74   1
   3  -2  15  384.73  581.67   1
   3   2  16   97.55  330.46   1
  -3   2 -16 -234.08  302.14   1
   3   2  16  417.28  157.60   1
   3  -2  16  171.79  310.27   1
   3   2  17 -273.02  388.34   1
  -3   2 -17 -200.27  344.63   1
   3   2  17  375.72  229.71   1
   3  -2  17  -85.20  400.52   1
   3   2  18 -274.55  397.63   1
  -3   2 -18   46.05  232.44   1
   3   2  19  -71.72  273.64   1
  -3   2 -19  784.35  420.26   1
   3   2  20  693.52  418.49   1
  -3   2 -20  588.05  370.17   1
   3   2  21  319.27  274.25   1
  -3   2 -21 2181.12  702.54   1
   3   2  22  472.62  350.87   1
  -3   2 -22  373.10  407.33   1
   3   2  23  -20.67  288.17   1
   3   2  24  179.12  220.61   1
   3  -3 -25  446.01  448.23   1
   3  -3 -24  378.99  481.89   1
   3  -3 -23    1.50  389.58   1
   3   3 -22  -56.05  268.30   1
   3  -3 -22  706.47  556.78   1
   3   3 -21  180.07  314.63   1
   3  -3 -21 -146.93  282.79   1
   3   3 -20  757.32  480.43   1
   3  -3 -20  874.53  513.75   1
   3   3 -19  169.01  335.81   1
   3  -3 -19  356.85  460.53   1
   3  -3 -19  -34.23  391.64   1
   3   3 -18   53.42  270.85   1
   3  -3 -18  405.70  386.10   1
   3   3 -18  171.79  173.01   1
   3  -3 -18 -125.17  677.37   1
   3   3 -17 1223.84  521.40   1
   3  -3 -17  708.67  510.23   1
   3   3 -17  820.45  300.39   1
   3  -3 -17 1482.09  962.01   1
   3   3 -16   50.93  245.68   1
   3  -3 -16  714.95  534.55   1
   3   3 -16   63.15  210.24   1
   3  -3 -16  192.48  774.32   1
   3   3 -15 4204.26  873.66   1
   3  -3 -15 4223.05 1005.30   1
   3   3 -15 4496.64  678.76   1
   3  -3 -15 3777.55 1470.55   1
   3   3 -14   81.62  226.01   1
   3  -3 -14  927.14  516.49   1
   3   3 -14   89.11  259.14   1
   3  -3 -14  366.69  590.93   1
   3   3 -13 1733.13  585.64   1
   3   3 -13 1527.44  431.19   1
   3  -3 -13 1365.07  885.95   1
   3   3 -13 1336.94  619.58   1
   3   3 -12  881.51  402.05   1
   3   3 -12 1071.03  367.50   1
   3  -3 -12  645.62  685.55   1
   3   3 -12  500.10  416.77   1
   3   3 -11  610.23  345.27   1
   3   3 -11 1120.63  373.62   1
   3   3 -11  215.76  316.67   1
   3  -3 -11  228.73  564.24   1
   3   3 -10 2369.72  675.20   1
   3   3 -10 1347.01  436.48   1
   3   3 -10 1571.02  617.43   1
   3  -3 -10 1759.97  928.15   1
  -3   3  10 1426.79  318.08   1
   3   3  -9 9838.18 1173.75   1
   3   3  -9 7017.72 1174.94   1
  -3   3   9 6539.07  599.02   1
   3   3  -9 7548.85  913.57   1
   3  -3  -9 8193.36 2140.39   1
   3   3  -8 2617.10  590.57   1
   3   3  -8  688.69  444.56   1
   3  -3  -8 2133.20 1269.59   1
   3   3  -8  539.58  448.90   1
  -3   3   8  655.11  240.38   1
   3   3  -714337.20 1416.79   1
   3   3  -711285.40  841.50   1
   3   3  -713928.40 1578.15   1
   3   3  -714415.80 1238.74   1
  -3   3   711859.20  824.41   1
   3  -3  -713784.60 2621.80   1
   3   3  -613210.40  900.59   1
   3   3  -614013.20 1573.93   1
   3   3  -613607.60 1245.33   1
  -3   3   610712.50  784.00   1
   3  -3  -612454.60 2532.82   1
   3   3  -5 3814.22  773.08   1
   3   3  -5 2800.26  447.02   1
   3   3  -5 7878.17  933.10   1
  -3   3   5 2854.42  414.26   1
   3   3  -5 4407.86  934.35   1
   3  -3  -5 6504.66 1907.53   1
  -3   3   4 2716.28  422.42   1
   3   3  -4 2614.63  391.87   1
   3   3  -4 3370.69  707.01   1
   3   3  -4 4199.20  758.61   1
   3   3  -4 3567.40  802.48   1
   3  -3  -4 4008.49 1389.23   1
   3   3  -3 7050.35  913.46   1
   3   3  -3 7934.41  705.81   1
  -3   3   3 6691.41  540.75   1
   3   3  -3 6457.12  997.08   1
   3   3  -3 7757.45  903.60   1
  -3   3   3 6327.24  668.13   1
   3  -3  -3 7105.00 1904.52   1
   3   3  -2 5443.36  830.22   1
   3   3  -2 5431.46  581.77   1
  -3   3   2 4310.99  438.21   1
   3   3  -2 6157.70  973.22   1
   3   3  -2 7387.00  888.08   1
  -3   3   2 5913.43  705.67   1
   3  -3  -2 6250.38 1811.25   1
   3   3  -1 8729.30  742.57   1
  -3   3   1 7672.09  591.27   1
   3   3  -1 8544.01  977.43   1
  -3   3   1 9000.04  860.91   1
   3  -3  -1 8921.95 2066.51   1
   3   3  -1 8372.32  983.71   1
   3   3   0 3807.85  668.03   1
  -3   3   0 2177.14  459.30   1
   3   3   0 1724.76  370.04   1
   3  -3   0 2924.38 1180.58   1
   3   3   0 2437.64  589.75   1
   3   3   1 7359.52  727.22   1
   3   3   1 7453.98  889.66   1
  -3   3  -1 6375.63  747.06   1
   3  -3   1 6103.88 1652.52   1
  -3   3  -2  486.81  251.96   1
   3   3   2  143.30  135.73   1
  -3   3  -3  652.15  217.30   1
   3   3   3  613.75  163.47   1
   3   3   3  878.78  326.90   1
   3  -3   3 1325.06  869.22   1
  -3   3  -4  136.98  193.37   1
   3   3   4  101.10  170.55   1
   3   3   4  511.45  278.57   1
   3  -3   4 -234.43  631.26   1
   3   3   5 3317.03  575.84   1
  -3   3  -5 1227.18  305.71   1
   3   3   5 2279.73  509.24   1
   3  -3   5 1702.24  840.84   1
   3   3   6 3686.39  629.24   1
  -3   3  -6 1759.67  396.08   1
   3   3   6 2923.90  587.57   1
   3  -3   6 3158.38 1266.85   1
   3   3   7 4987.67  723.11   1
  -3   3  -7 2886.78  575.42   1
   3   3   7 5507.50  777.57   1
   3  -3   7 5704.56 1669.80   1
  -3   3  -8  318.39  320.40   1
   3   3   8  387.53  327.30   1
   3  -3   8  213.74  478.98   1
   3   3   8  696.70  389.79   1
  -3   3  -9 3574.59  736.23   1
   3   3   9 3871.47  675.78   1
   3   3   9 3952.63  682.14   1
   3  -3   9 3387.95 1188.78   1
  -3   3 -10  845.95  466.72   1
   3   3  10  239.16  253.06   1
   3   3  10  320.78  253.45   1
   3  -3  10  102.11  520.61   1
  -3   3 -11 1804.03  615.35   1
   3   3  11 1588.53  478.93   1
   3   3  11 1670.56  461.74   1
   3  -3  11 1633.29  895.34   1
  -3   3 -12  899.33  469.65   1
   3   3  12  834.74  353.96   1
   3   3  12  246.73  261.18   1
   3  -3  12   32.52  429.25   1
   3   3  13  253.53  157.83   1
  -3   3 -13  943.09  519.82   1
   3   3  13  212.35  283.09   1
   3  -3  13  156.06  712.96   1
   3   3  14 -453.98  347.18   1
   3   3  14 -249.09  172.35   1
   3  -3  14   98.82  362.96   1
   3   3  15 2332.27  629.08   1
  -3   3 -15 2694.69  764.38   1
   3   3  15 1825.27  467.64   1
   3  -3  15 2379.78 1001.38   1
   3   3  16   14.18  240.04   1
  -3   3 -16  911.22  488.66   1
   3   3  16  541.07  260.95   1
   3  -3  16  405.58  672.86   1
   3   3  17 1829.98  600.84   1
  -3   3 -17 3022.23  818.41   1
   3   3  17 1862.00  524.61   1
   3  -3  17 2902.02 1076.11   1
   3   3  18 1176.57  506.76   1
  -3   3 -18 1071.70  545.23   1
   3   3  19  -68.97  258.05   1
  -3   3 -19  588.45  528.83   1
   3   3  20  474.30  323.95   1
  -3   3 -20  695.16  590.80   1
   3   3  21 -249.62  382.17   1
  -3   3 -21  570.11  555.04   1
   3   3  22 -463.35  466.24   1
   3   3  23  -93.26  439.52   1
   3  -4 -21 1216.71  704.32   1
   3   4 -20  771.48  488.36   1
   3  -4 -20  455.41  404.55   1
   3   4 -19  261.38  365.28   1
   3   4 -18  451.30  361.06   1
   3   4 -18  507.74  348.09   1
   3  -4 -18  971.86  987.67   1
   3   4 -17  330.70  385.77   1
   3   4 -17  185.66  189.40   1
   3  -4 -17  144.62  459.92   1
   3   4 -16  663.24  437.67   1
   3   4 -16  646.81  310.09   1
   3  -4 -16  609.43  638.07   1
   3   4 -15 2179.36  665.44   1
   3   4 -15 1570.22  466.43   1
   3  -4 -15 1713.14 1094.66   1
   3   4 -14  195.08  331.47   1
   3   4 -14  110.56  246.45   1
   3  -4 -14  536.93  665.03   1
   3   4 -13 1034.10  496.21   1
   3   4 -13 1382.34  454.11   1
   3  -4 -13 1465.92  962.51   1
   3   4 -12  220.30  311.44   1
   3   4 -12  821.46  351.41   1
   3  -4 -12  190.63  725.52   1
   3   4 -12  710.87  482.87   1
   3   4 -11 1871.76  571.20   1
  -3   4  11 1823.95  366.04   1
   3   4 -11 2517.02  601.24   1
   3  -4 -11 2038.65 1226.54   1
   3   4 -11 1720.32  616.08   1
   3   4 -10  155.75  281.33   1
  -3   4  10  284.02  212.19   1
   3   4 -10  373.04  331.96   1
   3   4  -9 -170.00  308.68   1
   3  -4  -9    0.61  693.61   1
   3   4  -9  441.16  337.14   1
  -3   4   9  449.17  221.48   1
   3   4  -8 1296.57  367.43   1
   3   4  -8 1301.30  576.50   1
   3   4  -8 1371.57  475.68   1
   3  -4  -8  822.15  775.38   1
  -3   4   8 1448.92  338.23   1
  -3   4   7 1468.42  334.94   1
   3   4  -7 1338.48  355.59   1
   3   4  -7 1178.54  478.18   1
   3   4  -7 1217.77  475.89   1
   3  -4  -7 1847.40 1312.13   1
  -3   4   6  377.86  213.99   1
   3   4  -6  485.24  243.29   1
   3   4  -6 1001.31  421.20   1
   3   4  -6  844.52  439.16   1
   3  -4  -6 1369.25 1022.32   1
  -3   4   5 1848.16  368.63   1
   3   4  -5 1985.58  400.98   1
   3   4  -5 2054.08  556.23   1
   3   4  -5 1984.51  584.69   1
   3  -4  -5 1965.43 1075.25   1
  -3   4   4  357.43  206.57   1
   3   4  -4  158.46  155.95   1
   3   4  -4  598.53  363.30   1
   3   4  -4  701.51  411.34   1
  -3   4   3  208.03  162.52   1
   3   4  -3  252.28  175.93   1
   3   4  -3  126.54  181.95   1
   3   4  -3  611.90  386.01   1
  -3   4   2 1991.98  416.52   1
   3   4  -2 2503.41  480.18   1
   3   4  -2 2873.71  664.49   1
  -3   4   2 2043.41  384.34   1
   3   4  -2 1956.54  590.82   1
   3  -4  -2 1369.36  910.47   1
   3   4  -110529.70  977.80   1
  -3   4   1 9663.89  815.80   1
  -3   4   1 9568.54  920.22   1
   3  -4  -1 8025.61 2128.55   1
   3   4  -110878.70 1206.44   1
   3   4   0 3104.20  552.07   1
  -3   4   0 3665.78  633.91   1
   3  -4   0 3941.49 1470.74   1
  -3   4  -1 1839.54  491.58   1
   3   4   1 1403.66  381.86   1
   3  -4   1 1558.42 1128.93   1
  -3   4  -2  820.97  395.68   1
   3   4   2  221.62  249.57   1
   3  -4   2  859.05  607.68   1
   3   4   3 4368.67  653.45   1
  -3   4  -3 4410.52  696.18   1
   3  -4   3 5532.77 1665.81   1
  -3   4  -4  977.72  401.33   1
   3   4   4  853.03  338.30   1
   3  -4   4  602.10  920.63   1
  -3   4  -5 3714.01  663.02   1
   3   4   5 3673.52  628.24   1
   3  -4   5 3585.47 1452.21   1
  -3   4  -6  306.16  273.20   1
   3   4   6 -136.10  208.95   1
   3  -4   6  349.10  510.04   1
  -3   4  -7 2030.06  504.92   1
   3   4   7 2220.61  509.35   1
   3  -4   7 2247.89 1102.36   1
  -3   4  -8 -173.44  196.41   1
   3   4   8  991.98  371.99   1
   3  -4   8  164.29  640.79   1
  -3   4  -9 -106.54  321.53   1
   3   4   9  605.31  340.46   1
   3  -4   9  512.15  753.96   1
  -3   4 -10 -361.71  421.54   1
   3   4  10  146.57  267.46   1
   3  -4  10 -486.26  519.80   1
   3   4  11 5526.15  923.75   1
  -3   4 -11 3341.48  698.41   1
   3  -4  11 5565.67 1732.40   1
  -3   4 -12  113.08  261.11   1
   3   4  12 1634.23  577.13   1
   3  -4  12 1120.27  969.40   1
  -3   4 -13  714.68  245.97   1
   3   4  13 1076.01  468.30   1
   3   4  13 1928.63  546.41   1
   3  -4  13  955.58  816.99   1
  -3   4 -14 -812.86  568.58   1
   3   4  14  133.52  241.60   1
   3   4  14  271.70  267.66   1
   3  -4  14   27.29  442.96   1
  -3   4 -15 -627.56  519.21   1
   3   4  15  331.33  182.67   1
   3   4  15  568.22  371.67   1
   3  -4  15 -477.19  538.67   1
  -3   4 -16-1496.67  711.53   1
   3   4  16 -258.27  273.35   1
   3   4  16  514.43  357.57   1
   3  -4  16 -751.88  695.15   1
  -3   4 -17-1347.23  729.39   1
   3   4  17 -397.32  382.91   1
   3   4  17 -310.86  248.20   1
  -3   4 -18 -893.92  674.44   1
   3   4  18  323.65  221.86   1
  -3   4 -19-1545.25  748.54   1
   3   4  19 -303.22  339.03   1
   3   4  20 -583.50  496.37   1
   3   4  21  140.52  247.34   1
   3  -5 -18  -73.80  592.01   1
   3   5 -17 1754.65  711.14   1
   3   5 -17 1425.72  492.99   1
   3  -5 -17 1433.69 1210.18   1
   3   5 -16  760.66  479.01   1
   3   5 -16 1355.15  538.49   1
   3  -5 -16  721.12 1024.58   1
   3   5 -15  336.94  400.33   1
   3   5 -15 1523.82  475.59   1
   3  -5 -15 1324.55 1292.26   1
   3   5 -14 1436.87  548.43   1
   3  -5 -14  508.75  787.85   1
   3  -5 -13  835.43  973.47   1
   3   5 -13  366.11  380.02   1
   3  -5 -12  485.41 1043.17   1
   3   5 -12  693.52  407.79   1
   3   5 -12  417.87  297.10   1
  -3   5  11  587.35  260.15   1
   3  -5 -11  491.86  592.47   1
   3   5 -11 1242.43  557.39   1
   3   5 -11  439.33  418.04   1
   3  -5 -10  989.61 1013.60   1
   3   5 -10 2183.83  688.99   1
   3   5 -10 1664.74  639.66   1
  -3   5  10 1197.35  343.18   1
   3   5  -9 4332.56  906.28   1
   3   5  -9 2141.28  682.08   1
   3  -5  -9 4027.77 1761.80   1
  -3   5   9 3616.20  587.86   1
   3   5  -8 1325.61  530.62   1
   3   5  -8  941.56  475.36   1
   3  -5  -8 1439.01 1324.98   1
  -3   5   8 1146.45  343.74   1
   3   5  -7 1356.58  419.39   1
   3   5  -7 1618.94  592.97   1
   3   5  -7 1385.99  521.98   1
   3  -5  -7 2482.19 1403.01   1
  -3   5   7 1696.24  402.35   1
   3   5  -6 1548.53  447.60   1
   3   5  -6 1999.73  605.95   1
   3   5  -6 1580.23  534.15   1
   3  -5  -6 1966.80 1424.57   1
  -3   5   6 1768.84  407.67   1
  -3   5   5  483.94  266.64   1
   3   5  -5 -274.75  227.39   1
   3   5  -5  584.01  396.70   1
   3   5  -5  286.30  328.03   1
   3  -5  -5  948.20  845.47   1
  -3   5   4  395.85  255.27   1
   3   5  -4    4.53  149.60   1
   3   5  -4  489.04  358.83   1
   3   5  -4  100.96  280.92   1
  -3   5   3 1353.22  363.49   1
   3   5  -3 1900.58  586.57   1
   3   5  -3 1502.23  430.93   1
   3   5  -3 1173.38  439.11   1
   3  -5  -3  857.30  798.46   1
  -3   5   2 1662.41  389.80   1
   3   5  -2 1816.51  587.20   1
   3   5  -2  978.04  370.14   1
   3   5  -2 1572.88  548.77   1
   3  -5  -2 2686.82 1586.62   1
  -3   5   1  897.65  298.80   1
   3   5  -1  509.45  339.38   1
   3  -5  -1 1596.35 1098.07   1
   3   5  -1  831.61  421.10   1
  -3   5   0 2295.81  450.95   1
   3   5   0 3909.25  690.74   1
   3  -5   0 2431.84 1505.54   1
  -3   5  -1 -316.98  273.19   1
   3   5   1  918.28  377.43   1
   3  -5   1  983.00  944.66   1
  -3   5  -2  252.15  284.10   1
   3   5   2  643.10  328.49   1
   3   5   3 3182.50  633.15   1
  -3   5  -3 4162.23  739.23   1
   3  -5   3 3483.26 1658.78   1
  -3   5  -4 1486.05  542.63   1
   3   5   4  716.01  379.41   1
   3  -5   4  424.64  861.75   1
  -3   5  -5 1599.45  577.70   1
   3   5   5  628.87  302.47   1
   3  -5   5 1088.99  939.08   1
  -3   5  -6 3162.67  716.74   1
   3   5   6 2162.32  562.28   1
   3  -5   6 2282.80 1330.90   1
  -3   5  -7 1264.11  503.00   1
   3   5   7 1181.48  391.70   1
   3  -5   7  483.24  723.24   1
  -3   5  -8 1207.44  529.75   1
   3   5   8  801.39  327.57   1
   3  -5   8    0.62  553.36   1
  -3   5  -9  732.87  371.85   1
   3   5   9  571.00  297.76   1
   3  -5   9  828.63  789.11   1
  -3   5 -10   -4.10  179.57   1
   3   5  10  640.02  349.65   1
   3  -5  10  567.43  860.86   1
  -3   5 -11 1935.14  585.67   1
   3   5  11 2111.83  630.97   1
   3  -5  11 1037.12  901.43   1
  -3   5 -12  115.99  271.75   1
   3   5  12  767.37  427.12   1
   3  -5  12  851.79  949.81   1
  -3   5 -13  119.72  258.09   1
   3   5  13  541.26  414.48   1
   3  -5  13  192.19  656.77   1
  -3   5 -14  288.87  224.28   1
   3   5  14  741.60  496.31   1
   3  -5  14 1101.05 1044.42   1
  -3   5 -15 2847.30  731.19   1
   3   5  15 3122.56  831.56   1
   3  -5  15 2288.59 1218.03   1
  -3   5 -16   -0.59  291.65   1
   3   5  16  513.55  426.14   1
   3  -5  16  298.92  558.28   1
   3   5  17 -228.08  358.98   1
   3   5  18  722.11  468.67   1
   3   5  19  181.35  257.92   1
   3  -6 -17  885.72 1078.01   1
   3  -6 -16 -203.22  599.24   1
   3  -6 -15  124.13  612.25   1
   3  -6 -14  719.19 1189.16   1
   3  -6 -13  919.59  957.49   1
   3   6 -13  106.54  252.96   1
   3   6 -12  583.05  445.23   1
   3  -6 -12  675.44 1107.33   1
   3   6 -12 -184.35  377.83   1
   3   6 -11  607.83  372.86   1
   3  -6 -11 1010.43 1242.43   1
   3   6 -11 -162.93  440.20   1
   3   6 -10 1172.39  564.86   1
   3  -6 -10 1806.36 1360.75   1
   3   6 -10  583.22  392.75   1
  -3   6  10  957.37  336.25   1
   3   6  -9  833.57  445.59   1
   3  -6  -9 1089.00 1184.26   1
   3   6  -9  589.42  445.00   1
  -3   6   9  464.45  242.78   1
   3   6  -8  152.87  196.23   1
   3   6  -8  241.48  336.49   1
  -3   6   8  209.45  241.80   1
   3   6  -7  432.32  371.74   1
   3   6  -7  610.50  446.54   1
  -3   6   7  577.93  311.99   1
   3   6  -6  353.48  221.58   1
   3   6  -6   78.65  297.01   1
  -3   6   6  313.37  267.46   1
   3   6  -5  605.40  449.50   1
   3   6  -5  191.93  252.69   1
  -3   6   5  646.38  339.87   1
  -3   6   4 2218.74  506.74   1
   3   6  -4 2185.18  676.37   1
   3   6  -4  729.12  353.75   1
  -3   6   3  408.21  293.07   1
   3   6  -3  598.03  529.52   1
   3   6  -3  346.71  335.42   1
  -3   6   2 2218.87  523.84   1
   3   6  -2 1647.19  493.50   1
   3   6  -2 2219.58  633.50   1
  -3   6   1  755.67  377.10   1
   3   6  -1  -93.02  227.41   1
  -3   6   0  148.80  244.44   1
   3   6   0  988.16  423.56   1
  -3   6  -1   51.17  203.40   1
   3   6   1  467.46  364.38   1
  -3   6  -2  183.54  212.07   1
   3   6   2 1203.25  451.25   1
  -3   6  -3 1451.45  433.23   1
   3   6   3 2042.43  533.81   1
  -3   6  -4  865.02  377.78   1
   3   6   4 1377.29  450.23   1
  -3   6  -5  -33.34  185.22   1
   3   6   5  316.63  331.58   1
  -3   6  -6 1357.91  509.65   1
   3   6   6 1066.82  435.58   1
  -3   6  -7 1345.56  535.64   1
   3   6   7  185.35  270.95   1
  -3   6  -8 1272.76  575.93   1
   3   6   8  417.93  313.47   1
  -3   6  -9 1222.79  596.73   1
   3   6   9 -292.73  331.20   1
   3  -6   9  877.91  852.64   1
  -3   6 -10 1868.41  699.83   1
   3   6  10  407.60  230.72   1
   3  -6  10  626.38 1019.84   1
  -3   6 -11 1526.44  607.90   1
   3   6  11  432.49  325.17   1
   3  -6  11 2133.66 1354.67   1
  -3   6 -12 1018.46  565.87   1
   3   6  12  698.93  398.76   1
   3  -6  12  544.59  654.37   1
   3   6  13  639.42  425.74   1
   3  -6  13 -254.34  748.74   1
   3   6  14 1503.35  590.27   1
   3  -6  14 -118.63  448.93   1
   3   6  15  444.14  476.01   1
   3  -6  15 -276.98  589.61   1
  -3   7  10 -383.48  337.81   1
  -3   7   9  259.38  239.39   1
  -3   7   8  236.53  196.31   1
  -3   7   7  140.43  237.67   1
  -3   7   6 1203.62  401.45   1
  -3   7   5  618.15  358.46   1
   3   7  -4  -66.09  166.76   1
  -3   7   4  273.49  290.63   1
   3   7  -3   34.19  220.10   1
  -3   7   3  690.55  350.73   1
  -3   7   2  132.13  252.18   1
   3   7  -2  148.25  202.48   1
  -3   7   1  -94.69  214.93   1
   3   7  -1 -409.14  309.28   1
  -3   7   0 1457.55  509.57   1
   3   7   0 1212.53  454.79   1
  -3   7  -1  285.07  324.83   1
   3   7   1  590.02  378.59   1
  -3   7  -2  467.73  319.62   1
   3   7   2  430.15  335.38   1
  -3   7  -3  288.15  255.54   1
   3   7   3  471.54  325.40   1
  -3   7  -4 -182.11  238.59   1
   3   7   4  676.82  381.01   1
  -3   7  -5   47.18  256.55   1
   3   7   5  561.40  365.18   1
   3   7   6  592.93  383.38   1
   3   7   7  148.12  258.93   1
   3   7   8  527.75  304.64   1
   3   7   9  283.26  197.71   1
   3   7  10  148.75  328.76   1
   3   7  11 -170.51  331.29   1
   3   8   0  425.22  369.58   1
   3   8   1  385.99  439.76   1
   4   0 -17  541.46  526.95   1
   4   0 -16  581.02  547.26   1
   4   0 -15  241.03  477.01   1
   4   0 -14  197.76  228.04   1
   4   0 -14 -535.41  356.62   1
   4   0 -13  478.21  377.99   1
   4   0 -13 -266.69  259.99   1
   4   0 -12  110.10  367.58   1
   4   0 -12 -132.48  179.31   1
   4   0 -11  384.63  456.36   1
   4   0 -11  808.51  391.28   1
   4   0 -10 7129.90  955.37   1
   4   0 -10 7528.49 1405.67   1
   4   0  -9  423.04  329.92   1
   4   0  -8  781.12  324.81   1
   4   0  -7  113.23  187.50   1
   4   0  -7 1559.31  521.99   1
   4   0  -6 1098.69  338.67   1
   4   0  -6 1911.27  539.40   1
   4   0  -5 1168.12  497.89   1
   4   0  -5  801.99  340.70   1
   4   0  -4 5247.25  858.36   1
   4   0  -3 2115.72  692.91   1
   4   0  -2 2640.93  646.65   1
  -4   0   1  184.23  254.19   1
   4   0  -1 1634.84  533.02   1
  -4   0   0  411.78  257.76   1
   4   0   0  923.57  414.35   1
  -4   0  -1  175.16  187.94   1
   4   0   1  865.97  464.10   1
  -4   0  -2  931.03  361.98   1
   4   0   2 1607.08  530.49   1
  -4   0  -3    7.41  156.66   1
   4   0   3 1206.54  558.97   1
  -4   0  -4 1943.87  534.04   1
   4   0   4 3219.01  699.85   1
  -4   0  -5  123.56  184.40   1
   4   0   5 1954.18  589.20   1
  -4   0  -6 3204.88  717.79   1
   4   0   6 5839.63  910.30   1
  -4   0  -7 -126.17  330.90   1
   4   0   7 2374.40  640.07   1
  -4   0  -8 -131.95  227.52   1
  -4   0  -9 -782.03  524.24   1
  -4   0 -10 -226.22  459.51   1
  -4   0 -11 -679.20  593.45   1
  -4   0 -12  346.81  357.26   1
  -4   0 -13 -286.10  493.04   1
  -4   0 -14 6458.40 1247.60   1
  -4   0 -15   13.08  293.82   1
  -4   0 -16 -536.45  547.28   1
  -4   0 -17-1561.62  761.03   1
   4   1 -21  196.79  338.27   1
   4   1 -20  133.62  295.79   1
   4   1 -19  248.95  317.04   1
   4   1 -18 -120.61  223.18   1
   4   1 -17  586.25  413.31   1
   4  -1 -17  483.67  458.91   1
   4   1 -17  -21.79  327.50   1
   4   1 -16  436.02  349.65   1
   4  -1 -16  325.03  364.38   1
   4   1 -16  505.93  493.20   1
   4   1 -15  165.59  326.87   1
   4  -1 -15  275.44  556.64   1
   4   1 -15  -95.13  467.30   1
   4   1 -15  852.92  498.51   1
   4   1 -14 1096.12  432.45   1
   4  -1 -14 1925.42  815.78   1
   4   1 -14 1824.62  855.70   1
   4   1 -14 1554.51  553.96   1
   4  -1 -13 1019.55  638.98   1
   4   1 -13  393.31  363.31   1
   4   1 -13  648.59  404.75   1
   4   1 -13  285.77  188.47   1
   4  -1 -13 1561.74 1316.42   1
   4  -1 -12  919.90  675.62   1
   4   1 -12  430.47  416.75   1
   4   1 -12  563.21  397.97   1
   4   1 -12  211.60  265.34   1
   4  -1 -12 1461.60 1121.06   1
   4   1 -11  455.11  491.72   1
   4   1 -11  205.25  377.25   1
   4   1 -11 -102.60  209.38   1
   4  -1 -11  174.20  638.79   1
   4   1 -10  654.62  466.66   1
   4   1 -10  281.49  283.74   1
   4   1 -10  601.41  408.76   1
   4  -1 -10  778.83 1129.76   1
   4   1  -9  500.60  536.14   1
   4   1  -9  489.86  328.41   1
   4   1  -9  277.40  308.35   1
   4  -1  -9 1191.36 1110.94   1
   4   1  -8  697.47  501.96   1
   4   1  -8  543.10  287.78   1
   4   1  -8 1930.13  561.65   1
   4  -1  -8  825.55  817.91   1
   4   1  -7  293.27  302.67   1
   4   1  -7  978.91  440.83   1
   4   1  -6 3827.89  676.58   1
   4   1  -6 3650.17  700.97   1
   4  -1  -6 4073.96 1789.97   1
   4   1  -5 1624.17  497.17   1
   4   1  -5 1339.14  448.66   1
   4  -1  -5 1568.71 1049.40   1
   4   1  -4 1219.79  435.48   1
   4   1  -4  995.04  391.85   1
   4  -1  -4  981.65  868.60   1
   4   1  -3  509.60  276.99   1
   4  -1  -3 1176.52  960.03   1
   4   1  -2  -17.29  212.51   1
   4  -1  -2  656.49  794.39   1
  -4   1   1   52.52  234.11   1
   4   1  -1 1476.75  479.53   1
   4  -1  -1  574.47  882.15   1
  -4   1   0 2438.93  502.51   1
  -4  -1   0 2395.71  520.08   1
   4   1   0 3997.83  745.60   1
   4  -1   0 3834.08 1601.07   1
  -4   1  -1 2732.92  605.66   1
  -4  -1  -1  799.42  314.14   1
   4   1   1 2940.85  641.51   1
   4  -1   1 2498.07 1231.56   1
  -4   1  -2 3062.79  651.17   1
   4   1   2 3475.10  692.68   1
   4  -1   2 3905.26 1513.03   1
  -4   1  -3  775.63  385.97   1
   4   1   3  828.12  372.33   1
   4  -1   3  214.32  623.47   1
  -4   1  -4  610.57  343.88   1
   4   1   4  756.13  364.19   1
   4  -1   4  329.23  726.25   1
  -4   1  -5  202.73  212.87   1
   4   1   5  593.42  377.24   1
   4  -1   5  458.08  628.78   1
  -4   1  -6  217.76  250.40   1
   4   1   6  451.04  289.81   1
   4  -1   6 1200.96  971.23   1
  -4   1  -7   85.50  197.35   1
   4   1   7  916.32  411.47   1
   4  -1   7  286.05  431.58   1
  -4   1  -8 1110.98  432.04   1
   4   1   8 1667.90  511.27   1
   4  -1   8 1838.00 1138.54   1
  -4   1  -9 1071.53  524.00   1
   4   1   9  973.93  449.95   1
   4  -1   9 1013.90 1264.14   1
  -4   1 -10 2204.46  621.01   1
   4   1  10 3863.36  777.20   1
   4  -1  10 3509.51 1663.24   1
  -4   1 -11  105.69  267.06   1
   4   1  11  550.61  393.58   1
  -4   1 -12 -177.43  454.51   1
   4   1  12  517.67  336.12   1
  -4   1 -13 -432.95  486.60   1
   4   1  13  -46.43  325.57   1
  -4   1 -14 -566.51  526.76   1
   4   1  14  615.32  499.15   1
  -4   1 -15 -522.86  468.18   1
   4   1  15  597.98  384.77   1
  -4   1 -16 -174.72  388.88   1
  -4   1 -17 -332.72  455.18   1
   4   2 -19  323.02  330.53   1
   4   2 -18  473.22  389.31   1
   4   2 -18  469.19  383.55   1
   4  -2 -18  861.99  972.28   1
   4   2 -17  193.16  334.24   1
   4  -2 -17  697.16  599.52   1
   4   2 -17  737.50  416.77   1
   4  -2 -17  581.25  884.03   1
   4   2 -16  533.50  368.82   1
   4  -2 -16  229.07  415.37   1
   4   2 -16   19.31  408.08   1
   4   2 -16  569.48  371.29   1
   4  -2 -16  391.48  690.94   1
   4   2 -15 -153.40  288.43   1
   4   2 -15  268.39  339.42   1
   4   2 -15   -8.31  223.85   1
   4  -2 -15  732.09  870.35   1
   4   2 -14  105.02  316.42   1
   4   2 -14  896.16  457.85   1
   4  -2 -14 1354.55 1082.25   1
   4   2 -14  250.19  288.39   1
   4   2 -13   72.52  377.42   1
   4   2 -13  -26.84  282.66   1
   4   2 -13  204.92  303.92   1
   4   2 -12  716.30  638.77   1
   4   2 -12  237.19  260.91   1
   4   2 -12  683.06  379.92   1
   4  -2 -12 1441.42 1138.90   1
   4   2 -11 1457.41  753.22   1
   4   2 -11  936.50  450.96   1
   4   2 -11  521.75  350.53   1
   4  -2 -11  666.57  886.56   1
   4   2 -10 1053.78  592.74   1
   4   2 -10   42.96  213.24   1
   4   2 -10  274.82  280.39   1
   4  -2 -10  731.91  867.17   1
   4   2  -9  992.89  553.69   1
   4   2  -9  221.15  269.86   1
   4   2  -9  342.70  264.60   1
   4  -2  -9  437.74  765.74   1
   4   2  -8  860.88  597.46   1
   4   2  -8  625.12  390.01   1
   4   2  -8  -74.09  306.10   1
   4  -2  -8  573.54  993.42   1
   4   2  -7 1488.00  739.72   1
   4   2  -7 1175.92  430.16   1
   4   2  -7  914.46  404.65   1
   4  -2  -7 1586.61 1187.48   1
   4   2  -6 1184.77  420.44   1
   4   2  -6 1073.15  459.64   1
   4  -2  -6 2343.02 1405.01   1
   4   2  -5  767.32  413.34   1
   4   2  -5 1100.61  441.19   1
   4  -2  -5  970.34  885.78   1
   4   2  -4 1840.27  520.96   1
   4   2  -4 1795.04  500.80   1
   4   2  -3 1581.82  459.80   1
   4   2  -3 2138.26  591.14   1
   4  -2  -3 1293.86  875.55   1
  -4   2   2  605.78  296.18   1
   4   2  -2 1114.80  454.30   1
   4  -2  -2  550.43  770.66   1
  -4   2   1 3032.69  534.59   1
   4   2  -1 3013.33  620.18   1
   4  -2  -1 2987.68 1310.86   1
  -4   2   0  336.49  212.79   1
   4   2   0 1479.65  480.64   1
   4  -2   0 1369.28  939.16   1
  -4   2  -1 -340.27  289.49   1
   4   2   1  536.33  304.56   1
   4  -2   1  708.05  779.65   1
  -4   2  -2 -435.55  339.19   1
   4   2   2 -146.40  240.55   1
   4  -2   2  537.88  852.28   1
  -4   2  -3 -333.04  345.76   1
   4   2   3  271.81  275.03   1
   4  -2   3 -435.72  452.65   1
  -4   2  -4  194.84  164.67   1
   4   2   4  525.23  343.15   1
   4  -2   4 -102.66  504.44   1
  -4   2  -5 2561.45  600.14   1
   4   2   5 2600.85  667.81   1
   4  -2   5 2241.20 1156.25   1
  -4   2  -6 1548.11  568.66   1
   4   2   6 1162.98  450.41   1
   4  -2   6 1016.47 1047.28   1
  -4   2  -7 1232.49  550.86   1
   4   2   7  492.93  310.38   1
   4  -2   7 1416.75  934.80   1
  -4   2  -8  675.22  414.22   1
   4   2   8   31.08  211.75   1
   4  -2   8 -532.76  547.34   1
  -4   2  -9  658.66  471.41   1
   4   2   9   49.57  316.25   1
   4  -2   9  385.43  921.07   1
  -4   2 -10  713.84  513.39   1
   4   2  10  407.58  346.42   1
   4  -2  10  -50.09  417.59   1
  -4   2 -11  842.71  481.82   1
   4   2  11 1144.33  481.03   1
   4  -2  11 1257.47  901.86   1
  -4   2 -12 1033.49  503.41   1
   4   2  12  369.88  342.77   1
   4  -2  12  672.47  753.53   1
  -4   2 -13  628.60  442.84   1
   4   2  13  485.41  306.84   1
   4  -2  13 1569.40  969.76   1
  -4   2 -14  353.10  445.38   1
   4   2  14  -44.30  256.35   1
   4  -2  14   90.71  831.46   1
  -4   2 -15  319.74  357.99   1
   4   2  15  969.95  444.72   1
   4  -2  15 1552.72 1220.95   1
  -4   2 -16  198.02  433.67   1
   4   2  16  648.58  395.41   1
   4  -2  16 1471.60  872.69   1
   4  -3 -18  289.92  690.23   1
   4   3 -17  347.80  305.14   1
   4  -3 -17  750.80  869.01   1
   4   3 -16  205.52  331.79   1
   4   3 -16  432.95  351.04   1
   4   3 -15  231.93  345.69   1
   4  -3 -15  600.89 1003.10   1
   4   3 -15   92.24  239.45   1
   4   3 -14 -145.82  277.42   1
   4   3 -14  497.96  608.70   1
   4   3 -14  164.67  290.83   1
   4  -3 -14  -89.45  783.90   1
   4   3 -13  500.47  498.53   1
   4   3 -13  209.77  271.06   1
   4   3 -13  690.26  412.72   1
   4  -3 -13 -691.10  857.10   1
   4   3 -12 -144.74  323.59   1
   4   3 -12   98.15  305.89   1
   4   3 -12 -111.04  192.24   1
   4  -3 -12  266.02  733.62   1
   4   3 -11  -34.58  342.53   1
   4   3 -11  100.53  259.07   1
   4   3 -11   74.79  205.93   1
   4  -3 -11   94.27  842.76   1
   4   3 -10  493.73  555.08   1
   4   3 -10  329.52  339.18   1
   4   3 -10 -256.17  302.25   1
   4  -3 -10   65.49  558.69   1
   4   3  -9 1042.65  595.49   1
   4   3  -9  -95.75  286.29   1
   4   3  -9 -443.40  349.01   1
   4  -3  -9  860.82  876.04   1
   4   3  -8   37.31  227.43   1
   4   3  -8   87.39  333.25   1
   4   3  -8 -308.27  223.36   1
   4  -3  -8 -649.20  912.36   1
   4   3  -7  495.97  365.13   1
   4   3  -7  952.46  557.16   1
   4   3  -7  595.01  336.01   1
   4  -3  -7   10.49  608.71   1
   4   3  -6  599.33  469.75   1
   4   3  -6  707.20  369.40   1
   4   3  -6  840.92  362.65   1
   4  -3  -6 1726.74 1208.18   1
   4   3  -5 2889.48  714.52   1
   4   3  -5 2987.44  681.64   1
   4  -3  -5 1716.61 1232.59   1
   4   3  -4 5170.66  854.66   1
   4  -3  -4 4816.65 1817.79   1
   4   3  -4 6909.47 1071.39   1
   4   3  -3 2705.72  684.23   1
   4  -3  -3 4217.26 1604.21   1
   4   3  -3 4128.66  849.33   1
  -4   3   2 1355.72  434.81   1
   4   3  -2 1160.51  444.79   1
   4  -3  -2  691.50  857.99   1
  -4   3   1 2023.97  508.14   1
   4   3  -1 1377.84  479.08   1
   4  -3  -1 1739.91 1134.87   1
  -4   3   0 1889.77  517.01   1
   4   3   0 2162.60  585.71   1
   4  -3   0 1765.48 1116.39   1
  -4   3  -1 2142.28  535.94   1
   4   3   1 1465.57  465.18   1
   4  -3   1 1981.54 1161.19   1
  -4   3  -2  530.29  305.03   1
   4   3   2  755.21  404.84   1
   4  -3   2  178.94  532.65   1
  -4   3  -3 1069.19  381.85   1
   4   3   3 1743.60  527.53   1
   4  -3   3 1067.78  872.39   1
  -4   3  -4  -18.63  181.93   1
   4   3   4  936.84  412.06   1
   4  -3   4  340.90  820.99   1
  -4   3  -5 -156.82  326.64   1
   4   3   5  201.30  278.11   1
   4  -3   5  -39.27  481.20   1
  -4   3  -6 -558.03  423.88   1
   4   3   6  -72.38  232.61   1
   4  -3   6  355.04  878.05   1
  -4   3  -7  120.17  202.24   1
   4   3   7 1612.22  501.73   1
   4  -3   7  933.71  925.70   1
  -4   3  -8  904.99  348.26   1
   4   3   8 2330.05  664.42   1
   4  -3   8 2426.92 1420.88   1
  -4   3  -9  141.24  361.74   1
   4   3   9 1766.16  537.79   1
   4  -3   9 1645.10 1107.82   1
  -4   3 -10 -651.80  519.28   1
   4   3  10  274.17  321.93   1
   4  -3  10   81.85  496.46   1
  -4   3 -11 -270.26  385.64   1
   4   3  11  101.48  251.50   1
   4  -3  11  -39.28  727.10   1
  -4   3 -12  619.09  290.45   1
   4   3  12 -448.24  372.95   1
   4  -3  12  180.53  785.41   1
  -4   3 -13 1169.19  587.52   1
   4   3  13  152.44  262.17   1
   4  -3  13 -642.67  729.38   1
  -4   3 -14  918.91  644.87   1
   4   3  14 -257.78  303.51   1
   4  -3  14  456.11  750.55   1
   4   3  15 -263.35  341.96   1
   4  -3  15   73.24  374.58   1
   4  -4 -17 -197.44  805.17   1
   4  -4 -16 -257.11 1032.27   1
   4   4 -15 -364.77  374.61   1
   4  -4 -15 -695.07 1170.64   1
   4   4 -14 -273.16  367.73   1
   4  -4 -14  278.09  528.60   1
   4   4 -13  680.94  429.25   1
   4   4 -13  967.08  640.43   1
   4   4 -13  976.11  545.70   1
   4  -4 -13 1423.14 1423.66   1
   4   4 -12 -182.10  363.94   1
   4   4 -12  939.83  560.97   1
   4   4 -12  515.80  400.03   1
   4  -4 -12  943.12 1183.48   1
   4   4 -11  977.94  495.77   1
   4   4 -11  911.09  545.83   1
   4   4 -11  548.38  408.99   1
   4  -4 -11  317.86  968.74   1
   4   4 -10  315.20  363.94   1
   4   4 -10  785.14  551.63   1
   4   4 -10 1061.36  460.77   1
   4  -4 -10  553.66 1024.60   1
   4   4  -9 2113.79  714.36   1
   4   4  -9 1770.69  815.48   1
   4   4  -9  879.51  455.14   1
   4  -4  -9 2448.84 1481.10   1
   4   4  -8 1831.19  622.66   1
   4   4  -8 1352.35  628.91   1
   4   4  -8 1054.54  499.77   1
   4  -4  -8 1070.16 1232.04   1
   4   4  -7  782.81  466.28   1
   4   4  -7  670.59  584.31   1
   4   4  -7  952.53  464.51   1
   4  -4  -7 -548.35  922.23   1
   4   4  -6  776.46  546.66   1
   4   4  -6  233.02  323.26   1
   4   4  -6  232.84  291.04   1
   4  -4  -6  620.62 1085.27   1
   4   4  -5 2169.79  671.22   1
   4   4  -5 1896.56  587.32   1
   4  -4  -5 2927.11 1401.61   1
   4   4  -4  861.85  477.50   1
   4   4  -4  827.32  437.14   1
   4  -4  -4 1463.90 1155.61   1
  -4   4   3  338.48  234.44   1
   4   4  -3  716.41  386.45   1
   4   4  -3  753.10  380.02   1
  -4   4   2  -84.63  174.26   1
   4   4  -2  839.17  431.81   1
   4  -4  -2   49.16  681.40   1
  -4   4   1   28.03  165.25   1
   4   4  -1   67.24  255.91   1
   4  -4  -1 -108.07  490.49   1
  -4   4   0 1309.59  453.72   1
   4   4   0  -95.97  228.34   1
   4  -4   0  662.94  762.92   1
  -4   4  -1 1307.26  455.97   1
   4   4   1  322.70  327.58   1
   4  -4   1  330.97  430.29   1
  -4   4  -2  935.29  402.19   1
   4   4   2 -276.76  267.99   1
   4  -4   2  955.21  992.41   1
  -4   4  -3 1427.41  496.72   1
   4   4   3 1138.31  469.18   1
   4  -4   3 1078.80  908.29   1
  -4   4  -4  477.14  331.66   1
   4   4   4  409.05  324.03   1
   4  -4   4  546.03  690.77   1
  -4   4  -5   42.69  213.32   1
   4   4   5  845.05  432.86   1
   4  -4   5 -589.10  704.60   1
  -4   4  -6   97.50  184.87   1
   4   4   6  799.96  454.00   1
   4  -4   6  219.45  494.48   1
  -4   4  -7 -147.29  273.78   1
   4   4   7  605.11  363.67   1
   4  -4   7  -50.48  808.97   1
  -4   4  -8   42.63  239.49   1
   4   4   8   89.60  265.41   1
   4  -4   8 -180.57  749.99   1
  -4   4  -9 -384.15  422.23   1
   4   4   9 -101.33  259.88   1
   4  -4   9  633.15  770.52   1
  -4   4 -10 -573.32  511.68   1
   4   4  10  139.51  249.37   1
   4  -4  10  318.61  697.45   1
  -4   4 -11 -246.66  381.82   1
   4   4  11 -401.04  320.60   1
   4  -4  11   78.61  736.06   1
  -4   4 -12 -164.31  381.31   1
   4   4  12  180.43  261.10   1
   4  -4  12 -123.42  852.11   1
   4   4  13  841.23  445.33   1
   4  -4  13  787.80 1086.49   1
   4   4  14  325.47  244.24   1
   4  -4  14  -99.27  524.74   1
   4   4  15    4.02  226.03   1
   4  -4  15   44.79  485.73   1
   4   5 -11  288.72  525.35   1
   4   5 -10  312.92  355.31   1
   4   5  -9  256.01  494.01   1
   4   5  -8  304.16  428.08   1
   4   5  -7  653.79  486.88   1
   4   5  -6 1144.64  573.30   1
   4   5  -6  522.87  542.01   1
   4   5  -5  708.19  527.58   1
   4  -5  -5  -72.77  654.04   1
   4   5  -4  229.09  357.62   1
   4  -5  -4 1000.54  886.36   1
   4   5  -4  757.59  420.09   1
  -4   5   3  -68.51  187.64   1
   4   5  -3  -75.90  307.93   1
   4  -5  -3  185.33  801.90   1
  -4   5   2  284.30  192.77   1
   4   5  -2  133.44  234.04   1
   4  -5  -2  341.40  515.65   1
  -4   5   1  -73.76  149.25   1
   4   5  -1  433.18  352.32   1
   4  -5  -1   80.59  625.98   1
  -4   5   0 -228.94  275.42   1
   4   5   0 -231.39  289.96   1
   4  -5   0  298.61  987.46   1
  -4   5  -1  157.38  178.28   1
   4   5   1 -349.37  351.80   1
  -4   5  -2  261.02  269.30   1
   4   5   2  -86.31  256.46   1
   4  -5   2  801.53  916.42   1
  -4   5  -3  900.67  440.87   1
   4   5   3  469.05  389.40   1
   4  -5   3 1518.33 1047.25   1
  -4   5  -4 1407.47  588.27   1
   4   5   4  739.98  449.04   1
   4  -5   4 -338.38  640.15   1
  -4   5  -5  740.27  506.27   1
   4   5   5 -234.69  294.52   1
   4  -5   5  563.05  475.92   1
  -4   5  -6  706.51  475.12   1
   4   5   6  156.14  289.59   1
  -4   5  -7  566.72  448.51   1
   4   5   7  369.76  342.52   1
  -4   5  -8  748.45  479.71   1
   4   5   8  440.28  441.82   1
   4   5   9  363.02  348.52   1
   4   5  10  157.79  289.77   1
  -4   6   2  642.98  348.50   1
  -4   6   1  251.47  249.48   1
  -4   6   0   47.70  172.91   1
  -4   6  -1   27.26  219.97   1
  -4   6  -2  -79.02  284.17   1
   0   0   0    0.00    0.00
;
_shelx_hkl_checksum              15470
loop_
_space_group_symop_operation_xyz
'x, y, z'
'-x, y+1/2, -z+1/2'
'-x, -y, -z'
'x, -y-1/2, z-1/2'
loop_
_atom_site_label
_atom_site_type_symbol
_atom_site_fract_x
_atom_site_fract_y
_atom_site_fract_z
_atom_site_U_iso_or_equiv
_atom_site_adp_type
_atom_site_occupancy
_atom_site_site_symmetry_order
_atom_site_calc_flag
_atom_site_refinement_flags_posn
_atom_site_refinement_flags_adp
Br1 Br 0.9138(4) 0.1774(2) 0.31299(9) 0.0877(10) Uani 1 1 d . U
N1 N 0.559(2) 0.9120(12) 0.4896(4) 0.039(2) Uani 1 1 d . U
C1 C 0.489(2) 0.8898(13) 0.4389(5) 0.035(2) Uani 1 1 d . U
H1 H 0.3719 0.9829 0.4197 0.042 Uiso 1 1 calc R U
C2 C 0.590(2) 0.7190(12) 0.4096(4) 0.0277(19) Uani 1 1 d . U
C3 C 0.740(2) 0.5680(14) 0.4372(4) 0.032(2) Uani 1 1 d . U
H3 H 0.7780 0.5741 0.4753 0.038 Uiso 1 1 calc R U
C4 C 0.833(2) 0.4087(13) 0.4082(4) 0.031(2) Uani 1 1 d . U
H4 H 0.9321 0.3079 0.4265 0.037 Uiso 1 1 calc R U
C5 C 0.776(2) 0.4031(14) 0.3532(4) 0.032(2) Uani 1 1 d . U
C6 C 0.623(2) 0.5519(14) 0.3235(4) 0.036(2) Uani 1 1 d . U
H6 H 0.5905 0.5450 0.2852 0.043 Uiso 1 1 calc R U
C7 C 0.526(2) 0.7045(14) 0.3523(4) 0.034(2) Uani 1 1 d . U
H7 H 0.4139 0.8012 0.3339 0.041 Uiso 1 1 calc R U
loop_
_atom_site_aniso_label
_atom_site_aniso_U_11
_atom_site_aniso_U_22
_atom_site_aniso_U_33
_atom_site_aniso_U_23
_atom_site_aniso_U_13
_atom_site_aniso_U_12
Br1 0.0794(14) 0.0750(13) 0.1088(19) -0.0331(9) 0.0041(10) 0.0051(8)
N1 0.038(5) 0.026(4) 0.053(5) -0.007(4) -0.001(4) 0.013(3)
C1 0.031(5) 0.022(4) 0.051(6) -0.007(4) 0.002(4) 0.006(4)
C2 0.026(4) 0.021(4) 0.036(5) 0.004(3) 0.006(3) 0.004(3)
C3 0.032(5) 0.031(5) 0.033(5) 0.000(4) -0.001(4) 0.008(4)
C4 0.028(5) 0.025(4) 0.039(5) -0.001(4) 0.002(4) 0.013(3)
C5 0.025(4) 0.029(4) 0.042(5) -0.011(4) 0.001(4) -0.001(3)
C6 0.040(5) 0.036(5) 0.032(5) 0.000(4) 0.000(4) 0.003(4)
C7 0.033(5) 0.035(5) 0.035(5) 0.001(4) -0.007(4) -0.001(4)
loop_
_atom_type_symbol
_atom_type_description
_atom_type_scat_dispersion_real
_atom_type_scat_dispersion_imag
_atom_type_scat_source
C C 0.0033 0.0016 'International Tables Vol C Tables 4.2.6.8 and 6.1.1.4'
H H 0.0000 0.0000 'International Tables Vol C Tables 4.2.6.8 and 6.1.1.4'
N N 0.0061 0.0033 'International Tables Vol C Tables 4.2.6.8 and 6.1.1.4'
Br Br -0.2901 2.4595 'International Tables Vol C Tables 4.2.6.8 and 6.1.1.4'
loop_
_geom_angle_atom_site_label_1
_geom_angle_atom_site_label_2
_geom_angle_atom_site_label_3
_geom_angle
_geom_angle_site_symmetry_3
C1 N1 N1 112.3(11) 3_676
N1 C1 C2 120.9(9) .
N1 C1 H1 119.5 .
C2 C1 H1 119.5 .
C3 C2 C7 118.8(9) .
C3 C2 C1 122.1(10) .
C7 C2 C1 119.1(9) .
C4 C3 C2 120.5(10) .
C4 C3 H3 119.7 .
C2 C3 H3 119.7 .
C5 C4 C3 118.7(9) .
C5 C4 H4 120.7 .
C3 C4 H4 120.7 .
C4 C5 C6 122.8(9) .
C4 C5 Br1 117.9(7) .
C6 C5 Br1 119.3(8) .
C7 C6 C5 118.1(10) .
C7 C6 H6 121.0 .
C5 C6 H6 121.0 .
C6 C7 C2 121.0(10) .
C6 C7 H7 119.5 .
C2 C7 H7 119.5 .
loop_
_geom_bond_atom_site_label_1
_geom_bond_atom_site_label_2
_geom_bond_distance
_geom_bond_site_symmetry_2
Br1 C5 1.963(9) .
N1 C1 1.261(14) .
N1 N1 1.435(16) 3_676
C1 C2 1.470(13) .
C1 H1 0.9300 .
C2 C3 1.398(13) .
C2 C7 1.403(15) .
C3 C4 1.389(13) .
C3 H3 0.9300 .
C4 C5 1.341(15) .
C4 H4 0.9300 .
C5 C6 1.415(15) .
C6 C7 1.353(14) .
C6 H6 0.9300 .
C7 H7 0.9300 .
