#------------------------------------------------------------------------------
#$Date: 2017-11-04 04:51:11 +0200 (Sat, 04 Nov 2017) $
#$Revision: 202584 $
#$URL: file:///home/coder/svn-repositories/cod/cif/7/12/08/7120848.cif $
#------------------------------------------------------------------------------
#
# This file is available in the Crystallography Open Database (COD),
# http://www.crystallography.net/
#
# All data on this site have been placed in the public domain by the
# contributors.
#
data_7120848
loop_
_publ_author_name
'Mayol-Llin\`as, Joan'
'Farnaby, William'
'Nelson, Adam'
_publ_section_title
;
 Modular synthesis of thirty lead-like scaffolds suitable for CNS drug
 discovery
;
_journal_name_full               'Chemical Communications'
_journal_paper_doi               10.1039/C7CC06078E
_journal_year                    2017
_chemical_formula_moiety         'C15 H17 N O3'
_chemical_formula_sum            'C15 H17 N O3'
_chemical_formula_weight         259.29
_chemical_name_systematic
;
 (4aR*,9bS*)-8-Methoxy-4a-(prop-2-en-1-yl)-2H,3H,4H,4aH,5H,9bH-indeno[2,1-e][1,3] oxazin-2-one
;
_space_group_crystal_system      triclinic
_space_group_IT_number           2
_space_group_name_Hall           '-P 1'
_space_group_name_H-M_alt        'P -1'
_symmetry_space_group_name_Hall  '-P 1'
_symmetry_space_group_name_H-M   'P -1'
_atom_sites_solution_hydrogens   geom
_atom_sites_solution_primary     dual
_audit_creation_date             2017-06-02
_audit_creation_method
;
Olex2 1.2
(compiled 2017.03.28 svn.r3405 for OlexSys, GUI svn.r5337)
;
_audit_update_record
;
2017-08-03 deposited with the CCDC.
2017-11-02 downloaded from the CCDC.
;
_cell_angle_alpha                63.764(7)
_cell_angle_beta                 79.148(6)
_cell_angle_gamma                74.800(6)
_cell_formula_units_Z            2
_cell_length_a                   6.7483(5)
_cell_length_b                   9.9314(7)
_cell_length_c                   11.0967(8)
_cell_measurement_reflns_used    2337
_cell_measurement_temperature    119.97(16)
_cell_measurement_theta_max      73.6950
_cell_measurement_theta_min      5.0600
_cell_volume                     641.50(9)
_computing_cell_refinement       'CrysAlisPro 1.171.38.46 (Rigaku OD, 2015)'
_computing_data_collection       'CrysAlisPro 1.171.38.46 (Rigaku OD, 2015)'
_computing_data_reduction        'CrysAlisPro 1.171.38.46 (Rigaku OD, 2015)'
_computing_molecular_graphics    'Olex2 (Dolomanov et al., 2009)'
_computing_publication_material  'Olex2 (Dolomanov et al., 2009)'
_computing_structure_refinement  'ShelXL (Sheldrick, 2015)'
_computing_structure_solution    'ShelXT (Sheldrick, 2015)'
_diffrn_ambient_environment      N~2~
_diffrn_ambient_temperature      119.97(16)
_diffrn_detector                 'CCD plate'
_diffrn_detector_area_resol_mean 5.3095
_diffrn_detector_type            Atlas
_diffrn_measured_fraction_theta_full 0.961
_diffrn_measured_fraction_theta_max 0.921
_diffrn_measurement_details
;
List of Runs (angles in degrees, time in seconds):

  # Type    Start    End  Width  t~exp~   \w     \q     \k     \f   Frames
#--------------------------------------------------------------------------
  1  \w    -42.00 -13.00   1.00    1.00    --  -38.50 -57.00  90.00   29
  2  \w    -59.00 -17.00   1.00    1.00    --  -38.50 -65.00  56.67   42
  3  \w    -96.00 -62.00   1.00    1.00    --  -38.50 -65.00  56.67   34
  4  \w    -64.00 -20.00   1.00    1.00    --  -38.50  63.00 -90.00   44
  5  \w    -65.00  29.00   1.00    1.00    --  -38.50  65.00 -45.44   94
  6  \w     78.00 109.00   1.00    1.00    --   42.96  37.00 120.00   31
  7  \w    148.00 174.00   1.00    4.00    --  104.98  45.00  90.00   26
  8  \w     97.00 174.00   1.00    4.00    --  104.98  45.00 -90.00   77
  9  \w     84.00 126.00   1.00    4.00    --  104.98  45.00  90.00   42
 10  \w     73.00 100.00   1.00    4.00    --  104.98 -65.00  25.58   27
 11  \w     61.00  93.00   1.00    4.00    --  104.98 -65.00   5.56   32
 12  \w     56.00 119.00   1.00    4.00    --  104.98 -64.00 -44.72   63
 13  \w     50.00  96.00   1.00    4.00    --  104.98 -65.00-112.49   46
 14  \w     39.00 124.00   1.00    4.00    --  104.98 -30.00 -90.00   85
 15  \w     52.00 113.00   1.00    4.00    --  104.98 -65.00  81.10   61
 16  \w     52.00 112.00   1.00    4.00    --  104.98 -64.00 164.23   60
 17  \w     31.00 141.00   1.00    4.00    --  104.98 -15.00  90.00  110
 18  \w     31.00  66.00   1.00    1.00    --   42.96 -65.00 -25.82   35
 19  \w     17.00  53.00   1.00    1.00    --   42.96  63.00  48.85   36
 20  \w     22.00  87.00   1.00    1.00    --   42.96  65.00-175.43   65
;
_diffrn_measurement_device       'four-circle diffractometer'
_diffrn_measurement_device_type  'SuperNova, Dual, Cu at zero, Atlas'
_diffrn_measurement_method       '\w scans'
_diffrn_orient_matrix_type
'CrysAlisPro convention (1999,Acta A55,543-557)'
_diffrn_orient_matrix_UB_11      0.0884466000
_diffrn_orient_matrix_UB_12      0.1315749000
_diffrn_orient_matrix_UB_13      -0.1174983000
_diffrn_orient_matrix_UB_21      0.1720831000
_diffrn_orient_matrix_UB_22      -0.0251018000
_diffrn_orient_matrix_UB_23      0.0858641000
_diffrn_orient_matrix_UB_31      0.1375550000
_diffrn_orient_matrix_UB_32      -0.1151190000
_diffrn_orient_matrix_UB_33      -0.0542760000
_diffrn_radiation_monochromator  mirror
_diffrn_radiation_probe          x-ray
_diffrn_radiation_type           CuK\a
_diffrn_radiation_wavelength     1.54184
_diffrn_reflns_av_R_equivalents  0.0277
_diffrn_reflns_av_unetI/netI     0.0391
_diffrn_reflns_Laue_measured_fraction_full 0.961
_diffrn_reflns_Laue_measured_fraction_max 0.921
_diffrn_reflns_limit_h_max       7
_diffrn_reflns_limit_h_min       -8
_diffrn_reflns_limit_k_max       10
_diffrn_reflns_limit_k_min       -12
_diffrn_reflns_limit_l_max       12
_diffrn_reflns_limit_l_min       -13
_diffrn_reflns_number            4223
_diffrn_reflns_point_group_measured_fraction_full 0.961
_diffrn_reflns_point_group_measured_fraction_max 0.921
_diffrn_reflns_theta_full        67.684
_diffrn_reflns_theta_max         73.970
_diffrn_reflns_theta_min         4.458
_diffrn_source                   'micro-focus sealed X-ray tube'
_diffrn_source_type              'SuperNova (Cu) X-ray Source'
_exptl_absorpt_coefficient_mu    0.762
_exptl_absorpt_correction_T_max  1.000
_exptl_absorpt_correction_T_min  0.903
_exptl_absorpt_correction_type   gaussian
_exptl_absorpt_process_details
;
CrysAlisPro 1.171.38.46 (Rigaku Oxford Diffraction, 2015)
Numerical absorption correction based on gaussian integration over
            a multifaceted crystal model
Empirical absorption correction using spherical harmonics,
 implemented in SCALE3 ABSPACK scaling algorithm.
;
_exptl_crystal_colour            colourless
_exptl_crystal_colour_primary    colourless
_exptl_crystal_density_diffrn    1.342
_exptl_crystal_description       block
_exptl_crystal_F_000             276
_exptl_crystal_size_max          0.15
_exptl_crystal_size_mid          0.08
_exptl_crystal_size_min          0.06
_refine_diff_density_max         0.348
_refine_diff_density_min         -0.218
_refine_diff_density_rms         0.043
_refine_ls_extinction_method     none
_refine_ls_goodness_of_fit_ref   1.028
_refine_ls_hydrogen_treatment    constr
_refine_ls_matrix_type           full
_refine_ls_number_parameters     173
_refine_ls_number_reflns         2397
_refine_ls_number_restraints     0
_refine_ls_restrained_S_all      1.028
_refine_ls_R_factor_all          0.0450
_refine_ls_R_factor_gt           0.0379
_refine_ls_shift/su_max          0.000
_refine_ls_shift/su_mean         0.000
_refine_ls_structure_factor_coef Fsqd
_refine_ls_weighting_details
'w=1/[\s^2^(Fo^2^)+(0.0496P)^2^+0.1214P] where P=(Fo^2^+2Fc^2^)/3'
_refine_ls_weighting_scheme      calc
_refine_ls_wR_factor_gt          0.0941
_refine_ls_wR_factor_ref         0.0996
_reflns_Friedel_coverage         0.000
_reflns_number_gt                2070
_reflns_number_total             2397
_reflns_threshold_expression     'I > 2\s(I)'
_iucr_refine_instructions_details
;

    jml397_cu.res created by SHELXL-2014/7

TITL jml397_cu_a.res in P-1
REM Old TITL JML397_Cu in P-1
REM SHELXT solution in P-1
REM R1 0.125, Rweak 0.006, Alpha 0.043, Orientation as input
REM Formula found by SHELXT: C14 N O4
CELL 1.54184 6.748288 9.931384 11.096661 63.7636 79.1483 74.8004
ZERR 2 0.000526 0.000651 0.000824 0.0069 0.0064 0.0062
LATT 1
SFAC C H N O
UNIT 30 34 2 6
 
L.S. 10
PLAN  20
BOND $H
list 4
fmap 2
acta
REM <olex2.extras>
REM <HklSrc "%.\\JML397_Cu.hkl">
REM </olex2.extras>
 
WGHT    0.049600    0.121400
FVAR      14.35456
O1    4    0.405758    0.913194    0.365963    11.00000    0.02743    0.02233 =
         0.02361   -0.00260   -0.00941   -0.00104
N1    3    0.690787    0.135276    0.903614    11.00000    0.01665    0.01785 =
         0.02151   -0.00443   -0.00344   -0.00428
AFIX  43
H1    2    0.696966    0.040185    0.957254    11.00000   -1.20000
AFIX   0
C1    1    0.561700    0.816772    0.445245    11.00000    0.02342    0.02213 =
         0.01558   -0.00712   -0.00356   -0.00068
O2    4    0.486415    0.363305    0.769973    11.00000    0.01397    0.02032 =
         0.02192   -0.00316   -0.00425   -0.00459
C2    1    0.522615    0.672009    0.532350    11.00000    0.01847    0.02548 =
         0.01757   -0.00830   -0.00289   -0.00482
AFIX  43
H2    2    0.397484    0.647191    0.535603    11.00000   -1.20000
AFIX   0
O3    4    0.343507    0.167522    0.910249    11.00000    0.01627    0.02344 =
         0.03020   -0.00421   -0.00246   -0.00683
C3    1    0.673696    0.566619    0.613472    11.00000    0.01906    0.02155 =
         0.01523   -0.00750   -0.00016   -0.00531
C4    1    0.680231    0.401803    0.704661    11.00000    0.01468    0.02249 =
         0.01728   -0.00782   -0.00122   -0.00479
AFIX  13
H4    2    0.736709    0.342111    0.650945    11.00000   -1.20000
AFIX   0
C5    1    0.836572    0.362624    0.804780    11.00000    0.01321    0.01863 =
         0.01687   -0.00690   -0.00261   -0.00275
C6    1    0.999370    0.455925    0.709689    11.00000    0.01624    0.02092 =
         0.01903   -0.00768   -0.00101   -0.00480
AFIX  23
H6A   2    1.076226    0.482359    0.758900    11.00000   -1.20000
H6B   2    1.094662    0.399992    0.662394    11.00000   -1.20000
AFIX   0
C7    1    0.864136    0.598491    0.612725    11.00000    0.01738    0.02307 =
         0.01685   -0.01054    0.00011   -0.00343
C8    1    0.899783    0.743396    0.527744    11.00000    0.01858    0.02463 =
         0.01895   -0.00994    0.00145   -0.00660
AFIX  43
H8    2    1.024202    0.768131    0.526253    11.00000   -1.20000
AFIX   0
C9    1    0.748604    0.853488    0.443572    11.00000    0.02521    0.01955 =
         0.01662   -0.00549    0.00103   -0.00572
AFIX  43
H9    2    0.773161    0.950804    0.386765    11.00000   -1.20000
AFIX   0
C10   1    0.442100    1.058909    0.266357    11.00000    0.03644    0.02147 =
         0.02011   -0.00284   -0.00660   -0.00205
AFIX 137
H10A  2    0.327830    1.110456    0.211490    11.00000   -1.50000
H10B  2    0.565803    1.044223    0.210669    11.00000   -1.50000
H10C  2    0.457060    1.119848    0.310058    11.00000   -1.50000
AFIX   0
C11   1    0.888115    0.188076    0.866467    11.00000    0.01437    0.01951 =
         0.02093   -0.00786   -0.00240   -0.00303
AFIX  23
H11A  2    0.973189    0.151443    0.801927    11.00000   -1.20000
H11B  2    0.962762    0.149367    0.945697    11.00000   -1.20000
AFIX   0
C12   1    0.503085    0.216504    0.864486    11.00000    0.01843    0.01989 =
         0.01879   -0.00637   -0.00299   -0.00471
C13   1    0.745674    0.421942    0.915374    11.00000    0.01878    0.02143 =
         0.01797   -0.00862   -0.00050   -0.00388
AFIX  23
H13A  2    0.724243    0.532925    0.875578    11.00000   -1.20000
H13B  2    0.612924    0.393776    0.952444    11.00000   -1.20000
AFIX   0
C14   1    0.886536    0.356496    1.027083    11.00000    0.02348    0.02664 =
         0.02299   -0.01158   -0.00349   -0.00673
AFIX  43
H14   2    1.027009    0.351911    1.002971    11.00000   -1.20000
AFIX   0
C15   1    0.824607    0.305246    1.156681    11.00000    0.03862    0.03224 =
         0.02238   -0.00978   -0.00545   -0.00955
AFIX  93
H15A  2    0.685227    0.308096    1.184400    11.00000   -1.20000
H15B  2    0.920325    0.266262    1.220334    11.00000   -1.20000
AFIX   0
HKLF 4
 
REM  jml397_cu_a.res in P-1
REM R1 =  0.0379 for    2070 Fo > 4sig(Fo)  and  0.0450 for all    2397 data
REM    173 parameters refined using      0 restraints
 
END  
     
WGHT      0.0495      0.1215 

REM Highest difference peak  0.348,  deepest hole -0.218,  1-sigma level  0.043
Q1    1   0.7547  0.3803  0.7579  11.00000  0.05    0.35
Q2    1   0.8703  0.2773  0.8325  11.00000  0.05    0.27
Q3    1   0.7941  0.3891  0.8634  11.00000  0.05    0.24
Q4    1   0.9267  0.4000  0.7561  11.00000  0.05    0.22
Q5    1   0.9434  0.5369  0.6466  11.00000  0.05    0.21
Q6    1   0.5220  0.7557  0.4972  11.00000  0.05    0.20
Q7    1   0.8039  0.8056  0.4986  11.00000  0.05    0.20
Q8    1   0.6476  0.8424  0.4637  11.00000  0.05    0.20
Q9    1   0.8101  0.3711  0.9718  11.00000  0.05    0.19
Q10   1   0.5929  0.6220  0.5925  11.00000  0.05    0.19
Q11   1   0.6751  0.5018  0.6483  11.00000  0.05    0.19
Q12   1   0.7410  0.5914  0.6334  11.00000  0.05    0.19
Q13   1   0.6730  0.8239  0.4234  11.00000  0.05    0.17
Q14   1   0.8881  0.6565  0.5658  11.00000  0.05    0.14
Q15   1   0.8504  0.2701  1.0918  11.00000  0.05    0.14
Q16   1   0.4976  0.8653  0.4236  11.00000  0.05    0.14
Q17   1   0.9730  0.1992  1.2227  11.00000  0.05    0.14
Q18   1   0.7881  0.1653  0.8754  11.00000  0.05    0.13
Q19   1   0.5863  0.3822  0.7463  11.00000  0.05    0.13
Q20   1   0.5952  0.1949  0.9174  11.00000  0.05    0.13

  REM The information below was added by Olex2.
  REM
  REM R1 = 0.0379 for 2070 Fo > 4sig(Fo) and 0.0450 for all 4223 data
  REM n/a parameters refined using n/a restraints
  REM Highest difference peak 0.35, deepest hole -0.22
  REM Mean Shift 0, Max Shift 0.000.

  REM +++ Tabular Listing of Refinement Information +++
  REM R1_all = 0.0450
  REM R1_gt = 0.0379
  REM wR_ref = 0.0996
  REM GOOF = 1.028
  REM Shift_max = 0.000
  REM Shift_mean = 0
  REM Reflections_all = 4223
  REM Reflections_gt = 2070
  REM Parameters = n/a
  REM Hole = -0.22
  REM Peak = 0.35
  REM Flack = n/a

  
;
_cod_data_source_file            c7cc06078e2.cif
_cod_data_source_block           jml397_cu
_cod_original_cell_volume        641.49(9)
_cod_database_code               7120848
_shelx_shelxl_version_number     2014/7
_chemical_oxdiff_formula         'C30 H34 N2 O6'
_shelx_space_group_comment
;
The symmetry employed for this shelxl refinement is uniquely defined
by the following loop, which should always be used as a source of
symmetry information in preference to the above space-group names.
They are only intended as comments.
;
_reflns_odcompleteness_completeness 96.33
_reflns_odcompleteness_iscentric 1
_reflns_odcompleteness_theta     66.97
_olex2_refinement_description
;
1. Fixed Uiso
 At 1.2 times of:
  All C(H) groups, All C(H,H) groups, All N(H) groups
 At 1.5 times of:
  All C(H,H,H) groups
2.a Ternary CH refined with riding coordinates:
 C4(H4)
2.b Secondary CH2 refined with riding coordinates:
 C6(H6A,H6B), C11(H11A,H11B), C13(H13A,H13B)
2.c Aromatic/amide H refined with riding coordinates:
 N1(H1), C2(H2), C8(H8), C9(H9), C14(H14)
2.d X=CH2 refined with riding coordinates:
 C15(H15A,H15B)
2.e Idealised Me refined as rotating group:
 C10(H10A,H10B,H10C)
;
_olex2_date_sample_data_collection 2017-06-02
_olex2_submission_special_instructions 'No special instructions were received'
_oxdiff_exptl_absorpt_empirical_details
;
Empirical correction (ABSPACK) includes:
- Absorption correction using spherical harmonics
- Frame scaling
;
_oxdiff_exptl_absorpt_empirical_full_max 1.230
_oxdiff_exptl_absorpt_empirical_full_min 0.864
loop_
_space_group_symop_operation_xyz
'x, y, z'
'-x, -y, -z'
loop_
_atom_site_label
_atom_site_type_symbol
_atom_site_fract_x
_atom_site_fract_y
_atom_site_fract_z
_atom_site_U_iso_or_equiv
_atom_site_adp_type
_atom_site_occupancy
_atom_site_site_symmetry_order
_atom_site_calc_flag
_atom_site_refinement_flags_posn
O1 O 0.40576(17) 0.91319(12) 0.36596(11) 0.0268(3) Uani 1 1 d .
N1 N 0.69079(18) 0.13528(14) 0.90361(12) 0.0196(3) Uani 1 1 d .
H1 H 0.6970 0.0402 0.9573 0.024 Uiso 1 1 calc R
C1 C 0.5617(2) 0.81677(17) 0.44524(14) 0.0212(3) Uani 1 1 d .
O2 O 0.48642(14) 0.36331(11) 0.76997(10) 0.0202(2) Uani 1 1 d .
C2 C 0.5226(2) 0.67201(17) 0.53235(14) 0.0205(3) Uani 1 1 d .
H2 H 0.3975 0.6472 0.5356 0.025 Uiso 1 1 calc R
O3 O 0.34351(15) 0.16752(12) 0.91025(11) 0.0252(3) Uani 1 1 d .
C3 C 0.6737(2) 0.56662(16) 0.61347(13) 0.0186(3) Uani 1 1 d .
C4 C 0.6802(2) 0.40180(16) 0.70466(13) 0.0181(3) Uani 1 1 d .
H4 H 0.7367 0.3421 0.6509 0.022 Uiso 1 1 calc R
C5 C 0.83657(19) 0.36262(15) 0.80478(13) 0.0163(3) Uani 1 1 d .
C6 C 0.9994(2) 0.45592(16) 0.70969(14) 0.0188(3) Uani 1 1 d .
H6A H 1.0762 0.4824 0.7589 0.023 Uiso 1 1 calc R
H6B H 1.0947 0.4000 0.6624 0.023 Uiso 1 1 calc R
C7 C 0.8641(2) 0.59849(17) 0.61273(13) 0.0186(3) Uani 1 1 d .
C8 C 0.8998(2) 0.74340(17) 0.52774(14) 0.0204(3) Uani 1 1 d .
H8 H 1.0242 0.7681 0.5263 0.024 Uiso 1 1 calc R
C9 C 0.7486(2) 0.85349(17) 0.44357(14) 0.0214(3) Uani 1 1 d .
H9 H 0.7732 0.9508 0.3868 0.026 Uiso 1 1 calc R
C10 C 0.4421(3) 1.05891(18) 0.26636(15) 0.0283(3) Uani 1 1 d .
H10A H 0.3278 1.1105 0.2115 0.043 Uiso 1 1 calc GR
H10B H 0.5658 1.0442 0.2107 0.043 Uiso 1 1 calc GR
H10C H 0.4571 1.1198 0.3101 0.043 Uiso 1 1 calc GR
C11 C 0.8881(2) 0.18808(16) 0.86647(14) 0.0184(3) Uani 1 1 d .
H11A H 0.9732 0.1514 0.8019 0.022 Uiso 1 1 calc R
H11B H 0.9628 0.1494 0.9457 0.022 Uiso 1 1 calc R
C12 C 0.5031(2) 0.21650(16) 0.86449(14) 0.0193(3) Uani 1 1 d .
C13 C 0.7457(2) 0.42194(16) 0.91537(13) 0.0194(3) Uani 1 1 d .
H13A H 0.7242 0.5329 0.8756 0.023 Uiso 1 1 calc R
H13B H 0.6129 0.3938 0.9524 0.023 Uiso 1 1 calc R
C14 C 0.8865(2) 0.35650(17) 1.02708(15) 0.0233(3) Uani 1 1 d .
H14 H 1.0270 0.3519 1.0030 0.028 Uiso 1 1 calc R
C15 C 0.8246(3) 0.30525(19) 1.15668(16) 0.0307(4) Uani 1 1 d .
H15A H 0.6852 0.3081 1.1844 0.037 Uiso 1 1 calc R
H15B H 0.9203 0.2663 1.2203 0.037 Uiso 1 1 calc R
loop_
_atom_site_aniso_label
_atom_site_aniso_U_11
_atom_site_aniso_U_22
_atom_site_aniso_U_33
_atom_site_aniso_U_23
_atom_site_aniso_U_13
_atom_site_aniso_U_12
O1 0.0274(5) 0.0223(5) 0.0236(5) -0.0026(4) -0.0094(4) -0.0010(4)
N1 0.0167(5) 0.0179(6) 0.0215(6) -0.0044(5) -0.0034(4) -0.0043(5)
C1 0.0234(7) 0.0221(7) 0.0156(6) -0.0071(6) -0.0036(5) -0.0007(6)
O2 0.0140(4) 0.0203(5) 0.0219(5) -0.0032(4) -0.0042(4) -0.0046(4)
C2 0.0185(6) 0.0255(7) 0.0176(6) -0.0083(6) -0.0029(5) -0.0048(6)
O3 0.0163(5) 0.0234(5) 0.0302(6) -0.0042(4) -0.0025(4) -0.0068(4)
C3 0.0191(6) 0.0216(7) 0.0152(6) -0.0075(6) -0.0002(5) -0.0053(6)
C4 0.0147(6) 0.0225(7) 0.0173(6) -0.0078(6) -0.0012(5) -0.0048(5)
C5 0.0132(6) 0.0186(7) 0.0169(6) -0.0069(5) -0.0026(5) -0.0027(5)
C6 0.0162(6) 0.0209(7) 0.0190(6) -0.0077(6) -0.0010(5) -0.0048(5)
C7 0.0174(6) 0.0231(7) 0.0168(6) -0.0105(6) 0.0001(5) -0.0034(5)
C8 0.0186(6) 0.0246(7) 0.0189(6) -0.0099(6) 0.0015(5) -0.0066(6)
C9 0.0252(7) 0.0195(7) 0.0166(6) -0.0055(6) 0.0010(5) -0.0057(6)
C10 0.0364(8) 0.0215(7) 0.0201(7) -0.0028(6) -0.0066(6) -0.0020(6)
C11 0.0144(6) 0.0195(7) 0.0209(6) -0.0079(6) -0.0024(5) -0.0030(5)
C12 0.0184(6) 0.0199(7) 0.0188(6) -0.0064(6) -0.0030(5) -0.0047(5)
C13 0.0188(6) 0.0214(7) 0.0180(6) -0.0086(6) -0.0005(5) -0.0039(5)
C14 0.0235(7) 0.0266(7) 0.0230(7) -0.0116(6) -0.0035(6) -0.0067(6)
C15 0.0386(9) 0.0322(8) 0.0224(7) -0.0098(7) -0.0054(6) -0.0095(7)
loop_
_atom_type_symbol
_atom_type_description
_atom_type_scat_dispersion_real
_atom_type_scat_dispersion_imag
_atom_type_scat_source
C C 0.0181 0.0091 'International Tables Vol C Tables 4.2.6.8 and 6.1.1.4'
H H 0.0000 0.0000 'International Tables Vol C Tables 4.2.6.8 and 6.1.1.4'
N N 0.0311 0.0180 'International Tables Vol C Tables 4.2.6.8 and 6.1.1.4'
O O 0.0492 0.0322 'International Tables Vol C Tables 4.2.6.8 and 6.1.1.4'
loop_
_exptl_crystal_face_index_h
_exptl_crystal_face_index_k
_exptl_crystal_face_index_l
_exptl_crystal_face_perp_dist
-1 3 6 0.0549
-4 1 0 0.0568
4 0 1 0.0559
1 -3 -6 0.0171
1 6 3 0.0515
-1 2 7 0.0456
-1 -6 -3 0.0141
-3 3 -2 0.0672
-1 6 2 0.0617
3 4 6 0.0711
3 2 -3 0.0213
-3 -2 3 0.0374
0 6 0 0.0487
0 -5 1 0.0259
loop_
_geom_angle_atom_site_label_1
_geom_angle_atom_site_label_2
_geom_angle_atom_site_label_3
_geom_angle
C1 O1 C10 117.70(12)
C11 N1 H1 115.8
C12 N1 H1 115.8
C12 N1 C11 128.45(12)
O1 C1 C2 114.73(12)
O1 C1 C9 125.15(13)
C2 C1 C9 120.12(13)
C12 O2 C4 113.43(10)
C1 C2 H2 120.8
C3 C2 C1 118.45(13)
C3 C2 H2 120.8
C2 C3 C4 129.35(12)
C2 C3 C7 122.97(13)
C7 C3 C4 107.45(12)
O2 C4 C3 115.59(11)
O2 C4 H4 107.8
O2 C4 C5 112.59(10)
C3 C4 H4 107.8
C3 C4 C5 104.80(11)
C5 C4 H4 107.8
C4 C5 C6 100.36(10)
C4 C5 C13 112.49(11)
C11 C5 C4 103.06(11)
C11 C5 C6 120.48(11)
C11 C5 C13 110.43(11)
C13 C5 C6 109.41(11)
C5 C6 H6A 111.4
C5 C6 H6B 111.4
H6A C6 H6B 109.3
C7 C6 C5 101.86(10)
C7 C6 H6A 111.4
C7 C6 H6B 111.4
C3 C7 C6 109.91(12)
C8 C7 C3 118.08(13)
C8 C7 C6 131.99(12)
C7 C8 H8 119.9
C7 C8 C9 120.28(13)
C9 C8 H8 119.9
C1 C9 C8 120.07(13)
C1 C9 H9 120.0
C8 C9 H9 120.0
O1 C10 H10A 109.5
O1 C10 H10B 109.5
O1 C10 H10C 109.5
H10A C10 H10B 109.5
H10A C10 H10C 109.5
H10B C10 H10C 109.5
N1 C11 C5 107.21(11)
N1 C11 H11A 110.3
N1 C11 H11B 110.3
C5 C11 H11A 110.3
C5 C11 H11B 110.3
H11A C11 H11B 108.5
N1 C12 O2 118.52(12)
O3 C12 N1 124.20(13)
O3 C12 O2 117.27(12)
C5 C13 H13A 109.3
C5 C13 H13B 109.3
H13A C13 H13B 108.0
C14 C13 C5 111.46(12)
C14 C13 H13A 109.3
C14 C13 H13B 109.3
C13 C14 H14 117.7
C15 C14 C13 124.59(14)
C15 C14 H14 117.7
C14 C15 H15A 120.0
C14 C15 H15B 120.0
H15A C15 H15B 120.0
loop_
_geom_bond_atom_site_label_1
_geom_bond_atom_site_label_2
_geom_bond_distance
O1 C1 1.3688(17)
O1 C10 1.4303(18)
N1 H1 0.8600
N1 C11 1.4787(16)
N1 C12 1.3436(18)
C1 C2 1.395(2)
C1 C9 1.397(2)
O2 C4 1.4291(16)
O2 C12 1.3582(17)
C2 H2 0.9300
C2 C3 1.378(2)
O3 C12 1.2266(18)
C3 C4 1.4899(19)
C3 C7 1.3996(19)
C4 H4 0.9800
C4 C5 1.5306(18)
C5 C6 1.5530(18)
C5 C11 1.5228(19)
C5 C13 1.5478(19)
C6 H6A 0.9700
C6 H6B 0.9700
C6 C7 1.5299(19)
C7 C8 1.384(2)
C8 H8 0.9300
C8 C9 1.407(2)
C9 H9 0.9300
C10 H10A 0.9600
C10 H10B 0.9600
C10 H10C 0.9600
C11 H11A 0.9700
C11 H11B 0.9700
C13 H13A 0.9700
C13 H13B 0.9700
C13 C14 1.5067(19)
C14 H14 0.9300
C14 C15 1.319(2)
C15 H15A 0.9300
C15 H15B 0.9300
loop_
_refln_index_h
_refln_index_k
_refln_index_l
_refln_F_squared_meas
_refln_F_squared_sigma
_refln_scale_group_code
0 0 -1 1937.25 173.717 1
0 0 -2 2942.78 292.756 1
0 0 -2 3033.68 323.155 20
0 0 -3 75921.9 1817.66 20
0 0 -4 36997 1457.87 20
0 0 -4 40321.7 2136.41 5
0 0 -5 18980.3 1727.75 5
0 0 -6 40587.3 2831.49 5
0 0 -7 -56.0189 110.391 13
0 0 -7 44.6837 172.536 7
0 0 -8 6342.99 1417.76 5
0 0 -8 7268.62 767.509 7
0 0 -8 7495.07 678.24 13
0 0 -9 224.091 195.625 13
0 0 -9 340.718 299.303 7
0 0 -10 212.087 316.991 7
0 0 -11 20472.5 1095.49 14
0 0 -12 20120.4 847.671 14
0 1 -11 14598 828.083 14
0 1 -10 54921.4 1898.02 14
0 1 -9 55496.8 2110.01 7
0 1 -8 27904.6 1498.29 7
0 1 -7 28550.8 1402.75 7
0 1 -7 30204.1 2925.5 5
0 1 -6 1188.13 565.431 5
0 1 -5 11158 1447.17 5
0 1 -5 9942.03 1081.04 20
0 1 -4 116606 3242.93 1
0 1 -4 117795 3390.17 20
0 1 -3 101776 2738.93 1
0 1 -3 100312 2844.36 20
0 1 -2 55859.4 1876.08 20
0 1 -1 332746 3922.07 6
0 -1 0 121726 1902.33 4
0 1 0 120815 1506.07 6
0 -1 -1 434583 3468.52 5
0 -1 -2 482652 4651.15 5
0 -1 -3 12192.3 954.119 5
0 -1 -4 1875.77 519.27 5
0 -1 -5 22097.1 1773.86 5
0 -1 -6 27877 2239.33 5
0 -1 -7 38452.4 2999.99 5
0 -1 -8 16538 2171.06 5
0 -1 -8 14939.9 1042.99 7
0 -1 -8 15744.3 987.232 13
0 -1 -9 1975.22 469.486 7
0 -1 -9 1678.54 364.981 13
0 -1 -10 469.46 303.137 7
0 -1 -10 723.231 269.465 13
0 -1 -11 319.366 217.166 13
0 -1 -11 149.04 224.73 14
0 -1 -12 22180.9 1000.18 14
0 2 -11 286.468 119.03 14
0 -2 10 15894.1 817.165 17
0 2 -10 16651 935.154 14
0 -2 9 82316.2 2258 17
0 2 -9 76486.9 2318.45 7
0 2 -9 80052.4 2328.99 14
0 2 -8 2287.88 467.014 7
0 2 -7 978.929 355.088 7
0 -2 7 1089.02 267.634 8
0 2 -6 2231.44 894.571 5
0 -2 6 3084.99 434.685 8
0 2 -6 3738.64 502.199 7
0 2 -5 37279.6 2465.54 20
0 2 -4 15718.9 1521.63 20
0 2 -4 14341.6 1405.66 1
0 2 -3 187667 4785.91 20
0 2 -3 176297 4500.1 1
0 2 -2 98908.9 3157.04 20
0 2 -1 40395.1 1676.72 6
0 -2 1 43639 952.819 19
0 2 0 78894.5 1736.6 6
0 -2 0 82338.9 2236.71 4
0 -2 -1 2250 389.418 4
0 -2 -1 1908.56 358.474 5
0 -2 -2 305108 4179.23 5
0 -2 -4 40289.7 2006.01 5
0 -2 -5 2872.42 687.629 5
0 -2 -6 48667.6 2861.64 5
0 -2 -7 10415.5 1506.01 5
0 -2 -8 420.858 245.988 13
0 -2 -8 580.613 272.636 7
0 -2 -8 -56.2271 362.452 5
0 -2 -9 925.976 321.698 13
0 -2 -9 610.106 313.566 7
0 -2 -9 923.519 659.674 5
0 -2 -10 7702.45 819.417 7
0 -2 -10 9706.7 853.381 13
0 -2 -11 6303.01 639.196 13
0 -2 -12 885.437 274.803 14
0 -2 -12 1033.95 258.077 13
0 -3 10 3778.62 358.789 17
0 3 -10 3669.56 352.022 14
0 -3 9 33.9472 223.634 17
0 3 -9 -185.904 183.954 14
0 3 -8 36102.8 1551.92 7
0 -3 8 37313.8 1637.83 17
0 3 -8 35998.1 1540.61 14
0 3 -7 35218.3 1561.65 7
0 -3 7 35420.7 1484.43 8
0 -3 6 39370.3 1567.68 8
0 3 -6 44521.1 3662.41 5
0 3 -6 41787.2 1646.51 7
0 3 -5 34996.8 1400.92 7
0 -3 5 34322.2 1392.54 8
0 3 -5 32909 2681.93 20
0 3 -4 58719.2 3311.73 1
0 3 -4 55679.6 3306.61 20
0 3 -3 4431.17 931.33 1
0 3 -3 3905.21 827.792 20
0 3 -2 60247.3 2971.61 20
0 3 -1 133545 4028.05 20
0 -3 0 13016 1146.28 4
0 3 0 12179.2 1143.64 20
0 3 1 47325.2 2060.16 20
0 -3 -1 48585.4 2053.97 4
0 -3 -2 52654 1451.01 18
0 -3 -2 49861.4 2027.48 5
0 3 2 50847.7 1930.69 20
0 -3 -2 50525.8 2031.15 4
0 3 3 476.65 203.029 20
0 -3 -3 351.328 344.005 5
0 -3 -4 421069 6767.64 5
0 3 4 403170 3829.44 20
0 -3 -5 330081 6659.57 5
0 -3 -6 51579.2 2967.18 5
0 -3 -7 2212.61 722.871 5
0 -3 -8 35281.7 1492.24 13
0 -3 -8 33865.4 1386.53 16
0 -3 -8 35534.9 1479.65 7
0 -3 -8 39475.5 3196.49 5
0 -3 -9 42758.3 3631.33 5
0 -3 -9 42820.4 1759.78 7
0 -3 -9 42947.6 1754.99 13
0 -3 -10 13287.5 1013.25 7
0 -3 -10 13169.3 1016.94 13
0 -3 -11 3175.23 518.885 13
0 -3 -12 1043.35 254.009 13
0 -3 -12 1331.54 290.64 14
0 -3 -13 -135.683 124.691 14
0 -4 9 4186.36 432.052 17
0 -4 8 941.122 303.118 17
0 4 -8 1296.53 290.16 14
0 4 -7 39776.3 1534.27 14
0 -4 7 35045.3 1639.83 17
0 4 -6 58431.8 1906.97 14
0 -4 6 59903.8 2025.11 8
0 -4 5 8809.04 774.248 8
0 4 -5 7908.34 1469.64 20
0 -4 4 6902.34 653.119 8
0 4 -4 8196.43 1418.64 1
0 4 -4 8352.5 1504.59 20
0 4 -3 638.453 514.293 20
0 4 -3 -184.714 299.745 1
0 4 -2 169609 5784.18 20
0 4 -1 49202.4 2912.16 20
0 4 0 477894 8430.7 20
0 4 1 266063 5880.12 20
0 -4 -1 264591 5776.45 4
0 4 2 264742 5499.23 20
0 -4 -2 271914 5698.02 4
0 -4 -3 109795 3586.08 5
0 -4 -3 101347 3421.5 4
0 4 3 103275 3178.03 20
0 4 4 644.338 252.92 20
0 -4 -4 845.173 416.396 5
0 -4 -4 412.553 246.561 18
0 -4 -4 776.352 364.754 4
0 -4 -5 219964 5792.7 5
0 -4 -5 217271 5413.82 4
0 -4 -6 648844 10772.5 5
0 -4 -7 1045.85 634.162 5
0 -4 -8 2915.51 462.406 13
0 -4 -8 2102.66 790.379 5
0 -4 -8 2529.37 392.796 16
0 -4 -9 5731.01 665.907 13
0 -4 -9 5365.5 1262.31 5
0 -4 -9 5867.35 621.859 16
0 -4 -9 5574.25 615.109 7
0 -4 -10 6819.51 710.05 7
0 -4 -10 7656.78 793.715 13
0 -4 -11 896.214 320.735 13
0 -4 -12 563.459 272.854 13
0 -4 -12 396.015 166.891 14
0 -4 -13 -21.9765 132.662 13
0 -5 8 14597.3 830.849 17
0 -5 7 1910.95 420.09 17
0 -5 6 10121.1 903.192 17
0 -5 5 9443.09 866.772 8
0 -5 4 36041.1 1602.4 8
0 5 -4 35861.8 3256.44 1
0 5 -4 43428.2 3688.07 20
0 5 -3 669.266 467.771 20
0 -5 3 558.19 221.04 8
0 -5 3 -33.4595 183.449 15
0 5 -2 10593.7 1667.88 20
0 -5 2 11624.1 827.778 8
0 5 -2 10694.1 1734.39 1
0 5 -1 124471 5344.53 20
0 5 0 58992.5 3480.02 20
0 -5 -1 29813.7 2300.5 4
0 5 1 28067.9 2270.24 20
0 -5 -2 7619.38 1163.52 4
0 5 2 7364.2 1132.63 20
0 -5 -3 6240.93 1000.2 4
0 5 3 7667.11 1076.76 20
0 5 4 24908.4 1755.37 20
0 -5 -4 22259.2 1887.04 4
0 -5 -4 25719.6 2043.32 5
0 -5 -5 42708.6 2633.59 4
0 -5 -5 46088.5 2873.67 5
0 -5 -6 24819.7 2270.14 5
0 -5 -6 25876.1 2112.96 4
0 -5 -7 49324.4 3009.62 4
0 -5 -7 50431.5 1609.71 16
0 -5 -7 46951.7 3324.33 5
0 -5 -8 44252.9 1584.58 16
0 -5 -8 43558.7 3463.52 5
0 -5 -9 9806.22 978.704 16
0 -5 -9 8379.44 807.832 13
0 -5 -9 8664.62 1662.1 5
0 -5 -10 12262.6 986.894 13
0 -5 -11 2961.44 490.177 13
0 -5 -12 8723.62 734.231 13
0 -5 -13 919.603 227.792 13
0 -6 7 162.966 165.644 17
0 -6 6 719.302 298.042 17
0 -6 5 6525.64 724.588 17
0 -6 4 52167.3 2045.18 17
0 -6 3 25034.5 1338.79 15
0 -6 3 24712.6 1379.35 17
0 6 -3 25394.3 2995.36 20
0 -6 2 46.3477 235.757 15
0 6 -2 284.847 349.686 20
0 -6 2 486.167 253.679 17
0 -6 1 3327.89 556.515 15
0 -6 1 3062.62 460.635 17
0 6 0 1330.69 808.107 20
0 -6 0 1314.67 361.542 15
0 6 1 117485 5314.68 20
0 -6 -2 64589.8 3736.11 4
0 6 2 72828.3 3972.78 20
0 -6 -3 116202 4870.44 4
0 6 3 115240 4753.95 20
0 -6 -4 18111.1 1942.53 4
0 6 4 18751.2 1808.05 20
0 -6 -5 32960.5 2612.91 4
0 -6 -5 33040.1 2644.88 5
0 -6 -6 438.987 204.799 16
0 -6 -6 821.591 515.397 5
0 -6 -6 -318.878 524.952 4
0 -6 -7 19199.6 1040.37 16
0 -6 -7 17023.9 1935.44 4
0 -6 -7 14629.3 1975.77 5
0 -6 -8 27939.5 1288.31 16
0 -6 -8 26298.1 2786.04 5
0 -6 -9 89849.6 2550.11 13
0 -6 -9 90798.8 2337.1 16
0 -6 -10 408.115 174.522 16
0 -6 -10 175.115 219.28 13
0 -6 -11 269.55 254.398 13
0 -6 -12 10397.7 778.499 13
0 -6 -13 12555.1 692.937 13
0 -7 6 908.485 242.039 17
0 -7 5 16417.9 986.367 17
0 -7 4 10389.7 868.638 17
0 -7 3 7128.12 748.667 17
0 -7 3 6193.89 685.606 15
0 -7 2 16903.4 1168.64 15
0 -7 2 14848.4 1063.2 17
0 -7 1 -15.7451 274.72 15
0 7 -1 -1322.8 770.006 1
0 -7 1 47.1456 197.869 17
0 7 -1 -1777.3 944.799 20
0 7 0 849.641 793.206 20
0 -7 0 1034.23 324.847 15
0 -7 0 1248.52 310.045 17
0 -7 -1 2459.37 479.014 15
0 7 1 1364.75 695.889 20
0 -7 -2 22064.6 1266.04 15
0 7 2 25912.8 2708.62 20
0 7 3 26331.2 2620.03 20
0 -7 -3 26338.4 1355.05 15
0 -7 -4 43640.8 1686.89 15
0 -7 -4 43912.5 3345.3 4
0 7 4 42681.6 3140.2 20
0 -7 -5 12602.3 878.658 16
0 -7 -5 10452.1 1638.94 4
0 -7 -5 10326.8 806.684 15
0 -7 -6 52836.1 3671.32 4
0 -7 -6 49916.4 1723.32 16
0 -7 -7 -1220.77 631.168 5
0 -7 -7 2305.61 412.812 16
0 -7 -8 20958.2 1136.08 16
0 -7 -8 19758.2 1145.48 13
0 -7 -9 5090.47 611.085 13
0 -7 -9 4765.74 555.44 16
0 -7 -10 20112.4 1059.57 16
0 -7 -10 19900 1171.55 13
0 -7 -11 16959.9 1030.5 13
0 -7 -12 4361.26 485.266 13
0 -7 -13 6984.94 479.153 13
0 -8 5 5143.71 416.95 17
0 -8 4 1326.44 298.362 17
0 -8 3 9796.68 747.82 15
0 -8 3 8836.49 726.306 17
0 -8 2 6065.09 701.042 15
0 -8 2 4014.55 538.281 17
0 -8 1 9893.05 805.311 17
0 -8 1 8302.4 854.994 15
0 -8 0 6975.59 809.957 15
0 8 1 1476.8 758.757 20
0 -8 -1 2895.61 573.616 15
0 8 2 8144.04 1638.59 20
0 -8 -2 8305.81 863.514 15
0 8 3 12174.8 1942.41 20
0 -8 -3 13754.6 1069.97 15
0 -8 -4 71278.5 2332.23 15
0 -8 -5 66255.5 4465.68 4
0 -8 -5 71699.6 2255.3 15
0 -8 -5 69986.1 2147.63 16
0 -8 -6 10763.9 844.573 16
0 -8 -7 359.765 200.443 16
0 -8 -8 14971.3 961.945 16
0 -8 -9 217.661 228.485 16
0 -8 -9 176.153 180.702 13
0 -8 -10 6821.4 632.354 13
0 -8 -10 6800.68 577.431 16
0 -8 -11 5517.23 530.986 13
0 -8 -12 6637.46 501.501 13
0 -9 3 4351.93 374.249 17
0 -9 2 67.8673 122.745 17
0 -9 2 157.445 179.704 15
0 -9 1 4038.92 564.542 15
0 -9 0 1912.39 442.736 15
0 -9 -1 4898.42 665.629 15
0 -9 -2 4859.23 719.704 15
0 -9 -3 9653.85 915.498 15
0 -9 -4 18169.2 1210.91 15
0 -9 -5 1020.54 299.834 16
0 -9 -5 1339.97 381.108 15
0 -9 -6 25190.2 1269.1 16
0 -9 -7 4846.9 557.805 16
0 -9 -8 968.686 245.424 16
0 -9 -9 12924 780.834 16
0 -10 1 5122.95 469.839 15
0 -10 0 4689.8 524.507 15
0 -10 -1 7124.15 697.869 15
0 -10 -2 2070.27 462.256 15
0 -10 -3 236.552 282.304 15
0 -10 -4 4073.03 558.135 15
0 -10 -4 4040.09 507.657 16
0 -10 -5 384.37 249.802 15
0 -10 -5 347.418 216.395 16
0 -10 -6 143.768 174.113 16
0 -10 -7 646.353 220.991 16
0 -10 -8 4854.27 453.514 16
0 -11 -1 982.063 227.928 15
0 -11 -2 6118.06 443.3 16
0 -11 -2 6333.41 544.789 15
0 -11 -3 1086.95 232.607 16
0 -11 -3 1040.24 257.216 15
0 -11 -4 1032.33 216.336 16
0 -11 -4 1158.01 281.262 15
0 -11 -5 10239.6 611.52 16
0 -11 -5 9349.09 644.571 15
0 -11 -6 9.25924 125.344 16
1 -11 -4 2199.3 283.792 15
1 -11 -3 260.629 160.649 15
1 -11 -2 167.163 143.354 15
1 -10 -5 61248.9 1754.34 15
1 -10 -4 529.826 234.735 15
1 -10 -3 5032.07 566.332 15
1 -10 -2 41232.3 1556.94 15
1 -10 -2 36787.2 1163.76 16
1 -10 -1 711.464 263.87 15
1 -10 0 1215.63 286.287 15
1 -10 1 3118.08 330.386 15
1 -9 -5 36490.7 1531.22 15
1 -9 -4 6505.55 714.524 15
1 -9 -4 5466.2 556.923 16
1 -9 -3 22311.7 1317.33 15
1 -9 -2 14184.8 1071.75 15
1 -9 -1 143.026 302.887 15
1 -9 0 1084.41 360.23 15
1 -9 1 391.66 246.263 15
1 -9 2 -86.4969 185.331 15
1 -8 -5 5519.35 629.537 15
1 -8 -4 1601.76 432.368 15
1 -8 -4 1617.97 344.122 16
-1 8 3 186.797 468.517 20
1 -8 -3 385.969 327.094 15
1 -8 -2 82892.5 2644.04 15
1 -8 -1 23560 1442.66 15
1 -8 0 22880.9 1401.55 15
1 -8 1 32878.4 1623.97 15
1 -8 2 4090.11 567.393 15
1 -8 3 1375.22 319.353 15
1 -8 3 481.699 207.041 17
1 -8 4 468.937 163.969 17
1 -7 -12 15781.2 754.406 13
1 -7 -11 63539.9 1760.35 13
1 -7 -10 22987.3 1158.12 13
1 -7 -9 9235.44 755.476 13
1 -7 -8 1376.5 324.299 13
-1 7 4 37242.7 3103.9 20
1 -7 -4 36785.5 1581.47 15
-1 7 4 37603.9 3159.32 1
-1 7 3 3710.04 1062.01 20
1 -7 -3 5123.66 628.343 15
-1 7 3 4393.14 1063.92 1
1 -7 -2 40472.7 1779.32 15
-1 7 2 42525.7 3605.96 20
-1 7 2 37344.9 3483.96 1
1 -7 -2 37781.8 1583.19 10
-1 7 1 4871.84 1296.53 20
1 -7 -1 3750.99 586.254 15
-1 7 1 3940.48 1207.58 1
-1 7 0 37168.5 3710.97 1
1 -7 0 39690.8 1817.43 15
-1 7 0 41393.4 3811.84 20
1 -7 1 26731.1 1504.26 15
1 -7 2 1449.23 368.357 17
1 -7 2 2237.76 509.459 15
1 -7 3 575.557 268.984 15
1 -7 3 563.978 273.509 17
1 -7 4 6890.21 673.641 17
1 -7 4 5243.15 548.248 15
1 -7 5 7809.96 640.048 17
1 -7 6 3267 350.05 17
1 -6 -12 17805.2 906.416 13
1 -6 -11 7742.74 690.966 13
1 -6 -10 1667.16 381.645 13
1 -6 -9 14751.8 1020.4 13
1 -6 -8 6826.16 703.788 13
1 -6 -7 2527.27 411.441 13
1 -6 -6 -1540.53 627.656 5
1 -6 -5 29670.8 2411.76 4
-1 6 4 69700.9 3781.73 20
-1 6 4 68439.1 3741.34 1
-1 6 3 1631.71 643.888 20
-1 6 3 1741.79 692.858 1
-1 6 2 84.3275 412.484 20
1 -6 -2 217.804 247.318 15
1 -6 -1 14143.1 935.373 10
-1 6 1 15779.7 2075.98 20
1 -6 -1 15585.1 1041.28 15
-1 6 1 16230.5 2165.25 1
1 -6 0 2684.73 479.295 10
-1 6 0 4083.12 1147.45 20
-1 6 0 3084.25 1067.78 1
1 -6 0 2906.19 484.538 15
-1 6 -1 147477 6850.18 20
1 -6 1 145548 3309.2 15
1 -6 1 142100 3068.85 8
-1 6 -1 144994 6935.25 1
-1 6 -2 59010.7 4614.48 1
1 -6 2 58600.8 2065.29 8
1 -6 2 60400 2174.08 15
-1 6 -2 64021 4670.17 20
1 -6 3 57844.4 2121.05 8
1 -6 3 59437.6 2133.42 15
1 -6 4 8190.14 819.863 8
1 -6 4 9353.64 816.126 15
1 -6 5 10973.5 880.349 17
1 -6 6 326.147 241.022 17
1 -6 7 328.433 174.754 17
1 -5 -12 7413.18 636.447 13
1 -5 -11 59.3558 231.041 13
1 -5 -10 9297.92 858.153 13
1 -5 -9 46716.7 1867.45 13
1 -5 -8 161611 6489.1 5
1 -5 -8 157847 3293.52 13
1 -5 -7 62680.2 3800.41 5
1 -5 -7 64728.2 1977.09 13
1 -5 -6 33167 2588.87 5
1 -5 -5 56473.1 2965.49 4
1 -5 -5 55358.4 3108.29 5
1 -5 -4 1318.6 529.204 5
1 -5 -4 1037.63 437.667 4
-1 5 4 1148.29 441.13 1
-1 5 4 1256.98 477.718 20
-1 5 3 4729.56 974.939 20
1 -5 -3 4242.03 909.589 4
-1 5 2 1335.29 642.186 20
-1 5 1 58070.3 3494.7 20
-1 5 0 4043.17 1009.66 1
-1 5 0 6918.21 1291.45 20
-1 5 -1 87009.5 4791.46 1
-1 5 -1 84984.1 4638.11 20
-1 5 -2 6589.69 1410.05 1
-1 5 -2 4936.68 1180.05 20
1 -5 2 6083.62 654.201 15
1 -5 2 5766.41 615.915 8
-1 5 -3 33780.9 3291.4 1
1 -5 3 34951.7 1566.17 15
-1 5 -3 35376.3 3310.3 20
1 -5 3 32355.6 1502.06 8
-1 5 -4 15258.3 2216.72 20
-1 5 -4 15652.5 2319.94 1
1 -5 4 14900.7 1077.68 8
1 -5 4 15052.8 1018.26 15
1 -5 5 276.859 283.378 8
1 -5 6 5260.52 651 8
1 -5 7 262.013 255.82 17
1 -5 8 549.177 213.143 17
1 -4 -12 2775.39 414.701 13
1 -4 -11 6253.56 697.155 13
1 -4 -10 3333.22 546.386 13
1 -4 -9 26964.8 1426.88 13
1 -4 -8 7324.92 1389.64 5
1 -4 -8 7042.2 706.281 13
1 -4 -7 6399.2 641.544 13
1 -4 -7 5292.78 1133.67 5
1 -4 -6 163262 5480.29 5
1 -4 -6 168362 5686.89 18
1 -4 -5 2117.81 660.167 18
1 -4 -5 1148.11 370.78 4
1 -4 -5 1257.02 431.863 5
1 -4 -4 14243.2 1401.38 18
-1 4 4 16134.2 1299.77 1
1 -4 -4 12897.9 1242.24 4
1 -4 -4 13746.8 1358.79 5
1 -4 -3 2856.87 622.205 5
1 -4 -3 2624.27 581.472 4
1 -4 -3 3500.67 676.087 18
-1 4 2 26228 1225.77 19
1 -4 -2 21677 1687.66 4
-1 4 1 85139.9 2412.28 6
-1 4 0 1379.86 438.031 6
-1 4 -1 28611.3 2375.55 20
-1 4 -1 26045.2 1856.36 6
-1 4 -1 27262.2 2347.79 1
-1 4 -2 23571.2 2282.38 20
-1 4 -2 23611.4 2354.8 1
1 -4 3 17779.4 1001.68 8
-1 4 -3 16393.5 1999.14 20
-1 4 -3 17617.7 2152.17 1
-1 4 -4 91123.6 4947.03 20
1 -4 4 93769.6 2457.65 8
1 -4 4 93500.9 2383.14 15
-1 4 -4 90972.4 5108.45 1
1 -4 5 221172 3954.11 8
-1 4 -5 196866 7460.75 20
1 -4 6 8964.07 824.572 8
1 -4 7 16205.6 1056.3 8
1 -4 8 3070.17 479.433 17
1 -4 9 100.786 183.878 17
1 -3 -12 4649.48 428.362 14
1 -3 -12 5097.76 521.164 13
1 -3 -11 1430.79 313.915 14
1 -3 -11 843.444 321.713 13
1 -3 -10 13828.8 1050.01 13
1 -3 -10 12834.8 921.511 14
1 -3 -9 19320.9 1223.35 13
1 -3 -8 77.3404 217.795 13
1 -3 -8 1022.32 550.235 5
1 -3 -7 79245.6 4087.08 5
1 -3 -7 75143.3 2093.85 13
1 -3 -6 68572 3435.46 5
1 -3 -5 334821 6733.49 5
1 -3 -5 335143 5356.44 4
1 -3 -4 307094 5784.58 5
1 -3 -4 303777 4958.63 4
-1 3 4 303862 5282.21 2
-1 3 4 307961 4020.58 1
1 -3 -3 9654.36 948.504 5
1 -3 -3 9537.14 896.813 4
1 -3 -3 10842.5 1104.25 18
1 -3 -2 7443.98 822.777 4
1 -3 -2 7153.57 770.207 5
1 -3 -2 7831.93 898.5 18
-1 3 1 5173.64 455.606 19
-1 3 0 15312.1 1106.98 6
-1 3 -1 2802.38 589.501 6
-1 3 -1 2908.92 822.987 1
-1 3 -2 65867.2 3282.91 20
-1 3 -2 56391.2 2791.84 6
-1 3 -2 58999.2 3199.35 1
-1 3 -3 5260.56 992.679 6
-1 3 -3 4951.75 1019.92 20
-1 3 -3 3875.56 927.549 1
-1 3 -4 17244 1934.57 20
-1 3 -4 17553.1 1969.01 1
-1 3 -5 401.985 386.579 20
1 -3 5 180.037 197.851 8
-1 3 -6 41727.1 3524.48 5
1 -3 6 42769.3 1712.11 8
-1 3 -6 41793.9 1639.36 7
1 -3 7 731.268 295.412 8
-1 3 -7 467.192 257.745 7
-1 3 -8 1497.15 337.541 7
1 -3 8 2044.2 421.688 8
-1 3 -9 1447.55 286.932 14
1 -3 9 1326.58 312.492 17
1 -3 10 1101.99 227.098 17
1 -2 -12 1206.92 252.927 14
1 -2 -11 -38.7479 211.25 14
1 -2 -11 478.877 259.436 13
1 -2 -10 3581.3 546.308 13
1 -2 -10 3598.82 565.741 14
1 -2 -9 13561 1014.66 13
1 -2 -8 15286.6 1055.97 7
1 -2 -8 19128.4 2284.83 5
1 -2 -8 16915 1092.36 13
1 -2 -7 1320.27 312.799 13
1 -2 -7 1582.14 578.945 5
1 -2 -7 1365.35 315.579 7
1 -2 -6 12014.8 1454.2 5
1 -2 -5 6457.4 957.302 5
-1 2 4 146454 2923.07 2
1 -2 -4 139600 3751.28 5
1 -2 -4 139310 2810.36 4
1 -2 -3 154513 3352.47 5
1 -2 -3 155177 2797.97 4
-1 2 3 151031 3365.24 2
-1 2 3 147581 2316.22 1
1 -2 -2 31708.3 1316.58 5
1 -2 -2 30498.6 1262.01 4
-1 2 2 32299.4 1353.24 1
1 -2 -2 29145.2 1579.3 18
1 -2 -1 295263 4698.52 18
-1 2 1 290844 3693.01 19
-1 2 0 85486.7 2765.75 1
-1 2 -1 12096.2 1188.28 1
-1 2 -2 12939.4 1217.36 6
-1 2 -2 12287.7 1302 1
-1 2 -3 1286.54 456.725 20
-1 2 -3 2025.6 632.908 6
-1 2 -3 2075.81 632.068 1
-1 2 -4 19081.6 1906.05 6
-1 2 -4 16523 1722.52 1
-1 2 -4 18402.8 1689.42 20
-1 2 -5 55798.1 3140.16 20
1 -2 6 38490.7 1515.69 8
-1 2 -6 32356.1 2906.28 5
-1 2 -7 54923.5 1981.56 7
-1 2 -7 51530.8 4029.81 5
1 -2 7 53741 1876.53 8
1 -2 8 159370 3183.09 8
-1 2 -8 168667 3537.94 7
-1 2 -9 6754.74 694.611 7
1 -2 9 7216.9 626.69 8
1 -2 10 1949.62 342.291 17
-1 2 -10 1326.88 284.826 14
1 -1 -12 2244.79 313.294 14
1 -1 -11 12196.3 855.472 14
1 -1 -10 414.413 322.713 14
1 -1 -10 672.746 273.34 13
1 -1 -9 26220.3 1490.58 7
1 -1 -9 27102.2 1413.03 13
1 -1 -8 2673.26 461.352 13
1 -1 -8 1919.48 773.935 5
1 -1 -8 2798.2 485.002 7
1 -1 -7 1.07216 178.31 7
1 -1 -7 93.3635 399.698 5
1 -1 -7 75.1539 173.308 13
1 -1 -6 29190.2 2325.24 5
1 -1 -5 8885.69 1138.56 5
1 -1 -4 75026.6 2769.71 5
-1 1 4 81920.5 1996.99 3
1 -1 -3 493107 5892.72 5
1 -1 -2 227137 2200.74 4
-1 1 2 220693 3611.49 2
1 -1 -2 226703 3166.93 5
-1 1 1 999999 6423.97 1
-1 1 1 981358 7077.09 19
-1 1 0 427084 4945.95 1
-1 1 0 418730 3913.17 19
-1 1 -1 3641.9 576.094 1
-1 1 -2 64752.6 2366.9 6
-1 1 -2 55865.5 2279.12 1
-1 1 -3 32217.9 1969.82 6
-1 1 -3 36251.4 2032.14 1
-1 1 -4 14730 1507.81 6
-1 1 -4 13958.9 1266.98 20
-1 1 -5 34636.3 2464.79 5
-1 1 -5 29631.5 2438.43 6
-1 1 -5 31594.5 2013.41 20
-1 1 -6 11450.5 1633.23 5
-1 1 -7 18093.9 2269.93 5
1 -1 7 14425.2 941.222 8
1 -1 8 7711.9 706.669 8
-1 1 -8 8901.36 850.381 7
-1 1 -9 337.477 248.659 7
1 -1 9 1624.28 335.812 8
-1 1 -10 3513.14 522.508 7
-1 1 -11 2042.81 327.62 14
1 0 -12 3090.63 315.959 14
1 0 -11 10828.8 759.316 14
1 0 -10 2062.62 449.974 14
1 0 -9 20635.2 1272.53 14
1 0 -9 20721.1 1201.35 13
1 0 -8 8646.09 771.063 13
1 0 -8 8846.1 865.628 7
1 0 -8 8124.46 1590.13 5
1 0 -7 3142.23 456.043 13
1 0 -7 3697.07 1024.77 5
1 0 -7 2783.66 451.765 7
1 0 -6 100850 4470.89 5
1 0 -5 5204.49 938.693 5
1 0 -4 58246.4 2593.08 5
-1 0 3 23321 1207.61 3
-1 0 2 1249.36 324.62 3
-1 0 1 491511 5021.93 2
-1 0 0 236011 3441.83 2
-1 0 -1 80248.8 1412.85 5
-1 0 -2 66599.7 1830.88 5
-1 0 -3 842.367 391 6
-1 0 -3 539.713 297.324 5
-1 0 -4 15786 1440.18 6
-1 0 -4 14025.7 997.63 20
-1 0 -4 15638.4 1329.1 5
-1 0 -5 65005.4 3158.63 5
-1 0 -5 65462.4 3269.56 6
-1 0 -5 62721.1 2202.36 20
-1 0 -6 23523 2151.71 5
-1 0 -7 86196.1 4641.17 5
1 0 7 75912.7 1980.5 8
-1 0 -8 1591.11 741.72 5
1 0 8 810.946 231.193 8
-1 0 -9 6670.9 755.313 7
-1 0 -10 53704.8 2032.75 7
-1 0 -11 44940.2 1666.66 7
-1 0 -12 1419.76 257.554 14
1 1 -11 26195.7 1047.71 14
1 1 -10 14337.4 961.642 14
1 1 -9 37332.8 1681.93 14
1 1 -8 1172.45 360.798 7
1 1 -8 1660.82 358.962 13
1 1 -7 2901.26 492.034 7
1 1 -7 2575.03 962.343 5
1 1 -7 3222.59 462.77 13
1 1 -6 26753 1283.14 7
1 1 -6 27641.3 2530.28 5
1 1 -5 1007.33 535.96 5
1 1 -4 1023.81 444.317 20
1 1 -3 35593.7 1861.4 20
1 1 -2 2012.37 465.718 20
-1 -1 1 367341 4482.11 19
-1 -1 1 359782 4784.36 3
-1 -1 1 367446 3335.62 4
-1 -1 0 94651.4 2264.35 3
-1 -1 -1 206038 2561.39 5
-1 -1 -2 244970 3398.65 5
-1 -1 -2 232828 3112.7 2
-1 -1 -3 122223 2944.57 5
-1 -1 -3 120756 2167.85 2
-1 -1 -3 119138 2955.08 6
-1 -1 -4 2741.05 313.076 2
-1 -1 -4 3422.45 643.794 6
-1 -1 -4 3834.07 339.714 20
-1 -1 -4 3015.86 601.497 5
-1 -1 -5 559.593 353.656 6
-1 -1 -5 1372.04 565.301 5
-1 -1 -6 14840.6 1640.24 5
-1 -1 -7 504.402 443.16 5
-1 -1 -8 1707.01 331.198 13
-1 -1 -8 1938.36 841.805 5
-1 -1 -9 28300.3 1504.43 7
-1 -1 -9 32599.4 1398.88 13
-1 -1 -10 8878.27 880.05 7
-1 -1 -11 4242.84 580.396 7
-1 -1 -12 135.7 171.507 14
1 2 -11 4307.61 351.022 14
1 2 -10 12263.8 801.622 14
-1 -2 9 3855.55 461.259 17
1 2 -9 4834.56 606.778 14
-1 -2 8 4211.61 565.911 17
1 2 -8 5136.94 672.321 14
1 2 -7 1744.79 760.1 5
1 2 -7 455.707 301.608 7
1 2 -6 11304.5 891.341 7
1 2 -6 9612.57 1637.72 5
-1 -2 5 5344.49 986.14 19
1 2 -5 4043.18 901.882 20
1 2 -4 40497.6 2060.08 1
1 2 -4 37095.4 2407.62 20
-1 -2 3 349677 6077.3 19
1 2 -3 350397 6772.42 20
-1 -2 2 19828 1252.39 19
1 2 -2 18128.8 1430.99 20
-1 -2 1 337.964 265.253 19
-1 -2 1 89.808 219.896 4
1 2 -1 -270.283 279.767 20
-1 -2 0 134748 2736.81 4
1 2 1 176458 3244.79 20
1 2 1 173964 1630.84 18
-1 -2 -1 170910 3096.24 5
-1 -2 -1 176968 3385.79 3
-1 -2 -2 43267.5 1515.54 3
1 2 2 41121.6 1386.36 20
-1 -2 -2 43501.4 1648 5
-1 -2 -3 290002 3355.28 3
-1 -2 -3 278579 4626.04 5
-1 -2 -4 142270 3794.81 5
-1 -2 -4 150913 3423.14 6
-1 -2 -5 11903.6 1285.31 5
-1 -2 -5 13347.5 1239.29 6
-1 -2 -6 -180.432 404.299 5
-1 -2 -7 344.005 454.999 5
-1 -2 -8 85192 4760.65 5
-1 -2 -9 12476.4 999.26 7
-1 -2 -9 12861 921.88 13
-1 -2 -9 12947 2066.31 5
-1 -2 -10 44296.4 1888.67 7
-1 -2 -10 44172.3 1693.55 13
-1 -2 -11 3886.75 574.71 7
-1 -2 -11 4736.54 529.909 13
-1 -2 -12 17531.2 1005.43 7
-1 -2 -13 6916.78 461.76 14
1 3 -10 4673.86 408.034 14
-1 -3 9 334.423 166.593 17
1 3 -9 200.202 230.386 14
-1 -3 8 54514.3 1879.38 17
1 3 -8 52362.1 1883.28 14
1 3 -7 5038.19 634.904 14
-1 -3 7 4876.62 621.141 17
1 3 -6 27712 1391.58 7
1 3 -6 28154.6 1389.16 14
1 3 -6 28896.1 2972.39 5
1 3 -5 3904.44 1019.84 20
1 3 -5 2504.09 410.447 7
1 3 -4 16486.8 1861.3 20
1 3 -4 18671.8 1713.18 1
1 3 -3 19735.6 1857.45 20
-1 -3 3 20688.8 1468.75 19
1 3 -2 7014.2 1077.95 20
-1 -3 2 5954.18 691.889 19
-1 -3 1 76293.1 2166.32 19
1 3 -1 75291.8 3092.44 20
-1 -3 0 24241.9 1474.11 4
1 3 0 25479 1673.69 20
-1 -3 -1 228826 4339.81 4
1 3 1 217327 4455.11 20
1 3 2 577410 6543.81 20
-1 -3 -2 578874 7041.39 5
-1 -3 -3 137.412 99.2022 6
1 3 3 38.559 163.362 20
-1 -3 -4 52732.6 2445.5 5
-1 -3 -4 53988.8 1714.4 6
-1 -3 -5 100939 3724.87 5
-1 -3 -6 43443.1 2731.45 5
-1 -3 -7 2355.83 801.669 5
-1 -3 -8 1002.08 659.945 5
-1 -3 -8 124.355 168.769 16
-1 -3 -9 30315.4 3076.95 5
-1 -3 -9 33602.3 1542.89 7
-1 -3 -9 32141.7 1484.13 13
-1 -3 -10 6650.95 731.224 7
-1 -3 -10 6976.22 728.774 13
-1 -3 -11 21230.9 1250.89 7
-1 -3 -11 22133.5 1207.73 13
-1 -3 -12 325.985 211.186 7
-1 -3 -12 343.015 178.651 13
-1 -3 -13 42.8516 126.54 14
-1 -4 9 9856.37 583.61 17
1 4 -9 9675.62 552.371 14
-1 -4 8 4797.38 553.929 17
1 4 -8 4400.16 484.227 14
-1 -4 7 740.901 297.862 17
1 4 -7 862.981 282.704 14
-1 -4 6 -172.734 236.408 17
1 4 -6 230.964 244.314 14
-1 -4 5 958.158 352.724 17
1 4 -5 1401.51 600.552 20
1 4 -5 380.13 228.983 14
1 4 -4 163.261 545.192 20
-1 -4 4 686.241 268.19 8
1 4 -4 410.732 180.834 14
1 4 -3 5625.31 1174.26 20
1 4 -2 7208.57 1237.83 20
1 4 -1 242530 6487.63 20
-1 -4 0 276938 5935.71 4
1 4 0 285337 6508.37 20
1 4 1 19107.2 1603.86 20
-1 -4 -1 20318 1587.29 4
1 4 2 10228.4 1083.81 20
-1 -4 -2 9981.19 1115.18 5
-1 -4 -2 11545.3 1194.89 4
1 4 3 -287.176 268.914 20
-1 -4 -3 62.7235 354.534 5
-1 -4 -3 15.6573 340.174 4
1 4 4 3820.66 550.566 20
-1 -4 -4 3146.46 736.136 5
-1 -4 -5 20419.8 1801.14 5
-1 -4 -6 27723.3 2261.25 5
-1 -4 -7 76777.8 4086.08 5
-1 -4 -8 4587.14 528.587 16
-1 -4 -8 4389.73 1135.4 5
-1 -4 -9 17130.5 2286.46 5
-1 -4 -9 16598.2 1051.48 16
-1 -4 -9 16862.9 1056.26 7
-1 -4 -10 30011.4 1450.22 7
-1 -4 -10 27783.9 1446.03 13
-1 -4 -11 12142.7 922.811 7
-1 -4 -11 10797.9 893.163 13
-1 -4 -12 117.111 188.129 13
-1 -4 -13 16446.4 726.623 14
-1 -4 -13 17477.6 787.189 13
-1 -5 8 345.981 182.093 17
-1 -5 7 1214.81 356.639 17
-1 -5 6 4665.86 634.288 17
-1 -5 5 33091.7 1637.43 17
-1 -5 4 37903.3 1713.42 17
1 5 -4 43210.7 3695.57 20
-1 -5 3 29654.2 1435.28 17
1 5 -3 27932.1 2847.26 20
-1 -5 2 9268.44 778.267 17
1 5 -2 11065.4 1713.91 20
1 5 -1 30911.6 2676.79 20
1 5 0 8419.47 1355.14 20
1 5 1 9462.32 1336.25 20
-1 -5 -1 6804.69 1089.86 4
-1 -5 -2 8727.11 1191.97 4
1 5 2 9698.68 1286.16 20
-1 -5 -3 -218.446 438.636 5
-1 -5 -3 302.872 356.532 4
1 5 3 35.5355 247.873 20
1 5 4 20254.2 1548.08 20
-1 -5 -4 20324.1 1848.73 5
-1 -5 -4 22607.7 1941.85 4
-1 -5 -5 62773.2 3305.42 4
-1 -5 -5 62000.9 3355.98 5
-1 -5 -6 262.577 326.957 5
-1 -5 -7 84040.2 2136.21 16
-1 -5 -7 84062.6 4467.9 5
-1 -5 -8 6898.59 1411.48 5
-1 -5 -8 6269.9 631.416 16
-1 -5 -9 586.45 519.609 5
-1 -5 -9 -38.167 167.962 16
-1 -5 -10 2297.88 454.976 16
-1 -5 -10 2291.97 494.215 13
-1 -5 -11 232.825 257.313 13
-1 -5 -12 29930.2 1339.08 13
-1 -5 -13 1061.03 252.288 13
-1 -6 7 9232.09 655.843 17
-1 -6 6 6653.26 677.159 17
-1 -6 5 9121.21 869.644 17
-1 -6 4 2048.27 475.855 17
-1 -6 3 2321.79 506.909 17
-1 -6 3 1799.93 373.526 15
1 6 -3 2131.14 920.069 1
1 6 -3 1269.41 745.285 20
1 6 -2 7283.34 1516.33 20
-1 -6 2 7543.32 762.07 17
-1 -6 2 6789.84 693.218 15
-1 -6 1 621.45 267.758 15
-1 -6 1 776.514 263.474 17
1 6 -1 47.202 512.482 20
-1 -6 0 474.775 260.606 15
1 6 0 317.918 507.867 20
-1 -6 -1 25343.9 2372.27 4
1 6 1 29883.5 2671.72 20
-1 -6 -2 43372.1 3010.82 4
1 6 2 47063.1 3152.53 20
1 6 3 240524 6670.09 20
-1 -6 -3 215969 6595.98 4
-1 -6 -4 357.724 436.578 4
1 6 4 1378.32 550.084 20
-1 -6 -5 33348.2 2654.83 4
-1 -6 -5 37166.5 2852.03 5
-1 -6 -6 28610.3 2531.32 4
-1 -6 -6 27792.9 1242.21 16
-1 -6 -6 29265.7 2630.12 5
-1 -6 -7 3674.94 494.354 16
-1 -6 -7 3690.29 1044.78 5
-1 -6 -7 2619.86 829.446 4
-1 -6 -8 230.37 169.053 16
-1 -6 -8 607.183 587.641 4
-1 -6 -8 -203.444 471.505 5
-1 -6 -9 14355.6 997.112 16
-1 -6 -10 34367.1 1531.12 16
-1 -6 -10 38332.4 1714.78 13
-1 -6 -11 10483.3 895.447 13
-1 -6 -12 4087.53 523.744 13
-1 -6 -13 3274.98 387.476 13
-1 -7 6 12736.5 751.313 17
-1 -7 5 3588.1 515.934 17
-1 -7 4 12856.2 985.067 17
-1 -7 3 33.079 225.714 17
-1 -7 3 424.06 279.263 15
-1 -7 2 139.448 221.442 15
-1 -7 2 108.844 232.898 17
-1 -7 1 62187.6 2197.05 15
-1 -7 1 59156.6 2087.34 17
1 7 -1 62299.9 4670.14 20
-1 -7 0 2068.14 401.896 17
-1 -7 0 1652.58 398.339 15
-1 -7 -1 2266.01 405.266 17
1 7 1 1469.33 909.185 20
-1 -7 -1 2683.78 505.562 15
-1 -7 -2 68304.1 2190.08 15
-1 -7 -2 68210 4244.59 4
1 7 2 68731.6 4310.57 20
-1 -7 -3 64620.4 4058.71 4
-1 -7 -3 68491.5 2139.59 15
1 7 3 65184 3969.69 20
1 7 4 14813.1 1776.45 20
-1 -7 -4 13071.2 943.67 15
-1 -7 -4 14054.8 1923.8 4
-1 -7 -5 5703.81 1291.85 4
-1 -7 -5 4313.7 526.521 15
-1 -7 -6 -565.93 507.835 5
-1 -7 -6 -111.828 205.588 16
-1 -7 -6 -814.543 553.162 4
-1 -7 -7 15716.3 2143.91 5
-1 -7 -7 14663 995.555 16
-1 -7 -7 14468.6 2012.59 4
-1 -7 -8 29590 3074 5
-1 -7 -8 27576.7 2758.57 4
-1 -7 -8 29057.7 1406.77 16
-1 -7 -9 9954.54 847.412 16
-1 -7 -10 55959.9 1926.61 16
-1 -7 -10 58187.9 2061.86 13
-1 -7 -11 3552.14 461.159 16
-1 -7 -11 4031.16 567.753 13
-1 -7 -12 2329.18 384.667 13
-1 -7 -13 1694.29 287.791 13
-1 -8 5 426.218 176.185 17
-1 -8 4 1916.83 374.426 17
-1 -8 3 206.073 246.184 17
-1 -8 3 205.57 155.485 15
-1 -8 2 7280.47 747.176 17
-1 -8 2 6903.93 719.218 15
-1 -8 1 457.041 266.982 17
-1 -8 1 107.932 220.762 15
-1 -8 0 125.823 214.998 17
-1 -8 0 76.2454 243.834 15
1 8 1 1398.14 848.97 20
-1 -8 -1 2159.7 490.639 15
-1 -8 -1 2414.87 439.231 17
-1 -8 -2 -80.6487 251.91 15
1 8 2 -1125.42 698.895 20
1 8 3 806.445 629.913 20
-1 -8 -3 574.072 277.813 15
-1 -8 -4 12210 986.505 15
-1 -8 -4 12986.2 2024.62 4
-1 -8 -5 27718.5 2914.17 4
-1 -8 -5 27779.2 1430.49 15
-1 -8 -6 26627.5 2837.37 4
-1 -8 -6 26707.5 1361.9 16
-1 -8 -6 26196.7 1331.98 15
-1 -8 -7 8339.5 792.434 16
-1 -8 -8 795.971 279.544 16
-1 -8 -9 23672.8 1278.33 16
-1 -8 -10 21227.6 1154.68 16
-1 -8 -10 22410.9 1217.24 13
-1 -8 -11 586.938 213.429 16
-1 -8 -11 154.015 178.032 13
-1 -8 -12 144.683 197.895 13
-1 -8 -13 1566.25 250.079 13
-1 -9 3 22384.7 942.148 17
-1 -9 2 562.013 244.268 15
-1 -9 2 274.511 185.76 17
-1 -9 1 2131.67 428.664 15
-1 -9 1 1764.56 376.227 17
-1 -9 0 1480.4 436.384 15
-1 -9 0 1102.4 318.523 17
-1 -9 -1 6449.43 774.472 15
-1 -9 -2 28229.8 1574.89 15
-1 -9 -3 1038.27 397.866 15
-1 -9 -4 16060.6 1158.89 15
-1 -9 -5 4634.33 651.882 15
-1 -9 -5 5490.46 666.628 16
-1 -9 -6 13076.6 979.7 15
-1 -9 -6 13165.8 989.455 16
-1 -9 -7 1145.22 321.889 16
-1 -9 -8 6491.19 691.847 16
-1 -9 -9 2335.7 408.653 16
-1 -9 -9 2188.3 375.563 13
-1 -9 -10 4191.84 476.893 16
-1 -9 -10 4409.04 487.499 13
-1 -9 -11 3788.36 404.824 16
-1 -9 -11 4986.46 474.76 13
-1 -9 -12 2240.49 286.063 13
-1 -10 1 10923.4 687.76 15
-1 -10 0 20.6087 209.53 15
-1 -10 -1 6097.73 670.306 15
-1 -10 -2 1187.42 359.687 15
-1 -10 -3 3063.59 533.534 15
-1 -10 -4 16721.5 1147.11 15
-1 -10 -5 1163.01 352.904 16
-1 -10 -5 1207.78 368.237 15
-1 -10 -6 10479.3 829.92 15
-1 -10 -6 11088.9 877.627 16
-1 -10 -7 45.0952 183.842 16
-1 -10 -8 12105.1 828.908 16
-1 -10 -9 5312.32 513.181 16
-1 -10 -10 4674.29 451.125 16
-1 -10 -11 37.3061 95.8878 16
-1 -11 0 11578.1 549.211 16
-1 -11 -2 768.471 255.839 15
-1 -11 -2 457.751 198.227 16
-1 -11 -3 -247.566 194.633 16
-1 -11 -3 160.472 221.098 15
-1 -11 -4 26320.7 1146.12 16
-1 -11 -4 27283.6 1253.24 15
-1 -11 -5 2108.78 352.906 16
-1 -11 -6 2780.31 394.342 16
-1 -11 -7 11628.4 722.432 16
-1 -11 -8 3406.98 385.413 16
-1 -11 -9 10560.4 582.227 16
-1 -12 -5 1988.05 240.849 16
-1 -12 -6 1056.64 177.703 16
2 -10 -4 6014.31 489.529 15
2 -10 -3 4753.95 463.76 15
2 -10 -2 6486.89 535.092 15
2 -10 -1 1686.38 281.008 15
2 -9 -4 7750.84 686.113 15
2 -9 -3 147165 3060.94 15
2 -9 -2 6027.73 647.905 15
2 -9 -1 1727.21 382.124 15
2 -9 0 3194.06 478.669 15
2 -9 1 1337.85 307.135 15
2 -9 2 1888.69 275.393 15
2 -8 -4 12905.8 958.25 15
2 -8 -3 5762.76 699.61 15
2 -8 -2 21572.9 1328.77 15
2 -8 -1 1183.16 406.93 15
2 -8 0 -187.946 247.037 15
2 -8 1 19012.6 1184.81 15
2 -8 2 10986.6 838.383 15
2 -8 3 6115.64 526.347 15
2 -7 -4 72032.8 2240.26 15
2 -7 -3 8092.91 764.759 10
2 -7 -3 7785.64 791.294 15
-2 7 2 21040.6 2641.91 20
2 -7 -2 18606.2 1168.64 10
2 -7 -2 18847 1259.33 15
2 -7 -1 841.708 323.239 10
2 -7 -1 1100.88 412.309 15
2 -7 0 290415 5009.11 15
2 -7 1 685.67 359.695 15
2 -7 2 -19.1514 228.927 15
2 -7 3 2283.66 365.234 17
2 -7 3 2920.83 484.916 15
2 -7 4 994.726 268.54 15
2 -7 4 752.678 205.631 17
2 -7 5 3938.52 369.233 17
2 -6 -11 13884.7 791.849 13
2 -6 -10 15271.3 930.809 13
2 -6 -9 10434.3 806.095 13
2 -6 -8 28744.1 1324.7 13
-2 6 4 -172.993 406.904 20
-2 6 4 985.415 556.165 2
2 -6 -3 47954.5 1718.3 10
-2 6 3 49890.7 3709.63 20
2 -6 -3 47872 1811.6 15
-2 6 3 47029.6 3465.29 1
-2 6 2 7058.92 1486.23 20
2 -6 -2 6372.34 640.981 11
2 -6 -2 6669.21 729.125 15
-2 6 2 5017.09 1254.13 1
2 -6 -2 6154.71 657.029 10
-2 6 1 532.117 541.818 20
2 -6 -1 1496.97 365.164 10
2 -6 -1 952.219 357.883 15
-2 6 0 4184.22 1313.49 20
2 -6 0 3968.56 580.128 10
2 -6 0 3971.42 599.294 15
-2 6 0 4666.34 1324.4 1
2 -6 1 58033.9 2161.57 10
2 -6 1 57427.4 2191.16 15
2 -6 1 53271.9 1908.69 8
-2 6 -1 59568.7 4586.49 20
2 -6 2 2423.16 511.283 15
2 -6 2 2296.11 487.997 8
2 -6 3 5096.67 651.54 8
2 -6 3 4600.48 646.228 15
2 -6 4 268.349 270.527 15
2 -6 4 237.618 241.872 8
2 -6 5 241.523 177.084 17
2 -6 6 468.75 205.126 17
2 -6 7 6504.39 439.995 17
2 -5 -11 -116.991 155.334 12
2 -5 -11 14.6419 189.209 13
2 -5 -10 25567.7 1293.64 13
2 -5 -9 23399.1 1278.72 13
2 -5 -8 1097.13 346.203 13
2 -5 -7 118.47 176.094 13
-2 5 7 -1011.89 581.872 19
-2 5 6 120.204 358.804 19
2 -5 -5 5866.22 1236.55 18
-2 5 4 2450.74 777.96 2
-2 5 3 15909.1 1811.07 1
-2 5 2 7916.16 1345.16 1
2 -5 -1 108050 2554.32 10
-2 5 1 102247 5073.31 1
2 -5 0 31400.7 1431.79 10
2 -5 0 30986 1398.07 11
-2 5 -1 9474.94 1781.68 1
2 -5 1 9162.9 750.432 8
2 -5 1 8922.44 815.125 10
-2 5 -1 6112.66 1328.4 20
-2 5 -2 2050.39 864.309 20
2 -5 2 4258.18 555.507 8
-2 5 -2 3262.82 1135 1
2 -5 2 3763.31 562.121 10
2 -5 3 193178 3907.86 15
2 -5 3 192113 3727.34 8
-2 5 -3 180570 8204.21 1
2 -5 4 4581.41 630.266 15
2 -5 4 4828.32 644.095 8
2 -5 5 27030.8 1315.67 15
2 -5 5 29043.4 1477.95 8
2 -5 6 15387.6 1024.16 8
2 -5 7 1603.49 357.474 17
2 -5 8 19.1898 147.156 17
2 -4 -12 1225.49 242.541 12
2 -4 -11 1150.47 330.595 13
2 -4 -10 2313.78 463.776 13
2 -4 -9 2484.77 491.009 13
-2 4 8 15373.6 2213 19
2 -4 -8 15595.4 2229.01 18
2 -4 -8 15103.3 1066.82 13
-2 4 7 3569.44 1061.53 19
2 -4 -7 2124.5 927.868 18
2 -4 -7 3397.21 506.916 13
2 -4 -6 5107.88 1152.67 18
-2 4 6 7175.05 1330.21 19
2 -4 -6 5905.76 586.463 13
2 -4 -5 34662.3 2798.31 18
-2 4 5 35917.9 2680.49 19
-2 4 4 11159.1 1478.12 2
2 -4 -4 10443.7 1444.68 18
-2 4 4 9291.14 1246.19 19
-2 4 3 2707.52 622.565 19
-2 4 3 3774.07 746.434 1
-2 4 3 2284.59 818.78 2
-2 4 2 68830.8 3436.15 1
-2 4 1 6854.09 1191.97 1
-2 4 0 63339.2 2960.76 6
-2 4 0 63471.7 3759.65 1
-2 4 -1 1029.59 481.062 6
-2 4 -1 1251.9 577.535 1
-2 4 -2 16505.5 1832.61 6
-2 4 -2 14096.9 1986.48 1
-2 4 -2 11969.2 1817.36 20
2 -4 2 15629.8 939.189 8
2 -4 2 14838.6 981.399 10
-2 4 -3 21025.2 2274.92 6
2 -4 3 19763.1 1119.04 8
2 -4 3 19774.7 1184.59 10
-2 4 -3 21062.7 2587.79 1
-2 4 -3 23632.3 2605.75 20
2 -4 4 166875 3408.91 8
-2 4 -4 167629 7073.16 20
2 -4 5 15554.1 1099.65 8
2 -4 5 14164.8 983.671 15
2 -4 6 7594.58 778.754 8
2 -4 7 76.2955 257.651 8
2 -4 8 3075.27 419.676 8
2 -4 9 2839.22 335.91 17
2 -3 -11 20250.8 1110.66 13
2 -3 -10 2340.73 389.357 14
2 -3 -10 3351.48 558.5 13
2 -3 -9 4728.01 548.045 14
2 -3 -9 4340.78 629.527 13
-2 3 8 -32.2261 448.915 19
2 -3 -8 361.399 263.99 13
2 -3 -7 32412.3 3131.03 18
2 -3 -7 31769.5 1458.02 13
2 -3 -6 16087.5 2074.38 18
2 -3 -6 17051 988.82 13
2 -3 -5 11110.6 1562.8 18
2 -3 -4 94910.2 4266.72 18
-2 3 4 98082.7 4069.15 19
-2 3 4 100069 3908.2 2
2 -3 -4 90132.4 3012.89 5
2 -3 -3 53177 2986.25 18
-2 3 3 52844.3 2666.41 19
-2 3 3 53077.8 2987.84 2
2 -3 -3 51608.7 1977.03 5
2 -3 -2 89426.9 3744.57 18
-2 3 2 87568.6 3105.8 19
-2 3 2 85361 3331.58 1
-2 3 1 28562.9 2065.06 1
-2 3 0 77819.4 3612.45 1
-2 3 -1 4643.75 987.316 1
-2 3 -2 159424 5208.88 6
-2 3 -2 165655 6018.44 1
-2 3 -3 89637.5 4342.83 6
-2 3 -3 83373.3 4588.18 1
-2 3 -4 112.285 289.607 20
-2 3 -4 -499.57 465.215 6
2 -3 4 114.498 163.128 10
2 -3 4 -53.5478 150.978 8
-2 3 -5 -244.355 384.262 20
-2 3 -5 221.068 436.717 5
2 -3 5 197.346 209.642 8
2 -3 6 128308 3083.82 8
2 -3 7 3094.38 540.116 8
-2 3 -7 3059.14 506.817 7
-2 3 -8 12937.9 851.79 7
2 -3 8 13318 932.131 8
-2 3 -9 7172.66 537.793 7
2 -3 9 7642.43 599.779 8
2 -3 10 805.444 191.374 17
2 -2 -11 2212.67 343.61 14
2 -2 -10 76.6279 226.725 13
2 -2 -10 513.87 248.919 14
2 -2 -9 4704.73 576.986 14
2 -2 -9 5148.2 665.366 13
-2 2 8 893.862 536.54 19
2 -2 -8 2327.78 433.884 14
2 -2 -8 2116.8 442.946 13
2 -2 -7 8571.98 726.645 14
2 -2 -7 8793 790.681 13
2 -2 -6 31371.3 2295.5 5
2 -2 -6 29334.6 1296.59 13
2 -2 -5 3820.94 739.321 5
2 -2 -4 2713.35 497.179 5
-2 2 4 3457.64 722.438 2
-2 2 3 13819.7 1368.78 2
2 -2 -3 15493 1623.76 18
2 -2 -3 15703.2 1012.52 5
-2 2 3 17961 1569.63 19
2 -2 -2 27558.8 1049.54 5
-2 2 2 29465.8 2021.77 2
-2 2 2 32377.3 1906.44 19
2 -2 -2 28446.6 2029.33 18
2 -2 -1 78524.2 3251.78 18
-2 2 1 73443 2875.28 1
-2 2 1 78120.1 2665.17 19
-2 2 0 11802 1278.54 1
-2 2 -1 211163 5621.67 1
-2 2 -2 55062.1 3101.34 1
-2 2 -3 32376 2396.96 6
-2 2 -3 31327.2 2534.2 1
-2 2 -4 -38.3365 482.366 6
-2 2 -4 365.501 272.173 5
-2 2 -4 491.028 310.082 20
-2 2 -5 94242.6 2250.92 9
-2 2 -5 92684.2 4912.44 6
-2 2 -5 89381.2 4355.01 5
2 -2 5 91664.8 2320.47 8
-2 2 -5 99122.5 4587.05 20
-2 2 -6 3657.01 974.681 5
2 -2 6 3612.5 522.391 8
2 -2 7 57184 2029.32 8
-2 2 -8 1915.76 415.775 7
2 -2 8 2015.25 428.723 8
-2 2 -9 803.523 286.706 7
2 -2 9 1096.2 314.202 8
-2 2 -10 136.263 165.218 7
-2 2 -10 141.688 168.836 14
2 -2 10 7.83726 160.991 8
2 -1 -11 -47.0822 190.678 14
2 -1 -10 38968 1577.94 14
2 -1 -9 2373.37 449.599 14
2 -1 -9 2514.36 480.983 13
-2 1 8 55139.4 4222.39 19
2 -1 -8 54223.6 1984.3 14
2 -1 -8 53791.4 2035.86 13
-2 1 7 10054.9 1715.59 19
2 -1 -7 7229.85 703.921 14
2 -1 -7 8129.99 763.262 13
2 -1 -7 8957.5 1437.66 5
2 -1 -6 2144.31 359.322 13
2 -1 -6 1792.46 606.62 5
2 -1 -5 14007.5 1428.3 5
2 -1 -4 49734.4 2256.05 5
-2 1 4 51546.4 2426.77 3
-2 1 3 23835.8 1836.15 19
2 -1 -3 23917 1287.38 5
-2 1 3 23590.8 1676.42 2
2 -1 -2 34102.3 2130.12 18
-2 1 2 36495 2084.1 2
2 -1 -2 34107.8 1106.22 5
-2 1 2 36147.9 2007.62 19
-2 1 1 92462.8 2937.67 19
-2 1 1 98879.2 3441.3 2
2 -1 -1 94253.9 3343.15 18
2 -1 0 57502.9 2573.61 18
-2 1 0 58952.5 2722.08 2
-2 1 -1 130561 2139.73 5
-2 1 -2 45735.1 1734.12 5
-2 1 -3 138521 3655.82 5
-2 1 -4 14376.3 1641.8 6
-2 1 -4 13873.9 1387.15 5
-2 1 -5 7552.03 1346.27 6
-2 1 -5 3930.16 821.838 20
-2 1 -5 6504.89 1143.9 2
-2 1 -5 6754.5 1135.33 5
-2 1 -6 6256.83 1323.58 6
2 -1 6 5090.63 567.822 8
-2 1 -6 3414.21 894.001 5
2 -1 7 9131.65 788.002 8
-2 1 -7 10653.4 1726.41 5
2 -1 8 6860.25 722.75 8
-2 1 -9 38883.3 1706.23 7
2 -1 9 36603.7 1530.16 8
-2 1 -10 12777.1 892.707 7
2 -1 10 11135.4 744.006 8
2 -1 11 7064.65 500.576 17
-2 1 -11 6462.2 520.345 7
-2 1 -11 7252.72 528.799 14
2 0 -11 4461.79 455.415 14
2 0 -10 9514.37 787.313 14
2 0 -9 2651.87 493.182 14
2 0 -8 18.1946 206.037 13
2 0 -8 -67.4071 220.218 14
-2 0 7 7415.13 1502.11 19
2 0 -7 7753.74 758.445 14
2 0 -7 6454.84 697.587 13
2 0 -7 6399.66 1305.94 5
2 0 -6 239.431 214.738 14
2 0 -6 -192.965 407.152 5
2 0 -6 36.9617 193.253 13
-2 0 6 -746.175 538.991 19
-2 0 5 10759.9 1504.9 19
2 0 -5 10732.8 1352.72 5
-2 0 4 10381.8 1362.22 19
2 0 -4 9262.99 1067.95 5
-2 0 4 7244.33 973.248 3
-2 0 3 2374.03 626.153 19
-2 0 3 1936.23 554.237 3
2 0 -3 2315.41 469.736 5
-2 0 2 134.271 269.629 19
2 0 -2 -40.6351 138.77 5
-2 0 1 148327 3772.41 19
2 0 -1 147703 1767.39 5
2 0 -1 149660 3963.83 18
-2 0 1 155000 4070.41 2
2 0 0 28484.2 1661.49 18
-2 0 0 26078 1525.24 19
-2 0 0 27233.6 1704.52 2
-2 0 -1 23936.8 1642.24 2
-2 0 -1 23728.8 686.514 5
-2 0 -2 234068 3426.94 5
-2 0 -2 227092 5044.11 2
-2 0 -3 27036.2 1802.82 2
-2 0 -3 28100.8 1503.65 5
-2 0 -4 539845 7859.47 5
-2 0 -4 529659 8252.76 2
-2 0 -4 530667 8973.84 6
-2 0 -5 3730.19 756.225 2
-2 0 -5 2989.13 754.464 5
-2 0 -5 4989.77 975.508 6
-2 0 -6 37186.4 2737.45 5
-2 0 -6 38969.7 3033.54 6
-2 0 -7 1367.13 715.211 5
2 0 7 1449.59 330.864 8
2 0 8 73188.4 2200.42 8
-2 0 -8 66219.6 4433.74 5
2 0 9 11824.3 894.665 8
-2 0 -10 26073.8 1386.42 7
2 0 10 27258 1216.95 8
-2 0 -11 5660.73 591.305 7
-2 0 -12 2402.04 291.929 14
2 1 -11 3485.12 358.336 14
2 1 -10 4027.54 502.944 14
2 1 -9 18802.4 1175.87 14
2 1 -8 4356.25 628.192 14
-2 -1 7 35733.9 3180.49 19
2 1 -7 36975.2 3235.61 5
2 1 -7 38570.5 1709.66 14
2 1 -7 37791.3 1632.13 13
-2 -1 6 31586.7 2837.35 19
2 1 -6 29871.4 2663.94 5
2 1 -6 32148.7 1469 14
2 1 -6 35256 1482.55 13
-2 -1 5 91842.5 4361.15 19
2 1 -5 84537.7 3982.96 5
-2 -1 4 431.28 451.166 19
-2 -1 3 14874.9 1482.9 19
-2 -1 3 13074.8 1311.21 3
-2 -1 2 195.933 341.419 19
-2 -1 2 -142.08 299.822 3
-2 -1 1 55308.2 2354.07 19
-2 -1 1 53979 1085.06 4
-2 -1 1 55402.6 2480.14 3
2 1 0 105705 3003.27 18
-2 -1 -1 380742 6087.83 2
2 1 1 374898 5459.69 18
-2 -1 -1 385590 3642.52 5
-2 -1 -2 39046.3 1950.2 2
-2 -1 -2 39153.8 1420.88 5
-2 -1 -3 217769 4583.79 2
-2 -1 -3 211433 3968.92 5
-2 -1 -4 204536 4459.72 2
-2 -1 -4 199137 4543.05 5
-2 -1 -5 38176.6 2491.34 6
-2 -1 -5 35058.5 2212.21 5
-2 -1 -5 35247.1 1815.68 2
-2 -1 -6 71867.2 3795.14 6
-2 -1 -6 81775.9 3853.26 5
-2 -1 -7 6696.03 1349.08 6
2 1 7 6851.17 619.493 8
-2 -1 -7 4567.24 1074.34 5
2 1 8 2289.32 411.896 8
-2 -1 -8 1629.16 693.104 5
2 1 9 2744.76 456.04 8
-2 -1 -10 300.035 303.534 7
2 1 10 95.8017 153.093 8
-2 -1 -11 1895.68 431.111 7
-2 -1 -12 39.0277 166.129 7
2 2 -10 9167.63 641.377 14
2 2 -9 8725.67 769.567 14
2 2 -8 -102.363 303.96 14
2 2 -7 762.835 373.707 14
-2 -2 6 856.514 300.554 17
-2 -2 6 359.178 447.905 19
2 2 -6 516.295 279.809 14
2 2 -6 862.202 546.421 5
2 2 -5 22943.3 1197.73 14
-2 -2 5 22101.5 2164.3 19
-2 -2 4 1523.75 642.381 19
-2 -2 3 7054.8 1037.4 19
-2 -2 2 10648.5 1169.59 19
-2 -2 1 6300.23 603.309 4
-2 -2 1 5686.49 823.15 19
-2 -2 1 5982.46 924.198 3
-2 -2 0 23001.3 1164.08 4
-2 -2 0 26501.9 1778.05 3
2 2 0 25940.2 1442.94 18
-2 -2 -1 220.594 313.916 3
2 2 1 399.997 293.003 18
-2 -2 -2 178598 4219.59 3
-2 -2 -2 179492 3499.01 5
-2 -2 -3 205211 4074.04 5
-2 -2 -3 191211 4220.62 3
-2 -2 -4 13253 1204.22 5
-2 -2 -4 12609.7 1051.11 3
-2 -2 -5 111970 3916.11 6
-2 -2 -5 105090 3798.34 5
-2 -2 -5 109481 2786.73 3
-2 -2 -6 73188.4 3535.03 6
-2 -2 -6 69892.5 3500.62 5
-2 -2 -7 105056 4715.62 6
-2 -2 -7 98057.4 2287.18 16
-2 -2 -7 93563.1 4525.63 5
-2 -2 -8 28813.4 2795.13 5
2 2 8 32460 1379.86 8
2 2 9 453.122 252.702 8
-2 -2 -9 166.831 179.296 13
-2 -2 -9 472.2 771.265 5
2 2 10 5319.2 569.745 8
-2 -2 -10 5548.58 582.147 13
-2 -2 -11 10528.3 890.947 7
-2 -2 -12 1664.59 340.114 7
-2 -2 -13 4643.53 381.592 14
2 3 -9 774.95 276.788 14
-2 -3 8 1231.6 286.811 17
2 3 -8 660.492 274.043 14
-2 -3 7 19275.2 1147.19 17
2 3 -7 19787.9 1234.84 14
-2 -3 6 18314.7 1132.38 17
2 3 -6 19886.8 1227.47 14
-2 -3 5 990.58 303.874 17
2 3 -5 1263.13 310.477 14
-2 -3 4 83220.9 2201.49 17
-2 -3 4 82745.7 3873.86 19
2 3 -4 80328.5 2159.51 14
-2 -3 3 47115.4 2686.68 19
2 3 -3 48228.5 3144.86 20
-2 -3 2 72715 3080.06 19
2 3 -2 75351.1 3681.52 20
2 3 -1 55.1147 388.016 20
-2 -3 1 266.322 265.171 4
-2 -3 1 327.352 289.848 19
2 3 0 258.347 311.972 20
-2 -3 0 31.0394 238.561 4
2 3 1 210.02 203.292 18
-2 -3 -1 -50.0912 396.778 3
-2 -3 -1 -92.7023 263.513 4
2 3 1 157.921 283.883 20
-2 -3 -2 11828.7 1070.94 5
-2 -3 -2 10762.4 1132.06 3
-2 -3 -3 28558.9 1704.79 5
-2 -3 -3 28800.4 1732.52 3
-2 -3 -4 277992 5747.84 5
-2 -3 -4 288671 5092.3 3
-2 -3 -5 2872.4 696.135 5
-2 -3 -5 2101.14 540.629 6
-2 -3 -6 33629.8 2187.06 6
-2 -3 -6 34226.1 2452.46 5
-2 -3 -7 7849.55 1184.79 6
-2 -3 -7 6470.3 1192.67 5
-2 -3 -8 5552.32 612.493 16
2 3 8 3853.56 499.095 8
-2 -3 -8 3959.97 1059.3 5
-2 -3 -9 83441.6 5041.71 5
2 3 9 81888 2189.22 8
-2 -3 -10 1277.97 312.757 13
2 3 10 1895.28 361.305 8
-2 -3 -11 2416.91 466.315 7
-2 -3 -11 1407.51 319.924 13
-2 -3 -12 -3.7231 209.371 7
2 4 -9 5402.77 402.856 14
-2 -4 8 651.585 217.304 17
2 4 -8 560.427 239.235 14
-2 -4 7 35676.4 1521.65 17
2 4 -7 38543.7 1575.61 14
-2 -4 6 13891.7 1033.75 17
2 4 -6 14529.3 1025.71 14
-2 -4 5 3155.31 500.633 17
2 4 -5 2857.46 465.844 14
-2 -4 4 10006.2 854.839 17
2 4 -4 10044.7 801.45 14
-2 -4 3 89.1481 163.66 17
2 4 -3 489.189 466.686 20
2 4 -2 68994 3918.14 20
2 4 -1 19715.1 1975.48 20
2 4 0 2584.37 723.629 20
-2 -4 0 1923.19 546.135 4
2 4 1 502.417 507.633 20
-2 -4 -1 -3.91238 314.706 4
-2 -4 -2 44663.1 2356.95 4
2 4 2 45710.1 2492.93 20
-2 -4 -3 7723.7 1037.37 5
-2 -4 -4 1566.65 549.228 5
-2 -4 -5 91895.5 2812.26 6
-2 -4 -5 86415 3743.71 5
-2 -4 -6 60138.2 3386.47 5
-2 -4 -7 2691.96 846.81 5
-2 -4 -8 57870.9 1890.41 16
-2 -4 -8 49317.4 3609.6 5
-2 -4 -9 106729 5687.64 5
2 4 9 97880 2384.4 8
-2 -4 -9 102265 2670.45 16
-2 -4 -10 12248.5 949.717 7
-2 -4 -11 7587.95 735.408 7
-2 -4 -11 7806.08 735.973 13
-2 -4 -12 234.713 201.497 7
-2 -4 -12 693.117 244.304 13
-2 -4 -13 3.27456 108.932 13
-2 -5 8 103.358 113.893 17
-2 -5 7 -31.8899 184.683 17
2 5 -7 277.132 218.477 14
-2 -5 6 3151.6 499.117 17
2 5 -6 2987.92 450.712 14
-2 -5 5 71.427 272.122 17
2 5 -5 -72.7713 179.017 14
-2 -5 4 17405.4 1184.1 17
2 5 -4 17147.1 1057.09 14
-2 -5 3 5519.68 670.724 17
2 5 -3 5045.78 550.756 14
2 5 -3 4553.87 1345.73 20
-2 -5 2 489.865 229.775 17
2 5 -2 675.771 620.082 20
2 5 -1 34098 2909.22 20
-2 -5 0 78239.9 3656.68 4
2 5 0 86014.5 4349.18 20
-2 -5 -1 23986.3 1979.69 4
2 5 1 27235 2306.66 20
-2 -5 -2 74933.4 3444.16 4
2 5 2 82894 3782.36 20
-2 -5 -3 5734.56 1028.55 4
2 5 3 5940.08 1022.53 20
-2 -5 -4 3116.32 766.737 5
-2 -5 -5 4676.94 939.102 5
-2 -5 -6 52750 3377.14 5
-2 -5 -7 120029 2618.51 16
-2 -5 -7 113074 5268.15 5
-2 -5 -8 31279.8 1415.63 16
-2 -5 -8 29174.9 2873.06 5
-2 -5 -9 8175.11 777.332 16
-2 -5 -9 6196.61 1388.73 5
-2 -5 -10 7045.58 673.793 7
-2 -5 -10 7676.82 778.73 16
-2 -5 -11 571.391 240.646 7
-2 -5 -11 276.938 263.74 13
-2 -5 -12 8918.71 655.393 7
-2 -5 -12 9636.54 753.817 13
-2 -5 -13 828.752 231.514 13
-2 -6 7 2778.55 338.979 17
-2 -6 6 397.668 257.933 17
-2 -6 5 7505.39 767.865 17
-2 -6 4 42016.4 1847.5 17
-2 -6 3 11680.4 996.727 17
2 6 -3 10599.7 1938.28 20
-2 -6 2 2153.84 449.662 15
-2 -6 2 2811.85 519.9 17
2 6 -2 2045.09 867.178 20
-2 -6 1 52519.9 1872.38 15
-2 -6 1 52546.9 1910.28 17
2 6 -1 54109.1 4057.81 20
-2 -6 0 19473.4 1109.73 17
-2 -6 0 18860 1109.72 15
2 6 0 19207 2355.28 20
-2 -6 -1 12241.4 1650.09 4
2 6 1 8963.48 1514.65 20
-2 -6 -2 24441.3 2258.67 4
2 6 2 24041.4 2328.23 20
-2 -6 -3 1055.9 441.056 4
2 6 3 969.914 559.061 20
-2 -6 -4 534.777 532.949 4
2 6 4 710.952 471.844 20
-2 -6 -5 13568.2 1764.85 4
-2 -6 -5 12103.1 1635.12 5
-2 -6 -6 21227.6 1110.64 16
-2 -6 -6 22212.3 2302.15 4
-2 -6 -6 17557.8 2060.89 5
-2 -6 -7 418.395 447.567 5
-2 -6 -7 -82.4992 201.278 16
-2 -6 -8 31608.2 1464.47 16
-2 -6 -8 28268.3 2911.65 5
-2 -6 -9 60764.3 2095.77 16
-2 -6 -10 27849.5 1433.54 16
-2 -6 -11 156.92 209.328 13
-2 -6 -12 14938.6 953.246 13
-2 -6 -13 9921.6 637.487 13
-2 -7 6 19499.9 868.127 17
-2 -7 5 676.149 278.677 17
-2 -7 4 83.4956 249.284 17
-2 -7 3 5145.49 688.894 17
-2 -7 2 1749.03 455.371 17
-2 -7 2 1682.38 396.518 15
-2 -7 1 24091.8 1378.98 17
-2 -7 1 22979.5 1337.8 15
2 7 -1 25194.4 3045.62 20
-2 -7 0 175.398 192.771 17
-2 -7 0 485.205 270.915 15
-2 -7 -1 -40.9014 213.715 17
-2 -7 -1 -42.0139 249.601 15
2 7 1 -139.563 517.472 20
-2 -7 -2 26347.1 1277.13 17
-2 -7 -2 24382.8 1339.86 15
-2 -7 -2 28551.4 2736.14 4
2 7 2 25397.3 2670.64 20
-2 -7 -3 19.8908 209.605 15
-2 -7 -3 176.791 384.967 4
2 7 3 608.47 523.707 20
-2 -7 -3 333.02 212.48 17
-2 -7 -4 19371.9 1165.36 15
-2 -7 -4 20675.1 2330.04 4
2 7 4 17169 1978.01 20
-2 -7 -5 22937.9 2477.33 4
-2 -7 -5 20050.9 1134.81 16
-2 -7 -5 19099.6 1139.18 15
-2 -7 -6 1841.3 716.144 5
-2 -7 -6 955.087 311.708 16
-2 -7 -6 788.566 476.628 4
-2 -7 -7 3661.24 1139.16 5
-2 -7 -7 3629.43 528.073 16
-2 -7 -7 3426.13 1023.04 4
-2 -7 -8 3368.84 1060.37 5
-2 -7 -8 2642.36 472.11 16
-2 -7 -8 4177.32 1108.25 4
-2 -7 -9 99906.6 2701.55 16
-2 -7 -10 1929.13 433.01 16
-2 -7 -11 2092.85 420.678 16
-2 -7 -11 1550.7 371.842 13
-2 -7 -12 11624.7 824.78 13
-2 -7 -13 5968.63 496.13 13
-2 -8 5 1544.16 259.437 17
-2 -8 4 8327.27 675.479 17
-2 -8 3 815.6 288.123 17
-2 -8 2 2537.94 444.244 15
-2 -8 2 3322.21 555.939 17
-2 -8 1 50260.6 1986.49 17
-2 -8 1 47427.9 1920.84 15
-2 -8 0 4917.26 638.74 17
-2 -8 0 4973.75 682.552 15
-2 -8 -1 16525.1 1107.05 17
-2 -8 -1 16018.1 1183.35 15
2 8 1 16760.2 2485.35 20
-2 -8 -2 1564.59 409.785 15
-2 -8 -2 1322.45 334.135 17
-2 -8 -3 2533.41 498.685 15
-2 -8 -3 2714.91 957.066 4
-2 -8 -3 2230.18 402.479 17
2 8 3 3212.95 1067.64 20
-2 -8 -4 10233.1 920.703 15
-2 -8 -4 11673.4 1931.6 4
-2 -8 -5 1087.44 342.317 16
-2 -8 -5 704.333 269.452 15
-2 -8 -5 209.279 490.061 4
-2 -8 -6 172.782 224.615 16
-2 -8 -6 -440.731 409.402 4
-2 -8 -7 8974.8 825.565 16
-2 -8 -8 7000.22 742.809 16
-2 -8 -9 -21.0498 217.658 16
-2 -8 -10 2146.4 438.587 16
-2 -8 -11 5233.12 579.375 16
-2 -8 -11 4975.63 570.964 13
-2 -8 -12 33433.8 1294 13
-2 -8 -13 9845.66 582.849 13
-2 -9 3 5062.97 478.646 17
-2 -9 2 3151.42 437.747 17
-2 -9 1 2248.57 415.667 17
-2 -9 1 3238.38 506.816 15
-2 -9 0 3715.06 535.281 17
-2 -9 0 2598.89 490.038 15
-2 -9 -1 1651.22 436.917 15
-2 -9 -1 1478.6 361.138 17
-2 -9 -2 214.339 181.858 17
-2 -9 -2 -236.469 325.414 15
-2 -9 -3 17879.2 1272.04 15
-2 -9 -4 9011.14 902.331 15
-2 -9 -5 11718 959.719 16
-2 -9 -5 12698.7 1040.25 15
-2 -9 -6 19973.9 1238.57 16
-2 -9 -7 10931.3 917.624 16
-2 -9 -8 10734.5 903.587 16
-2 -9 -9 3348.59 506.729 16
-2 -9 -10 1949.49 391.033 16
-2 -9 -11 3927.2 466.526 16
-2 -9 -11 3397.81 431.271 13
-2 -9 -12 40295.5 1232.28 13
-2 -10 1 6653.71 505.738 17
-2 -10 0 7723.71 603.534 17
-2 -10 -1 13911.9 830.714 17
-2 -10 -1 14396.4 1004.02 15
-2 -10 -2 14621.4 1064.99 15
-2 -10 -3 3994.33 613.752 15
-2 -10 -4 19612.1 1182.6 16
-2 -10 -4 18930.3 1247.71 15
-2 -10 -5 429.429 268.938 16
-2 -10 -6 2748.93 474.745 16
-2 -10 -7 460.853 255.928 16
-2 -10 -8 4318.15 552.148 16
-2 -10 -9 396.188 196.49 16
-2 -10 -10 9585.47 606.833 13
-2 -10 -10 10957.7 742.374 16
-2 -10 -11 27.3466 130.544 16
-2 -10 -11 214.773 138.922 13
-2 -11 0 3579.3 319.923 16
-2 -11 -2 3744.79 441.258 16
-2 -11 -3 466.649 223.073 16
-2 -11 -4 1309.91 306.872 16
-2 -11 -5 1057.12 318.785 16
-2 -11 -6 3228.22 444.555 16
-2 -11 -7 277.359 188.732 16
-2 -11 -8 750.127 245.868 16
-2 -11 -9 22191.3 950.294 16
-2 -11 -10 3550.1 353.002 16
-2 -12 -3 4486.53 340.674 16
-2 -12 -4 4658.61 382.141 16
-2 -12 -5 15087.6 696.165 16
-2 -12 -6 1468.34 242.837 16
-2 -12 -7 224.599 131.378 16
-2 -12 -8 -87.2617 97.052 16
3 -9 -3 14108.1 775.964 15
3 -9 -2 6995.28 578.097 15
3 -9 -1 15487.7 821.954 15
3 -9 0 -178.418 156.691 15
3 -8 -4 20043 1035.69 15
3 -8 -3 9459.44 770.55 15
3 -8 -2 10742.6 860.692 15
3 -8 -1 9917.2 828.587 15
3 -8 0 2422.69 421.845 15
3 -8 1 506.263 234.901 15
3 -8 2 343.609 198.803 15
3 -7 -4 3476.08 495.488 10
3 -7 -3 4313.66 577.19 10
3 -7 -3 3118.28 501.151 15
3 -7 -2 1000.75 344.994 10
3 -7 -2 607.186 317.761 15
3 -7 -1 64.8795 270.924 10
3 -7 -1 -44.8116 271.466 15
3 -7 0 48960.6 1952.61 10
3 -7 0 53134 2079.17 15
3 -7 1 3961.95 606.258 15
3 -7 2 9334.31 832.608 15
3 -7 3 1841.97 351.321 15
3 -7 4 7821.25 542.05 15
3 -6 -4 1757.39 378.546 10
3 -6 -4 1879.41 382.12 11
3 -6 -3 1990.75 402.878 11
3 -6 -3 1890.41 402.017 10
3 -6 -3 2192.95 432.898 15
3 -6 -2 1558.56 394.844 10
3 -6 -2 1539.44 379.039 11
3 -6 -2 1507.47 408.875 15
3 -6 -1 49076.5 1970.84 10
3 -6 -1 48540.2 2016.57 15
-3 6 1 55033.7 4428.7 20
3 -6 0 3813.08 598.694 10
3 -6 0 2933.14 546.874 15
3 -6 1 23240.2 1418.28 10
3 -6 1 20862.5 1362.81 15
3 -6 2 2720.85 541.625 15
3 -6 3 -183.493 285.748 15
3 -6 4 6031.74 540.854 17
3 -6 4 7001.21 670.259 15
3 -6 5 339.393 157.562 17
3 -6 5 461.418 185.208 15
3 -5 -10 3196.6 405.099 12
3 -5 -9 7891.36 699.406 12
3 -5 -8 358.671 257.425 12
3 -5 -8 72.9468 187.104 13
3 -5 -7 5128.47 618.204 12
3 -5 -6 2223.05 411.337 12
3 -5 -5 17739.3 1090.99 11
3 -5 -4 6307.16 663.727 11
3 -5 -3 91752.4 2488.17 11
-3 5 3 96008.6 5620.04 2
3 -5 -2 13204.3 968.728 11
-3 5 2 8804.4 1805.63 2
3 -5 -1 95.1872 237.679 11
-3 5 1 1947.98 895.459 2
3 -5 0 1374.62 377.418 11
3 -5 0 1185.43 342.93 10
-3 5 0 341.882 487.72 2
3 -5 1 320.363 279.982 10
-3 5 -1 376.321 523.769 20
-3 5 -1 766.864 620.805 2
3 -5 1 385.758 196.282 8
-3 5 -2 3596.23 1269.6 20
3 -5 2 2136.53 468.633 10
3 -5 2 2160.54 424.809 8
3 -5 3 84992.5 2677.81 10
3 -5 3 82692.6 2649.74 15
3 -5 3 88571.5 2494.47 8
3 -5 4 39873.5 1743.59 15
3 -5 4 40151.6 1697.61 8
3 -5 5 6193.68 641.289 15
3 -5 5 6451.8 665.886 8
3 -5 6 35.8316 188.171 8
3 -5 7 3883.21 386.328 17
3 -4 -11 6837.1 526.324 12
3 -4 -10 931.732 296.361 12
3 -4 -9 32274.8 1519.56 12
3 -4 -9 33069.9 1479.49 13
3 -4 -8 3011.59 548.616 12
3 -4 -8 2255.18 433.519 13
3 -4 -7 13570.2 975.701 13
3 -4 -7 11196.7 1960.23 18
3 -4 -7 14594.9 1068.37 12
3 -4 -6 1016.42 641.401 18
3 -4 -6 274.338 224.168 12
-3 4 6 1117.83 739.006 19
3 -4 -6 114.76 175.532 13
3 -4 -5 24277.2 1298.5 12
3 -4 -5 26281.7 2815.26 18
-3 4 5 26719.5 2566.88 19
3 -4 -4 20070.4 1136.5 12
-3 4 4 17588.1 2143.36 2
3 -4 -4 19813.4 2397.86 18
-3 4 3 -514.081 510.108 2
3 -4 -3 222.005 206.615 12
3 -4 -2 5278.09 592.598 11
-3 4 2 2870.06 1002.9 2
3 -4 -1 6910.33 691.881 11
-3 4 1 6316.73 1474.48 2
3 -4 0 2661.31 452.083 11
-3 4 0 4626.7 1299.69 2
3 -4 1 2494.07 466.867 11
3 -4 1 2841.91 474.497 10
-3 4 -1 2218.79 787.113 6
3 -4 1 2698.79 396.129 8
-3 4 -2 57201.2 3760.64 6
3 -4 2 62119.1 1935.9 8
3 -4 2 61394 2144.61 10
3 -4 3 30753 1567.87 10
3 -4 3 32007.5 1473.57 8
-3 4 -3 31457.7 2925.25 6
-3 4 -3 34480.5 3745.61 2
-3 4 -3 27780.5 3096.67 20
-3 4 -4 86393.1 5110.24 6
3 -4 4 80229.3 2539.01 10
3 -4 4 84222.5 2476.54 8
-3 4 -4 77850.3 5136.49 20
3 -4 5 20049.6 1215.83 15
3 -4 5 21475.1 1272.17 8
3 -4 6 9703.71 841.196 8
3 -4 7 282.919 202.19 8
3 -4 8 -121.136 182.507 8
3 -3 -11 2383.32 348.021 12
3 -3 -10 9862.37 812.491 12
3 -3 -9 7392.14 756.665 13
3 -3 -8 3024.12 521.871 13
-3 3 7 10385.5 1828.29 19
3 -3 -7 7510.56 1641.61 18
3 -3 -7 8232.57 783.12 13
-3 3 6 49358.5 3793.77 19
3 -3 -6 41416.7 3737.84 18
3 -3 -6 46097.4 1739.25 13
3 -3 -5 4773.85 603.064 12
3 -3 -5 3812.3 1129.82 18
-3 3 5 5025.87 1140.38 19
3 -3 -5 5422.38 569.19 13
3 -3 -4 12802.4 910.203 12
3 -3 -4 12852 1884.89 18
-3 3 4 13720.6 1775.8 19
-3 3 4 14415.6 1804.08 2
-3 3 3 19508.6 2169.13 2
-3 3 3 18827.8 1905.78 19
3 -3 -3 19784.2 2251.84 18
-3 3 2 14498.7 1955.02 2
-3 3 1 30221.2 2787.89 2
-3 3 0 165639 6688.41 2
-3 3 -1 132.124 507.489 2
3 -3 2 1640.08 396.019 11
-3 3 -2 1713.33 713.508 6
-3 3 -2 2956.08 987.304 2
-3 3 -3 898.106 533.502 6
3 -3 3 26.1806 192.99 10
-3 3 -3 917.122 751.655 2
3 -3 3 -133.278 205.106 8
-3 3 -4 38687.3 3364.67 6
3 -3 4 35414.1 1614.79 10
-3 3 -4 33194.5 3426.83 2
-3 3 -4 32237.1 3093.11 20
3 -3 4 35917.1 1564.02 8
-3 3 -5 8144.56 1660.31 6
3 -3 5 9822.97 876.629 8
3 -3 6 19550.7 1232.56 8
3 -3 7 34360.5 1558.21 8
3 -3 8 -72.5824 192.755 8
3 -3 9 1031.25 259.663 8
3 -2 -11 8559.05 623.396 12
3 -2 -10 56.8296 162.622 14
3 -2 -9 20001.1 1087.73 14
3 -2 -8 20308 1147.87 14
3 -2 -8 18071.9 1214.28 13
-3 2 7 1146.52 611.914 19
3 -2 -7 1091.17 712.842 18
3 -2 -7 490.452 254.022 14
3 -2 -7 789.9 332.992 13
3 -2 -6 131931 6580.12 18
3 -2 -6 129377 2962.42 13
-3 2 5 -209.25 492.355 19
3 -2 -5 14.3802 452.903 18
3 -2 -5 -95.2596 163.944 13
3 -2 -4 23866.1 2525.06 18
-3 2 4 28196.8 2509.82 19
-3 2 3 20211.3 2061.34 2
3 -2 -3 19870.1 2178.61 18
-3 2 3 19079.9 1901.89 19
-3 2 2 3045.14 908.337 2
3 -2 -2 2426.96 801.746 18
-3 2 2 2269.15 710.477 19
-3 2 1 54551.9 3457.05 2
-3 2 0 6349.07 1240.35 2
-3 2 -1 3078.59 855.092 2
-3 2 -2 5986.69 1282.8 2
-3 2 -3 -1072.24 579.943 6
-3 2 -3 533.485 738.356 2
3 -2 4 5532.75 592.071 10
-3 2 -4 7580.6 1470.15 6
-3 2 -4 6220.77 584.705 9
3 -2 4 6499.42 630.954 8
-3 2 -4 6844.56 1447.02 2
-3 2 -5 9491.56 1778.18 6
-3 2 -5 11198.2 839.403 9
-3 2 -5 9660.02 1636.6 20
3 -2 5 10903.5 873.553 8
3 -2 5 11428.2 882.143 10
-3 2 -5 8657.3 1642.84 2
-3 2 -6 26506 3024.29 6
3 -2 6 28534.2 1462.33 8
3 -2 7 124700 3048.47 8
3 -2 8 14921.8 1022.78 8
-3 2 -9 3354.97 438.859 7
3 -2 9 3513.82 471.212 8
-3 2 -10 -70.2978 133.969 7
3 -2 10 214.018 143.228 8
3 -1 -11 5541.66 478.871 12
3 -1 -11 5560.25 403.622 14
3 -1 -10 12646.1 803.053 14
3 -1 -9 6390.23 662.983 14
3 -1 -8 952.811 327.29 14
-3 1 7 47299.6 3931.04 19
3 -1 -7 48249.8 1842.72 14
3 -1 -7 49556.3 4294.52 18
3 -1 -7 50108.4 1963.78 13
-3 1 6 33586.1 3165.87 19
3 -1 -6 35369.8 3430.12 18
3 -1 -6 33415.2 1472.89 14
3 -1 -6 35025.3 1571.59 13
-3 1 5 3697.69 1044.33 19
3 -1 -5 4149.24 522.479 14
3 -1 -5 3554.97 1096.44 18
3 -1 -5 5071.8 575.11 13
-3 1 4 144744 5615.65 19
3 -1 -4 137163 5880.19 18
-3 1 4 141282 5146.75 3
-3 1 3 348.432 444.493 19
3 -1 -3 375.176 577.101 18
3 -1 -2 6671.43 1231.4 18
-3 1 2 5405.71 1017.63 19
-3 1 2 6793.06 1169.25 2
-3 1 1 101571 4352.39 2
-3 1 1 95414 3826.42 19
3 -1 -1 90812.5 4118.47 18
-3 1 0 47395.8 3035.75 2
-3 1 -1 25201.9 2278.03 2
-3 1 -2 53408.6 3365.09 2
-3 1 -3 221475 7021.9 2
-3 1 -4 61810 3851.86 2
-3 1 -4 60512.8 3758.56 6
-3 1 -5 6612.26 1247.56 2
-3 1 -5 5546.74 1299.79 6
-3 1 -5 5398.55 587.589 9
3 -1 5 7016.55 669.887 8
-3 1 -6 1064.72 677.312 6
-3 1 -6 2566.92 444.351 9
3 -1 6 2100.85 422.876 8
-3 1 -7 35827.5 3503.53 6
3 -1 7 38788.6 1692.34 8
3 -1 8 1046.03 369.016 8
3 -1 9 6253.74 653.126 8
-3 1 -10 27633.4 1181.04 7
3 -1 10 27612.1 1138.19 8
-3 1 -11 2572.79 290.382 7
3 0 -10 9094.95 673.378 14
3 0 -9 7282.32 706.222 14
3 0 -8 1917.32 429.133 14
-3 0 7 1340.14 537.744 19
3 0 -7 750.216 344.4 14
3 0 -6 35156.6 1572.89 14
3 0 -6 35092.2 1605.39 13
-3 0 5 128529 5779.18 19
3 0 -5 129727 2800.6 14
3 0 -5 122342 2792.09 13
-3 0 4 79431.3 4217.8 19
-3 0 4 79277.4 3804.17 3
-3 0 3 145729 5281.78 19
-3 0 3 144616 5165.56 3
3 0 -3 142615 5568.14 18
3 0 -2 29890.1 2399.77 18
-3 0 2 31958.3 2322.61 19
-3 0 1 27844 2078.99 19
-3 0 1 27726.1 2196.61 2
3 0 -1 25450.6 2089.27 18
-3 0 0 12598.8 1531.15 2
3 0 0 13282.7 1482.04 18
-3 0 -1 488.884 438.527 2
-3 0 -2 127175 4757.2 2
-3 0 -3 130983 4964.36 2
-3 0 -3 144263 3259.97 5
-3 0 -4 857.489 520.928 2
-3 0 -4 198.766 248.659 5
-3 0 -5 20457.4 2237.7 6
-3 0 -5 17039.6 1860.86 2
-3 0 -5 20891.3 1798.42 5
-3 0 -6 14731.1 2023.08 6
-3 0 -6 12352.8 892.415 9
-3 0 -6 13999.9 1677.01 5
3 0 6 12909.8 900.168 8
-3 0 -7 3269.57 508.493 9
3 0 7 2333.92 434.054 8
3 0 8 14242.4 1035.43 8
3 0 9 44453.2 1757.09 8
-3 0 -10 71729.8 2185.54 7
3 0 10 70304.4 1984.53 8
3 0 11 6915.68 505.515 8
-3 0 -11 6550.14 571.81 7
3 1 -10 4215.22 448.828 14
3 1 -10 3707.97 402.007 12
3 1 -9 25056.7 1254.36 14
3 1 -8 3455.29 524.791 14
3 1 -7 29649.3 1521.89 14
-3 -1 6 18557 2321.95 19
3 1 -6 18555.1 1189.79 14
-3 -1 5 25932.9 2639.51 19
3 1 -5 24103.4 1268.42 14
-3 -1 4 56478.9 3595.13 19
-3 -1 3 84829.6 4104.63 19
-3 -1 3 78234 3870.77 3
-3 -1 2 219.366 407.97 19
-3 -1 2 304.111 354.881 3
3 1 -2 484.616 508.058 18
-3 -1 1 244182 6203.97 19
3 1 -1 248509 6340.78 18
-3 -1 1 258791 6647.21 3
3 1 0 1512.11 616.4 18
-3 -1 -1 7636.62 1199.44 2
-3 -1 -2 22011.9 1923.44 2
-3 -1 -2 21428.9 957.024 5
-3 -1 -3 16403.9 1667.3 2
-3 -1 -3 14746.5 1045.29 5
-3 -1 -4 1416.62 556.996 2
-3 -1 -4 723.279 295.81 5
-3 -1 -5 123822 5041.36 6
-3 -1 -5 116646 4107.91 5
-3 -1 -5 123217 4493.89 2
-3 -1 -6 13539.9 888.04 9
-3 -1 -6 13665.1 1616.5 5
-3 -1 -6 13402.3 1837.26 6
3 1 6 13449.6 886.449 8
-3 -1 -7 7713.04 736.419 9
-3 -1 -7 6090.2 1354.9 6
3 1 7 6075.9 642.617 8
-3 -1 -7 6638.39 1271.59 5
3 1 8 1422.03 378.907 8
-3 -1 -8 1703.39 987.885 6
3 1 9 43.6625 221.155 8
3 1 10 28189.9 1327.12 8
-3 -1 -11 264.337 237.922 7
3 1 11 19.6043 183.706 8
-3 -1 -12 197.326 157.392 7
3 2 -10 874.218 196.599 14
3 2 -9 1966.52 387.817 14
3 2 -8 60078.1 2042.35 14
3 2 -7 20546.5 1284.25 14
-3 -2 6 -412.768 525.2 19
3 2 -6 240.844 252.101 14
-3 -2 5 2793.87 985.146 19
3 2 -5 3259.03 523.679 14
3 2 -4 12393.9 1488.39 5
3 2 -4 13885.5 938.084 14
-3 -2 4 11875.2 1677.85 19
-3 -2 3 17585.7 1897.5 19
-3 -2 2 181050 5750.44 19
-3 -2 2 187073 6028.72 3
3 2 -1 140611 4677.76 18
-3 -2 1 140236 4763.74 19
-3 -2 1 133372 4960.74 3
-3 -2 0 315532 4459.65 4
3 2 0 321375 6544.24 18
-3 -2 0 302054 7222.08 3
3 2 1 15381.1 1393.27 18
-3 -2 -1 13958.4 1561.75 3
-3 -2 -2 108128 4155.25 3
-3 -2 -2 107694 2713.35 5
-3 -2 -3 2664.43 506.185 5
-3 -2 -4 87182.9 3088.32 5
-3 -2 -5 11673.1 1300.58 5
-3 -2 -5 13615 1422.51 3
-3 -2 -6 75818.9 4018.33 6
-3 -2 -6 73509.6 3629.35 5
-3 -2 -7 7988.65 1421.71 6
-3 -2 -7 7326.64 690.696 9
3 2 7 5954.3 632.73 8
-3 -2 -7 6272.35 1186.49 5
-3 -2 -8 39231.4 1663.59 9
-3 -2 -8 41857.9 3474.42 6
-3 -2 -8 40085.6 3231.81 5
3 2 8 41630.1 1680.04 8
3 2 9 21057.3 1220.43 8
3 2 10 5570.96 624.531 8
-3 -2 -11 1266.98 369.085 7
3 2 11 1124.82 244.827 8
-3 -2 -12 19644 964.146 7
3 3 -9 330.096 182.827 14
3 3 -8 11501.3 844.409 14
3 3 -7 6723.39 750.769 14
3 3 -6 78953.9 2479.32 14
-3 -3 6 76814.8 2241.41 17
-3 -3 5 17733.8 1100.56 17
3 3 -5 17665.2 1162.21 14
-3 -3 4 37584.4 1554.02 17
-3 -3 4 37701.3 3049.88 19
3 3 -4 39408.3 1639.61 14
3 3 -3 3195.75 466.116 14
-3 -3 3 2032.38 705.855 19
-3 -3 2 32256.9 2501.5 19
3 3 -1 208949 5696.16 18
-3 -3 1 200763 6380.33 3
-3 -3 0 271677 4937.97 4
3 3 0 263631 5801.37 18
-3 -3 0 263704 7051.12 3
3 3 1 51813.9 2341.41 18
-3 -3 -1 47261.5 2921.81 3
-3 -3 -2 61539 3231.14 3
-3 -3 -3 19740.2 1464.71 5
-3 -3 -3 19742.8 1812.71 3
-3 -3 -4 57186.6 2664.39 5
-3 -3 -4 51043.2 2797.45 3
-3 -3 -5 7607.92 1109.72 5
-3 -3 -5 7482.31 1057.36 3
-3 -3 -6 25765.6 2200.15 6
-3 -3 -6 27859.8 2248.95 5
-3 -3 -7 20669.3 2130.81 6
-3 -3 -7 24544.3 1176.97 16
-3 -3 -7 24682.2 1199.29 9
-3 -3 -7 20974.5 2186.57 5
-3 -3 -8 36474.9 3038.17 6
-3 -3 -8 38005.5 1564.79 16
-3 -3 -8 41811.7 1658.74 9
-3 -3 -8 40140.2 3250.26 5
3 3 8 39229.4 1618.57 8
3 3 9 3850.55 542.959 8
3 3 10 4035.69 537.508 8
-3 -3 -10 5757.46 605.275 13
-3 -3 -11 89.6247 237.013 7
3 3 11 113.621 201.604 8
-3 -3 -12 3831.95 472.823 7
-3 -3 -13 21597.9 797.217 7
3 4 -8 11252.5 708.61 14
-3 -4 7 19125.1 970.885 17
3 4 -7 20930.1 1143.54 14
-3 -4 6 953.219 344.58 17
3 4 -6 698.074 297.122 14
-3 -4 5 113770 2868.08 17
3 4 -5 113017 2932.52 14
-3 -4 4 73254.7 2304.23 17
3 4 -4 76008.1 2341.02 14
-3 -4 3 -32.2261 203.116 17
3 4 -3 305.425 230.365 14
-3 -4 2 13235.3 913.92 17
3 4 -2 13143 878.783 14
3 4 -1 6184.78 992.961 18
-3 -4 0 4658.21 820.803 4
-3 -4 -1 31259.2 2011.1 4
-3 -4 -2 66134.7 3021.43 4
-3 -4 -2 69851.5 3617.15 3
-3 -4 -3 98654.2 3658.87 5
-3 -4 -3 101317 4214.82 3
-3 -4 -4 63832.4 3085.11 5
-3 -4 -4 60938.6 3139.64 3
-3 -4 -5 20138.7 1861.93 5
-3 -4 -6 784.832 478.003 5
-3 -4 -6 997.42 498.783 6
-3 -4 -7 39366 1490.46 17
-3 -4 -7 38796.9 1489.15 16
-3 -4 -7 38773.3 1442.57 9
-3 -4 -7 34211.9 2841.04 5
-3 -4 -8 3074.31 939.835 5
-3 -4 -8 4017.48 542.644 16
-3 -4 -8 4084.72 511.8 9
-3 -4 -9 68330.6 2196.34 16
3 4 9 68690.6 2171.1 8
3 4 10 2475.97 438.194 8
-3 -4 -11 2572.8 456.902 7
-3 -4 -11 3676.81 497.036 13
3 4 11 3176.09 443.081 8
-3 -4 -12 4369.98 494.007 7
-3 -4 -12 4445.3 434.378 13
-3 -4 -13 3060.33 311.528 7
3 5 -7 12485.5 733.414 14
-3 -5 7 12043.9 692.164 17
-3 -5 6 20.3836 192.478 17
3 5 -6 0.95395 192.786 14
-3 -5 5 19149.4 1197.31 17
3 5 -5 22896.5 1254.06 14
-3 -5 4 650.793 308.73 17
3 5 -4 188.352 273.57 14
-3 -5 3 79246.4 2461.08 17
3 5 -3 79135.9 2334.12 14
-3 -5 2 14884 1046.27 17
3 5 -2 14354.3 972.509 14
-3 -5 1 37997.6 1580.84 17
3 5 -1 33681.5 1396.88 14
-3 -5 0 14204 1537.01 4
-3 -5 -1 13365.3 1539.53 4
-3 -5 -2 86413.3 3818.32 4
-3 -5 -3 69171.8 3520.47 4
-3 -5 -4 25942.3 2177.49 5
-3 -5 -5 5456.15 1063.4 5
-3 -5 -6 4713.13 1033.08 5
-3 -5 -6 7506.12 643.21 16
-3 -5 -7 7773.38 676.053 17
-3 -5 -7 6981.3 663.935 16
-3 -5 -8 13727.4 1998.85 5
-3 -5 -8 14180 916.184 17
-3 -5 -8 14918.1 1008.75 16
-3 -5 -9 5367.52 641.642 16
3 5 10 4.23422 225.446 8
-3 -5 -10 319.585 292.798 16
3 5 11 81.6367 156.205 8
-3 -5 -11 80.8028 189.507 7
-3 -5 -12 12541.5 745.81 7
-3 -5 -12 12805 796.462 13
-3 -5 -13 589.588 156.201 13
-3 -6 6 17704.6 911.962 17
3 6 -5 12496.2 808.985 14
-3 -6 5 13377.2 946.49 17
-3 -6 4 24981.3 1389.49 17
3 6 -4 25694.1 1254.13 14
-3 -6 3 1381.73 413.136 17
3 6 -3 1541.65 350.905 14
-3 -6 2 144594 3407.58 17
3 6 -2 143068 3000.6 14
-3 -6 1 118522 3006.82 17
-3 -6 0 9841.68 847.157 17
-3 -6 0 8093.33 781.384 15
-3 -6 -1 10712.4 861.528 17
-3 -6 -1 10142.5 1480.62 4
-3 -6 -1 10338.3 864.427 15
-3 -6 -2 53260.1 1835.72 17
-3 -6 -2 48551.5 3217.17 4
-3 -6 -2 54422.8 1927.35 15
-3 -6 -3 882.667 629.183 4
-3 -6 -4 4487.24 1038.66 4
-3 -6 -5 15064.1 1927.52 4
-3 -6 -5 16437.6 969.353 16
-3 -6 -5 16860.7 1997.9 5
-3 -6 -6 37833.7 1466.94 17
-3 -6 -6 38897.4 1542.2 16
-3 -6 -6 37166.3 3073.79 5
-3 -6 -7 12056.3 1846.66 5
-3 -6 -7 12130.4 901.608 16
-3 -6 -8 19169.5 1162.66 16
-3 -6 -8 19353.5 2442.42 5
-3 -6 -9 18742.8 1170.44 16
3 6 10 -369.4 276.623 8
-3 -6 -10 251.294 227.792 16
3 6 11 2896.72 408.03 8
-3 -6 -12 22568.8 1104.91 13
-3 -6 -13 310.203 168.145 13
-3 -7 5 628.282 242.818 17
-3 -7 4 8646.13 784.23 17
-3 -7 3 2911.41 522.847 17
-3 -7 2 27467.2 1512.46 17
-3 -7 1 1033.99 382.127 17
-3 -7 0 101520 2844.92 17
-3 -7 0 99069.9 2792.94 15
-3 -7 -1 61071 2159.52 17
-3 -7 -1 60466.3 2194.18 15
-3 -7 -2 7626.22 762.747 17
-3 -7 -2 8268.86 834.222 15
-3 -7 -2 8057.3 1470.55 4
-3 -7 -3 14218.3 995.087 17
-3 -7 -3 14982.1 2022.66 4
-3 -7 -3 15830.2 1122.37 15
-3 -7 -4 11914.6 1813.9 4
-3 -7 -4 10462.7 836.771 17
-3 -7 -5 12137.1 883.492 17
-3 -7 -5 13283.5 942.414 16
-3 -7 -5 13419.4 1941.55 4
-3 -7 -6 18339.5 2334.5 4
-3 -7 -6 17407.3 1088.77 16
-3 -7 -7 14532.9 2095.85 5
-3 -7 -7 16611.8 1083.38 16
-3 -7 -7 11306.6 1863.7 4
-3 -7 -8 942.233 301.061 16
-3 -7 -9 35.6886 206.756 16
-3 -7 -10 -14.849 257.152 16
-3 -7 -11 14903.7 980.43 16
-3 -7 -12 4216.65 497.413 13
-3 -7 -13 4252.35 396.857 13
-3 -8 4 446.396 207.493 17
-3 -8 3 7287.26 691.172 17
-3 -8 2 15630.5 1079.27 17
-3 -8 1 36965.2 1721.03 17
-3 -8 0 24715.9 1431.53 17
-3 -8 -1 29129.7 1532.64 17
-3 -8 -1 30143.2 1623.57 15
-3 -8 -2 54821.6 2045.45 17
-3 -8 -2 53195.7 2137.18 15
-3 -8 -3 41347.2 3556.58 4
-3 -8 -3 37017.3 1648.7 17
-3 -8 -4 9892.69 836.128 17
-3 -8 -4 4083.42 1208.61 4
-3 -8 -5 44224.7 1684.33 17
-3 -8 -5 41410.3 3608.14 4
-3 -8 -5 44446.7 1787.2 16
-3 -8 -6 5484.29 662.789 16
-3 -8 -7 134.226 210.992 16
-3 -8 -8 150.625 214.901 16
-3 -8 -9 10252.3 869.031 16
-3 -8 -10 7712.76 752.637 16
-3 -8 -11 300.827 231.51 16
-3 -8 -12 384.256 223.451 13
-3 -8 -13 1024.55 211.188 13
-3 -9 3 665.312 220.408 17
-3 -9 2 30.9637 173.696 17
-3 -9 1 682.177 312.46 17
-3 -9 0 -227.392 255.313 17
-3 -9 -1 7886.56 778.397 17
-3 -9 -2 193.193 194.093 17
-3 -9 -3 42384.1 1727.41 17
-3 -9 -4 23367.6 1243.5 17
-3 -9 -4 24549.4 1348.18 16
-3 -9 -5 21378.4 1268.81 16
-3 -9 -6 32194.6 1542.55 16
-3 -9 -7 -127.962 260.257 16
-3 -9 -8 890.016 337.531 16
-3 -9 -9 29.0649 210.287 16
-3 -9 -10 655.978 274.903 16
-3 -9 -11 7401.55 616.724 16
-3 -9 -12 3353.61 370.418 13
-3 -10 1 6034.37 486.667 17
-3 -10 0 4734.14 490.665 17
-3 -10 -1 6876.48 623.636 17
-3 -10 -2 5170.09 561.003 17
-3 -10 -3 6069.7 591.14 17
-3 -10 -4 11134.4 867.399 16
-3 -10 -5 51730.2 1876.05 16
-3 -10 -6 12002.2 904.473 16
-3 -10 -7 13270.5 955.855 16
-3 -10 -8 46674.6 1702.67 16
-3 -10 -9 197.423 194.435 16
-3 -10 -10 3276.31 407.416 16
-3 -10 -11 4146.5 411.039 16
-3 -10 -11 4022.83 385.108 13
-3 -11 -1 1318.13 222.935 16
-3 -11 -2 6215.67 500.375 16
-3 -11 -3 2097.3 336.297 16
-3 -11 -4 12657.6 803.178 16
-3 -11 -5 3236.98 428.536 16
-3 -11 -6 4370.57 500.262 16
-3 -11 -7 3281.34 428.498 16
-3 -11 -8 30835.2 1204.02 16
-3 -11 -9 13096.9 745.168 16
-3 -11 -10 -23.5909 120.765 16
-3 -12 -4 105.927 102.659 16
-3 -12 -5 2163.35 276.477 16
-3 -12 -6 138.674 136.125 16
-3 -12 -7 151.211 143.434 16
-3 -12 -8 14917.4 640.615 16
4 -8 -2 3257.98 391.526 15
4 -8 -1 1177.48 252.708 15
4 -8 0 2504.62 341.269 15
4 -8 1 1553.74 243.467 15
4 -7 -4 -43.3641 141.995 10
4 -7 -3 434.253 229.296 10
4 -7 -3 292.693 169.634 15
4 -7 -2 2321.35 412.807 10
4 -7 -2 1772.34 361.132 15
4 -7 -1 29761.2 1371.29 10
4 -7 -1 30714.3 1405.24 15
4 -7 0 59.8654 239.708 15
4 -7 1 251.997 240.104 15
4 -7 2 4362.37 474.355 15
4 -7 3 18316.1 788.405 15
4 -6 -5 307.59 198.523 11
4 -6 -4 1.06943 191.281 11
4 -6 -4 56.6569 174.704 10
4 -6 -3 555.918 275.976 11
4 -6 -3 591.938 298.526 10
4 -6 -3 54.3816 215.236 15
4 -6 -2 1338 367.568 11
4 -6 -2 1148 333.064 10
4 -6 -1 27086.6 1459.08 10
4 -6 -1 23488.6 1359.56 15
4 -6 0 952.119 373.706 10
4 -6 0 1206.72 392.634 15
4 -6 1 16894.7 1153.04 10
4 -6 1 17992.6 1201.39 15
4 -6 2 1997.85 453.641 15
4 -6 3 261.64 248.426 15
4 -6 4 1228.09 266.655 15
4 -5 -9 1461.57 262.508 12
4 -5 -8 1216.13 301.129 12
4 -5 -7 1538.85 347.407 12
4 -5 -6 21534.1 1192.46 12
4 -5 -6 20898.1 1147.02 11
4 -5 -5 422.52 269.637 12
4 -5 -5 218.121 228.874 11
4 -5 -4 210.783 244.93 12
4 -5 -4 397.301 276.682 11
4 -5 -3 838.493 269.921 12
4 -5 -3 757.897 300.95 11
4 -5 -2 518.679 300.566 11
4 -5 -1 2312.12 486.222 11
4 -5 0 1722.7 424.988 11
4 -5 0 1578.25 439.821 10
4 -5 1 13595 1083.42 10
4 -5 2 16228.9 1165.14 10
4 -5 3 1181.52 358.32 10
4 -5 3 2018.53 440.747 15
4 -5 3 2026.06 377.76 8
4 -5 4 5344.54 626.1 15
4 -5 4 5500.59 564.881 8
4 -5 5 179.172 174.803 15
4 -5 5 -72.154 192.494 8
4 -4 -10 8958.86 561.612 12
4 -4 -9 358.594 216.19 12
4 -4 -8 768.688 290.351 12
4 -4 -7 23674.9 1331.26 12
4 -4 -6 40901.8 1776.54 12
4 -4 -5 -135.725 205.62 12
4 -4 -4 48848.6 1917.46 12
4 -4 -3 2249.74 441.716 12
-4 4 3 1880.73 1149.97 2
4 -4 -3 2850.35 516.29 11
4 -4 -2 6389.92 706.794 12
-4 4 2 4637.27 1340.58 2
4 -4 -2 5382.49 668.823 11
4 -4 -1 600.273 268.149 12
4 -4 -1 302.398 228.761 11
4 -4 0 3670.49 539.908 12
4 -4 0 3411.44 585.258 11
-4 4 0 2676.53 1166.37 2
4 -4 1 15265.3 1125.46 11
4 -4 1 14896.7 1137.7 10
4 -4 2 12297.2 1038.44 10
4 -4 2 12351.4 860.671 8
4 -4 3 4396.89 667.729 10
4 -4 3 4970.82 584.721 8
4 -4 4 7455.16 785.299 10
4 -4 4 8397.37 766.658 8
4 -4 5 5189.47 624.322 15
4 -4 5 4985.29 591.796 8
4 -4 6 1846.75 317.125 15
4 -4 6 2844.23 432.973 8
4 -4 7 -58.735 145.179 8
4 -3 -10 494.379 198.75 12
4 -3 -9 744.904 279.243 12
4 -3 -8 20242.1 1230.85 12
4 -3 -7 68685.5 2364.15 12
4 -3 -6 563.783 347.757 12
4 -3 -5 17163.9 1194.33 12
4 -3 -5 19671.1 2704.14 18
-4 3 5 17511.1 2300.28 19
4 -3 -4 -20.6028 240.016 12
4 -3 -4 -399.148 592.321 18
4 -3 -3 4635.43 609.979 12
-4 3 3 3028.43 1065.02 2
4 -3 -2 1578.83 364.768 12
-4 3 2 1052.11 733.448 2
4 -3 -1 1095.53 330.639 12
4 -3 -1 766.824 328 11
-4 3 1 335.82 413.105 2
-4 3 0 2084.06 943.525 2
4 -3 0 3020.6 486.647 12
4 -3 0 3227.92 531.156 11
-4 3 -1 4823.53 1508.94 2
4 -3 1 4454.68 592.109 12
4 -3 1 4518.3 617.301 11
-4 3 -2 394.304 485.853 2
4 -3 2 625.864 327.775 11
4 -3 3 186.886 263.963 10
4 -3 3 17.5892 240.398 8
4 -3 4 37800.4 1723.51 10
4 -3 4 36348.3 1592.39 8
4 -3 5 3020.61 506.929 10
4 -3 5 2633.25 474.087 8
4 -3 6 2531.9 437.249 8
4 -3 7 4366.33 532.856 8
4 -3 8 1433.14 288.107 8
4 -2 -10 3762.36 429.811 12
4 -2 -9 11324.3 858.977 12
4 -2 -8 1794.42 441.55 12
4 -2 -7 9729.42 937.69 12
4 -2 -6 4136.64 637.341 12
-4 2 5 19908.8 2563.94 19
4 -2 -5 19280.7 2692.9 18
4 -2 -5 23772.4 1421.95 12
-4 2 4 691.546 629.797 19
4 -2 -4 353.754 578.416 18
4 -2 -4 -127.142 224.01 12
4 -2 -3 3363.83 1128.41 18
4 -2 -3 2235.85 456.166 12
-4 2 3 3418.14 1087.44 2
-4 2 3 1805.17 751.218 19
4 -2 -2 830.197 271.243 12
-4 2 2 -234.737 609.087 2
4 -2 -1 34958.5 1518.52 12
-4 2 1 36854.2 3350.82 2
4 -2 0 -204.912 234.734 12
4 -2 0 325.012 254.657 11
4 -2 1 68318.1 2172.1 11
-4 2 -1 69185.1 4737.9 2
4 -2 1 66626.5 2117.75 12
4 -2 2 229.639 188.498 12
4 -2 2 117.067 229.475 11
-4 2 -2 -155.984 156.963 9
4 -2 3 20009.5 1235.56 11
-4 2 -3 21561.2 2502.13 6
-4 2 -3 22358.4 2847.8 2
-4 2 -3 20811.9 1145.46 9
4 -2 3 20011.4 1083.63 8
-4 2 -4 19591.3 2699.52 2
-4 2 -4 25876.9 2875.03 6
4 -2 4 21526.3 1257.03 10
-4 2 -4 21541.8 1183 9
4 -2 4 23498.9 1250.63 8
4 -2 5 17441.4 1121.26 10
-4 2 -5 16185.4 2395.69 6
-4 2 -5 17886.7 1086.99 9
4 -2 5 16763.9 1107.24 8
4 -2 6 4177.92 598.52 8
4 -2 7 20121 1194.41 8
4 -2 8 -234.121 206.584 8
-4 2 -9 5960.14 452.244 7
4 -2 9 6062 518.447 8
4 -1 -10 7209.11 546.751 12
4 -1 -9 4021.71 524.936 12
4 -1 -9 3418.58 417.537 14
4 -1 -8 125.108 266.874 12
4 -1 -8 539.955 265.365 14
4 -1 -7 3669.88 665.796 12
4 -1 -7 3298.76 504.411 14
4 -1 -6 18449 1261.77 12
4 -1 -6 18112.3 1137.59 14
-4 1 5 116906 6185.7 19
4 -1 -5 111890 6348.32 18
4 -1 -5 108588 3002.29 12
4 -1 -5 109715 2694.18 14
4 -1 -4 55379.7 4286.91 18
4 -1 -4 60373.5 2149.38 12
-4 1 4 59752.2 4216.21 19
4 -1 -4 60930.2 1950.38 14
-4 1 3 758.275 675.247 19
4 -1 -3 800.947 575.479 18
4 -1 -3 934 307.224 12
-4 1 3 22.1483 331.096 3
4 -1 -2 30232.7 1424.1 12
4 -1 -2 30970 2997.48 18
-4 1 2 33067.9 2988.5 2
-4 1 1 2647.38 851.165 2
-4 1 0 19083.3 2306.19 2
-4 1 -1 50.3974 405.739 2
4 -1 2 722.304 238.049 11
-4 1 -2 805.397 648.104 2
4 -1 2 739.492 269.325 12
-4 1 -3 4751.35 1239.38 2
4 -1 3 5009.24 595.456 11
-4 1 -3 6073.34 617.741 9
4 -1 3 4403.31 490.834 8
4 -1 3 4816.47 600.791 12
-4 1 -4 1829.52 761.079 2
4 -1 4 2307.86 437.78 11
-4 1 -4 2436.15 925.77 6
-4 1 -4 1925.28 392.232 9
4 -1 4 2486.17 406.364 8
-4 1 -5 4627.06 1242.76 2
4 -1 5 6117.77 631.604 10
-4 1 -5 6663.47 1547 6
-4 1 -5 5470.43 637.695 9
4 -1 5 5350.03 607.995 8
-4 1 -6 11371.8 1972.66 6
-4 1 -6 11462.3 913.425 9
4 -1 6 12745.3 985.015 8
4 -1 7 5582.56 681.098 8
4 -1 8 364.335 276.208 8
4 -1 9 9904.63 765.275 8
-4 1 -10 9999.27 590.502 7
4 -1 10 9936.07 615.53 8
4 0 -10 833.786 197.291 12
4 0 -9 5222.6 549.817 12
4 0 -9 4350.25 484.186 14
4 0 -8 3584.36 540.251 12
4 0 -8 3259.85 499.585 14
4 0 -7 4255.68 568.688 14
4 0 -6 42519.5 1785.98 14
-4 0 5 10043.9 1847.52 19
4 0 -5 7417.96 1748.86 18
4 0 -5 11105.3 919.67 14
-4 0 4 16874.3 2270.91 19
4 0 -4 17619 1168.2 12
4 0 -4 14030.2 2210.06 18
4 0 -4 16423.1 1060.67 14
-4 0 3 647.233 630.276 3
4 0 -3 998.126 762.241 18
4 0 -3 736.762 322.2 12
-4 0 3 -26.4854 459.456 19
4 0 -3 384.719 200.633 14
-4 0 2 9376.4 1550.6 3
4 0 -2 7906.71 1534.03 18
-4 0 1 217.451 455.785 2
4 0 -1 236.095 433.292 18
-4 0 0 791.354 591.911 2
-4 0 -1 7004.63 1379.71 2
-4 0 -2 24152.7 2504.42 2
-4 0 -3 41783.9 3331.91 2
4 0 4 53719 1778.18 11
-4 0 -4 57015.6 1885.89 9
-4 0 -4 55654.5 3899.61 2
4 0 4 58329.2 1799.14 8
-4 0 -5 18524.1 2370.23 6
-4 0 -5 16393.6 1057.11 9
4 0 5 18057.1 1075.15 8
4 0 6 149.75 234.403 8
-4 0 -6 -396.538 579.3 6
-4 0 -6 318.609 228.883 9
-4 0 -7 3577.07 557.8 9
4 0 7 4564.62 624.097 8
4 0 8 9486.19 868.833 8
4 0 9 15037.4 999.826 8
4 0 10 7487.69 622.139 8
-4 0 -11 77.3232 131.647 7
4 0 11 561.394 174.376 8
4 1 -9 1183.53 256.118 12
4 1 -9 1036.51 258.127 14
4 1 -8 12011 869.308 12
4 1 -8 11911 878.496 14
4 1 -7 31103.3 1535.26 14
4 1 -6 1980.84 479.379 14
4 1 -5 532.236 564.61 18
-4 -1 5 393.933 551.539 19
4 1 -5 141.199 237.977 14
-4 -1 4 2494.08 1006.57 19
4 1 -4 3316.43 1099.46 18
4 1 -4 3666.26 538.337 14
-4 -1 3 6823.36 1400.01 19
4 1 -3 7215.24 703.276 12
4 1 -3 9775.36 1745.56 18
-4 -1 3 6841.36 1446.24 3
4 1 -3 7112.34 703.007 14
4 1 -2 76267.3 4463.54 18
-4 -1 2 72233.8 4332.61 3
4 1 -1 113001 5165.17 18
-4 -1 1 106808 5180.09 3
4 1 0 3844.52 1000.84 18
-4 -1 0 3529.2 1025.88 3
-4 -1 -1 12536.2 1786.59 2
-4 -1 -2 6325.71 1278.76 2
-4 -1 -3 1430.97 707.989 2
-4 -1 -4 20043.5 1094.97 9
-4 -1 -4 17867.7 2137.09 2
4 1 4 19222 1094.17 12
-4 -1 -5 17087.3 1048.83 9
-4 -1 -5 17152.7 2052.22 2
4 1 5 16307.8 997.847 8
4 1 6 37.553 218.855 8
-4 -1 -6 -259.107 586.39 6
-4 -1 -6 278.649 256.466 9
4 1 7 4277.01 595.543 8
-4 -1 -7 5402.66 1351.11 6
-4 -1 -7 4665.01 616.065 9
-4 -1 -8 4515.74 629.595 9
4 1 8 4129.97 585.742 8
4 1 9 14430.6 1014.11 8
4 1 10 832.646 281.65 8
-4 -1 -11 849.82 262.578 7
4 1 11 914.155 227.712 8
4 2 -9 2014.29 304.818 14
4 2 -8 1623.66 295.588 12
4 2 -8 895.453 282.428 14
4 2 -7 15740.3 1012.02 12
4 2 -7 14452.3 1034.75 14
4 2 -6 24503.3 1402.13 14
4 2 -5 5749.92 1427.53 18
4 2 -5 8425.9 840.782 14
4 2 -4 33523 3284.5 18
-4 -2 4 39081.9 3490.78 19
4 2 -4 35671.3 1666.58 14
-4 -2 3 1512.05 792.162 19
4 2 -3 2989.54 1037.3 18
4 2 -3 2807.54 463.814 12
4 2 -3 3828.91 550.438 14
4 2 -2 5777.95 1242.86 18
-4 -2 2 5061.71 1216.88 3
4 2 -2 7351.01 707.674 14
4 2 -1 125167 5297.72 18
-4 -2 1 118186 5540.04 3
4 2 0 15119.1 1783.13 18
-4 -2 0 18224.8 2147.88 3
-4 -2 -1 1286.07 750.846 3
-4 -2 -2 470.811 442.934 3
-4 -2 -3 65580.9 3912.03 3
-4 -2 -4 57090.3 3591.58 3
-4 -2 -5 6144.89 620.556 17
-4 -2 -5 4799.25 544.989 9
-4 -2 -5 4402.54 1003.01 3
-4 -2 -6 76614.1 2270.84 17
-4 -2 -6 79323.4 4648.94 6
-4 -2 -6 75701.2 2240.58 9
4 2 6 72457.3 2169.56 8
-4 -2 -7 90613.5 2561.2 9
4 2 7 88975.1 2523.56 8
-4 -2 -8 5054.66 1324.2 6
-4 -2 -8 5938.66 705.478 9
4 2 8 6899.62 750.872 8
4 2 9 786.327 324.024 8
4 2 10 1409.61 339.729 8
4 2 11 1464.71 293.937 8
-4 -2 -12 13711.4 691.12 7
4 3 -8 2450.5 378.622 14
4 3 -7 388.02 277.496 14
4 3 -6 9311.46 757.438 12
4 3 -6 11413.3 962.504 14
4 3 -5 94153.5 2487.02 12
4 3 -5 98659.5 2804.42 14
4 3 -4 11919.8 898.634 12
4 3 -4 11152.5 1912.82 18
4 3 -4 10458.2 945.234 14
4 3 -3 24698.9 1242.34 12
4 3 -3 22675 2540.43 18
-4 -3 3 23304.4 1236.38 17
4 3 -3 23829.1 1340.59 14
-4 -3 2 1612.33 358.962 17
4 3 -2 2017.97 388.663 14
4 3 -1 599.381 462.87 18
-4 -3 1 420.194 450.146 3
4 3 -1 138.845 200.425 14
4 3 0 3351.15 842.503 18
-4 -3 0 3958.29 1116.35 3
-4 -3 -1 53427.1 3644.28 3
-4 -3 -2 22093.5 2301.78 3
-4 -3 -3 3.7901 441.035 3
-4 -3 -4 6147.96 1219.85 3
-4 -3 -5 4468.58 1029.44 3
-4 -3 -5 5173.38 583.046 17
-4 -3 -5 4646.71 527.154 9
-4 -3 -6 13901.3 954.984 17
-4 -3 -6 13663.5 923.343 9
-4 -3 -7 6555.47 709.697 17
-4 -3 -7 6191.11 1322.79 6
-4 -3 -7 7002.84 706.707 9
4 3 7 6141.45 678.393 8
4 3 8 3603.91 567.215 8
-4 -3 -8 2447.62 864.199 6
-4 -3 -8 3064 496.099 9
4 3 9 2110.42 438.397 8
4 3 10 157.238 210.681 8
4 3 11 2081.67 341.389 8
-4 -3 -12 16646.1 824.729 7
4 3 12 17992.1 741.878 8
4 4 -8 4269.67 368.269 14
4 4 -7 2252.47 376.821 14
4 4 -6 538.891 288.69 14
-4 -4 5 -65.9952 175.713 17
4 4 -5 340.327 313.759 14
-4 -4 4 25530.8 1352.6 17
4 4 -4 26965.4 1474.7 14
-4 -4 3 61660.8 2108.84 17
4 4 -3 60178.5 2154.25 14
-4 -4 2 32939.7 1528.52 17
4 4 -2 32652.6 1544.8 14
-4 -4 1 25519.9 1315.57 17
4 4 -1 25035.8 1305.85 14
-4 -4 0 -49.8522 183.569 17
4 4 0 62.8292 203.019 14
-4 -4 -1 5764.1 1257.79 3
-4 -4 -2 73424.8 3374.34 4
-4 -4 -2 67151.9 4157.27 3
-4 -4 -3 8295.28 1428.15 3
-4 -4 -4 -913.89 569.425 3
-4 -4 -4 108.403 168.121 17
-4 -4 -5 4033.8 942.715 3
-4 -4 -5 3351.5 494.834 17
-4 -4 -5 3549.22 445.154 9
-4 -4 -6 9747.84 815.216 17
-4 -4 -6 9796.72 717.111 16
-4 -4 -6 10369.3 783.648 9
-4 -4 -7 11080 890.332 17
-4 -4 -7 10821.1 804.534 16
-4 -4 -7 10735.5 842.989 9
-4 -4 -8 16748.3 1039.99 16
-4 -4 -8 18675.1 1126.89 9
4 4 8 15752.7 1093.04 8
4 4 9 43203.5 1791.95 8
4 4 10 78704.8 2293.24 8
4 4 11 5095.41 564.534 8
-4 -4 -12 1845.13 318.303 7
4 4 12 1736.01 274.635 8
4 5 -7 462.565 178.178 14
-4 -5 6 5040.9 454.601 17
4 5 -6 4740.76 508.999 14
4 5 -5 4143.18 555.417 14
-4 -5 5 4915.26 548.121 17
-4 -5 4 101.335 230.298 17
4 5 -4 218.472 281.784 14
-4 -5 3 10555.2 917.797 17
4 5 -3 10741.1 929.539 14
-4 -5 2 122546 3086.43 17
4 5 -2 123226 3027.17 14
-4 -5 1 15976.9 1112.35 17
4 5 -1 16433.5 1090.25 14
-4 -5 0 13158.3 999.785 17
4 5 0 13555.8 977.853 14
-4 -5 -1 12783.9 947.884 17
4 5 1 12386.8 922.754 14
-4 -5 -2 12262.1 1511.6 4
-4 -5 -2 11634.7 887.847 17
4 5 2 14178 961.396 14
-4 -5 -3 14619.3 984.689 17
-4 -5 -3 14616.7 1713.2 4
4 5 3 13979.2 980.472 14
-4 -5 -4 15003.6 1003.45 17
4 5 4 15238.2 1043.03 14
-4 -5 -5 21438.1 1205.76 17
-4 -5 -5 19985.2 2012.18 5
-4 -5 -6 13948.6 974.481 17
-4 -5 -6 16434.7 961.069 16
-4 -5 -6 14447 1823.93 5
-4 -5 -7 2397.45 933.336 5
-4 -5 -7 1857.08 393.552 17
-4 -5 -7 1217.93 315.324 16
-4 -5 -7 2134.07 362.765 9
-4 -5 -8 7110 715.263 17
-4 -5 -8 6907.87 695.517 16
-4 -5 -8 6616.95 641.14 9
-4 -5 -9 15616.5 1032.86 16
4 5 9 15652.2 1101.41 8
4 5 10 35712.6 1552.27 8
4 5 11 3464.19 463.202 8
-4 -5 -12 1813 285.893 7
-4 -5 -12 1759.2 272.445 13
4 5 12 1714.29 273.393 8
-4 -6 5 4004.48 465.351 17
4 6 -5 3358.75 413.501 14
-4 -6 4 3058.43 466.621 17
4 6 -4 3339.12 485.512 14
-4 -6 3 831.921 293.749 17
4 6 -3 1601.25 368.521 14
-4 -6 2 2725.55 535.393 17
4 6 -2 2119.27 420.705 14
-4 -6 1 103556 2926.18 17
4 6 -1 105910 2764.88 14
-4 -6 0 18587.8 1225.93 17
4 6 0 20781.5 1219.88 14
-4 -6 -1 152319 3444.22 17
4 6 1 153122 3216.23 14
-4 -6 -2 119.386 258.066 17
4 6 2 218.623 193.838 14
-4 -6 -3 4073.3 599.224 17
-4 -6 -3 3912.32 930.147 4
4 6 3 3579.85 525.407 14
-4 -6 -4 18250.8 2158.97 4
-4 -6 -4 15911.7 926.584 16
-4 -6 -4 16444.4 1101.82 17
4 6 4 14574.4 1030.2 14
-4 -6 -5 60249.4 2056.56 17
-4 -6 -5 55919.6 3864.11 4
-4 -6 -5 52443.8 1734.93 16
-4 -6 -6 20962.7 1210.32 17
-4 -6 -6 20408.2 1112.35 16
-4 -6 -7 830.084 624.844 5
-4 -6 -7 1288.17 336.384 17
-4 -6 -7 1422.32 353.971 16
-4 -6 -8 4112.99 548.085 17
-4 -6 -8 3723.49 521.176 16
-4 -6 -9 2568.72 427.078 16
-4 -6 -10 11285.9 866.793 16
4 6 10 10738 866.39 8
4 6 11 11429.7 779.877 8
4 6 12 48660.5 1277.23 8
-4 -6 -12 49967.6 1422.22 13
-4 -7 5 1250.62 217.775 17
-4 -7 4 -147.635 209.91 17
-4 -7 3 20228.2 1168.39 17
-4 -7 2 34098.5 1626.5 17
-4 -7 1 3384.53 580.484 17
-4 -7 0 379.54 263.165 17
-4 -7 -1 67869.5 2386.67 17
-4 -7 -2 4710.12 672.492 17
-4 -7 -3 24943.4 1420.81 17
-4 -7 -3 21218.6 2367.46 4
-4 -7 -3 21760.2 1144.46 16
-4 -7 -4 15928.1 1116.84 17
-4 -7 -4 15139.5 969.203 16
-4 -7 -5 1916.14 423.715 17
-4 -7 -5 2008.3 363.09 16
-4 -7 -5 1839.38 798.848 4
-4 -7 -6 6533.83 695.094 17
-4 -7 -6 5422.08 620.911 16
-4 -7 -6 6231.64 1433.43 4
-4 -7 -7 6481.18 680.098 17
-4 -7 -7 5310.85 611.004 16
-4 -7 -8 1179.78 312.74 17
-4 -7 -8 1348.26 330.662 16
-4 -7 -9 283.772 218.335 16
4 7 10 389.214 249.932 8
-4 -7 -10 804.466 302.773 16
4 7 11 1670.69 327.058 8
4 7 12 376.086 138.22 8
-4 -7 -12 152.153 184.18 13
-4 -8 4 5612.28 429.055 17
-4 -8 3 6802.28 601.119 17
-4 -8 2 181.467 252.161 17
-4 -8 1 470.021 287.596 17
-4 -8 0 2482.15 524.909 17
-4 -8 -1 205.505 275.452 17
-4 -8 -2 76891.7 2507.79 17
-4 -8 -3 23727.7 1390.23 17
-4 -8 -3 21669.1 1183.56 16
-4 -8 -4 113725 2718.49 16
-4 -8 -4 110229 2925.54 17
-4 -8 -5 1328.53 332.641 17
-4 -8 -5 1024.13 272.493 16
-4 -8 -6 4122.32 566.904 17
-4 -8 -6 4500.44 565.361 16
-4 -8 -7 6618.5 658.242 17
-4 -8 -7 7051.95 717.1 16
-4 -8 -8 6015.89 653.539 16
-4 -8 -9 310.682 206.49 16
-4 -8 -10 7363.48 683.657 16
-4 -8 -11 3220.86 416.352 16
4 8 11 3424.73 400.327 8
-4 -8 -12 1201.17 256.129 13
-4 -9 2 5275.94 484.695 17
-4 -9 1 1483.77 340.66 17
-4 -9 0 17935.9 1076.59 17
-4 -9 -1 14653.8 1026.15 17
-4 -9 -2 4028.07 586.308 17
-4 -9 -2 3680.46 482.922 16
-4 -9 -3 1569.17 411.592 17
-4 -9 -3 623.721 271.654 16
-4 -9 -4 39818.8 1682.76 17
-4 -9 -4 43285.3 1666.81 16
-4 -9 -5 206.326 185.381 17
-4 -9 -5 163.63 261.516 16
-4 -9 -6 22078.7 1167.93 17
-4 -9 -6 21240.2 1191.74 16
-4 -9 -7 22198.4 1212.15 16
-4 -9 -8 7624.21 706.898 16
-4 -9 -9 13063.7 882.595 16
-4 -9 -10 17052.5 938.619 16
4 9 11 1059.99 224.983 8
-4 -9 -11 2177.35 336.128 16
-4 -9 -12 99.4574 127.784 13
-4 -10 1 10373.4 554.919 17
-4 -10 0 2040.72 320.985 17
-4 -10 -1 15719.6 881.248 17
-4 -10 -1 14421.9 717.631 16
-4 -10 -2 16681.6 946.606 17
-4 -10 -2 16821.3 860.917 16
-4 -10 -3 16079.2 957.883 17
-4 -10 -3 16806.6 922.469 16
-4 -10 -4 1395.82 312.016 17
-4 -10 -4 1473.76 314.609 16
-4 -10 -5 37960.3 1382.76 17
-4 -10 -5 38921.8 1486.86 16
-4 -10 -6 12836.8 869.781 16
-4 -10 -7 76852.8 2058.94 16
-4 -10 -8 12880.9 833.746 16
-4 -10 -9 818.935 255.592 16
-4 -10 -10 3207.07 391.294 16
-4 -10 -11 2882.26 313.619 16
-4 -11 -3 8042.43 512.041 16
-4 -11 -4 8251.37 567.984 16
-4 -11 -5 7169.13 557.2 16
-4 -11 -6 769.872 220.92 16
-4 -11 -7 6344.34 524.478 16
-4 -11 -8 169.873 134.45 16
-4 -11 -9 18576.9 789.097 16
-4 -11 -10 4839.04 368.746 16
5 -7 -3 17911.2 757.617 10
5 -7 -2 7014.11 513.801 10
5 -7 -1 25.9731 134.113 15
5 -7 0 1129.35 228.619 15
5 -6 -5 300.635 141.547 11
5 -6 -4 8634.02 643.049 11
5 -6 -4 9997.22 677.884 10
5 -6 -3 6037.19 587.546 10
5 -6 -2 2605.35 417.542 10
5 -6 -2 2417.43 365.217 15
5 -6 -1 12497.6 865.342 10
5 -6 -1 12806.4 847.073 15
5 -6 0 1264.43 335.588 10
5 -6 0 1215.99 302.442 15
5 -6 1 3146.58 451.235 10
5 -6 1 3603.34 459.24 15
5 -6 2 3090.22 390.74 15
5 -6 3 8366.98 533.477 15
5 -5 -7 17445.4 789.319 12
5 -5 -6 2169.61 330.838 12
5 -5 -6 1848.71 297.98 11
5 -5 -5 2986.59 417.056 12
5 -5 -5 2967.77 426.187 11
5 -5 -4 39957.6 1583.05 11
5 -5 -4 37365.8 1444.31 12
5 -5 -3 767.294 269.661 12
5 -5 -3 898.056 340.789 11
5 -5 -2 10522 894.721 11
5 -5 -2 9398.64 848.837 10
5 -5 -2 9577.73 790.308 15
5 -5 -2 9231.91 739.756 12
5 -5 -1 1316.48 374.606 11
5 -5 -1 1458.24 386.626 10
5 -5 0 61623.5 2126.03 10
5 -5 1 179.439 240.623 10
5 -5 2 649.046 290.892 10
5 -5 2 149.334 218.483 15
5 -5 3 371.436 237.749 15
5 -5 4 318.722 227.528 15
5 -4 -8 247.425 175.449 12
5 -4 -7 2010.42 372.269 12
5 -4 -7 1785.01 301.28 11
5 -4 -6 28435.3 1328.15 12
5 -4 -6 27847 1277.12 11
5 -4 -5 5811.33 662.118 12
5 -4 -5 4981.99 602.755 11
5 -4 -4 4825.68 632.182 12
5 -4 -4 6201.29 714.656 11
5 -4 -3 15179.9 1075.1 12
5 -4 -3 16301.6 1159.7 11
5 -4 -2 1080.18 367.1 12
5 -4 -2 712.657 326.403 11
5 -4 -1 56395.3 2171.56 11
5 -4 -1 54805.4 1999.81 12
5 -4 0 44500.3 1924.13 11
5 -4 0 41444.7 1726.04 12
5 -4 1 496.248 336.461 11
5 -4 1 842.054 385.319 10
5 -4 2 3772.69 595.344 10
5 -4 3 -155.019 237.519 10
5 -4 5 -207.535 184.31 15
5 -4 5 -117.674 158.015 8
5 -3 -9 23580.4 862.776 12
5 -3 -8 16561.8 907.626 12
5 -3 -8 16668.9 789.082 11
5 -3 -7 7261.97 701.107 12
5 -3 -6 414.747 314.73 12
5 -3 -5 28005.9 1499.55 12
5 -3 -4 16609.1 1184.58 12
5 -3 -3 763.524 320.123 12
5 -3 -2 39235.4 1803.81 12
5 -3 -2 41616.7 1905.01 11
5 -3 -1 26080.1 1479.18 12
5 -3 -1 29436.7 1616.21 11
5 -3 0 587.395 302.268 12
5 -3 0 906.249 357.349 11
5 -3 1 8564.68 889.521 11
5 -3 1 8506.53 840.41 12
5 -3 2 1166.59 391.005 11
5 -3 2 1537.34 404.507 10
5 -3 3 45949.5 1896.94 10
5 -3 4 352.176 284.336 10
5 -3 4 528.282 222.933 8
5 -3 5 685.684 254.932 8
5 -3 6 2269.7 363.814 15
5 -3 6 2484.65 366.038 8
5 -3 7 1700.29 268.958 8
5 -2 -9 118.542 147.745 12
5 -2 -8 651.867 245.903 12
5 -2 -7 8513.59 789.712 12
5 -2 -6 1927.32 461.848 12
5 -2 -5 1355.34 380.577 12
5 -2 -4 10725 987.475 12
5 -2 -3 37438.4 1796.67 12
5 -2 -2 107.099 237.024 12
5 -2 -1 13989 1101.81 12
-5 2 1 16762.8 2458.31 2
5 -2 0 19637.5 1289.81 12
5 -2 0 20158.6 1320.71 11
-5 2 0 21173.7 2899.74 2
5 -2 1 16745.2 1195.95 11
5 -2 1 16509.1 1177.14 12
5 -2 2 36037.7 1733.47 11
-5 2 -2 36509 1568.76 9
5 -2 2 35975.9 1749.81 12
5 -2 3 24596.2 1424.4 11
-5 2 -3 23735.8 1256.08 9
5 -2 4 595.264 246.126 10
-5 2 -4 1238.95 343.33 9
5 -2 4 996.393 263.309 8
5 -2 5 14001.8 963.055 10
-5 2 -5 13776.6 921.227 9
5 -2 5 13594.7 937.059 8
5 -2 6 6781.08 651.552 8
5 -2 7 6280.65 583.755 8
5 -2 8 17194.7 805.476 8
5 -1 -9 3341.76 351.14 12
5 -1 -8 96.2078 211.651 12
5 -1 -7 4869.2 636.23 12
5 -1 -6 39656.4 1788.39 12
5 -1 -6 39355.9 1525.48 14
5 -1 -5 34576 1722.46 12
5 -1 -5 35049.8 1514.15 14
5 -1 -4 12581.6 1079.17 12
5 -1 -3 5199.07 1544.18 18
5 -1 -3 4492.84 667.617 12
5 -1 -2 91053 2759.13 12
-5 1 2 83686.6 5469.53 3
5 -1 -1 32401 1632.23 12
5 -1 0 43318.2 1874.83 12
-5 1 0 48878.2 4201.15 2
5 -1 1 41126 1836.08 12
5 -1 1 39792.5 1791.89 11
-5 1 -1 40260.7 3854.18 2
5 -1 2 60672.4 2184.87 11
-5 1 -2 64683 4941.69 2
5 -1 2 60169.2 2225.53 12
5 -1 3 1220.54 391.558 12
5 -1 3 982.827 335.076 11
-5 1 -3 1619.77 424.411 9
5 -1 4 22618.8 1323.52 11
5 -1 4 22818.8 1282.5 10
-5 1 -4 21236.1 1259.06 9
5 -1 4 23985.1 1227.16 8
5 -1 5 10679.6 850.304 10
-5 1 -5 10115 875.973 9
5 -1 5 10352.3 846.513 8
-5 1 -6 12079.1 914.074 9
5 -1 6 11432.5 890.113 8
5 -1 7 845.403 307.746 8
5 -1 8 1004.6 307.866 8
-5 1 -9 356.804 148.952 7
5 -1 9 431.525 181.975 8
5 0 -8 15006.8 864.344 12
5 0 -8 14282.5 754.91 14
5 0 -7 170.061 198.71 12
5 0 -7 178.342 220.972 14
5 0 -6 418.491 306.295 12
5 0 -6 129.319 241.906 14
5 0 -5 5717.67 740.202 12
5 0 -5 6145.83 696.43 14
5 0 -4 32462.3 1683.82 12
5 0 -4 35245.2 1632.06 14
5 0 -3 19103.6 1266.66 12
5 0 -3 15505.6 2433.14 18
-5 0 3 16552 2427.92 3
5 0 -3 17586.6 1146.98 14
-5 0 2 5413.55 1437.68 3
5 0 -2 8350.6 858.21 12
5 0 -2 9250.57 1885.35 18
5 0 -2 8638.96 811.05 14
5 0 -1 21983.8 1318.81 12
5 0 -1 18811.3 1154.85 14
-5 0 1 22114 2754.57 3
5 0 0 67742.7 2276.12 12
5 0 0 69397.7 2225.77 14
5 0 1 1452.69 378.592 12
-5 0 -1 1413.3 780.52 2
5 0 1 1971.84 426.642 14
-5 0 -2 67447.9 1970.44 17
5 0 2 70467.6 2266.95 11
-5 0 -2 74893.8 5101.82 2
5 0 2 70532.1 2348.3 12
5 0 3 8513.89 786.779 11
-5 0 -3 9516.52 1852.09 2
5 0 3 9190.62 890.361 12
5 0 4 43917.5 1759.38 11
-5 0 -4 46389 1863.7 9
-5 0 -4 43842 3864.48 2
5 0 4 46528 1689.45 8
-5 0 -5 5229.5 1478.57 6
-5 0 -5 6491.68 738.255 9
5 0 5 5499.11 614.388 8
-5 0 -6 14008.2 1051.26 9
5 0 6 14797.5 1039.59 8
-5 0 -7 645.716 342.816 9
5 0 7 343.19 263.629 8
5 0 8 3738.46 514.847 8
5 0 9 12899.6 813.286 8
-5 0 -10 1459.16 252.64 7
5 0 10 1082.26 220.957 8
5 1 -8 33669.8 1131.22 12
5 1 -8 31095.1 1110.27 14
5 1 -7 106228 2447.11 12
5 1 -7 105591 2439.79 14
5 1 -6 2332.2 459.984 12
5 1 -6 2286.77 427.281 14
5 1 -5 3309.56 554.491 12
5 1 -5 4232.46 593.874 14
5 1 -4 919.178 322.345 12
5 1 -4 818.014 328.105 14
5 1 -3 4717.08 1403.85 18
-5 -1 3 3451.53 1143.37 3
5 1 -3 4610.26 648.598 12
5 1 -3 4573.62 643.096 14
5 1 -2 26390.7 1452.72 12
5 1 -2 29597.5 3167.94 18
5 1 -2 25479.3 1419.47 14
-5 -1 2 24909.8 2955.92 3
5 1 -1 23313.9 1333.18 12
5 1 -1 22388.1 1307.06 14
-5 -1 1 22569.4 2772.39 3
-5 -1 0 1086.59 860.758 3
5 1 0 136.523 230.142 12
5 1 0 374.671 257.649 14
5 1 1 78143.5 2372.89 12
-5 -1 -1 77316.7 2088.05 17
5 1 1 75107.2 2367.46 14
-5 -1 -1 79878.2 5147.8 3
-5 -1 -2 21653.5 1142.71 17
5 1 2 18650.1 1213.29 14
5 1 2 22708.4 1297.57 12
-5 -1 -3 125954 2834.55 17
5 1 3 121320 2784.32 11
5 1 3 121904 3036.95 12
-5 -1 -4 31027.8 1465.73 17
-5 -1 -4 35115 1621.05 9
5 1 4 36400 1477.53 8
-5 -1 -5 46371.9 1874.72 9
5 1 5 47576.4 1780.99 8
-5 -1 -6 5899.02 714.342 9
5 1 6 4838.1 617.172 8
5 1 7 404.69 255.489 8
-5 -1 -7 525.093 301.255 9
-5 -1 -8 3936.64 577.33 9
5 1 8 3484.09 529.185 8
5 1 9 376.902 196.063 8
5 1 10 169.251 177.655 8
5 2 -8 686.681 196.177 14
5 2 -7 289.724 180.207 12
5 2 -7 203.635 236.171 14
5 2 -6 1067.68 297.448 12
5 2 -6 1076.62 355.141 14
5 2 -5 1900.34 435.2 12
5 2 -5 2398.47 511.609 14
5 2 -4 10884.4 927.334 12
5 2 -4 9478.02 904.422 14
5 2 -3 405.042 613.656 18
5 2 -3 282.59 291.563 12
5 2 -3 388.597 299.675 14
5 2 -2 2425.17 456.959 12
-5 -2 2 1851.52 857.12 3
5 2 -2 2326.67 431.394 14
5 2 -1 15399.4 1067.27 12
5 2 -1 11601.5 1877.15 18
-5 -2 1 14357.8 2266.04 3
5 2 -1 14980.2 1103.01 14
5 2 0 38683.9 1630.39 12
-5 -2 0 36437.9 1473.63 17
5 2 0 40186.6 1758.24 14
-5 -2 0 40245.5 3706.58 3
5 2 1 27690.4 1366.23 12
-5 -2 -1 24096.5 1227.86 17
5 2 1 25236.6 1398.29 14
-5 -2 -1 29222.4 3130.18 3
5 2 2 46248.4 1771.35 12
-5 -2 -2 43407.8 1663.78 17
5 2 2 42558.2 1831.2 14
-5 -2 -2 48019.3 3950.37 3
-5 -2 -3 61663.8 2023.39 17
5 2 3 60641.1 2219 14
-5 -2 -3 64659.4 4529.15 3
5 2 3 64004 2117.91 12
-5 -2 -4 8594.43 1637.41 3
-5 -2 -4 6945.84 703.834 17
5 2 4 7737.39 710.077 8
5 2 4 5939.4 684.267 12
-5 -2 -5 38335.9 1673.34 17
-5 -2 -5 38267.2 1693.22 9
-5 -2 -5 34546.9 3250.21 3
5 2 5 39233.2 1623.09 8
-5 -2 -6 72315.6 4881.41 6
-5 -2 -6 76727.2 2428.09 9
5 2 6 73556.4 2302.53 8
5 2 7 2777.36 465.036 8
-5 -2 -7 3389.7 546.31 9
5 2 8 47.1353 232.282 8
-5 -2 -8 248.077 242.083 9
5 2 9 856.467 319.5 8
5 2 10 175.263 218.307 8
-5 -2 -11 7055.11 538.959 7
5 2 11 6799.28 497.906 8
5 3 -7 4181.93 498.134 14
5 3 -6 35773.1 1498.13 14
5 3 -5 30878 1328.84 12
5 3 -5 32794.1 1573.62 14
5 3 -4 154859 3161.05 12
5 3 -4 162794 3645.43 14
5 3 -3 8167.88 767.423 12
5 3 -3 7081.89 809.721 14
5 3 -2 610.384 288.172 12
-5 -3 2 238.39 208.933 17
5 3 -2 699.486 351.243 14
5 3 -1 60.839 193.748 18
5 3 -1 370.947 243.765 12
-5 -3 1 -190.919 195.198 17
5 3 -1 360.291 294.797 14
-5 -3 0 -278.079 726.757 3
5 3 0 64.3025 201.211 12
-5 -3 0 82.5911 181.456 17
5 3 0 -1.29313 221.628 14
5 3 1 42437.5 1632.29 12
-5 -3 -1 42274.3 1689.1 17
5 3 1 44859.2 1866.47 14
-5 -3 -1 43697 3799.73 3
5 3 2 29751.3 1369.02 12
-5 -3 -2 30849.9 1458.6 17
5 3 2 29480.9 1543.51 14
-5 -3 -2 31136.7 3196.11 3
-5 -3 -3 4631.67 1211.63 3
-5 -3 -3 3593.43 527.709 17
5 3 3 4087.43 624.993 14
5 3 3 4743.45 563.88 12
-5 -3 -4 100107 2656.46 17
-5 -3 -4 103085 5633.34 3
5 3 4 100375 2603.28 12
-5 -3 -5 73149.2 2326.6 17
-5 -3 -5 72719.7 2282.23 9
-5 -3 -5 68245 4442.76 3
-5 -3 -6 44514.5 1856.23 17
-5 -3 -6 46468 1854.66 9
5 3 6 47006.3 1842.76 8
-5 -3 -7 29005.9 1490.03 9
5 3 7 29407.5 1501.56 8
-5 -3 -8 31065.8 1524.02 9
5 3 8 30461 1514.61 8
5 3 9 11061 903.507 8
5 3 10 -40.1173 200.091 8
5 3 11 4778.26 461.783 8
5 4 -7 4907.08 408.213 14
5 4 -6 921.287 255.852 14
5 4 -5 773.289 299.993 14
5 4 -4 492.129 288.292 14
-5 -4 3 2503.27 439.853 17
5 4 -3 2144.87 470.447 14
-5 -4 2 27901.2 1412.02 17
5 4 -2 27204.1 1528.24 14
-5 -4 1 2112.14 424.579 17
5 4 -1 2624.65 523.766 14
-5 -4 0 5409.69 660.044 17
5 4 0 5384 696.396 14
-5 -4 -1 5714.82 670.546 17
-5 -4 -1 6515.6 1570.99 3
5 4 1 6869.8 766.963 14
-5 -4 -2 3667.57 1203.12 3
-5 -4 -2 3105.12 495.434 17
5 4 2 2225.07 478.903 14
-5 -4 -3 67255.7 2220.86 17
5 4 3 58944.1 2225.56 14
-5 -4 -3 70929.6 4739.71 3
-5 -4 -4 72755.1 2324.51 17
-5 -4 -4 72910.4 4746.76 3
-5 -4 -5 5324.77 649.984 17
-5 -4 -5 5853 1385.81 3
-5 -4 -5 6028.65 656.433 9
-5 -4 -6 10535.2 922.143 17
-5 -4 -6 10535.1 874.333 9
-5 -4 -7 16980.5 1160.65 17
-5 -4 -7 16588.2 1081.12 9
5 4 7 14372.5 1065.56 8
-5 -4 -8 35622.8 1585.14 9
5 4 8 37195.9 1685.48 8
-5 -4 -9 65005.8 2059.93 9
5 4 9 63783.4 2127.27 8
5 4 10 208.193 238.107 8
5 4 11 3359.16 426.655 8
5 4 12 925.591 176.828 8
5 5 -6 223.371 151.181 14
5 5 -5 6644.43 607.877 14
-5 -5 4 26118.6 1174.05 17
5 5 -4 27970.2 1366.62 14
-5 -5 3 8090.15 745.052 17
5 5 -3 8985.46 868.685 14
-5 -5 2 75735.7 2367.98 17
5 5 -2 73413.5 2437.72 14
-5 -5 1 87040.3 2619.35 17
5 5 -1 89244.5 2713.93 14
-5 -5 0 1674.33 403.215 17
5 5 0 837.536 374.428 14
-5 -5 -1 16721.8 1166.54 17
5 5 1 15603 1163.84 14
-5 -5 -2 165.177 235.023 17
5 5 2 -505.496 331.048 14
-5 -5 -3 19727.2 1259.69 17
5 5 3 21451.5 1357.16 14
-5 -5 -4 5754.86 688.561 17
5 5 4 3662.29 606.181 14
-5 -5 -5 4430.43 629.975 17
-5 -5 -5 3657.33 480.879 9
-5 -5 -6 3762.15 581.802 17
-5 -5 -6 4470.93 553.627 9
-5 -5 -7 22774.9 1327.46 17
-5 -5 -7 21865.3 1196.58 9
-5 -5 -8 29331.8 1487.4 17
-5 -5 -8 29564.2 1369.49 9
5 5 9 29481.3 1461.4 8
5 5 10 3824.09 536.231 8
5 5 11 26929.9 1120.66 8
5 5 12 8847.95 504.661 8
5 6 -5 4198.07 378.077 14
-5 -6 4 -44.8799 144.133 17
5 6 -4 137.992 193.19 14
-5 -6 3 4752.57 549.351 17
5 6 -3 5418.26 617.691 14
-5 -6 2 -8.14837 262.917 17
5 6 -2 -323.433 303.283 14
-5 -6 1 354.931 287.01 17
5 6 -1 -110.861 226.019 14
-5 -6 0 9663.18 930.278 17
5 6 0 9314.44 881.332 14
-5 -6 -1 42552.1 1887.38 17
5 6 1 43878.5 1890.35 14
-5 -6 -2 13975.2 1101.79 17
5 6 2 15368.2 1129.18 14
-5 -6 -3 109.029 267.32 17
5 6 3 -27.4038 247.109 14
-5 -6 -4 10304.6 960.795 17
5 6 4 9586.58 926.87 14
-5 -6 -5 511.646 360.364 17
-5 -6 -6 9293.99 869.11 17
-5 -6 -7 22335.9 1317.41 17
-5 -6 -8 14583.6 1031.71 17
-5 -6 -8 15110.1 921.95 16
5 6 9 20110.5 1223.47 8
5 6 10 2465.29 432.954 8
5 6 11 24960.5 1072.2 8
5 6 12 45566.4 1119.78 8
-5 -7 4 502.909 152.198 17
-5 -7 3 415.862 202.599 17
5 7 -3 316.918 181.753 14
-5 -7 2 8380.45 743.904 17
5 7 -2 9004.25 721.094 14
-5 -7 1 21632 1268.49 17
5 7 -1 24795 1258.35 14
-5 -7 0 2300.21 477.073 17
5 7 0 1601.47 404.844 14
-5 -7 -1 30752.4 1608.4 17
5 7 1 31561.7 1539.14 14
-5 -7 -2 74907.9 2510.69 17
5 7 2 74727 2394.64 14
-5 -7 -3 3698.52 620.101 17
5 7 3 3020.07 540.569 14
-5 -7 -4 25774 1481.46 17
-5 -7 -5 4528.36 631.106 17
-5 -7 -6 4913.56 638.669 17
-5 -7 -7 2826.47 466.011 17
-5 -7 -7 3541.21 463.262 16
-5 -7 -8 9055.9 792.365 17
-5 -7 -8 9332.26 727.003 16
-5 -7 -9 1532.03 318.707 16
5 7 10 -190.525 220.609 8
5 7 11 6620.27 547.202 8
5 7 12 2354.29 256.632 8
-5 -8 3 50.3882 108.09 17
-5 -8 2 4895.92 488.808 17
-5 -8 1 747.01 267.051 17
-5 -8 0 593.532 318.927 17
-5 -8 -1 10370 897.772 17
-5 -8 -2 29901.1 1543.53 17
-5 -8 -3 2757.76 507.086 17
-5 -8 -4 44011.9 1852.58 17
-5 -8 -5 5980.62 680.333 17
-5 -8 -6 209.617 238.657 17
-5 -8 -6 289.786 155.013 16
-5 -8 -7 31434.6 1441.84 17
-5 -8 -7 27468.9 1214.09 16
-5 -8 -8 1726.59 359.578 17
-5 -8 -8 1814.76 333.876 16
-5 -8 -9 1591.75 307.103 16
5 8 10 5403.03 558.582 8
5 8 11 7706.91 537.759 8
-5 -9 1 590.16 218.325 17
-5 -9 0 8259.43 670.134 17
-5 -9 -1 244.253 196.563 17
-5 -9 -2 1941.74 405.802 17
-5 -9 -3 217.165 239.388 17
-5 -9 -4 14508 1002.08 17
-5 -9 -5 15387.9 1017.41 17
-5 -9 -6 738.901 268.823 17
-5 -9 -6 560.467 213.944 16
-5 -9 -7 25410.2 1166.59 17
-5 -9 -7 25858.6 1111.39 16
-5 -9 -8 7398.26 577.55 17
-5 -9 -8 7797.67 610.447 16
-5 -9 -9 1790.63 289.715 16
5 9 10 997.1 249.154 8
-5 -9 -10 483.665 168.128 16
5 9 11 -32.7097 113.975 8
-5 -10 -1 1029.7 246.263 17
-5 -10 -2 93.8556 155.615 17
-5 -10 -3 3614.18 425.739 17
-5 -10 -4 3327.47 421.625 17
-5 -10 -5 26684.7 1118.98 17
-5 -10 -6 772.009 220.741 17
-5 -10 -6 474.485 173.647 16
-5 -10 -7 26106.4 987.379 16
-5 -10 -8 4347.21 396.396 16
-5 -10 -9 5388.01 416.12 16
5 10 10 2478.89 295.017 8
6 -5 -4 3626.18 371.57 11
6 -5 -4 3304.73 342.909 10
6 -5 -3 503.199 206.982 11
6 -5 -3 230.832 149.934 10
6 -5 -2 21513.2 987.027 10
6 -5 -1 24258.7 1066.06 10
6 -5 -1 20747.8 856.621 15
6 -5 0 -137.196 158.642 10
6 -5 0 321.496 183.03 15
6 -5 1 96.8314 189.915 10
6 -5 1 67.2313 142.942 15
6 -5 2 351.239 166.219 15
6 -4 -6 3359.23 319.973 11
6 -4 -6 3056.93 320.694 12
6 -4 -5 11817.7 700.364 11
6 -4 -5 11596.9 692.908 12
6 -4 -4 19028.9 1128.31 11
6 -4 -4 7804.99 613.737 12
6 -4 -3 25040.6 1205.26 11
6 -4 -3 24563.6 1124.9 12
6 -4 -2 3363.96 447.97 12
6 -4 -2 3551.24 506.641 11
6 -4 -1 2206.04 426.742 11
6 -4 -1 3575.35 518.623 10
6 -4 0 16791.8 1037.31 11
6 -4 0 16566.4 1024.9 10
6 -4 1 1616.22 360.027 10
6 -4 2 10968.5 768.426 10
6 -4 3 1072.21 269.112 10
6 -4 3 437.261 192.664 15
6 -4 4 -36.3883 140.062 15
6 -3 -7 18.0536 115.579 12
6 -3 -6 1016.99 251.342 12
6 -3 -6 1013.85 249.283 11
6 -3 -5 2234.58 384.509 12
6 -3 -5 2312.39 377.578 11
6 -3 -4 42691.1 1626.52 12
6 -3 -4 41141.2 1610.77 11
6 -3 -3 70694.5 2183.47 12
6 -3 -3 74999.9 2288.32 11
6 -3 -2 35761.1 1630.76 11
6 -3 -2 34205.6 1561.81 12
6 -3 -1 -265.208 288.292 12
6 -3 -1 58.3517 240.351 11
6 -3 0 1091.52 338.422 12
6 -3 0 571.617 330.547 11
6 -3 1 12444.3 970.278 11
6 -3 1 12858.9 977.26 10
6 -3 2 15610.2 1029.14 10
6 -3 3 273.401 262.369 10
6 -3 4 257.215 187.642 10
6 -3 5 246.938 183.944 15
6 -2 -7 5872.59 480.973 12
6 -2 -7 5238.66 424.384 11
6 -2 -6 7456.36 636.908 12
6 -2 -5 5715.86 622.761 12
6 -2 -4 1893.04 434.758 12
6 -2 -3 22887 1335.22 12
6 -2 -3 21373.6 1317.57 11
6 -2 -2 29259.4 1539.7 12
6 -2 -2 29376.3 1567.81 11
6 -2 -1 26459.9 1495.44 11
6 -2 -1 25231.4 1441.89 12
6 -2 0 1021.82 367.794 12
6 -2 0 1515.39 440.947 11
6 -2 1 862.837 324.808 12
6 -2 1 1359.76 429.04 11
-6 2 -1 1109.75 304.788 9
6 -2 2 13950.3 1059.17 11
-6 2 -2 13310 896.546 9
6 -2 3 43195.4 1713.81 10
-6 2 -3 42807.4 1533.37 9
6 -2 4 6287.79 618.592 10
-6 2 -4 5968.36 556.897 9
-6 2 -5 3871.26 404.108 9
6 -1 -7 923.975 232.689 12
6 -1 -6 147.616 221.064 12
6 -1 -5 14362.6 1004.24 12
6 -1 -4 5452.18 695.695 12
6 -1 -3 2682.59 522.159 12
6 -1 -2 15062.4 1150.74 12
6 -1 -1 151346 3615.86 12
6 -1 -1 148356 3583.16 11
6 -1 0 37722.6 1797.28 11
6 -1 0 39273.5 1850.8 12
6 -1 1 71192.2 2424.04 11
6 -1 1 74903.5 2541.33 12
6 -1 2 9129.68 875.938 11
-6 1 -2 8653.05 817.712 9
6 -1 2 9704.36 944.349 12
6 -1 3 1946.76 447.165 11
-6 1 -3 1564.64 378.585 9
6 -1 4 12890.7 910.893 10
-6 1 -4 13222.4 946.028 9
-6 1 -5 18776.3 1049.63 9
6 -1 5 17429.6 892.756 8
-6 1 -6 2182.13 355.525 9
6 -1 6 1390.69 277.236 8
6 -1 7 331.663 157.365 8
6 0 -7 3561.69 389.047 12
6 0 -6 8332.22 681.057 12
6 0 -6 7313.93 540.713 14
6 0 -5 664.202 273.731 12
6 0 -5 550.252 223.48 14
6 0 -4 2221.87 499.497 12
6 0 -4 1717.08 347.011 14
6 0 -3 16764.2 1195.81 12
6 0 -3 14331 1015.99 14
6 0 -2 39193.9 1832.24 12
6 0 -2 38694.4 1687.48 14
6 0 -1 349.116 342.138 12
6 0 -1 229.742 205.049 14
6 0 0 27376.9 1561.56 12
6 0 0 22838.5 1339.32 14
6 0 1 40625.6 1824.25 11
6 0 1 41553 1903.35 12
6 0 2 14344.7 1073.83 11
6 0 2 15003.8 1152.71 12
6 0 3 1710.95 394.956 11
-6 0 -3 1485.02 411.565 9
6 0 4 78.3439 192.978 11
-6 0 -4 33.9654 221.646 9
-6 0 -5 3416.17 536.198 9
6 0 5 3298.82 447.533 8
-6 0 -6 15816.8 1006.77 9
6 0 6 16759.8 947.501 8
-6 0 -7 3786.4 481.379 9
6 0 7 4221.76 481.319 8
6 0 8 207.893 159.588 8
6 1 -6 356.285 229.754 12
6 1 -6 -259.367 183.598 14
6 1 -5 8629.28 739.255 12
6 1 -5 7013.2 655.658 14
6 1 -4 6871.12 726.505 12
6 1 -4 5808.76 663.622 14
6 1 -3 1920.98 429.682 12
6 1 -3 1649.6 406.964 14
6 1 -2 9955.79 936.36 12
6 1 -2 8948.75 876.356 14
6 1 -1 7730.63 842.185 12
6 1 -1 6370.74 758.006 14
6 1 0 23091.8 1408.25 12
6 1 0 21339.4 1363.79 14
6 1 1 7917.29 854.892 14
6 1 1 7540.48 821.672 12
-6 -1 -2 165753 3182.85 17
6 1 2 158667 3452.67 11
6 1 2 165391 3734.5 12
6 1 3 44277.3 1760.65 11
6 1 3 43382.8 1941.57 12
-6 -1 -4 24268.4 1407.98 9
-6 -1 -5 3369.65 560.407 9
6 1 5 3913.08 499.568 8
-6 -1 -6 3414.91 570.69 9
6 1 6 2893.45 452.041 8
-6 -1 -7 16572.4 1054.05 9
6 1 7 17329.3 986.876 8
6 1 8 2103.18 350.718 8
6 1 9 368.869 173.947 8
6 2 -6 264.738 131.177 12
6 2 -6 481.207 217.414 14
6 2 -5 1784.79 340.119 12
6 2 -5 814.213 264.106 14
6 2 -4 2300.14 414.488 12
6 2 -4 1782.85 415.85 14
6 2 -3 -248.333 261.199 12
6 2 -3 496.121 272.681 14
6 2 -2 2008.55 443.34 12
6 2 -2 1712.41 462.77 14
6 2 -1 4569.46 624.385 12
6 2 -1 4504.9 656.159 14
6 2 0 9422.57 884.642 12
6 2 0 9148.21 954.515 14
6 2 1 49505.5 1987.05 12
-6 -2 -1 43815.5 1661.01 17
6 2 1 44682.6 2031.77 14
-6 -2 -2 6266.97 647.278 17
6 2 2 6196.93 679.009 11
6 2 2 5987.09 774.79 14
6 2 2 6045.65 715.551 12
-6 -2 -3 88169.4 2471.41 17
6 2 3 88407.5 2681.24 12
-6 -2 -4 88641.8 2551.57 17
-6 -2 -4 85523.9 2635.04 9
6 2 5 898.484 292.215 8
-6 -2 -5 1298.49 372.974 9
-6 -2 -6 7776.46 794.176 9
6 2 6 7940.33 730.808 8
-6 -2 -7 1176.51 365.337 9
6 2 7 1580.01 320.351 8
-6 -2 -8 6668.94 652.456 9
6 2 8 6879.4 648.606 8
6 2 9 7945.25 611.793 8
6 2 10 6097.11 452.135 8
6 3 -6 6155.06 491.663 14
6 3 -5 9201.21 723.268 14
6 3 -4 1711.98 420.3 14
6 3 -3 13847.5 907.222 12
6 3 -3 13444.2 1034.17 14
6 3 -2 655.438 256.817 12
6 3 -2 790.225 388.86 14
6 3 -1 13507.5 975.587 12
6 3 -1 12528.8 1073.47 14
6 3 0 4470.87 611.946 12
-6 -3 0 4704.52 570.631 17
6 3 0 5353.54 723.221 14
-6 -3 -1 19504.2 1167.44 17
6 3 1 19224 1346.86 14
6 3 1 18567.2 1164.7 12
-6 -3 -2 33355.1 1551.14 17
6 3 2 32730.3 1759.07 14
6 3 2 34243.6 1581.51 12
-6 -3 -3 106053 2794.72 17
6 3 3 103520 2773.57 12
6 3 4 1089.22 303.21 8
-6 -3 -4 617.309 273.021 17
-6 -3 -4 1069.64 378.986 9
-6 -3 -5 102616 2802.84 17
-6 -3 -5 99989.5 2793.58 9
6 3 5 100835 2538.82 8
-6 -3 -6 10814.4 932.286 9
6 3 6 10418.9 845.314 8
-6 -3 -7 21487.1 1256.65 9
6 3 7 23952.6 1263.96 8
-6 -3 -8 8954.26 774.262 9
6 3 8 8704.53 737.314 8
6 3 9 5310.85 544.045 8
6 3 10 15528.2 779.685 8
6 4 -5 28424.4 1127.57 14
6 4 -4 1623.54 355.325 14
6 4 -3 827.337 361.753 14
6 4 -2 2820.08 561.543 14
-6 -4 1 4301.22 546.73 17
6 4 -1 4582.41 674.076 14
-6 -4 0 107.406 201.437 17
6 4 0 -167.866 268.854 14
-6 -4 -1 1019.01 323.707 17
6 4 1 736.531 362.801 14
-6 -4 -2 -118.626 238.669 17
6 4 2 826.837 403.579 14
-6 -4 -3 463.424 294.559 17
6 4 3 561.899 380.534 14
-6 -4 -4 49467.2 1983.62 17
-6 -4 -4 48405.8 1896.18 9
6 4 5 1246.1 328.137 8
-6 -4 -5 271.411 278.212 17
-6 -4 -5 864.537 339.202 9
-6 -4 -6 34672 1645.84 17
-6 -4 -6 35958 1629.35 9
6 4 6 36113.9 1574.23 8
-6 -4 -7 19528.7 1164.22 9
6 4 7 21275.5 1221.66 8
6 4 8 2942.03 458.036 8
-6 -4 -8 2870.39 454.137 9
6 4 9 5042.91 554.336 8
6 4 10 821.451 238.336 8
6 4 11 1311.82 222.545 8
6 5 -5 1725.63 257.552 14
6 5 -4 842.088 256.812 14
6 5 -3 7634.95 710.314 14
-6 -5 2 6442.15 593.391 17
6 5 -2 6517.15 717.208 14
-6 -5 1 716.678 278.606 17
6 5 -1 1433.47 465.827 14
-6 -5 0 21215 1236.04 17
6 5 0 21756.5 1387.13 14
-6 -5 -1 186.196 247.919 17
6 5 1 -204.721 302.122 14
-6 -5 -2 26255 1447.56 17
6 5 2 24360.2 1513.8 14
-6 -5 -3 10890.7 958.329 17
6 5 3 10006.9 999.029 14
-6 -5 -4 5616.69 711.06 17
-6 -5 -4 5637.22 648.492 9
-6 -5 -5 7202.99 792.229 17
-6 -5 -5 5909.42 657.204 9
-6 -5 -6 44488 1862.33 17
-6 -5 -6 47212.5 1751.93 9
6 5 7 859.347 324.225 8
-6 -5 -7 358.874 306.819 17
-6 -5 -7 820.615 309.636 9
-6 -5 -8 67589.1 1945.51 9
6 5 8 70171.4 2135.31 8
6 5 9 671.005 267.787 8
6 5 10 5771 526.943 8
6 5 11 1912.87 258.788 8
6 6 -3 2776.23 388.558 14
-6 -6 2 12172.3 765.93 17
6 6 -2 11436.4 829.074 14
-6 -6 1 751.929 273.82 17
6 6 -1 330.351 294.135 14
-6 -6 0 6997.07 710.686 17
6 6 0 8492.21 839.595 14
-6 -6 -1 14039.2 1039.17 17
6 6 1 12680.4 1050.02 14
-6 -6 -2 12160.2 1006.04 17
6 6 2 11650.4 1035.68 14
-6 -6 -3 4385.16 639.483 17
6 6 3 3490.1 603.972 14
-6 -6 -4 7142.16 789.686 17
-6 -6 -5 17559.4 1192.21 17
-6 -6 -6 9504.47 872.375 17
-6 -6 -7 47415 1849.26 17
6 6 8 1375.45 347.511 8
6 6 9 10107.9 771.104 8
6 6 10 3598.43 427.461 8
6 6 11 9144.6 535.464 8
-6 -7 2 110.909 136.166 17
6 7 -2 274.107 181.016 14
-6 -7 1 4107.82 468.404 17
6 7 -1 3347.66 436 14
-6 -7 0 393.388 236.52 17
6 7 0 250.678 208.902 14
-6 -7 -1 -305.029 235.498 17
6 7 1 149.151 287.057 14
-6 -7 -2 1.18357 237.06 17
6 7 2 505.598 293.608 14
-6 -7 -3 35510.3 1646.86 17
-6 -7 -4 22000.9 1310.27 17
-6 -7 -5 3466.73 547.248 17
-6 -7 -6 19580.8 1189.35 17
-6 -7 -7 2738.28 457.32 17
-6 -7 -8 282.542 230.447 17
6 7 9 25108.3 1152.69 8
6 7 10 -4.72936 146.123 8
6 7 11 12825.7 597.66 8
-6 -8 1 15972.9 739.934 17
-6 -8 0 -87.8211 180.152 17
-6 -8 -1 249.158 237.03 17
-6 -8 -2 16802 1042.1 17
-6 -8 -3 2499.66 453.776 17
-6 -8 -4 5002.36 594.585 17
-6 -8 -5 7421.66 718.904 17
-6 -8 -6 2647.45 447.784 17
-6 -8 -7 499.88 238.706 17
-6 -8 -8 10351.9 718.323 17
6 8 9 1187.18 290.639 8
6 8 10 8594.55 564.287 8
-6 -9 0 429.779 140.835 17
-6 -9 -1 1334.47 268.377 17
-6 -9 -2 215.369 185.626 17
-6 -9 -3 1272.98 302.026 17
-6 -9 -4 1009.64 309.466 17
-6 -9 -5 578.286 241.572 17
-6 -9 -6 6992.09 605.843 17
-6 -9 -7 12195.2 729.568 17
-6 -9 -8 5345.01 442.813 17
6 9 9 1416.72 253.562 8
6 9 10 13866.6 617.835 8
-6 -10 -3 641.271 189.756 17
-6 -10 -4 570.23 176.546 17
-6 -10 -5 14361.2 698.47 17
-6 -10 -6 6526.56 452.03 17
7 -3 -3 1320.77 242.218 12
7 -3 -3 1456.95 258.952 11
7 -3 -3 1428.39 236.273 10
7 -3 -2 13420 736.028 11
7 -3 -2 12811.2 716.138 10
7 -3 -1 6696.15 542.575 11
7 -3 -1 6355.25 532.768 10
7 -3 0 807.578 227.199 10
7 -3 0 697.132 180.205 15
7 -3 1 207.497 183.223 10
7 -3 2 1316.14 228.716 10
7 -3 2 780.152 201.61 15
7 -2 -4 8312.73 558.849 11
7 -2 -4 8181.94 561.798 12
7 -2 -3 765.687 255.607 12
7 -2 -3 824.088 236.451 11
7 -2 -2 32260.9 1267.1 11
-7 2 2 30352.2 980.077 9
7 -2 -2 31937.1 1273.09 12
7 -2 -1 2232.97 394.813 12
7 -2 -1 1931.54 356.145 11
-7 2 1 1853.25 273.043 9
7 -2 0 6013.84 591.84 11
-7 2 0 5409.45 443.43 9
7 -2 1 2566.73 395.095 11
7 -2 1 2967.22 428.015 10
-7 2 -1 2520.19 315.391 9
7 -2 2 8334.19 629.021 10
7 -2 3 83.3675 143.733 10
7 -1 -5 8988.35 535.961 11
7 -1 -5 8254.25 518.644 12
7 -1 -4 188.681 182.806 12
7 -1 -4 423.802 190.102 11
7 -1 -3 494.002 264.797 12
7 -1 -3 410.499 204.822 11
7 -1 -2 1368.92 338.4 12
7 -1 -2 1159.98 355.48 11
7 -1 -1 1227.35 361.468 12
7 -1 -1 1418.1 348.585 11
7 -1 0 589.124 294.738 12
7 -1 0 503.04 249.096 11
-7 1 0 406.194 184.948 9
7 -1 1 4837.82 566.122 11
-7 1 -1 6279.43 586.078 9
7 -1 2 330.537 197.432 11
-7 1 -2 501.704 196.569 9
7 -1 3 158.032 171.314 10
-7 1 -3 -5.79617 150.834 9
7 -1 4 2313.01 295.704 10
-7 1 -4 2360.21 310.785 9
-7 1 -5 3371.46 320.018 9
7 0 -5 5138.8 414.686 12
7 0 -5 5624.7 446.057 11
7 0 -4 93.4705 164.912 12
7 0 -4 5.97089 178.655 11
7 0 -3 1518.51 336.314 12
7 0 -3 1515.08 320.678 11
7 0 -2 9334.95 768.088 11
7 0 -2 8694.11 750.29 12
7 0 -1 2666.95 483.053 12
7 0 -1 2431.69 433.328 11
7 0 0 2814.89 517.648 12
7 0 0 3281.27 504.999 11
7 0 1 2975.53 521.041 12
7 0 1 2395.06 453.026 11
-7 0 -1 2481.16 455.853 9
7 0 2 1927.24 353.448 11
-7 0 -2 2366.89 422.988 9
-7 0 -3 16567.1 997.673 9
-7 0 -4 862.862 263.144 9
-7 0 -5 1562.12 298.747 9
-7 0 -6 -76.8861 135.5 9
7 1 -4 6305.04 509.391 12
7 1 -4 4535.39 408.964 14
7 1 -3 4932.17 536.348 12
7 1 -3 4896.43 498.854 14
7 1 -2 11063.5 836.135 12
7 1 -2 10834.7 796.679 14
7 1 -1 4162.42 555.272 11
7 1 -1 5429.82 640.943 12
7 1 0 1868.56 420.196 12
7 1 0 1331.74 353.858 11
7 1 1 5058.22 658.811 12
7 1 1 4813.22 587.486 11
7 1 2 30464 1344 11
-7 -1 -2 29163.6 1433.11 9
7 1 2 29886.6 1488.37 12
7 1 3 2164.32 343.318 11
-7 -1 -3 1847.37 413.697 9
-7 -1 -4 293.639 236.035 9
-7 -1 -5 701.392 283.319 9
-7 -1 -6 71.355 175.83 9
-7 -1 -7 16857.9 797.851 9
7 2 -4 1766.26 253.306 12
7 2 -4 2086.83 317.026 14
7 2 -3 85.9994 174.582 12
7 2 -3 -32.5836 160.899 14
7 2 -2 17563.4 977.556 12
7 2 -2 17985.8 1057.55 14
7 2 -1 4123.77 524.812 12
7 2 -1 4536.62 601.461 14
7 2 0 14498.1 970.333 11
7 2 0 12451.3 976.518 14
7 2 0 14166.6 983.326 12
7 2 1 370.485 232.992 12
7 2 1 -159.567 232.449 11
7 2 2 404.77 243.998 12
7 2 2 831.65 286.63 11
-7 -2 -3 647.331 338.783 9
-7 -2 -4 1901.2 413.008 9
-7 -2 -5 1438.14 362.857 9
-7 -2 -6 1064.52 286.577 9
-7 -2 -7 5072.22 504.31 9
7 2 7 5106.95 411.052 8
7 3 -4 4662.12 432.317 14
7 3 -3 -6.50675 195.137 14
7 3 -2 1933.92 411.511 14
7 3 -1 6163.41 681.689 14
7 3 -1 6854.81 596.992 12
7 3 0 4630.4 664.211 14
7 3 0 5683.28 589.898 12
7 3 1 11170.6 983.178 14
7 3 1 12125.7 869.893 12
7 3 2 622.293 265.726 12
-7 -3 -2 1045.72 257.355 17
-7 -3 -3 -95.8035 226.62 17
-7 -3 -3 -46.3819 242.163 9
-7 -3 -4 1792.92 411.274 9
-7 -3 -5 12631.2 932.736 9
-7 -3 -6 307.94 244.408 9
7 3 6 232.154 147.051 8
-7 -3 -7 581.484 269.886 9
7 3 7 483.944 179.503 8
-7 -3 -8 3953.64 415.517 9
7 3 8 4788.59 407.321 8
7 4 -3 21067.5 970.358 14
7 4 -2 2895.34 452.45 14
7 4 -1 3644.09 547.193 14
7 4 0 109.803 282.782 14
-7 -4 -1 12579.3 813.693 17
7 4 1 10828.8 955.706 14
-7 -4 -2 289.156 199.771 17
-7 -4 -3 3407.57 486.831 17
-7 -4 -3 3477.48 495.732 9
-7 -4 -4 4484.85 550.02 17
-7 -4 -4 3725.55 530.178 9
-7 -4 -5 1873.62 382.563 17
-7 -4 -5 1889.78 385.433 9
-7 -4 -6 10411.2 783.091 9
7 4 6 10656.7 687.11 8
-7 -4 -7 7469.04 626.955 9
7 4 7 7636.24 571.343 8
-7 -4 -8 3048.84 373.965 9
7 4 8 3033.14 355.002 8
7 4 9 659.542 165.526 8
7 5 -3 2036.98 288.299 14
7 5 -2 545.498 251.525 14
7 5 -1 6909.33 659.936 14
-7 -5 0 783.702 225.407 17
7 5 0 499.312 299.361 14
-7 -5 -1 2360.58 387.85 17
7 5 1 2242.53 491.734 14
-7 -5 -2 25586.7 1218.34 17
-7 -5 -3 1135.81 326.42 17
-7 -5 -3 872.119 277.551 9
-7 -5 -4 42523.9 1643.57 17
-7 -5 -4 41729.5 1526.72 9
-7 -5 -5 14899 977.833 17
-7 -5 -5 13789.1 871.376 9
7 5 6 1968.99 320.796 8
-7 -5 -6 1656.48 364.978 17
-7 -5 -6 2177.18 357.78 9
-7 -5 -7 3307.1 399.42 9
7 5 7 3574.86 405.173 8
-7 -5 -8 10303.9 611.42 9
7 5 8 10154.3 629.16 8
7 5 9 44.0647 122.476 8
7 6 -2 1159.66 231.09 14
7 6 -1 506.799 231.596 14
-7 -6 0 14883.5 751.653 17
7 6 0 13300.6 879.39 14
-7 -6 -1 14633.4 846.475 17
7 6 1 14523.8 973.19 14
-7 -6 -2 4.46692 188.104 17
-7 -6 -3 2649.73 433.191 17
-7 -6 -4 -9.85482 196.106 17
-7 -6 -5 1161.77 324.009 17
-7 -6 -6 5779.63 597.411 17
7 6 6 6457.71 537.045 8
7 6 7 27.9351 163.438 8
7 6 8 222.135 146.765 8
7 6 9 13660 639.477 8
-7 -7 0 7843.36 483.259 17
-7 -7 -1 2516.33 340.544 17
-7 -7 -2 2742.52 389.426 17
-7 -7 -3 564.935 192.132 17
-7 -7 -4 1996.2 372.91 17
-7 -7 -5 9324.17 722.473 17
7 7 5 9559.69 587.244 8
7 7 6 742.455 215.976 8
-7 -7 -6 621.854 243.371 17
-7 -7 -7 8458.57 633.879 17
7 7 7 8700.6 577.836 8
7 7 8 11709.8 631.983 8
7 7 9 1127.26 211.083 8
-7 -8 -1 10721.5 540.974 17
-7 -8 -2 -172.498 161.271 17
-7 -8 -3 3213.03 388.14 17
-7 -8 -4 8758.98 632.987 17
-7 -8 -5 3572.72 416.347 17
-7 -8 -6 3131.47 379.385 17
7 8 6 2777.4 306.104 8
7 8 7 76.7713 119.953 8
-7 -8 -7 84.0976 135.844 17
7 8 8 47.1009 100.703 8
-7 -9 -3 13045.9 580.169 17
-7 -9 -4 345.943 149.237 17
-7 -9 -5 15065 674.027 17
-7 -9 -6 9575.27 523.585 17
-8 0 -1 1343.89 218.801 9
-8 -1 1 11610.3 586.129 9
-8 -1 0 1649.03 263.735 9
-8 -1 -1 587.868 194.941 9
-8 -1 -2 13900.3 709.179 9
-8 -1 -3 29481.7 985.998 9
-8 -1 -4 6198.24 427.158 9
-8 -2 1 422.626 148.485 9
-8 -2 0 1699.28 273.78 9
-8 -2 -1 -225.716 189.834 9
-8 -2 -2 -46.3578 161.07 9
-8 -2 -3 11497.8 676.408 9
-8 -2 -4 1039.9 240.946 9
-8 -2 -5 3112.46 316.771 9
-8 -3 1 1953.13 252.753 9
-8 -3 0 1417.94 242.969 9
-8 -3 -1 287.367 170.96 9
-8 -3 -2 1559.07 279.462 9
-8 -3 -3 7423.22 565.633 9
-8 -3 -4 530.439 196.203 9
-8 -3 -5 39603.3 1155.29 9
-8 -3 -6 20620 742.654 9
-8 -4 0 2499.56 276.903 9
-8 -4 -1 1760.78 258.452 9
-8 -4 -2 5859.12 470.815 9
-8 -4 -3 8071.77 556.66 9
-8 -4 -4 7381.71 519.545 9
-8 -4 -5 1913.29 268.711 9
-8 -4 -6 29714.9 883.682 9
-8 -5 -2 1257.23 197.226 9
-8 -5 -3 2952.9 300.258 9
-8 -5 -4 158.324 120.909 9
-8 -5 -5 2101.25 244.933 9
loop_
_exptl_oxdiff_crystal_face_indexfrac_h
_exptl_oxdiff_crystal_face_indexfrac_k
_exptl_oxdiff_crystal_face_indexfrac_l
_exptl_oxdiff_crystal_face_x
_exptl_oxdiff_crystal_face_y
_exptl_oxdiff_crystal_face_z
-1.0000 3.0000 6.0000 -0.3987 0.2678 -0.8086
-4.0000 1.0000 0.0000 -0.2222 -0.7134 -0.6653
4.0000 0.0000 1.0000 0.2363 0.7742 0.4959
1.0000 -3.0000 -6.0000 0.3987 -0.2678 0.8086
1.0000 6.0000 3.0000 0.5254 0.2791 -0.7160
-1.0000 2.0000 7.0000 -0.6478 0.3788 -0.7477
-1.0000 -6.0000 -3.0000 -0.5254 -0.2791 0.7160
-3.0000 3.0000 -2.0000 0.3644 -0.7633 -0.6495
-1.0000 6.0000 2.0000 0.4660 -0.1510 -0.9368
3.0000 4.0000 6.0000 0.0866 0.9310 -0.3735
3.0000 2.0000 -3.0000 0.8810 0.2085 0.3453
-3.0000 -2.0000 3.0000 -0.8810 -0.2085 -0.3453
-0.0000 6.0000 0.0000 0.7894 -0.1506 -0.6907
0.0000 -5.0000 1.0000 -0.7754 0.2114 0.5213
