#------------------------------------------------------------------------------
#$Date: 2019-11-17 07:00:43 +0200 (Sun, 17 Nov 2019) $
#$Revision: 228543 $
#$URL: file:///home/coder/svn-repositories/cod/cif/7/12/19/7121950.cif $
#------------------------------------------------------------------------------
#
# This file is available in the Crystallography Open Database (COD),
# http://www.crystallography.net/
#
# All data on this site have been placed in the public domain by the
# contributors.
#
data_7121950
loop_
_publ_author_name
'Thomson, Connor J.'
'Zhang, Qingzhi'
'Al-Maharik, Nawaf'
'B\"uhl, Michael'
'Cordes, David B.'
'Slawin, Alexandra M. Z.'
'O'Hagan, David'
_publ_section_title
;
 Fluorinated cyclopropanes: synthesis and chemistry of the aryl
 \a,\b,\b-trifluorocyclopropane motif.
;
_journal_issue                   60
_journal_name_full
'Chemical communications (Cambridge, England)'
_journal_page_first              8415
_journal_page_last               8418
_journal_paper_doi               10.1039/c8cc04964e
_journal_volume                  54
_journal_year                    2018
_chemical_formula_moiety         'C4 H3 F3 O2'
_chemical_formula_sum            'C4 H3 F3 O2'
_chemical_formula_weight         140.06
_space_group_crystal_system      monoclinic
_space_group_IT_number           14
_space_group_name_Hall           '-P 2yn'
_space_group_name_H-M_alt        'P 1 21/n 1'
_symmetry_space_group_name_Hall  '-P 2yn'
_symmetry_space_group_name_H-M   'P 1 21/n 1'
_atom_sites_solution_hydrogens   geom
_atom_sites_solution_primary     direct
_atom_sites_solution_secondary   difmap
_audit_creation_date             2018-06-25
_audit_creation_method           'by CrystalStructure 4.3'
_audit_update_record
;
2018-06-25 deposited with the CCDC.
2018-07-12 downloaded from the CCDC.
;
_cell_angle_alpha                90.0000
_cell_angle_beta                 101.626(12)
_cell_angle_gamma                90.0000
_cell_formula_units_Z            4
_cell_length_a                   5.165(2)
_cell_length_b                   11.201(5)
_cell_length_c                   8.564(4)
_cell_measurement_reflns_used    1520
_cell_measurement_temperature    173
_cell_measurement_theta_max      27.40
_cell_measurement_theta_min      3.00
_cell_volume                     485.3(4)
_computing_cell_refinement       'CrystalClear-SM Expert 2.1 b45'
_computing_data_collection
'CrystalClear-SM Expert 2.1 b45 (Rigaku, 2015)'
_computing_data_reduction        'CrystalClear-SM Expert 2.1 b45'
_computing_molecular_graphics    'CrystalStructure 4.3'
_computing_publication_material  'CrystalStructure 4.3 (Rigaku, 2018)'
_computing_structure_refinement  'SHELXL Version 2018/3 (Sheldrick, 2008)'
_computing_structure_solution    'SIR2011 (Burla, et al., 2012)'
_diffrn_ambient_temperature      173
_diffrn_detector_area_resol_mean 5.814
_diffrn_measured_fraction_theta_full 0.989
_diffrn_measured_fraction_theta_max 0.989
_diffrn_measurement_device_type  'Rigaku XtaLAB P200'
_diffrn_measurement_method       \w
_diffrn_radiation_type           'Mo K\a'
_diffrn_radiation_wavelength     0.71075
_diffrn_reflns_av_R_equivalents  0.0325
_diffrn_reflns_av_unetI/netI     0.0176
_diffrn_reflns_Laue_measured_fraction_full 0.989
_diffrn_reflns_Laue_measured_fraction_max 0.989
_diffrn_reflns_limit_h_max       6
_diffrn_reflns_limit_h_min       -6
_diffrn_reflns_limit_k_max       11
_diffrn_reflns_limit_k_min       -13
_diffrn_reflns_limit_l_max       10
_diffrn_reflns_limit_l_min       -10
_diffrn_reflns_number            5412
_diffrn_reflns_point_group_measured_fraction_full 0.989
_diffrn_reflns_point_group_measured_fraction_max 0.989
_diffrn_reflns_theta_full        25.242
_diffrn_reflns_theta_max         25.387
_diffrn_reflns_theta_min         3.034
_diffrn_standards_number         0
_exptl_absorpt_coefficient_mu    0.220
_exptl_absorpt_correction_T_max  0.989
_exptl_absorpt_correction_T_min  0.797
_exptl_absorpt_correction_type   multi-scan
_exptl_absorpt_process_details   'REQAB (Rigaku, 1998)'
_exptl_crystal_colour            colorless
_exptl_crystal_density_diffrn    1.917
_exptl_crystal_density_method    'not measured'
_exptl_crystal_description       prism
_exptl_crystal_F_000             280.00
_exptl_crystal_recrystallization_method
'Re-crystallisation from solvent: Ethyl acetate'
_exptl_crystal_size_max          0.240
_exptl_crystal_size_mid          0.110
_exptl_crystal_size_min          0.050
_refine_diff_density_max         0.23
_refine_diff_density_min         -0.31
_refine_ls_extinction_method     none
_refine_ls_goodness_of_fit_ref   1.206
_refine_ls_hydrogen_treatment    mixed
_refine_ls_number_parameters     85
_refine_ls_number_reflns         885
_refine_ls_number_restraints     1
_refine_ls_R_factor_all          0.0392
_refine_ls_R_factor_gt           0.0338
_refine_ls_shift/su_max          0.000
_refine_ls_structure_factor_coef Fsqd
_refine_ls_weighting_details
'w = 1/[\s^2^(Fo^2^)+(0.0342P)^2^+0.4784P] where P=(Fo^2^+2Fc^2^)/3'
_refine_ls_weighting_scheme      calc
_refine_ls_wR_factor_gt          0.0912
_refine_ls_wR_factor_ref         0.1022
_reflns_Friedel_coverage         0.000
_reflns_number_gt                775
_reflns_number_total             885
_reflns_threshold_expression     F^2^>2.0\s(F^2^)
_cod_data_source_file            c8cc04964e2.cif
_cod_data_source_block           18
_cod_depositor_comments
'Adding full bibliography for 7121950--7121954.cif.'
_cod_database_code               7121950
_shelx_res_file
;
TITL QZDH13
    shelxl.res
    created by SHELXL-2018/3 at 11:04:38 on 29-Mar-2018
CELL  0.71075 5.16500 11.20100 8.56400 90.000 101.626 90.000
ZERR  4 0.00200 0.00500 0.00400 0.000 0.012 0.000
LATT 1
SYMM 1/2-X, 1/2+Y, 1/2-Z
SFAC C H F O
UNIT 16 12 12 8
L.S. 5
FMAP 2
PLAN 5
BOND $H
CONF
LIST 4
TEMP -100.0
ACTA
SIZE 0.240 0.110 0.050
DFIX 0.9800 0.0100 O5 H5
HTAB
EQIV $1 -x+2, -y, -z+1
HTAB O5 O4_$1
HTAB
WGHT    0.034200    0.478400
FVAR       1.65794
F1    3    0.239916    0.012494    0.232769    11.00000    0.02584    0.03060 =
         0.04218   -0.00395    0.00372    0.00613
F2    3    0.273521   -0.104544   -0.037313    11.00000    0.04152    0.03869 =
         0.03012    0.00049   -0.00513   -0.00123
F3    3    0.674316   -0.168343    0.059360    11.00000    0.03268    0.04037 =
         0.03778   -0.00714    0.01427    0.00027
O4    4    0.850323   -0.118726    0.400447    11.00000    0.02453    0.03069 =
         0.03220   -0.00120    0.00200    0.00135
O5    4    0.696102    0.068292    0.405923    11.00000    0.02859    0.02801 =
         0.03289   -0.00588    0.00317   -0.00287
H5    2    0.867525    0.091390    0.464207    11.00000   -1.50000
C1    1    0.432848   -0.072110    0.244773    11.00000    0.02221    0.02371 =
         0.03032   -0.00060    0.00628    0.00195
C2    1    0.440947   -0.139759    0.095895    11.00000    0.02670    0.02902 =
         0.02536   -0.00208    0.00212    0.00045
C3    1    0.342305   -0.202401    0.220569    11.00000    0.02404    0.02634 =
         0.03545   -0.00101    0.00368   -0.00298
AFIX  23
H3A   2    0.456379   -0.264653    0.281264    11.00000   -1.20000
H3B   2    0.150261   -0.218819    0.202892    11.00000   -1.20000
AFIX   0
C4    1    0.679942   -0.041179    0.359992    11.00000    0.02469    0.02715 =
         0.01920    0.00068    0.00764   -0.00160
HKLF 4




REM  QZDH13
REM wR2 = 0.1022, GooF = S = 1.206, Restrained GooF = 1.208 for all data
REM R1 = 0.0338 for 775 Fo > 4sig(Fo) and 0.0392 for all 885 data
REM 85 parameters refined using 1 restraints

END

WGHT      0.0342      0.4784

REM Instructions for potential hydrogen bonds
HTAB O5 O4_$1
EQIV $2 x+1/2, -y-1/2, z+1/2
HTAB C3 F2_$2
EQIV $3 x-1, y, z
HTAB C3 F3_$3

REM Highest difference peak  0.231,  deepest hole -0.313,  1-sigma level  0.053
Q1    1   0.5547 -0.0567  0.3046  11.00000  0.05    0.23
Q2    1   0.3680 -0.1342  0.2593  11.00000  0.05    0.22
Q3    1   0.4929 -0.0809  0.1555  11.00000  0.05    0.22
Q4    1   0.9426 -0.1021  0.4609  11.00000  0.05    0.19
Q5    1   0.8205 -0.0796  0.3321  11.00000  0.05    0.18
;
_shelx_res_checksum              85666
_shelx_hkl_file
;
   0   1   0    0.62    2.47
   0   0  -1    0.65    3.45
   0  -1   1   14.29    3.11
   0  -1  -1   13.14    4.50
   0   1  -1   14.60    3.34
   0  -1  -1   11.32    4.87
   0   1   1   14.55    4.90
   0  -1  -1   14.04    3.25
   0  -2   0 7565.54  150.29
   0  -2   0 7062.32  132.45
   0  -2   0 6686.69  132.53
   0  -2   0 7063.70  140.08
  -1   0   0   -0.07    2.15
   1   0   0   -0.17    2.42
  -1   0   0    0.98    2.67
  -1   0   1 3130.13   64.26
   1   0  -1 3152.84   64.85
   1   0  -1 3025.06   60.50
  -1   0   1 2975.97   59.82
  -1   0   1 3631.51   75.38
   0  -2   1 6164.21  117.58
   0  -2   1 5874.39  113.37
   0  -2   1 6233.50  114.92
   0  -2  -1 6382.16  126.07
   0  -2   1 6322.76  117.52
   0   2  -1 6229.39  114.59
  -1   1   0 4642.46   88.18
  -1  -1   0 4620.36   87.41
   1  -1   0 4625.60   87.35
   1  -1   0 4719.70   89.89
  -1  -1   0 4678.48   89.28
   1   1   0 4776.89   91.62
  -1   1   0 4708.20   92.17
   1  -1   0 4691.62   91.94
   1   1   0 4616.50   88.03
  -1   1   1 2699.49   57.72
   1  -1  -1 3301.88   69.53
   1   1  -1 2820.82   58.89
  -1  -1   1 2825.97   58.55
  -1  -1   1 2700.29   56.11
   1  -1  -1 2769.39   56.71
  -1  -1   1 2795.82   56.84
   1   1  -1 2782.03   56.72
   1  -1  -1 2816.27   58.64
   0   0  -2   42.70    4.67
   0   0   2   43.04    4.79
   0   0  -2   45.11    5.05
   0   0   2   38.07    4.18
   0   0   2   43.71    4.78
   0   0   2   41.88    4.72
  -1   0  -1 3879.18   75.49
  -1   0  -1 3968.37   77.69
   1   0   1 4003.82   78.07
  -1   0  -1 3993.69   77.68
   0  -1  -2  879.80   24.70
   0   1  -2  918.21   24.13
   0  -1   2  908.14   24.38
   0   1   2  885.32   26.85
   0  -1  -2  894.25   24.63
  -1  -1  -1  480.73   16.39
  -1  -1  -1  480.13   16.07
  -1   1  -1  478.96   16.52
   1   1   1  468.73   42.30
   1   1   1  474.05   16.22
  -1  -1  -1  455.66   24.54
   1  -1   1  480.98   16.35
  -1   1  -1  478.24   16.52
  -1   2   0  492.93   17.65
   1  -2   0  492.75   17.79
  -1  -2   0  433.86   16.21
  -1   2   0  483.46   16.62
  -1  -2   0  487.67   16.42
  -1  -2   0  487.58   16.31
  -1   2   0  475.63   16.00
   1  -2   0  471.58   15.84
   1   2   0  450.32   15.59
   1  -2   0  481.98   16.46
   0  -3   0    0.55    2.57
   0  -3   0   -0.45    2.50
   0  -3   0   -1.01    2.48
   0  -3   0   -0.00    2.38
   0   3   0    0.50    2.69
   1   2  -1  802.13   22.08
  -1  -2   1  779.46   21.92
   1  -2  -1  801.45   22.93
   1  -2  -1  836.82   25.77
  -1  -2   1  808.39   22.87
   1  -2  -1  782.19   21.59
   1  -2  -1  747.66   22.34
  -1  -2   1  797.95   22.20
   1   2  -1  804.37   22.44
  -1   1   2 6653.19  126.76
   1  -1  -2 6838.73  129.07
  -1  -1   2 6693.43  123.21
   1  -1  -2 6650.38  120.95
  -1  -1   2 6872.74  129.60
  -1   1   2 6171.62  113.27
   1   1  -2 6605.90  120.73
   1  -1  -2 6655.70  123.22
  -1   1   2 6303.79  118.14
   0  -3  -1 6521.80  120.61
   0  -3  -1 6783.34  125.23
   0  -3  -1 6868.30  133.05
   0   3   1 6354.88  120.94
   0  -3   1 6532.19  125.48
   0  -3   1 6173.51  143.73
   0  -3  -1 6807.26  126.19
   0  -3   1 6809.81  149.81
   0   3  -1 6215.13  196.35
   0  -3  -1 6724.35  131.85
   0  -3   1 6711.24  132.03
   0  -2  -2 1223.30   32.31
   0  -2  -2 1218.79   30.42
   0   2  -2 1220.75   30.51
   0  -2  -2 1200.24   30.63
   0  -2   2 1267.79   30.71
   0  -2  -2 1208.31   30.85
   0   2  -2 1244.67   30.33
   0   2  -2 1294.14   30.78
   1   2   1  319.45   15.14
  -1  -2  -1  417.36   19.58
  -1   2  -1  412.99   18.71
  -1   2  -1  413.74   15.33
   1  -2   1  423.72   15.60
  -1  -2  -1  398.20   14.79
   1  -2   1  399.83   15.42
  -1   2  -1  410.93   15.00
   1   2   1  379.06   14.91
  -1  -2  -1  406.39   14.56
  -1   2   2 4652.64   91.91
  -1  -2   2 4486.66   87.93
   1  -2  -2 4362.31   85.20
   1   2  -2 4316.31   82.82
   1  -2  -2 4288.60   81.51
  -1   2   2 4237.69   81.06
  -1  -2   2 4272.98   81.88
   1  -2  -2 4411.61   86.70
  -1   3   0  611.04   20.34
   1  -3   0  636.19   19.96
  -1   3   0  628.47   23.95
  -1   3   0  637.90   20.61
   1  -3   0  617.26   20.58
  -1  -3   0  619.80   18.78
   1  -3   0  598.19   18.13
  -1  -3   0  623.60   19.60
   1   3   0  596.09   18.67
  -1  -3   0  620.38   19.04
   1   3   0  539.87   17.78
  -1  -3   1 1884.06   43.04
  -1  -3   1 1948.97   43.22
   1  -3  -1 1877.83   41.20
   1   3  -1 1871.70   43.09
  -1  -3   1 1878.75   41.07
   1   3  -1 1972.21   42.59
   1  -3  -1 1963.08   45.98
   1  -3  -1 1874.78   42.99
  -1   3   1 1858.85   43.08
   1   3  -1 1846.62   41.45
   1  -1   2 2703.87   61.08
  -1  -1  -2 2824.49   58.19
   1  -1   2 2942.73   61.97
   1   1   2 2892.04   60.87
   1   1   2 2677.72   65.37
   1   1   2 2973.09   62.03
  -1  -1  -2 2862.47   57.84
  -1   1  -2 2742.58   57.50
  -1  -1  -2 2747.82   56.28
  -1   1  -2 2907.66   61.52
   0  -4   0 3706.02   76.87
   0   4   0 3799.63   80.51
   0  -4   0 3794.60   75.41
   0  -4   0 3732.53   74.22
   0  -4   0 3661.27   80.41
   0   4   0 3343.56   78.44
   0   0   3    3.93    1.99
   0   0  -3   -0.18    2.68
   0   0  -3    1.11    2.51
   0   0   3    1.25    2.46
   0   3  -2  629.74   19.35
   0  -3  -2  613.31   19.26
   0   3   2  678.41   24.33
   0  -3  -2  631.25   19.69
   0  -3  -2  636.43   20.77
   0  -3   2  646.25   19.56
   0   3  -2  630.53   19.09
   0  -3  -2  646.73   19.32
  -1  -3  -1  996.30   26.12
  -1   3  -1  979.02   26.40
   1  -3   1  999.97   30.81
  -1   3  -1  977.45   25.90
   1   3   1 1011.45   27.38
  -1  -3  -1 1010.58   27.99
   1  -3   1  957.50   25.47
  -1   3  -1  992.84   27.22
   0  -1  -3 2139.24   45.70
   0  -1   3 2278.35   48.28
   0  -1   3 2068.27   45.54
   0  -1  -3 2023.01   48.24
   0  -1   3 2087.54   46.44
   0   1   3 2209.99   51.58
   0   1  -3 2281.93   49.64
  -1   0   342256.31 1435.15
  -1   0   341113.33  691.94
   1   0  -340204.78  682.66
  -1   0   342825.23 1470.08
   1   0  -342119.44 1449.87
   1   0  -341474.53  704.85
   0  -4  -1 1401.31   33.53
   0  -4   1 1390.31   33.24
   0  -4  -1 1367.31   35.23
   0   4   1 1363.04   32.63
   0  -4   1 1137.10   31.29
   0  -4  -1 1366.07   33.01
   0  -4  -1 1402.01   37.01
   0   4  -1 1454.65   36.20
   0  -4   1 1399.66   35.37
   0  -4   1 1479.50   35.29
   0  -4  -1 1420.85   34.69
  -1  -1   3  631.42   19.17
  -1   1   3  621.86   20.32
   1  -1  -3  622.49   19.81
   1   1  -3  639.49   19.99
  -1  -1   3  633.52   20.25
  -1  -1   3  633.55   20.07
  -1   1   3  657.73   21.78
   1   1  -3  634.00   21.05
  -1   1   3  602.86   20.12
   1  -1  -3  631.50   19.32
   1  -2   2 2251.25   49.64
  -1   2  -2 2171.11   46.87
  -1  -2  -2 2189.17   51.99
   1   2   2 2212.13   57.97
   1  -2   2 2107.79   51.56
   1   2   2 1968.40   48.65
   1   2   2 2104.90   53.09
  -1  -2  -2 2058.20   53.03
  -1  -2  -2 2066.80   48.75
  -1   2  -2 2219.75   50.22
   1  -2   2 2223.39   53.26
  -1   2  -2 2276.57   51.77
   1  -3  -2 2052.17   44.37
  -1   3   2 2022.61   43.57
  -1   3   2 2153.93   47.57
   1  -3  -2 2060.58   48.31
  -1  -3   2 2082.37   48.01
   1   3  -2 2056.74   47.17
   1   3  -2 2185.01   46.50
   1  -3  -2 2512.72   56.08
  -1  -3   2 2151.27   45.86
   1   3  -2 2116.21   46.05
   2   0  -1    1.04    2.74
  -2   0   1    0.67    2.79
   2   0  -1    0.35    3.16
   2   0  -1   -0.60    2.06
  -2   0   1    0.50    2.56
   2   0  -1    0.09    4.22
  -2   0   015679.61  279.63
   2   0   017218.64  303.42
  -2   0   017039.86  312.33
  -2   0   017538.19  304.47
   2   0   016459.77  301.67
   2   0   017184.27  300.49
  -2  -1   1   12.13    3.26
  -2  -1   1   14.46    3.29
   2   1  -1   12.06    3.26
  -2  -1   1   13.34    3.68
   2  -1  -1   11.38    3.48
   2   1  -1   11.42    3.61
   2   1  -1   12.55    3.37
   2  -1  -1   13.06    3.37
  -2   1   1   13.34    3.39
   0  -2   3  229.73   10.61
   0   2   3  193.57   10.10
   0  -2  -3  218.78   10.43
   0   2  -3  234.24   10.33
   0   2   3  210.03   10.14
   0   2  -3  222.37   10.23
   0  -2   3  217.39   10.08
   0   2  -3  235.23   11.09
   0  -2  -3  187.23    9.47
   0  -2   3  213.17   10.05
   0  -2  -3  231.42   10.84
   0  -2  -3  190.46   10.14
  -2  -1   0 1789.96   41.43
   2  -1   0 1800.55   40.99
  -2   1   0 1808.38   40.28
   2   1   0 1645.64   39.32
  -2  -1   0 1743.69   39.41
  -2   1   0 1849.95   43.38
   2  -1   0 1860.38   42.12
   2   1   0 1863.84   42.40
   2   1   0 1792.13   42.53
   1   4   0 1295.73   35.01
   1  -4   0 1305.35   33.82
   1  -4   0 1309.93   32.71
  -1  -4   0 1275.72   31.40
  -1   4   0 1242.58   55.35
  -1  -4   0 1295.34   39.74
  -1  -4   0 1286.05   32.69
   1  -4   0 1199.48   34.24
   1   4   0 1254.43   34.50
   1  -2  -3 3160.87   64.27
  -1  -2   3 3256.16   64.79
   1  -2  -3 3124.20   62.10
  -1   2   3 3078.17   61.63
   1  -2  -3 3188.96   64.63
  -1  -2   3 3267.41   64.99
  -1  -2   3 3113.64   70.20
   1   2  -3 3067.85   68.69
   1   2  -3 3251.34   65.28
   1  -4  -112671.61  237.90
  -1   4   111737.44  208.22
   1   4  -111954.36  213.38
   1   4  -111983.50  213.37
   1   4  -112259.35  225.14
  -1  -4   111848.53  216.87
  -1  -4   111899.80  210.30
   1  -4  -111632.58  203.75
  -1  -4   111704.92  207.40
   1  -4  -111792.71  210.99
   2   0  -2  398.74   14.15
  -2   0   2  397.83   14.58
   2   0  -2  405.16   15.01
  -2   0   2  459.22   22.48
  -2   1   2  437.44   20.79
  -2  -1   2  449.06   21.05
   2   1  -2  449.97   20.15
   2   1  -2  460.18   20.89
   2   1  -2  462.14   21.26
  -2  -1   2  447.82   20.37
   2  -1  -2  461.00   21.12
   2  -1  -2  463.25   20.59
   2   2  -1  154.46    9.83
  -2  -2   1  192.50   12.71
   2   2  -1  171.22   10.34
  -2   2   1  166.53   10.16
   2  -2  -1  172.30   10.70
  -2  -2   1  160.32    9.96
   2  -2  -1  163.42    9.80
  -2   2   1  169.27   10.37
  -2  -2   1  169.74   10.25
   0   4   210962.50  381.28
   0  -4  -211159.50  383.30
   0  -4  -211015.64  383.06
   0  -4  -210335.13  373.11
   0  -4   211393.40  401.67
   0  -4  -210658.71  391.64
   0   4  -211751.61  428.38
   1  -3   2  346.85   17.07
  -1  -3  -2  328.89   16.46
  -1   3  -2  326.05   15.86
  -1  -3  -2  308.21   15.77
   1  -3   2  308.57   15.08
  -1   3  -2  339.85   16.66
   1  -3   2  342.02   18.10
   1   3   2  304.62   16.13
  -1  -3  -2  352.35   17.11
   1   3   2  324.80   16.05
  -1   3  -2  323.92   15.96
  -2  -2   0 2789.55  100.06
  -2   2   0 2846.01  101.74
   2   2   0 2717.87   97.89
   2   2   0 2680.21   98.24
   2   2   0 2796.90  101.93
  -2   2   0 2785.77  101.28
  -2   2   0 2962.17  105.89
   2  -2   0 2787.64  100.52
  -2  -2   0 2652.34   95.28
   2  -2   0 2899.83  103.40
   2   0   1    0.45    2.79
   2   0   1   -0.02    2.47
  -2   0  -1   -0.14    2.33
   2   0   1    0.99    2.53
  -2   0  -1    0.54    2.88
   1   4   1  288.37   15.22
   1  -4   1  288.99   16.26
  -1   4  -1  274.79   14.82
  -1   4  -1  276.80   17.90
   1  -4   1  270.80   13.69
  -1  -4  -1  288.69   14.95
  -1  -4  -1  261.04   14.41
  -1   4  -1  279.53   21.89
  -1  -4  -1  277.05   14.50
   1  -4   1  274.80   15.47
   1   4   1  285.55   16.14
   1   0   327397.85  664.44
   1   0   326568.47  569.03
  -1   0  -325498.73  867.96
  -1   0  -324429.86  864.76
   1   0   327266.66  583.52
   2   1   1   14.42    3.63
   2  -1   1    9.90    3.42
  -2   1  -1   13.52    3.50
  -2   1  -1   12.57    3.40
   2   1   1   11.88    3.26
  -2  -1  -1   12.17    3.26
  -2  -1  -1   10.36    3.64
   2   1   1   11.09    3.32
   2  -1   1   10.58    3.57
  -2   1  -1   13.96    4.02
  -2  -1  -1   10.55    3.15
   0  -5   0    0.39    2.77
   0  -5   0   -1.10    3.15
   0  -5   0    1.44    2.41
   0   5   0    0.49    3.13
   0   5   0   -0.04    2.81
   0  -5   0    1.03    2.90
   0   3  -3  298.82   15.25
   0   3  -3  316.12   15.49
   0  -3  -3  291.15   15.89
   0  -3   3  314.74   15.60
   0   3   3  279.09   15.46
   0  -3  -3  291.90   15.46
   0  -3  -3  307.88   15.53
   0  -3   3  339.31   16.74
   0   3  -3  326.89   15.82
   0  -3   3  319.66   15.57
   0  -3  -3  277.30   14.52
   1  -4  -2 2839.91  103.99
   1   4  -2 2787.55  101.19
  -1  -4   2 2950.06  104.99
   1  -4  -2 3436.17  124.74
   1   4  -2 3029.31  107.68
  -1   4   2 2838.06  102.60
  -1   4   2 2870.54  102.66
   1  -4  -2 2852.49  104.58
   1  -4  -2 2852.20  101.79
  -1  -4   2 2795.81  103.56
   1   4  -2 2932.62  106.26
   2  -2  -2   65.26    6.34
   2   2  -2   64.55    5.99
   2  -2  -2   65.20    5.94
  -2  -2   2   64.62    6.24
  -2  -2   2   60.28    6.14
   2   2  -2   66.04    6.04
   2  -2  -2   78.10    7.95
  -2   2   2   71.21    6.73
  -1  -3   3   39.16    4.96
   1   3  -3   38.37    5.06
   1   3  -3   42.42    5.00
   1   3  -3   43.64    5.53
  -1  -3   3   37.34    4.87
  -1  -3   3   42.52    5.05
  -1   3   3   40.25    5.39
  -1   3   3   37.89    4.56
   1  -3  -3   40.07    5.29
   1  -3  -3   39.78    4.62
   1  -3  -3   41.96    5.37
   0   5  -1  363.69   18.33
   0  -5   1  370.20   18.00
   0  -5   1  388.64   18.64
   0  -5  -1  382.84   18.37
   0  -5   1  364.27   17.25
   0  -5  -1  368.29   18.14
   0  -5  -1  383.29   17.94
   0  -5  -1  372.17   18.97
   0   5   1  334.33   16.92
  -2   2  -1 2530.28   92.32
  -2  -2  -1 2509.45   92.09
   2   2   1 2588.42   93.60
   2  -2   1 2590.47   94.61
  -2  -2  -1 2539.30   92.91
   2   2   1 2680.18   96.87
  -2   2  -1 2593.17   93.66
   2   2   1 2627.05   99.24
  -2  -2  -1 2633.64   94.89
  -2   2  -1 2566.25   93.79
   2  -3  -1 3185.57  115.42
  -2   3   1 3079.35  109.82
   2  -3  -1 3014.44  109.11
  -2  -3   1 3123.37  111.66
  -2  -3   1 3032.82  109.96
  -2  -3   1 3060.62  108.99
   2  -3  -1 3160.89  114.04
   2  -3  -1 3042.02  107.97
   2   3  -1 3154.30  112.98
   2   3  -1 2996.48  107.56
   2   0  -3   -0.08    2.50
  -2   0   3    1.82    3.63
   2   0  -3   -0.04    3.22
  -2   0   3   -0.48    2.34
  -1  -2  -3 1279.86   50.12
   1   2   3 1223.10   47.44
   1   2   3 1226.11   53.10
   1   2   3 1388.49   61.44
   1  -2   3 1402.81   57.64
  -1  -2  -3 1330.59   52.61
  -1   2  -3 1304.81   50.97
  -1  -2  -3 1261.12   48.08
   1  -2   3 1329.04   53.50
  -1   2  -3 1285.36   52.55
  -1   2  -3 1315.07   50.79
   0   0   4   -2.70    1.14
  -2   3   0 2371.81   87.18
  -2  -3   0 2388.10   87.46
   2   3   0 2119.67   82.12
  -2   3   0 2409.08   87.50
   2  -3   0 2260.51   84.82
  -2  -3   0 2253.30   81.98
   2   3   0 2155.47   85.61
  -2   3   0 2395.42   86.65
   2  -3   0 2385.81   85.91
   2  -3   0 2347.26   87.51
  -2  -1   3   35.95    4.99
  -2  -1   3   35.38    4.53
   2   1  -3   40.81    4.96
  -2   1   3   38.79    4.74
   2  -1  -3   37.60    4.56
   2   1  -3   37.79    4.56
  -2   1   3   60.32    8.38
   2  -1  -3   36.68    5.02
   2   1  -3   36.01    5.16
  -2  -1   3   41.08    5.28
   0  -1   4   77.41    6.53
   0  -1  -4   78.83    6.80
   0   1   4   74.17    6.78
   0  -1   4   72.47    6.14
   0   1  -4   85.92    6.99
   0   1  -4   82.36    6.66
   0  -1  -4   77.64    6.36
  -1  -1   4 1195.58   46.75
  -1   1   4 1109.49   43.87
   1  -1  -4 1165.65   55.52
  -1  -1   4 1160.55   45.14
  -1   1   4 1255.48   48.87
  -1   1   4 1157.95   44.49
   1   1  -4 1244.60   47.71
   1  -1  -4 1172.59   46.09
   1   1  -4 1250.41   47.46
   1  -1  -4 1180.53   45.12
  -1  -1   4 1229.32   47.14
  -1  -5   0   21.58    3.77
  -1  -5   0   22.10    3.99
   1  -5   0   21.01    3.76
  -1   5   0   28.33    4.49
   1   5   0   20.48    4.11
   1  -5   0   23.75    4.61
   1   5   0   22.17    3.88
  -1  -5   0   22.31    4.03
   1  -5   0   21.04    4.54
  -1   5   0   22.13    4.16
  -1  -4  -2 5472.87  194.65
   1   4   2 5515.33  194.90
   1  -4   2 5696.32  198.43
  -1   4  -2 5572.74  203.07
   1  -4   2 5607.88  217.12
  -1   4  -2 5271.82  183.92
   1   4   2 4821.21  190.55
  -1  -4  -2 5338.46  192.59
   1  -4   2 5210.68  187.94
  -1   4  -2 5423.97  189.93
   1   4   2 5483.53  193.65
  -1  -4  -2 5550.77  210.96
  -1   5   1    4.75    3.54
   1  -5  -1    3.95    3.50
  -1  -5   1    2.67    2.89
   1   5  -1    3.25    3.25
   1   5  -1    2.29    2.66
  -1  -5   1    2.48    2.77
   1   5  -1    1.65    2.80
   1  -5  -1    2.71    2.49
  -1  -5   1    2.07    2.81
   2  -3  -2 1656.92   64.38
   2   3  -2 1464.65   54.95
  -2  -3   2 1343.28   51.02
  -2   3   2 1403.11   53.04
   2  -3  -2 1376.85   51.81
  -2   3   2 1496.20   56.68
   2   3  -2 1405.61   53.50
   2   3  -2 1536.39   57.40
   2  -3  -2 1426.92   54.15
   2  -3  -2 1475.67   57.77
  -2  -3   2 1428.04   54.56
  -2  -3   2 1435.09   54.69
   2   0   2  640.32   27.44
   2   0   2  597.51   26.04
  -2   0  -2  599.05   26.09
   2   0   2  629.28   27.08
  -2   0  -2  608.00   25.97
   0  -4  -3 2806.93  108.95
   0   4  -3 2686.96   97.56
   0   4   3 2631.00   95.71
   0   4  -3 2605.26   98.59
   0  -4   3 2691.59   97.19
   0  -4  -3 2668.56   95.93
   0  -4  -3 2611.67   96.82
   0  -4   3 2751.08  100.69
   0  -4  -3 2446.34   95.80
   0  -4   3 2702.36   98.81
   0   4   3 2887.18  111.50
   0  -5  -2  152.91    9.63
   0  -5  -2  136.13    9.19
   0   5  -2  135.57   10.06
   0  -5  -2  151.27   10.79
   0   5  -2  157.19   10.21
   0  -5   2  147.44    9.50
   0   5   2  136.36    9.20
   0  -5  -2  155.10   10.77
   0  -5  -2  138.93    9.51
   0   5  -2  152.23    9.97
   2   2  -3   10.64    3.33
  -2   2   3   12.31    3.88
  -2  -2   3    9.65    3.73
   2  -2  -3   12.67    3.24
   2  -2  -3   12.63    3.65
   2   2  -3   12.21    3.35
  -2  -2   3   12.43    3.46
  -2  -2   3   12.70    3.62
   2  -2  -3   11.08    3.78
  -2   2   3   12.66    3.40
  -2   1  -2  555.11   24.07
   2   1   2  565.53   24.73
   2  -1   2  563.48   24.75
  -2  -1  -2  528.33   23.26
  -2   1  -2  547.53   24.28
  -2  -1  -2  571.18   25.12
   2   1   2  546.60   24.34
   2   1   2  589.79   26.04
   2  -1   2  568.19   25.18
   2  -1   2  548.23   24.30
  -2  -1  -2  519.96   23.11
  -2   1  -2  560.47   24.39
   0  -2  -4   33.33    4.65
   0   2   4   33.84    4.84
   0   2  -4   32.12    4.56
   0   2  -4   32.94    4.56
   0   2  -4   36.63    5.08
   0  -2  -4   32.75    4.40
   0  -2   4   32.80    4.46
   0  -2   4   30.97    4.33
   0  -2   4   35.10    4.75
   1   2  -4 3770.73  133.34
  -1  -2   4 3626.83   97.72
  -1  -2   4 3785.65  134.16
   1  -2  -4 3627.24  128.32
   1   2  -4 3708.61   98.98
   1  -2  -4 3538.26   84.84
  -1  -2   4 3532.74  126.65
  -1   2   4 3460.26   80.44
   1  -2  -4 3569.77   85.65
  -2   3  -1   26.54    4.21
  -2   3  -1   27.69    4.77
  -2   3  -1   30.55    4.45
   2  -3   1   27.05    4.38
  -2  -3  -1   28.13    4.23
   2   3   1   21.00    4.15
   2   3   1   27.49    4.22
  -2  -3  -1   27.14    4.38
   1  -4  -3   45.48    5.40
  -1   4   3   43.18    7.89
   1  -4  -3   46.31    5.91
  -1  -4   3   44.67    5.37
   1   4  -3   47.55    5.70
  -1  -4   3   48.80    5.25
  -1   3  -3 1645.69   43.04
  -1  -3  -3 1671.60   46.43
   1  -3   3 1732.14   52.68
  -1  -3  -3 1570.63   47.72
   1   3   3 1603.01   47.77
   1  -3   3 1773.34   47.25
  -1  -3  -3 1725.08   46.92
  -1   3  -3 1728.33   44.84
   1  -3   3 1776.04   46.88
  -1   3  -3 1748.25   47.15
   1   3   3 1420.35   43.87
   1   5  -2  445.17   16.87
   1  -5  -2  448.14   16.08
   1   5  -2  477.25   17.13
   1  -5  -2  452.02   16.87
   1  -5  -2  469.87   18.98
  -1  -5   2  451.90   16.13
   1  -5  -2  452.95   17.62
   1   5  -2  407.85   15.58
  -1  -5   2  422.19   15.80
  -1   5   2  423.99   15.63
  -1  -5   2  441.17   16.82
   1  -5  -2  449.68   17.05
  -2  -4   1 2398.56   59.11
   2  -4  -1 2554.18   60.99
   2  -4  -1 2589.87   65.64
   2   4  -1 2583.99   63.23
  -2   4   1 2625.73   64.42
  -2   4   1 2471.73   64.00
  -2  -4   1 2594.18   62.70
   2   4  -1 2592.19   64.01
  -2  -4   1 2529.81   61.27
   2   4  -1 2508.78   60.11
   2  -4  -1 2526.68   63.60
   2  -2   2 1240.75   35.39
   2   2   2 1273.94   36.86
   2   2   2 1232.35   35.10
   2  -2   2 1192.80   33.97
  -2  -2  -2 1173.66   33.92
  -2   2  -2 1164.20   34.57
  -2  -2  -2 1140.23   32.62
   2  -2   2 1237.45   39.43
  -2   2  -2 1173.47   33.08
   2   2   2 1077.69   32.48
  -2   2  -2 1194.68   34.22
  -2  -2  -2 1170.04   32.67
  -2   4   0   45.26    5.13
  -2   4   0   39.48    5.34
   2  -4   0   43.37    4.86
   2  -4   0   43.64    5.71
   2  -4   0   39.82    5.03
   2   4   0   33.56    5.24
   2   4   0   43.90    5.36
  -2  -4   0   41.51    5.05
  -2   4   0   39.74    6.88
  -2  -4   0   44.14    7.39
   0  -6   0   -0.40    3.19
   0  -6   0    1.15    2.67
   0   6   0    1.00    3.18
   0  -6   0   -0.80    2.61
   0  -6   0    0.60    3.14
  -2  -3   3  233.60   11.32
   2  -3  -3  214.46   10.99
  -2   3   3  212.52   11.23
   2   3  -3  232.81   10.94
   2  -3  -3  230.02   11.31
   2   3  -3  240.83   10.94
  -2   3   3  229.28   10.92
   2  -3  -3  223.80   10.49
  -2  -3   3  215.30   10.49
  -2   3   3  232.34   11.50
  -2  -3   3  221.65   10.91
   2   3  -3  240.45   11.80
   0   3  -4    2.89    3.35
   0   3   4    1.20    2.98
   0  -3  -4    0.91    2.67
   0  -3   4   -0.34    2.56
   0   3  -4   -0.82    3.14
   0   3  -4    2.29    2.84
   0  -3  -4    0.74    2.69
   0  -3   4    1.53    2.62
   0  -3  -4    0.30    3.32
   0  -3   4    1.81    2.72
   0  -3  -4    0.25    3.10
  -1   3   4  865.29   26.31
   1  -3  -4  865.46   25.60
   1  -3  -4  892.15   26.85
   1   3  -4  872.41   32.62
   1   3  -4  913.35   27.24
   1  -3  -4  969.48   30.21
   1  -3  -4  850.44   26.66
  -1  -3   4  900.79   27.14
  -1   3   4  893.49   28.64
  -1  -3   4  949.97   27.72
  -1  -3   4  917.48   27.84
   0  -6  -1    3.20    3.01
   0  -6   1    2.74    3.24
   0  -6  -1    8.21    3.42
   0  -6   1    2.29    3.23
   0  -6   1    1.44    2.86
   0   6  -1    2.32    3.04
   0   6   1    2.71    2.76
   0   6   1    3.12    3.38
   0  -6  -1    2.18    2.62
   0  -6  -1    3.22    3.14
   2  -4  -2  943.36   30.74
  -2  -4   2  898.42   26.79
   2   4  -2  905.03   26.69
  -2  -4   2  887.03   26.24
  -2   4   2  952.67   28.41
   2  -4  -2  854.21   25.23
  -2   4   2  907.55   26.65
   2   4  -2  886.80   26.97
   2  -4  -2  875.34   26.32
   2  -4  -2  815.39   26.20
   2   4  -2  955.19   27.22
  -2  -4   2  876.33   26.66
   1   0   4    0.19    2.27
   1   0   4    0.27    2.97
   1   0   4    0.59    3.17
  -1   0  -4   -0.61    2.83
  -2   0   4  536.44   18.69
   2   0  -4  575.87   19.87
   2   0  -4  582.71   19.18
  -2   0   4  580.74   19.86
  -2   0   4  543.46   19.09
   1  -1   4  401.39   15.43
  -1   1  -4  380.69   15.82
  -1  -1  -4  434.89   16.18
   1   1   4  375.59   16.40
   1   1   4  342.68   14.80
   1  -1   4  410.66   17.35
  -1  -1  -4  388.31   15.13
  -1   1  -4  383.51   15.21
  -1  -1  -4  370.26   14.50
   1   1   4  416.76   17.31
  -1   1  -4  393.36   15.23
   1  -1   4  426.78   18.13
   1  -5   2   17.79    4.18
   1   5   2   17.00    4.42
  -1  -5  -2   16.16    4.17
  -1   5  -2   15.22    4.41
   1   5   2   17.24    4.07
  -1  -5  -2   18.51    4.02
   2   1  -4    1.47    2.88
  -2  -1   4    1.82    2.84
  -2   1   4    1.54    2.64
   2  -1  -4    1.97    3.50
   2  -1  -4    1.47    3.31
  -2  -1   4    4.72    3.91
   2  -1  -4    2.74    2.51
  -2   1   4    1.09    3.78
  -2   4  -1  709.00   22.37
   2  -4   1  710.82   25.37
  -2   4  -1  725.60   22.86
   2  -4   1  660.95   23.22
   2   4   1  734.14   23.24
  -2  -4  -1  702.38   22.41
  -2  -4  -1  683.41   22.48
   2   4   1  709.98   23.07
  -2   4  -1  706.49   23.31
   2  -3   2   -0.51    2.66
   2   3   2    0.64    2.67
  -2   3  -2    0.21    2.73
  -2   3  -2    0.32    3.03
  -2  -3  -2   -0.71    4.61
  -2  -3  -2    0.67    3.16
  -2  -3  -2   -0.24    2.45
   2  -3   2    0.46    2.74
  -2   3  -2   -1.56    2.81
  -1   4  -3  203.93   10.13
  -1   4  -3  202.35   10.20
  -1  -4  -3  178.74    9.83
   1   4   3  192.13   10.15
   1   4   3  186.50   10.38
  -1  -4  -3  187.96    9.57
   1  -4   3  198.79   11.70
  -1   4  -3  214.05   10.74
   1  -4   3  212.03   10.81
   1   4   3  204.59   10.53
  -1  -4  -3  199.63   10.34
   1  -4   3  212.83   10.24
   1  -6   0   22.13    4.52
   1  -6   0   20.69    4.27
  -1   6   0   21.30    4.18
   1  -6   0   21.26    3.97
  -1   6   0   22.76    4.79
  -1  -6   0   23.92    4.16
  -1  -6   0   24.57    4.11
   1   6   0   22.54    4.06
  -1  -6   0   23.72    4.16
   1   6   0   19.91    4.17
   1  -6   0   23.76    3.89
   0  -5  -3 1257.54   37.77
   0  -5   3 1319.91   36.65
   0  -5  -3 1304.06   35.63
   0   5  -3 1322.55   39.31
   0  -5  -3 1209.10   39.05
   0   5  -3 1277.63   35.76
   0  -5   3 1274.54   37.73
   0  -5   3 1325.42   37.93
   0   5   3 1176.49   36.52
   0   5   3 1203.20   39.67
   0  -5  -3 1199.73   35.79
   0   5  -3 1111.74   34.09
   1  -6  -1  211.42   10.98
   1   6  -1  248.21   11.68
  -1  -6   1  234.23   11.19
  -1  -6   1  255.08   11.89
  -1   6   1  267.43   13.33
   1  -6  -1  239.37   11.29
   1   6  -1  235.56   11.34
  -1  -6   1  242.13   11.03
   1   6  -1  250.20   11.88
   1  -6  -1  243.83   11.02
   1  -6  -1  233.24   12.62
  -1   2  -4   10.59    3.39
  -1  -2  -4    2.18    2.97
  -1  -2  -4    2.26    3.13
   3   0  -1 1494.19   43.68
   3   0  -1 1426.66   39.55
   3   0  -1 1404.34   37.40
  -3   0   1 1457.05   38.48
  -1   5   3  593.47   19.63
   1   5  -3  618.08   20.38
   1  -5  -3  574.19   20.54
   1  -5  -3  571.17   19.92
   1  -5  -3  584.33   21.90
   1   5  -3  587.18   20.26
  -1  -5   3  554.46   18.76
  -1  -5   3  547.07   19.41
   1   5  -3  589.62   20.65
   1  -5  -3  596.99   23.51
  -1  -5   3  615.03   20.31
   1  -5  -3  578.06   19.20
  -2  -2   4  286.73   12.78
   2  -2  -4  305.81   12.61
  -2  -2   4  289.93   12.79
   2   2  -4  308.87   12.90
  -2   2   4  357.23   16.19
   2   2  -4  317.89   12.93
   2  -2  -4  316.04   13.70
  -2   2   4  305.95   12.75
  -2  -2   4  305.44   13.31
   2  -2  -4  321.76   13.74
   2   0   3    0.05    2.59
  -2   0  -3    0.47    2.69
  -2   0  -3   -0.09    3.16
   2   0   3    0.48    3.19
   2   0   3   -0.06    3.25
   0  -6   2  262.99   12.20
   0  -6  -2  390.36   19.12
   0   6   2  241.87   11.69
   0  -6  -2  253.96   12.82
   0   6  -2  219.06   11.44
   0  -6  -2  251.34   12.02
   0  -6  -2  270.51   13.62
   0  -6  -2  285.29   12.53
   0   6  -2  266.72   12.76
  -3   1   1   12.14    4.82
  -3  -1   1   13.53    4.57
   3  -1  -1   11.87    5.06
   3   1  -1   16.38    4.70
   3   1  -1   16.41    4.90
   3  -1  -1   12.56    5.94
   3   1  -1   16.00    4.15
   3   1  -1   13.04    3.66
   3  -1  -1   14.52    4.64
   3  -1  -1   12.89    4.10
  -3  -1   1   14.66    4.01
  -3   1   1   17.62    4.02
  -1   0   5  105.39    7.22
  -1   0   5  113.88    7.98
   1   0  -5  103.24    7.30
   1   0  -5  114.89    7.34
   2   1   3 1908.40   52.84
   2  -1   3 1858.50   53.32
  -2   1  -3 1876.62   53.75
  -2  -1  -3 1807.04   50.57
   2  -1   3 2007.42   57.58
  -2   1  -3 1828.51   49.92
   2   1   3 1897.91   49.77
  -2  -1  -3 1757.77   51.94
   2  -1   3 1799.87   55.73
   2   1   3 1727.10   50.25
  -2   1  -3 1909.39   51.02
  -1  -6  -1 2163.25   53.86
  -1  -6  -1 2137.98   54.09
   1   6   1 2185.75   55.91
  -1   6  -1 2025.04   59.68
  -1  -6  -1 2081.02   53.16
  -1  -6  -1 2213.72   56.50
   1   6   1 2090.45   55.67
  -1   6  -1 2246.03   56.64
   1  -6   1 2187.83   55.28
   1  -6   1 2172.03   69.56
   2   5  -1  113.08    7.77
   2  -5  -1  112.50    7.33
   2   5  -1  113.36    7.52
  -2   5   1  121.92    8.40
  -2  -5   1  118.97    7.97
   2   5  -1  120.84    8.28
   2  -5  -1  120.58    8.24
  -2  -5   1  121.71    8.13
   2  -5  -1  122.02    9.18
   3   0  -2   -0.00    3.59
  -3   0   2    2.25    3.35
   3   0  -2    1.45    3.21
   3   0  -2   -0.10    3.61
   3   0   0    0.42    3.39
   3   0   0    0.53    3.43
  -3   0   0    1.60    2.84
   2  -4  -3  351.91   14.33
  -2   4   3  353.06   15.59
  -2  -4   3  342.65   21.89
   2   4  -3  366.91   14.67
   2  -4  -3  341.79   16.22
   2   4  -3  347.82   14.53
   2  -4  -3  349.53   15.76
   2   4  -3  360.01   15.57
  -2  -4   3  344.80   14.75
   2  -4  -3  355.63   15.74
  -2   4   3  354.17   15.25
   1  -1  -5  762.72   26.22
   1   1  -5  865.24   27.20
  -1  -1   5  860.05   28.37
   1   1  -5  835.85   27.33
   1  -1  -5  969.86   30.03
  -1  -1   5  874.68   28.11
  -1   1   5  817.68   27.28
  -1  -1   5  889.84   29.09
   1  -1  -5  876.47   28.60
   1  -1  -5  862.64   29.63
   0   4   4  888.22   31.02
   0  -4   4 1005.48   32.56
   0  -4   4  985.07   30.64
   0  -4  -4  837.78   33.66
   0  -4  -4  820.30   26.96
   0  -4  -4  853.35   27.13
   0   4  -4  958.12   30.14
   0   4  -4  904.27   29.67
   0  -4   4  974.45   31.23
   0  -4  -4  897.59   33.04
   0   0  -5    0.44    3.21
   0   0   5    2.24    3.29
   0   0   5    0.28    2.19
   2  -5   0   23.55    4.80
   2   5   0   23.29    4.29
  -2   5   0   26.24    4.42
   2  -5   0   23.47    4.07
  -2   5   0   23.20    4.25
   2  -5   0   23.54    3.81
   2   5   0   12.70    2.97
   2   5   0   26.97    4.47
  -2  -5   0   21.87    4.15
  -2  -5   0   27.26    4.46
  -2   5   0   19.85    4.45
   1   4  -4   25.04    4.44
   1  -4  -4   22.75    4.48
  -1  -4   4   22.23    4.12
   1   4  -4   23.06    4.25
  -1   4   4   26.00    5.14
   1  -4  -4   24.40    4.49
  -1  -4   4   24.43    4.51
   1  -4  -4   24.30    4.73
   1   4  -4   24.24    4.84
  -1  -4   4   24.23    4.02
   1  -4  -4   21.52    3.59
  -1   4   4   23.71    3.96
   3  -1  -2  578.54   21.73
  -3  -1   2  559.02   21.20
   3   1  -2  574.61   21.21
   3  -1  -2  551.89   21.52
  -3  -1   2  553.94   21.83
   3   1  -2  570.32   20.26
   3  -1  -2  563.35   20.03
   3   1  -2  584.21   23.33
   3  -1  -2  568.48   24.24
  -3  -1   0  658.82   22.59
   3   1   0  676.69   23.89
   3  -1   0  656.91   23.15
   3   1   0  653.82   24.57
   3  -1   0  677.78   24.86
   3   1   0  666.98   24.27
  -3  -1   0  656.20   22.80
  -3   1   0  664.00   22.53
  -3   1   0  683.74   23.54
   0   1  -5 3021.05   81.06
   0  -1  -5 2871.12   80.26
   0  -1  -5 2925.03   88.72
   0   1   5 2638.25   79.09
   0   1  -5 3039.12   80.58
   0   1  -5 2997.74   93.90
   0  -1  -5 2932.58   84.55
   0  -1   5 2963.41   77.78
   0  -1   5 2771.88   73.92
   1   6  -2  623.88   22.59
   1  -6  -2  666.33   25.26
   1  -6  -2  591.70   26.41
   1   6  -2  668.96   23.67
  -1  -6   2  657.76   22.76
   1   6  -2  661.42   23.82
  -1  -6   2  665.62   23.31
   1  -6  -2  603.36   21.79
  -1   6   2  641.28   22.61
  -1  -6   2  668.83   23.92
   1  -6  -2  656.65   25.21
   1  -6  -2  662.79   24.20
   3   2  -1 2100.79   58.42
  -3  -2   1 2068.25   59.46
  -3   2   1 2081.68   57.65
   3  -2  -1 2027.36   57.78
  -3  -2   1 2021.25   56.18
   3  -2  -1 2035.03   56.98
   3   2  -1 2031.72   60.79
   3   2  -1 1937.45   55.93
   3   2  -1 2056.76   63.26
   3  -2  -1 1896.71   56.58
  -3   2   1 2035.19   55.76
   3  -2  -1 1933.22   53.28
   2   2   3  210.26   10.92
  -2   2  -3  209.32   11.24
   2   2   3  201.75   10.76
   2  -2   3  210.63   11.14
   2  -2   3  202.33   11.20
  -2   2  -3  222.78   11.09
  -2   2  -3  231.61   11.51
   2  -2   3  224.91   10.81
  -2  -2  -3  202.66   10.68
   2   2   3  223.03   11.47
  -2  -2  -3  201.41   10.69
  -2  -2  -3  211.91   10.72
   2   5  -2   29.36    4.50
  -2  -5   2   26.26    4.43
   2  -5  -2   26.43    4.14
  -2   5   2   26.86    4.42
   2  -5  -2   26.74    4.44
  -2   5   2   28.46    4.91
   2   5  -2   27.60    4.65
   2  -5  -2   29.05    5.88
  -2  -5   2   27.07    4.33
  -2  -5   2   25.02    4.61
   2   5  -2   25.99    4.49
   2  -5  -2   24.95    4.73
   1  -3   4  107.18    7.17
  -1  -3  -4  103.37    7.31
  -1   3  -4  103.47    7.12
   1  -3   4  116.65    8.19
  -1   3  -4  109.99    7.87
  -1  -3  -4  101.03    7.03
  -1   3  -4  105.10    7.47
  -1  -3  -4  102.27    7.00
   1   3   4  100.57    7.30
   1   3   4  100.14    7.49
  -2  -4  -2 5281.47  140.39
   2  -4   2 5311.00  139.78
   2   4   2 5436.22  133.95
  -2   4  -2 5121.89  143.53
   2  -4   2 5778.25  142.11
  -2  -4  -2 5329.97  150.15
  -2   4  -2 5474.58  134.39
   2   4   2 4984.91  130.69
  -2   4  -2 5564.61  132.70
   1  -2  -5  471.58   18.67
  -1   2   5  524.19   19.22
   1  -2  -5  435.16   17.28
   1  -2  -5  576.69   20.29
  -1  -2   5  567.31   21.10
   1   2  -5  560.41   19.52
  -1  -2   5  543.03   20.42
   1  -2  -5  520.30   19.45
   1   2  -5  491.99   18.99
  -1  -2   5  550.54   19.92
   1   2  -5  525.42   19.35
  -2  -3   4   71.35    6.54
   2  -3  -4   81.75    6.41
  -2  -3   4   78.95    6.46
  -2   3   4   86.18    7.38
   2   3  -4   78.41    6.47
   2  -3  -4   76.83    6.76
  -2   3   4   76.81    7.13
  -2  -3   4   80.97    6.83
   2   3  -4   80.43    7.02
   2  -3  -4   81.83    6.89
   2   3  -4   85.59    6.40
  -2   3   4   80.35    6.54
   3   2  -2 4132.27  105.96
  -3  -2   2 4099.20  106.43
   3  -2  -2 4318.95  110.36
  -3  -2   2 4141.30  105.39
  -3   2   2 4350.67  111.65
  -3  -2   2 4170.05  106.82
   3  -2  -2 4088.34  105.31
   3   2  -2 4368.99  111.38
   3   2   0  137.97   32.88
   3  -2   0  135.71   35.15
  -3   2   0  144.73   28.49
   3  -2   0  130.14   31.88
   3   2   0  141.99   38.85
  -3   2   0  134.97    9.40
  -3   2   0  115.03    8.27
  -3  -2   0  113.47    8.11
   3   2   0  132.95   19.75
   0  -2  -5    4.82    3.89
   0   2  -5    1.22    3.22
   0  -2  -5    1.41    3.01
   0  -2   5    1.09    2.68
   0   2  -5    0.76    3.48
   0  -2   5    2.22    3.21
   0  -2   5   -0.06    2.84
   0   2   5    0.66    3.04
   0   2  -5    1.29    3.04
   0  -2  -5    2.78    2.94
   2  -5   1  175.53   10.58
   2   5   1  164.41    9.71
  -2   5  -1  153.32    8.95
   2  -5   1  154.92    9.40
  -2   5  -1  174.27    9.92
  -2  -5  -1  167.74    9.44
  -2   5  -1  165.58    9.94
  -2  -5  -1  157.55    9.22
   2   5   1  169.24    9.67
   0  -7   0    0.85    3.02
   0   7   0   -0.68    3.19
   0  -7   0    0.02    3.62
   0  -7   0   -1.16    3.43
   0  -7   0   -1.38    3.16
   3   0  -3 4528.21  115.78
  -3   0   3 4229.68  107.58
   3   0  -3 4509.49  114.16
   3   0  -3 4556.08  115.86
  -3   0   3 4505.63  114.56
  -3   0   3 4204.35  110.85
  -3   0  -1  310.62   14.10
  -3   0  -1  337.25   29.01
   3   0   1  332.92   47.74
   3   0   1  325.16   30.74
   3   0   1  323.55   13.98
  -1  -5  -3  854.91   28.90
  -1   5  -3  871.55   28.20
   1   5   3  806.96   29.44
   1   5   3  827.35   29.04
  -1   5  -3  910.08   30.20
   1  -5   3  956.07   31.12
   1   5   3  862.23   32.19
   1  -5   3  903.99   28.29
  -1  -5  -3  912.70   32.11
  -1   5  -3  833.91   27.25
  -1  -5  -3  780.90   26.75
   1  -5   3  915.32   34.05
   3  -1  -3    4.45    3.72
  -3   1   3    3.23    4.62
  -3   1   3    5.15    3.52
   3  -1  -3    3.44    4.98
   3  -1  -3    2.07    3.79
  -3  -1  -1   40.50    4.82
  -3   1  -1   40.07    4.87
  -3  -1  -1   38.69    4.84
  -3   1  -1   41.27    4.93
   3   1   1   41.85    5.01
   3  -1   1   37.44    5.14
   3  -1   1   43.34    4.99
   3  -1   1   38.01    5.26
   3   1   1   40.63    5.63
  -3  -1  -1   40.35    5.62
  -3   1  -1   39.48    5.68
   3   1   1   40.78    5.35
   0   7  -1  835.39   29.61
   0  -7  -1  783.49   28.86
   0  -7   1  849.66   28.30
   0  -7  -1  801.52   28.38
   0   7   1  802.77   28.60
   0  -7  -1  753.59   25.59
   0  -7   1  766.59   30.58
   0  -7  -1  746.10   36.35
   0  -7   1  810.64   26.63
  -3   3   1  599.23   21.16
  -3  -3   1  565.77   21.18
   3  -3  -1  569.01   21.53
   3  -3  -1  610.20   21.02
   3   3  -1  600.86   24.16
   3   3  -1  554.53   20.69
   3   3  -1  545.74   19.94
  -3   3   1  586.78   20.78
  -3  -3   1  609.36   21.29
  -2   3  -3  283.61   13.10
   2  -3   3  261.82   12.53
   2   3   3  253.94   12.49
   2  -3   3  285.97   12.52
  -2   3  -3  256.72   12.07
  -2  -3  -3  265.09   12.62
   2   3   3  268.08   12.45
  -2  -3  -3  268.39   12.29
  -2  -3  -3  249.94   12.32
  -2   3  -3  270.98   13.16
   0  -6   3  728.34   25.71
   0  -6   3  738.68   25.35
   0   6  -3  676.87   22.68
   0  -6  -3  681.47   25.04
   0  -6  -3  724.23   24.56
   0  -6  -3  683.02   24.92
   0   6  -3  746.88   26.99
   0  -6  -3  633.99   24.57
   0  -6  -3  762.25   27.51
   0  -6   3  694.56   24.73
   0   6  -3  656.31   22.91
   2   0  -5    1.40    2.97
  -2   0   5    2.76    3.12
   1  -3  -5    1.25    3.40
  -1  -3   5    0.62    3.11
   1  -3  -5    3.76    3.71
  -1  -3   5    1.32    3.44
   1   3  -5    1.45    3.34
  -1  -3   5    0.93    2.95
   1   3  -5    0.76    3.77
  -1   3   5   -0.52    3.34
   1  -3  -5    1.10    3.09
  -3  -3   2  870.19   26.83
  -3   3   2  935.34   28.39
   3   3  -2  887.16   27.33
   3   3  -2  912.25   27.90
  -3  -3   2  934.85   31.17
   3  -3  -2  920.39   28.82
   3  -3  -2  909.14   27.31
  -3  -3   2  883.25   28.03
   3  -3   0  146.60   10.66
   3   3   0  163.23    9.25
   3   3   0  142.64   11.27
  -3   3   0  158.42    9.35
  -3   3   0  164.47   11.12
  -3   3   0  169.58    9.60
  -3  -3   0  165.96    9.44
  -3  -3   0  149.42    8.69
   3  -3   0  152.68    9.81
   3   3   0  153.94    9.33
   3  -3   0  148.44    8.51
   2  -1  -5 2134.97   55.24
   2  -1  -5 2021.55   53.85
  -2  -1   5 1986.06   53.04
  -2   1   5 1962.43   51.18
   2  -1  -5 2060.40   53.40
  -2  -1   5 1988.83   52.48
   2   1  -5 2075.45   53.73
  -2   1   5 2059.87   56.11
  -2   1   5 1909.34   51.21
  -2  -1   5 2059.43   54.28
   1   6  -3   19.59    4.21
  -1  -6   3   19.28    3.89
   1   6  -3   22.25    4.36
   1  -6  -3   23.12    4.58
   1  -6  -3   19.10    4.47
   1  -6  -3   19.38    4.05
   1  -6  -3   22.07    4.97
  -1   6   3   21.28    4.20
   1  -6  -3   22.34    4.02
   1   6  -3   21.38    4.23
  -1  -6   3   23.01    3.98
   3  -2  -3 1462.51   40.80
  -3  -2   3 1422.97   39.62
   3   2  -3 1486.17   40.65
   3   2  -3 1542.84   41.95
   3  -2  -3 1465.60   39.77
  -3   2   3 1454.23   39.96
  -3   2   3 1506.10   41.60
  -3  -2   3 1742.10   49.69
   3   2   1  140.59   17.48
   3  -2   1  114.71   12.31
   3   2   1  122.06    7.96
  -3  -2  -1  120.21    7.78
  -3   2  -1  108.63    7.53
   3  -2   1  124.54    7.95
   3   2   1  115.66   10.55
  -3  -2  -1  121.52    8.91
  -3   2  -1  125.37    8.75
   3  -2   1  123.48   12.42
   3   2   1  133.65   12.76
  -3   2  -1  124.97   13.37
  -2   5   3 1733.44   47.24
   2   5  -3 1849.18   48.36
   2  -5  -3 1820.24   53.58
   2  -5  -3 1756.95   50.31
  -2  -5   3 1788.52   47.54
   2   5  -3 1730.14   47.22
   2  -5  -3 1833.31   50.00
  -2   5   3 1749.24   47.81
   2   5  -3 1821.77   49.33
   2  -5  -3 1696.96   46.69
  -2  -5   3 1876.48   50.77
   0  -5  -4    7.31    3.38
   0  -5  -4    5.69    3.09
   0   5   4    8.30    4.05
   0  -5  -4    8.05    3.37
   0  -5  -4    5.60    3.04
   0   5  -4    7.48    3.24
   0  -5   4    5.35    3.57
   0  -5   4    7.49    3.59
   0  -5   4    7.53    3.38
   0   5  -4    5.71    3.63
   0   3  -5  158.99    9.15
   0  -3   5  167.47    9.52
   0  -3  -5  166.85   10.22
   0   3  -5  165.11    9.64
   0  -3  -5  158.27    9.65
   0   3   5  162.10    9.96
   0  -3   5  169.05    9.57
   0   3  -5  167.86    9.33
   0  -3   5  162.94    9.05
   0  -3  -5  154.57    9.02
  -1  -5   4  260.11   12.64
   1   5  -4  265.76   13.31
   1   5  -4  295.06   12.92
  -1   5   4  268.73   12.18
   1  -5  -4  254.25   12.56
   1  -5  -4  255.10   12.63
   1  -5  -4  287.22   13.58
  -1   5   4  257.01   12.87
   1  -5  -4  260.31   11.64
  -1  -5   4  279.30   12.39
   1   5  -4  263.88   12.38
  -1  -5   4  269.83   12.55
   1  -7   0  223.61   12.75
  -1  -7   0  224.21   11.06
  -1  -7   0  225.77   11.12
  -1  -7   0  219.39   11.42
   1   7   0  224.94   11.24
   1   7   0  209.61   11.66
   1  -7   0  224.57   11.01
   1   7   0  236.23   11.77
  -1   7   0  231.10   12.23
  -1  -4  -4    8.92    3.00
   1   4   4    6.86    3.13
  -1  -4  -4   10.72    3.77
  -1   4  -4   10.02    4.13
   1  -7  -1  779.65   25.15
   1  -7  -1  832.58   25.94
   1  -7  -1  850.30   26.47
  -1  -7   1  862.38   27.54
   1   7  -1  850.15   26.80
  -1  -7   1  860.35   26.78
   1   7  -1  728.74   26.26
  -1  -7   1  814.23   26.46
   1   7  -1  843.69   27.75
   1  -7  -1  806.13   33.54
  -1   7   1  894.88   29.57
  -1   7   1  748.74   27.99
   2  -4  -4  505.43   18.54
   2  -4  -4  504.95   17.80
  -2   4   4  520.31   19.13
   2   4  -4  483.73   19.01
  -2  -4   4  511.09   18.83
  -2  -4   4  501.66   18.24
   2   4  -4  539.65   18.59
   2   4  -4  501.47   17.95
  -2  -4   4  503.34   18.43
   2  -4  -4  523.60   19.34
  -2   4   4  501.97   17.82
   2  -6  -1   66.57    6.76
   2  -6  -1   86.85    7.11
  -2  -6   1   83.83    6.85
   2   6  -1   80.39    6.83
   2   6  -1   79.83    6.63
  -2  -6   1   82.99    6.59
  -2  -6   1   82.31    6.82
   2  -6  -1   83.71    6.41
  -2   6   1   83.01    7.00
  -1   0  -5  242.99   11.51
   1   0   5  211.37   11.14
  -1   0  -5  211.93   10.69
   1   0   5  254.20   12.19
  -1   0  -5  222.35   10.90
   1   0   5  244.78   11.27
  -2  -6   0  128.17    8.42
  -2  -6   0  128.97    8.30
   2   6   0  129.40    8.38
  -2  -6   0   90.33    7.13
   2   6   0  122.58    8.36
  -2   6   0  132.59    8.57
   2  -6   0  117.23    8.00
   2  -6   0  128.13    9.09
  -2   6   0  113.65    7.99
   2   6   0   73.95    6.79
   2  -6   0  122.66    7.66
   0  -7  -2  748.96   24.16
   0  -7  -2  704.97   24.66
   0  -7  -2  687.09   26.43
   0  -7   2  699.72   25.71
   0  -7  -2  659.59   25.82
   0   7  -2  726.08   25.26
   0  -7  -2  848.82   30.07
   2  -2  -5 2236.25   57.38
  -2   2   5 2266.61   57.88
  -2  -2   5 2358.95   60.49
   2   2  -5 2185.83   64.98
  -2   2   5 2346.32   61.26
  -2  -2   5 2299.22   59.49
   2  -2  -5 2420.38   62.00
   2   2  -5 2449.11   61.85
  -2  -2   5 2215.34   57.88
   2  -2  -5 2418.37   62.53
   2   2  -5 2342.81   59.55
  -1  -1  -5   14.38    3.89
   1  -1   5   12.71    4.58
   1   1   5   14.92    4.70
  -1   1  -5   11.92    3.85
  -1   1  -5   11.98    3.63
   1  -1   5   13.68    3.30
   1   1   5    7.24    3.13
   1   1   5   11.60    4.02
  -1   1  -5   13.68    3.69
   1  -1   5   12.38    3.71
   2  -5   2  113.85    8.67
   2  -5   2  100.40    7.33
   2   5   2  107.32    7.86
  -2   5  -2  104.74    8.04
   2   5   2   97.17    7.27
  -2  -5  -2  108.34    7.95
   2  -5   2  106.43    7.09
  -2   5  -2  108.89    7.63
  -2   5  -2  102.44    8.33
  -2  -5  -2   94.01    7.03
  -1  -7  -1 2912.79   79.36
  -1  -7  -1 3037.75   79.10
   1   7   1 3080.71   85.63
  -1  -7  -1 3049.70   93.62
  -1   7  -1 3206.48   94.68
   1  -7   1 3162.37   89.98
  -1   7  -1 3241.04   81.39
   1  -7   1 3061.00   76.97
   1   7   1 3028.45   98.53
  -1  -7  -1 2871.83   74.43
  -2   0  -4 1832.47   54.98
  -2   0  -4 1934.67   53.00
   2   0   4 1966.43   54.00
   2   0   4 1857.79   61.11
  -2   0  -4 1889.20   54.15
   2   0   4 1787.53   52.33
   2  -6  -2 2355.43   60.78
  -2  -6   2 2430.53   63.59
  -2  -6   2 2442.50   62.63
  -2   6   2 2332.50   61.34
  -2   6   2 2291.78   61.70
   2   6  -2 2444.14   62.20
  -2  -6   2 2332.26   62.34
   2  -6  -2 2306.47   66.19
   2   6  -2 2382.53   64.59
   2  -6  -2 2328.34   69.42
   2   6  -2 2304.86   59.93
   2  -6  -2 2464.69   66.78
   3  -4  -1 3506.24  115.35
  -3  -4   1 3278.08   84.65
  -3   4   1 3586.70  118.42
   3   4  -1 3335.00   89.78
   3  -4  -1 3247.25   87.21
   3   4  -1 3507.78  125.60
  -3   4   1 3330.23   82.27
  -3  -4   1 3432.67  113.57
  -3   0   4    0.91    3.14
   3   0  -4   -1.62    3.46
   3   0  -4    3.37    4.15
  -3   0   4    2.43    3.81
   3   0  -4    0.29    3.10
  -3   0   4    1.24    6.15
   3   0   2   -1.16    3.01
  -3   0  -2    1.61    2.82
   3   0   2    1.12    2.94
  -3   0  -2    1.16    3.04
   3   0   2   -0.74    2.99
  -3   0  -2    0.33    3.44
   3   3  -3   47.37    6.32
  -3   3   3   44.51    5.34
   3  -3  -3   42.28    5.23
  -3  -3   3   47.41    8.70
   3  -3  -3   47.76    5.82
  -3   3   3   44.66    5.87
   3   3  -3   43.65    8.60
   3  -3  -3   47.24    7.32
   3   3  -3   44.73    6.11
  -3   3  -1  586.62   21.59
   3   3   1  605.16   20.60
   3  -3   1  604.11   20.28
  -3  -3  -1  627.95   21.20
   3  -3   1  586.13   21.26
  -3   3  -1  658.86   21.92
  -3  -3  -1  596.83   21.03
   3   3   1  690.96   24.75
   3   3   1  570.00   19.98
  -3   3  -1  632.08   21.45
   3  -3   1  596.75   22.23
  -1   7   2 1069.19   33.29
   1   7  -2 1067.85   33.45
   1  -7  -2 1115.07   33.57
   1  -7  -2  928.17   35.65
   1  -7  -2 1039.84   38.93
   1  -7  -2 1095.91   34.42
  -1  -7   2 1141.71   36.60
   1   7  -2 1066.86   36.05
  -1  -7   2 1076.51   34.01
   1  -7  -2 1048.94   33.68
   1   7  -2 1014.98   33.47
  -1  -7   2 1077.61   32.17
   2  -1   4   79.96    6.30
   2   1   4   75.59    6.63
  -2  -1  -4   74.83    6.31
  -2   1  -4   75.46    6.30
   2   1   4   75.57    6.32
  -2   1  -4   72.43    6.29
   2  -1   4   75.24    7.01
   2   1   4   79.19    7.07
  -2   1  -4   70.93    8.43
   2  -1   4   75.04    6.78
  -2  -4  -3   21.23    4.29
  -2   4  -3   24.38    4.64
  -2  -4  -3   25.29    4.19
   2  -4   3   23.11    3.99
   2   4   3   23.70    4.22
   2  -4   3   26.96    4.59
  -2   4  -3   24.18    4.51
  -2   4  -3   23.78    4.07
  -3  -1   4  182.33   10.98
   3   1  -4  179.99    9.70
  -3  -1   4  172.57   10.00
   3  -1  -4  172.22    9.37
   3   1  -4  183.34    9.86
  -3   1   4  181.00    9.76
   3   1  -4  176.65   10.59
   3  -1  -4  175.14   10.23
   3  -1  -4  177.29   10.09
  -3   1   4  157.54    9.94
  -3  -1   4  175.07    9.62
   3  -1   2  164.26    9.76
  -3  -1  -2  147.31    9.39
  -3   1  -2  154.87    9.72
  -3   1  -2  151.16    8.83
   3  -1   2  141.85    9.83
   3   1   2  155.89   10.18
  -3  -1  -2  143.10    9.86
  -3   1  -2  145.81    9.92
   3  -1   2  154.21   10.40
   3   1   2  147.61    9.60
   3   1   2  157.10    9.72
  -1  -4   5  856.57   33.45
   1   4  -5  884.86   33.67
   1   4  -5  861.91   33.08
  -1   4   5  931.93   37.16
   1  -4  -5  808.23   31.01
  -1   4   5  852.42   32.79
   1  -4  -5  871.59   33.64
  -1  -4   5  860.68   33.16
   1  -4  -5  740.42   35.18
   1   4  -5  860.83   33.67
   1  -4  -5  719.26   34.61
  -1  -4   5  882.79   34.16
   2   6   1    8.37    4.04
   2  -6   1   12.70    4.93
   2  -6   1   12.22    3.78
  -2  -6  -1    9.28    3.60
   2   6   1   11.17    4.07
   3  -4  -2  406.72   19.85
   3  -4  -2  402.74   17.77
   3   4  -2  406.15   18.81
  -3  -4   2  464.68   22.22
   3  -4  -2  373.31   18.10
   3   4  -2  407.22   18.20
  -3  -4   2  393.21   17.67
   3  -4  -2  394.29   18.24
  -3  -4   2  390.88   17.74
  -3   4   2  398.69   18.08
   3   4  -2  409.23   18.20
   3   4   0   61.61    5.82
   3   4   0   59.78    7.16
  -3  -4   0   62.35    6.64
   3   4   0   59.17    6.51
   3   4   0   61.21    6.08
   3  -4   0   49.97    6.27
   3  -4   0   55.67    5.50
  -3   4   0   56.68    6.01
  -3   4   0   58.21    5.89
  -3   4   0   60.90    7.16
  -3  -4   0   57.08    5.88
   1   6   3    3.80    3.21
   1  -6   3    3.19    3.76
  -1   6  -3    4.03    3.87
  -1  -6  -3    3.05    2.70
  -1  -6  -3    3.30    3.23
  -1  -6  -3    2.46    3.38
   0  -4   5 1748.60   61.34
   0  -4  -5 1566.31   57.80
   0   4   5 1662.37   63.39
   0  -4   5 1891.12   65.77
   0  -4  -5 1783.65   62.87
   0   4  -5 1886.83   65.20
   0  -4  -5 1558.44   62.58
   0   4  -5 1685.39   59.96
   0  -4   5 1762.79   66.79
   0  -4  -5 1657.06   71.13
   0  -4  -5 1736.92   62.55
   0   4  -5 1828.50   64.68
   2   3  -5  439.25   19.17
   2  -3  -5  413.72   19.06
   2  -3  -5  416.91   18.19
  -2  -3   5  433.55   19.23
  -2   3   5  456.56   20.53
  -2  -3   5  406.90   18.94
  -2  -3   5  448.55   20.61
   2   3  -5  441.44   18.91
   2   3  -5  420.29   19.36
   2  -3  -5  438.88   19.52
  -2   3   5  435.24   19.09
  -2   2  -4   93.15    7.27
  -2  -2  -4   98.87    7.78
   2   2   4  105.13    8.31
  -2  -2  -4  109.83    7.88
   2  -2   4   97.52    7.89
  -2  -2  -4   99.46    9.59
   2  -2   4  106.53    8.32
  -2   2  -4   92.96    8.69
  -2   2  -4   97.66    8.24
   2  -2   4  110.26    7.72
   2   2   4   82.70    6.79
   2   2   4   96.42    7.55
   1   0  -6    0.37    3.04
   3   2  -4  474.49   20.17
  -3   2   4  462.26   19.95
  -3  -2   4  464.45   20.55
   3  -2  -4  459.64   19.68
  -3  -2   4  467.79   20.35
  -3   2   4  441.36   20.12
  -3  -2   4  457.65   20.38
   3   2  -4  471.67   19.95
  -3   2   4  493.07   21.79
   3  -2  -4  459.37   20.92
   3  -2   2   22.54    5.62
   3   2   2   22.63    4.48
  -3   2  -2   17.95    4.68
  -3   2  -2   23.87    4.71
   3  -2   2   24.34    5.84
   3   2   2   18.47    4.11
  -3   2  -2   21.21    5.41
   3  -2   2   20.78    4.13
  -3  -2  -2   18.77    4.51
  -3  -2  -2   24.61    4.83
   3   2   2   23.85    6.02
  -3  -2  -2   23.53    5.10
  -1  -1   6  241.69   12.64
   1  -1  -6  244.95   13.16
  -1   1   6  215.96   11.84
   1  -1  -6  221.01   12.66
   1   1  -6  232.50   12.54
  -1  -1   6  235.52   13.03
   1  -1  -6  262.57   13.11
   1   1  -6  259.13   13.65
   1  -1  -6  256.26   13.51
   1   1  -6  213.54   12.51
   1   1  -6  245.08   12.47
  -1  -5  -4  773.49   31.90
   1  -5   4  896.76   37.23
  -1  -5  -4  867.48   34.16
   1  -5   4  905.59   34.70
  -1  -5  -4  798.62   32.77
  -1   5  -4  852.93   32.47
  -1   5  -4  794.81   33.75
  -1   5  -4  861.37   33.42
   1   5   4  798.47   36.26
  -1   5  -4  881.28   34.10
   1   5   4  942.03   39.12
   1  -7   2   46.96    6.02
  -1   7  -2   58.68    6.28
  -1  -7  -2   54.65    5.70
   1   7   2   51.49    5.75
  -1  -7  -2   60.19    6.10
  -1   7  -2   54.21    5.83
  -2  -5   4   74.95    6.78
   2   5  -4   75.74    6.83
   2   5  -4   83.80    6.90
  -2   5   4   79.32    7.36
   2  -5  -4   84.44    7.37
   2   5  -4   76.05    7.10
  -2  -5   4   74.20    6.95
   2  -5  -4   76.85    6.39
  -2  -5   4   72.70    6.54
  -2   5   4   79.24    6.72
   2  -5  -4   78.72    7.16
   0  -8   0   -0.06    3.20
   0   8   0   -0.19    3.27
   0  -8   0   -0.07    3.99
   0  -8   0   -2.96    3.01
   0  -8   0   -0.84    3.45
   0  -8   0    0.38    3.83
   0   0   6 4494.39  179.62
   0   0  -6 4728.29  182.25
  -1   3  -5   -0.09    3.24
   1   3   5   -3.46    3.27
   1   3   5   -0.33    3.47
  -1   3  -5    1.12    3.57
   1  -3   5   -1.23    2.98
  -1  -3  -5    0.25    3.08
  -1   3  -5   -0.15    3.64
  -1  -3  -5   -0.09    3.60
  -2   6   3 1059.77   39.87
   2  -6  -3 1041.66   38.02
   2   6  -3 1048.86   39.47
  -2   6   3 1034.86   38.16
   2  -6  -3 1158.41   45.53
  -2  -6   3 1025.06   37.74
   2   6  -3 1074.13   39.23
   2  -6  -3 1031.53   44.64
   2   6  -3 1105.89   41.51
   2  -6  -3  996.26   37.52
  -2  -6   3 1009.28   38.08
   0   6  -4   79.67    6.65
   0  -6  -4   71.60    6.82
   0  -6  -4   82.81    7.77
   0  -6  -4   77.83    6.66
   0   6   4   75.67    7.29
   0  -6  -4   67.76    6.43
   0  -6   4   81.74    7.43
   0  -6   4   74.45    7.08
   0  -6  -4   81.31    7.07
   0   6  -4   88.61    7.67
   0   6  -4   72.80    6.96
   0  -6   4   86.49    7.05
   1  -6  -4  384.11   18.07
  -1  -6   4  389.11   18.36
  -1  -6   4  390.18   17.79
   1  -6  -4  360.21   16.66
  -1  -6   4  366.05   17.16
   1   6  -4  403.40   18.06
   1   6  -4  346.87   17.05
   1  -6  -4  323.56   17.61
  -1   6   4  368.60   16.82
   1  -6  -4  389.59   19.04
   0   7  -3   10.90    4.20
   0  -7   3   -0.04    3.07
   0   7  -3   -0.65    4.47
   0  -7  -3   -0.70    3.29
   0  -7   3   -1.17    3.63
   0  -7  -3    0.19    3.06
   0  -7  -3   -0.22    2.86
   0  -7  -3   -0.68    3.01
   0  -7  -3    0.01    3.08
   0   7  -3    0.86    3.43
   0  -7   3    0.73    3.69
   0  -7  -3    0.84    3.45
   0   1  -6  111.58    8.21
   0  -1  -6  108.05    8.77
   0  -1  -6  114.23    8.29
   0  -1   6  122.39    8.22
   0  -1   6  104.99    7.81
   0   1  -6  119.31    8.70
   0   1  -6  126.41    9.38
   0   1   6  102.47    8.28
  -3  -4   3   12.27    4.09
  -3   4   3   12.22    4.14
  -3  -4   3    7.41    3.70
   3  -4  -3   10.08    4.03
   3   4  -3   10.38    3.36
  -3   4   3    7.33    3.74
   3  -4  -3    9.17    3.52
   3   4  -3    8.55    3.39
   3  -4  -3   10.49    5.07
   3   4  -3   10.45    3.81
   3  -4  -3    8.17    3.96
   3   4   1   -1.43    2.90
  -3   4  -1    1.02    3.62
  -3   4  -1    0.74    3.27
  -3   4  -1    2.84    3.74
  -3  -4  -1    1.18    3.18
   3  -4   1    1.40    3.60
  -3  -4  -1    0.83    3.16
   3   4   1    1.60    3.48
   0  -8   1   16.58    4.17
   0  -8   1   16.92    4.53
   0  -8   1   17.99    4.11
   0  -8  -1   15.64    3.55
   0  -8  -1   18.77    4.21
   0   8  -1   17.87    4.54
   0  -8  -1   18.56    4.44
   0  -8  -1   20.67    4.42
   0  -8  -1   17.87    4.67
  -1  -2   6    1.22    3.09
   1  -2  -6    1.19    3.05
   1   2  -6    2.26    3.30
   1  -2  -6    1.36    4.23
   1  -2  -6    0.07    3.82
  -1   7   3   77.25    6.71
  -1  -7   3   71.25    6.56
   1   7  -3   68.13    6.32
   1  -7  -3   77.06    7.71
   1  -7  -3   72.92    6.37
   1   7  -3   81.15    7.15
   1  -7  -3   83.75    7.65
  -1  -7   3   77.31    6.54
   1  -7  -3   77.07    7.03
   1  -7  -3   78.87    7.14
  -2  -3  -4  138.10    8.89
  -2  -3  -4  123.75    8.70
  -2   3  -4  132.33    8.85
   2  -3   4  156.67    9.41
   2   3   4  130.73    8.87
   2  -3   4  124.40    9.58
  -2   3  -4  124.10    9.03
   2  -3   4  147.47    9.97
   2   3   4  109.34    8.15
   2   3   4  122.97    8.63
  -2  -3  -4  124.52    8.57
  -2   3  -4  144.80    9.25
   3   5  -1   14.63    3.70
  -3  -5   1   11.95    4.11
  -3   5   1   15.09    4.29
  -3  -5   1   12.94    4.01
   3   5  -1   16.12    4.56
   3  -5  -1   13.26    3.99
   3  -5  -1   17.27    4.95
   3  -5  -1   14.63    3.98
  -3  -5   1   15.72    4.18
   3  -5  -1   15.75    5.15
  -3   3   4 1741.81   61.20
   3  -3  -4 1746.80   60.21
  -3  -3   4 1690.70   59.71
   3   3  -4 1798.59   62.68
   3  -3  -4 1679.85   59.42
   3   3  -4 1746.56   63.27
   3  -3  -4 1657.52   58.87
  -3  -3   4 1667.55   60.81
   3   3  -4 1744.03   60.65
  -3   3   4 1583.60   56.59
  -3  -3   4 1612.37   57.24
  -3   3   4 1649.64   58.68
  -3   3  -2  675.37   28.50
  -3   3  -2  665.59   28.42
  -3  -3  -2  665.30   27.01
  -3   3  -2  648.69   26.38
   3   3   2  654.79   27.31
   3  -3   2  638.91   29.00
   3  -3   2  681.08   26.58
  -3  -3  -2  657.47   26.51
   3   3   2  670.57   27.80
   3   3   2  604.70   25.04
   3  -3   2  648.98   30.03
   2  -6   2  662.84   28.56
   2   6   2  697.43   29.59
  -2  -6  -2  719.29   31.91
   2  -6   2  750.10   29.22
  -2   6  -2  716.27   31.22
  -2   6  -2  722.45   30.71
  -2  -6  -2  683.58   27.47
  -2   6  -2  725.67   30.93
   2  -6   2  629.86   29.16
   2   6   2  769.75   32.07
   2  -5   3   66.94    6.89
   2   5   3   68.07    6.69
   2  -5   3   78.86    7.04
  -2   5  -3   75.24    7.19
  -2   5  -3   75.98    6.61
  -2  -5  -3   69.71    6.66
  -2  -5  -3   71.82    7.03
  -2   5  -3   79.32    7.22
   2  -5   3   82.08    6.74
  -2  -5  -3   78.85    6.93
   2   5   3   72.59    6.77
   2   5   3   62.39    6.89
   2  -7  -1    7.09    3.61
  -2  -7   1    5.78    3.33
  -2   7   1   11.07    4.87
   2   7  -1    9.08    3.99
   2   7  -1    7.07    3.51
   2  -7  -1    5.69    3.53
   2  -7  -1    6.69    4.40
   0   2  -6  150.08    9.86
   0  -2  -6  148.13    9.61
   0  -2  -6  140.52   10.32
   0  -2   6  145.32    9.59
   0  -2   6  159.03    9.84
   0  -2  -6  128.11    9.90
   0   2  -6  165.70   10.98
   0   2   6  149.31   10.26
   0   2  -6  158.97   10.27
  -2  -4   5 1833.41   69.19
   2   4  -5 1982.37   72.59
   2   4  -5 1698.33   66.42
   2  -4  -5 1840.37   68.88
   2  -4  -5 1870.65   69.69
  -2   4   5 1837.24   67.61
  -2   4   5 1931.54   72.98
  -2  -4   5 1829.06   69.12
   2   4  -5 1856.60   68.62
  -2  -4   5 1743.08   65.60
   2  -4  -5 1800.18   66.58
  -1  -5   5   45.95    6.21
   1  -5  -5   43.49    4.97
  -1   5   5   51.81    7.51
  -1  -5   5   53.24    6.07
   1   5  -5   45.72    5.77
  -1  -5   5   50.88    6.04
   1  -5  -5   52.66    6.19
   1  -5  -5   42.79    6.07
   1   5  -5   43.62    8.71
   1  -5  -5   38.35    5.50
  -2  -7   0 1237.90   48.13
   2  -7   0 1239.31   48.31
  -2  -7   0 1250.27   48.51
   2  -7   0 1161.30   60.13
  -2   7   0 1277.00   50.54
  -2   7   0 1250.27   48.36
   2   7   0 1243.28   48.49
   2   7   0 1272.06   49.48
   2  -7   0 1141.88   47.39
  -2   7   0 1247.28   48.12
  -2  -7   0 1271.79   49.29
   1   8   0 2629.89   97.95
  -1   8   0 3002.42  114.28
  -1  -8   0 2978.15  109.24
   1   8   0 2551.87   96.30
   1  -8   0 2828.63  113.90
  -1  -8   0 2746.75  116.91
   1  -8   0 2718.23  102.64
  -1  -8   0 2786.59  102.60
  -3  -5   2  294.46   16.08
   3  -5  -2  296.59   16.54
   3   5  -2  303.67   16.57
  -3   5   2  294.95   15.26
   3  -5  -2  247.52   14.34
   3   5  -2  279.13   14.15
  -3  -5   2  272.41   14.54
   3   5  -2  288.21   14.76
  -3  -5   2  283.06   14.55
   3  -5  -2  292.58   15.53
   3  -5  -2  294.14   14.73
  -3   5   2  285.77   14.83
  -3   5   0  438.61   21.33
   3   5   0  419.13   20.23
   3  -5   0  428.71   20.74
  -3   5   0  414.32   19.05
  -3  -5   0  422.03   19.98
  -3   5   0  443.56   20.42
   3  -5   0  452.57   20.14
  -3  -5   0  446.11   21.14
   3   5   0  439.67   20.36
   3  -5   0  404.08   19.91
  -2   0   6 1236.33   48.05
   2   0  -6  991.50   39.39
  -2   0   6 1152.03   45.15
   2   0  -6 1180.20   45.52
   2   0  -6 1125.91   44.53
  -2   0   6 1203.63   46.38
   0  -5  -5  128.40    9.00
   0  -5   5  154.15   10.24
   0  -5  -5  150.62   10.00
   0  -5   5  149.29    9.89
   0   5  -5  164.98   10.20
   0  -5  -5  123.33    9.27
   0   5  -5  148.68    9.99
   0  -5  -5  142.18   11.01
   0  -5   5  151.56    9.65
   0   5   5  167.90   12.06
   0  -5  -5  141.89    9.25
  -2  -1   6  402.84   19.78
  -2   1   6  439.88   20.22
  -2  -1   6  433.29   19.76
  -2   1   6  443.74   21.00
   2   1  -6  439.04   20.05
   2  -1  -6  458.95   20.59
  -2  -1   6  439.98   20.85
  -2   1   6  429.85   21.03
   2  -1  -6  431.40   20.54
   2  -1  -6  425.52   19.73
   3   0  -5  360.64   17.80
  -3   0   5  361.61   17.82
  -3   0   5  362.50   17.57
  -3   0   5  382.32   19.63
   3   0  -5  376.74   17.71
   3   0  -5  385.54   18.33
  -3   0  -3  207.09   12.42
   3   0   3  228.72   12.46
   3   0   3  212.83   12.56
  -3   0  -3  214.49   12.22
  -3   0  -3  198.81   11.56
   3   0   3  210.53   12.82
  -1  -3   6  169.61   10.23
   1  -3  -6  167.38   10.19
   1   3  -6  168.63   11.11
   1  -3  -6  175.43   11.06
  -1  -3   6  175.01   10.69
  -1   3   6  157.24   10.49
   1  -3  -6  164.79   10.42
   1   3  -6  172.77   10.58
  -1  -3   6  177.59   10.73
   1  -3  -6  172.49   11.24
  -2   7   2  833.37   36.80
   2   7  -2  918.03   38.18
   2  -7  -2  946.14   43.37
  -2  -7   2  901.33   36.21
   2   7  -2  943.89   39.95
   2  -7  -2  882.20   37.38
  -2  -7   2  967.29   38.44
   2  -7  -2  951.51   38.96
   2  -7  -2  973.33   38.40
  -2   7   2  950.94   37.70
  -2  -7   2  952.11   38.19
   2   7  -2  969.37   38.86
   0  -8  -2   21.26    4.83
   0  -8  -2   20.79    4.32
   0  -8   2   19.38    4.55
   0  -8  -2   19.76    4.70
   0  -8   2   20.81    4.89
   0  -8  -2   25.30    5.26
   0  -8   2   19.05    4.51
   0   8  -2   19.07    4.40
   0  -8  -2   18.22    4.26
   0  -8  -2   19.21    4.07
  -1  -4  -5 3179.74  119.42
   1  -4   5 3457.66   86.83
  -1  -4  -5 3181.34  113.37
  -1  -4  -5 3014.51  117.21
  -1   4  -5 3238.36   81.75
   1   4   5 3117.13  120.76
  -1   4  -5 3381.20   91.90
  -3  -1   5  768.59   32.06
  -3  -1   5  717.42   30.98
   3  -1  -5  743.76   31.17
   3   1  -5  785.74   32.03
   3   1  -5  794.22   32.25
   3  -1  -5  821.92   33.14
  -3  -1   5  780.16   31.95
  -3   1   5  739.13   30.93
   1   8   1  657.44   28.28
  -1  -8  -1  686.88   32.51
  -1  -8  -1  631.85   28.02
  -1   8  -1  704.28   31.06
   1  -8   1  648.77   35.34
  -1  -8  -1  665.69   28.65
  -1  -8  -1  671.84   28.57
  -1  -8  -1  678.07   29.27
   1  -8   1  614.92   26.38
  -3   1  -3  637.97   28.23
   3  -1   3  661.34   27.86
   3   1   3  628.62   27.20
  -3   1  -3  634.35   27.27
   3   1   3  620.97   29.08
  -3   1  -3  623.83   26.73
  -3  -1  -3  622.57   27.34
  -3  -1  -3  619.05   27.33
   3   1   3  584.40   26.35
   3  -1   3  613.53   27.68
   3  -1   3  623.10   28.54
   2  -7   1  106.99    7.87
  -2  -7  -1  119.00    9.01
   2   7   1  114.07    8.55
   2  -7   1  110.36    9.00
   2   7   1  121.77    9.02
  -2   7  -1  122.89    8.97
  -2  -7  -1  118.87    8.63
  -2   7  -1  106.01    8.29
   0   3  -6  325.86   16.40
   0  -3  -6  295.73   15.90
   0   3  -6  317.56   16.28
   0  -3  -6  266.57   15.37
   0  -3  -6  295.62   15.65
   0   3   6  285.56   15.78
   0  -3   6  308.10   15.57
   0  -3   6  303.49   15.25
   0  -3   6  305.21   16.70
   0   3  -6  320.74   16.13
   2   2  -6  243.89   13.64
   2  -2  -6  224.81   12.94
   2  -2  -6  244.35   13.02
   2  -2  -6  258.20   13.71
  -2   2   6  216.63   12.14
  -2  -2   6  261.69   14.43
   2   2  -6  260.99   13.82
  -2  -2   6  237.14   12.97
  -2  -2   6  232.18   13.24
  -1   7  -3 1301.54   57.51
  -1  -7  -3 1295.00   51.15
   1  -7   3 1054.44   58.10
  -1  -7  -3 1210.29   49.07
   1  -7   3 1401.82   53.93
  -1  -7  -3 1346.18   53.74
  -1  -7  -3 1270.95   50.50
  -1  -7  -3 1283.73   51.19
   1   7   3 1256.37   52.85
  -1   7  -3 1354.62   52.49
   1  -8  -2    2.00    4.19
   1  -8  -2    1.28    3.63
   1   8  -2    0.52    3.59
   1  -8  -2   -0.92    3.47
   2  -4   4   72.59    6.41
  -2  -4  -4   58.88    6.47
   2   4   4   62.65    6.51
  -2   4  -4   58.57    7.06
   2   4   4   50.76    5.64
   2  -4   4   64.90    6.57
  -2   4  -4   55.70    6.30
  -2  -4  -4   66.73    6.24
  -2   4  -4   57.26    6.35
  -1  -6  -4    0.57    2.95
  -1   6  -4    0.90    3.45
  -1  -6  -4    1.85    3.05
   1  -6   4    0.29    3.53
  -1  -6  -4    1.43    3.57
  -1  -6  -4    1.29    2.81
   1   6   4    2.59    3.50
   1   6   4    2.56    3.72
   3   4  -4  273.90   14.10
   3  -4  -4  233.36   14.23
   3   4  -4  259.92   18.72
  -3  -4   4  249.94   14.60
   3  -4  -4  242.64   13.47
   3  -4  -4  240.56   13.53
  -3   4   4  253.43   13.70
  -3  -4   4  258.45   17.64
   3   4  -4  252.86   15.44
  -3   4   4  256.73   14.07
   3  -4  -4  240.32   12.99
  -3  -4   4  255.28   17.63
   3   4   2  908.32   37.26
  -3  -4  -2 1082.70   44.08
  -3   4  -2 1108.70   45.30
  -3  -5   3   19.99    4.50
  -3   5   3   21.63    4.95
  -3   5   3   20.10    4.46
   3  -5  -3   21.81    5.68
  -3  -5   3   17.03    4.60
   3   5  -3   21.43    4.13
   3   5  -3   20.92    4.44
   3  -5  -3   16.87    5.17
   3  -5  -3   18.07    4.11
   3   5  -3   19.93    4.56
   3  -5  -3   23.47    4.71
   3  -5   1    5.33    3.82
  -3   5  -1    7.24    3.52
  -3  -5  -1    6.53    3.53
  -3   5  -1    7.27    3.78
  -3  -5  -1    7.15    3.76
   3   5   1    5.30    3.79
  -3   5  -1    6.07    4.10
   3   5   1    7.29    4.17
  -2  -6   4  176.23   10.78
  -2   6   4  176.44   10.74
   2   6  -4  175.41    9.97
   2  -6  -4  171.66    9.25
   2   6  -4  185.30   10.98
   2  -6  -4  164.08   10.57
   2  -6  -4  177.39   12.50
   2   6  -4  165.67   10.65
   2  -6  -4  182.70   11.39
  -2  -6   4  185.29   11.47
  -2  -6   4  180.36    9.67
  -3  -2   5   16.76    5.23
   3   2  -5   16.15    4.24
  -3  -2   5   15.21    5.11
  -3   2   5   20.00    5.41
  -3  -2   5   15.92    4.44
   3   2  -5   15.34    4.36
   3  -2  -5   14.76    3.94
   3  -2  -5   14.38    4.79
  -3   2   5   18.23    4.31
  -3   2  -3   59.52    6.54
   3   2   3   57.43    6.54
   3   2   3   65.43    6.17
   3   2   3   50.60    5.75
   3  -2   3   53.21    6.40
  -3  -2  -3   57.13    6.25
   3  -2   3   66.30    5.96
   3  -2   3   57.72    6.44
  -3  -2  -3   58.68    6.11
  -3   2  -3   56.54    5.65
  -3  -2  -3   61.12    6.11
  -3   2  -3   64.37    6.37
  -4   0   1    0.27    3.55
   4   0  -1    2.35    4.39
   4   0  -1    2.61    4.07
   4   0  -1    1.46    3.90
   4   0  -1   -0.40    3.28
   4   0  -2  222.25   12.63
   4   0  -2  219.28   11.20
  -4   0   2  209.81   10.58
   4   0  -2  219.32   11.50
   4   0  -2  221.39   10.95
  -2   0  -5    2.54    3.73
  -2   0  -5   -1.59    3.23
   2   0   5   -0.92    2.60
   2   0   5   -1.08    3.48
   2   0   5   -0.27    4.18
  -1   0  -6   -1.64    3.65
   1   0   6    2.22    3.80
   1   0   6   -0.19    4.33
  -1   0  -6   -0.90    3.51
   4   1  -1  226.58   11.60
   4  -1  -1  237.89   11.30
   4   1  -1  240.33   11.99
  -4   1   1  239.60   11.53
   4   1  -1  229.39   12.36
  -4   1   1  240.47   11.38
  -4  -1   1  235.09   11.29
   4  -1  -1  235.85   12.15
  -4  -1   1  222.22   11.36
   4  -1  -1  296.43   14.62
   4   1  -1  239.86   11.80
   4  -1  -1  236.29   12.88
   4  -1  -2   24.57    4.92
  -4  -1   2   26.38    4.94
   4   1  -2   24.31    5.69
   4   1  -2   26.77    4.77
   4  -1  -2   25.00    5.10
   4  -1  -2   25.93    5.80
   4   1  -2   22.46    4.77
  -4  -1   2   24.53    5.07
  -4   1   2   24.37    4.88
   4   1  -2   29.90    5.47
   4  -1  -2   24.07    4.54
  -2   1  -5  894.06   27.83
   2   1   5  931.89   29.96
   2  -1   5  940.09   29.57
   2   1   5  896.26   32.87
  -2  -1  -5  840.89   28.36
  -2   1  -5  916.08   29.00
   2  -1   5  926.59   32.86
  -2  -1  -5  878.43   29.47
  -2   1  -5  889.01   28.64
   2  -1   5  900.20   35.88
   2   1   5  864.98   30.68
   1  -1   6 1264.10   36.48
   1  -1   6 1206.55   36.73
   1  -1   6 1352.49   43.19
  -1   1  -6 1153.12   41.69
  -1  -1  -6 1177.78   40.07
  -1   1  -6 1162.69   36.26
   1  -1   6 1218.46   44.07
   1   1   6 1198.94   40.70
   1   1   6 1277.52   54.25
  -2  -5   5  114.65    8.47
   2  -5  -5  120.95    9.18
  -2   5   5  115.47    9.30
  -2  -5   5  113.33    8.82
  -2  -5   5  108.89    8.13
  -2   5   5  119.36    7.91
   2   5  -5  119.69    8.14
   2   5  -5  125.94    8.04
   2  -5  -5  117.78    7.65
   2   5  -5  117.77    8.98
   2  -5  -5  117.13    8.34
   2   7  -3  782.20   24.97
   2   7  -3  775.60   25.30
   2  -7  -3  748.13   28.80
  -2  -7   3  762.29   24.31
   2   7  -3  720.62   25.16
   2  -7  -3  676.83   23.70
  -2   7   3  739.49   24.68
   2  -7  -3  751.92   24.78
  -2  -7   3  772.95   25.56
   0  -7  -4 1474.89   46.12
   0  -7  -4 1599.42   44.68
   0  -7  -4 1633.77   53.10
   0   7  -4 1474.14   45.80
   0   7  -4 1583.40   55.70
   0  -7  -4 1644.38   50.65
   0  -7  -4 1446.45   46.59
   0  -7   4 1649.88   46.84
   0  -7  -4 1496.95   45.43
   0  -7   4 1657.07   52.03
   0   7  -4 1713.67   46.22
   0  -7   4 1555.09   49.32
  -1  -4   6  561.91   19.46
   1   4  -6  546.73   22.13
   1  -4  -6  457.18   21.12
   1   4  -6  574.76   25.67
  -1   4   6  582.22   22.22
   1  -4  -6  509.64   22.01
   1  -4  -6  484.36   20.30
  -1  -4   6  544.67   19.78
  -1  -4   6  555.55   20.61
   1  -4  -6  548.82   19.33
   1  -4  -6  576.28   22.29
   3   6  -1  145.26    8.49
  -3  -6   1  138.78    9.12
  -3   6   1  143.29    9.01
   3  -6  -1  135.88    8.18
  -3  -6   1  143.73    8.84
  -3  -6   1  129.05    8.53
   3   6  -1  142.10    9.05
   3  -6  -1  134.49    8.86
   3  -6  -1  144.56   10.00
  -1  -8  -2    8.64    3.81
  -1  -8  -2    8.05    3.42
  -1  -8  -2    7.55    3.96
  -1  -8  -2    7.37    3.57
   1   8   2    6.91    3.59
  -1   8  -2    9.39    4.36
  -1  -8  -2    6.52    3.60
   1  -8   2    7.02    4.13
   4   0   0   36.13    5.84
  -4   0   0   33.69    4.90
  -4   0   0   40.93    5.45
   4   0   0   35.84    5.74
   4   0   0   35.09    5.25
   2   3  -6  115.61    7.96
   2  -3  -6  107.16    8.30
  -2  -3   6  103.92    7.80
  -2  -3   6  102.66    7.40
  -2   3   6  111.58    8.40
   2  -3  -6  105.18    7.21
  -2  -3   6  108.37    8.22
  -2   3   6  103.81    7.31
   2  -3  -6  118.29    8.23
   2   3  -6  103.97    8.27
   2   3  -6  102.30    7.09
   2  -6   3    3.84    3.48
  -2  -6  -3    5.29    3.32
   2  -6   3    5.37    3.54
   2   6   3    5.07    3.85
   2  -6   3    2.90    4.49
  -2  -6  -3    5.67    3.48
   2   6   3    4.57    3.98
  -2   6  -3    6.52    3.49
  -2   6  -3    3.93    4.19
  -4   1   0   35.59    5.36
   4  -1   0   35.19    6.34
   4   1   0   39.31    6.24
   4   1   0   34.99    5.47
   4   1   0   37.77    5.23
   4   1   0   47.58    6.78
   4  -1   0   41.44    6.03
   4  -1   0   38.85    5.73
  -4   1   0   36.85    5.50
  -4  -1   0   37.72    5.29
   4   2  -1   18.76    4.22
   4  -2  -1   15.56    4.75
  -4   2   1   16.64    4.29
  -4  -2   1   17.02    4.55
   4  -2  -1   18.85    4.78
   4  -2  -1   16.45    5.36
   4   2  -1   17.33    4.91
   4   2  -1   14.37    4.34
  -4   2   1   19.82    4.46
   1  -6  -5  283.53   14.11
   1  -6  -5  327.96   14.36
   1   6  -5  280.68   13.12
  -1  -6   5  296.68   12.95
   1   6  -5  323.46   13.63
  -1  -6   5  304.48   13.69
  -1  -6   5  307.39   13.49
   1  -6  -5  285.72   14.01
  -1   6   5  282.89   13.50
   1  -6  -5  279.59   13.75
   1  -6  -5  268.28   12.06
   3  -3  -5   56.63    6.92
  -3   3   5   59.45    6.89
  -3  -3   5   60.32   10.35
   3   3  -5   51.72    8.99
  -3   3   5   47.20    7.33
   3   3  -5   57.73    8.76
   3   3  -5   65.79   13.42
  -3  -3   5   57.14   10.44
  -3   3   5   54.33    5.96
   3  -3  -5   46.04    6.47
  -3  -3   5   51.43    8.48
   3  -3   3 1191.63   35.24
  -3   3  -3 1128.65   33.64
   3   3   3 1093.48   34.02
  -3  -3  -3 1046.09   32.44
   3  -3   3 1144.81   35.21
   3   3   3 1146.18   35.07
   3  -3   3 1032.84   36.08
   3   3   3 1022.11   31.99
  -3   3  -3 1101.40   33.36
  -3  -3  -3 1189.19   35.65
  -3   3  -3 1124.13   33.61
   4  -2  -2   14.14    4.81
  -4  -2   2   11.21    3.67
   4  -2  -2   19.53    5.75
   4   2  -2   13.67    3.88
   4   2  -2   11.95    4.61
   4   2  -2   14.46    5.16
   4  -2  -2   13.63    5.19
  -4   2   2   12.72    4.37
   0  -8  -3 2180.33   65.20
   0  -8  -3 2250.30   60.29
   0  -8  -3 2400.72   53.53
   0  -8  -3 2139.05   60.48
   0  -8  -3 2298.46   52.51
   0   8  -3 2312.66   59.47
   0  -8   3 2335.48   54.04
   0  -8  -3 2242.06   64.67
   0  -8   3 2244.29   62.96
   2   2   5    8.73    3.83
  -2   2  -5    5.47    3.58
  -2  -2  -5    6.31    3.45
  -2  -2  -5    6.28    3.74
  -2   2  -5    5.60    3.44
   2  -2   5    7.97    3.38
   2  -2   5    5.69    4.12
   2  -2   5    6.49    4.06
   2   2   5    7.19    3.40
  -2   2  -5    9.64    4.13
   2   2   5    8.11    4.70
  -3   6   2   15.03    4.76
   3  -6  -2    8.53    4.25
   3  -6  -2    9.74    5.39
   3   6  -2   10.65    3.87
   3  -6  -2    6.23    3.69
  -3   6   2   13.40    4.49
  -3  -6   2   10.79    3.88
  -3  -6   0  289.82   12.99
   3   6   0  319.07   14.30
  -3  -6   0  328.81   14.22
   3   6   0  311.16   13.44
   3  -6   0  287.89   16.01
   3  -6   0  298.13   13.69
  -3   6   0  302.91   13.02
  -3   6   0  331.22   14.31
   4   0  -3    6.84    5.26
   4   0  -3   -1.04    3.60
   4   0  -3    5.26    4.01
   4   0  -3    6.23    4.79
   0  -4   6  152.32    9.23
   0  -4   6  145.75    9.78
   0   4   6  141.88    9.41
   0  -4  -6  151.75    9.01
   0  -4   6  145.23    8.60
   0   4  -6  157.64    9.18
   0   4  -6  155.23    9.54
   0  -4  -6  141.37   10.11
   0  -4  -6  131.13    8.93
  -1   2  -6   17.15    4.30
   1  -2   6   18.60    4.51
   1  -2   6   18.13    4.98
   1   2   6   14.07    5.23
   1  -2   6   23.34    4.07
   1   2   6   19.84    4.60
   1  -2   6   17.05    4.51
  -1  -2  -6   19.13    4.39
  -1   2  -6   18.22    4.43
   1   5   5  207.41   11.83
  -1  -5  -5  196.10   10.63
   1  -5   5  198.02   11.87
   1  -5   5  235.02   11.36
  -1  -5  -5  217.52   10.86
   1   5   5  184.88   12.53
  -1   5  -5  221.15   12.50
  -1  -5  -5  221.72   10.97
   1  -5   5  228.72   12.81
  -1  -5  -5  174.55    9.82
  -1   5  -5  212.23   10.93
  -2   7  -2   42.70    5.09
   2  -7   2   42.75    5.54
   2  -7   2   38.95    6.33
   2   7   2   40.00    5.59
  -2  -7  -2   42.40    5.63
   2   7   2   38.78    5.45
  -2   7  -2   41.70    5.99
  -2  -7  -2   36.90    5.20
   0  -6  -5    2.73    3.12
   0  -6   5    1.24    3.48
   0   6  -5    3.17    3.18
   0  -6  -5    1.05    3.84
   0   6  -5    1.07    4.03
   0  -6   5    3.46    3.65
   0  -6  -5   -0.24    4.42
   0  -6  -5    2.45    3.36
   0  -6  -5    1.79    3.12
   0  -6   5    1.16    3.93
   0   6   5    1.43    4.04
   0   9   0    2.91    4.03
   0  -9   0   -1.53    3.68
   0  -9   0   -1.03    4.13
   0  -9   0    0.19    3.81
  -4   1   3  325.87   12.31
   4  -1  -3  337.51   12.35
   4   1  -3  339.55   12.97
   4  -1  -3  329.00   12.89
   4  -1  -3  322.25   13.23
   4   1  -3  310.39   12.99
   4  -1  -3  315.47   14.43
   1  -8  -3   52.77    6.10
   1   8  -3   50.22    5.84
   1  -8  -3   51.93    6.02
  -1  -8   3   48.83    5.36
   1  -8  -3   47.14    5.20
   1  -8  -3   46.16    6.26
   1  -8  -3   46.92    6.28
   1  -8  -3   52.74    5.83
   1   8  -3   46.93    5.32
  -4   2   0  724.37   18.96
  -4  -2   0  714.30   19.62
   4   2   0  681.94   19.96
   4   2   0  667.34   21.60
   4  -2   0  707.56   21.10
   4  -2   0  735.73   20.82
  -4   2   0  739.38   19.32
   4  -2   0  698.36   21.84
  -2  -5  -4  799.66   24.00
   2   5   4  805.49   28.24
  -2   5  -4  886.10   22.75
   2  -5   4  894.71   24.29
   2   5   4  865.33   22.59
   2   5   4  848.82   23.96
  -2  -5  -4  971.76   24.83
   2  -5   4  979.38   23.45
  -2   5  -4  878.13   23.77
   0  -9   1   21.48    5.08
   0  -9  -1   20.31    4.56
   0  -9  -1   18.85    4.54
   0  -9  -1   17.44    4.48
   0   9  -1   20.16    4.77
   0  -9   1   19.71    4.71
   0  -9  -1   17.88    4.92
  -2  -8   1    0.92    3.34
   2  -8  -1   -0.13    3.39
  -2   8   1   -0.47    3.79
  -2   8   1    0.68    4.67
  -2  -8   1   -1.06    4.06
  -2  -8   1    1.31    2.92
   2   8  -1    0.22    3.47
   2   8  -1    0.44    3.35
   2  -8  -1   -2.00    4.29
  -3   5   4   95.90    7.19
   3   5  -4   99.80    6.85
  -3  -5   4   95.37    7.59
   3  -5  -4   86.75    6.98
   3  -5  -4   83.50    8.11
  -3  -5   4   92.86    7.45
   3   5  -4   89.82    7.41
   3   5  -4   92.59    6.93
  -3   5   4   93.42    7.72
  -3  -5   4   91.31    7.27
   3  -5  -4   90.88    6.54
   3   5   2   37.42    5.76
   3  -5   2   38.60    5.57
  -3   5  -2   44.03    5.44
   3  -5   2   40.79    5.16
  -3   5  -2   37.77    5.69
   3   5   2   41.61    5.44
  -3  -5  -2   39.02    5.28
  -3  -5  -2   36.65    5.24
   2  -8   0   12.35    4.88
  -2  -8   0   13.45    4.34
  -2   8   0   21.99    5.59
   2   8   0   14.86    4.28
  -2  -8   0   14.63    4.21
   2   8   0   14.22    4.80
  -1   0   7   -4.97    3.42
  -1   0   7   11.32    4.95
   4  -2  -3  278.56   14.58
  -4  -2   3  264.59   13.10
  -4   2   3  258.00   11.52
   4  -2  -3  250.90   12.94
   4   2  -3  275.30   11.76
   4  -2  -3  256.38   12.03
  -4   3   1  153.45    9.07
  -4   3   1  180.51    9.38
   4  -3  -1  174.49    9.75
   4  -3  -1  168.25   10.77
   4   3  -1  163.13    9.10
   4  -3  -1  170.92    9.90
  -4  -3   1  170.82    8.98
   1  -1  -7    6.34    4.36
  -1  -1   7    6.01    3.62
  -1   1   7    3.01    4.29
   1   1  -7    8.50    4.71
   4   0   1   18.18    5.37
   4   0   1   15.63    5.84
   4   0   1   10.09    4.12
  -4   0  -1    7.31    5.20
  -4  -3   2  217.03   10.23
   4  -3  -2  217.91   10.93
  -4   3   2  224.67   10.37
   4  -3  -2  227.03   12.62
   4   3  -2  227.08   10.41
   4   3  -2  224.01   11.81
  -2  -3  -5  133.90    7.98
   2  -3   5  134.85    8.67
  -2   3  -5  135.51    8.08
   2  -3   5  152.49    8.21
   2   3   5  117.70    7.74
   2   3   5  139.27    9.11
   2   3   5  132.19    8.31
  -2   3  -5  121.11    8.24
   2  -3   5  127.60    8.98
  -2  -3  -5  108.91    7.31
  -2   3  -5  142.87    8.56
  -1   3  -6  661.06   18.71
  -1  -3  -6  616.42   18.73
   1   3   6  665.35   21.65
   1  -3   6  697.98   19.48
   1   3   6  652.72   25.99
  -3   6   3  470.78   15.67
   3   6  -3  475.58   19.27
  -3  -6   3  463.94   17.42
   3  -6  -3  410.10   13.68
  -3  -6   3  449.38   17.35
   3   6  -3  497.74   15.02
   3  -6  -3  455.96   17.51
   3  -6  -3  454.94   15.27
  -3   6   3  456.74   15.04
   3   6   1 1366.39   31.72
   3  -6   1 1349.68   30.84
   3   6   1 1434.24   32.10
   3  -6   1 1349.01   36.99
  -3   6  -1 1397.87   33.56
  -3   6  -1 1306.50   30.20
  -3  -6  -1 1307.83   29.65
  -3  -6  -1 1478.98   31.61
  -2  -4   6   80.69    7.23
  -2  -4   6   77.76    6.90
   2   4  -6   82.06    6.84
   2  -4  -6   80.41    6.32
  -2   4   6   77.71    6.36
   2  -4  -6   74.55    7.42
  -2  -4   6   78.57    6.65
  -2   4   6   84.49    9.19
   2   4  -6   76.89    7.93
  -1  -9   0  443.66   15.26
  -1  -9   0  488.75   16.89
   1  -9   0  468.05   24.06
  -1   9   0  512.06   17.78
   1   9   0  476.15   15.70
   1  -9   0  474.20   17.44
   2  -8  -2 1011.37   26.88
  -2   8   2 1017.32   25.69
   2  -8  -2  987.25   34.36
   2   8  -2 1074.46   25.96
  -2  -8   2 1061.57   29.59
   2  -8  -2 1075.14   26.01
  -2  -8   2 1015.50   25.09
   2  -8  -2 1045.66   24.06
  -2  -8   2 1032.89   24.52
   2   8  -2  970.75   25.74
   4   1   1 1740.54   53.72
   4   1   1 1709.93   54.18
   4   1   1 1670.73   34.86
  -4  -1  -1 1686.67   35.70
   4  -1   1 1730.13   52.91
  -4   1  -1 1646.44   34.75
   4  -1   1 1698.16   54.74
   4   1   1 1725.65   54.65
  -4   1  -1 1597.87   35.16
  -1  -9   1   42.22    5.85
   1   9  -1   40.75    5.20
  -1   9   1   45.14    6.59
  -1  -9   1   41.95    5.47
   1  -9  -1   42.18    6.59
   1   9  -1   38.51    5.57
   1  -9  -1   38.48    6.23
  -3   4   5  295.75   12.66
  -3  -4   5  281.73   11.58
   3  -4  -5  301.70   12.56
   3   4  -5  292.40   11.63
  -3   4   5  296.25   11.88
  -3   4   5  248.08   12.48
  -3  -4   5  304.53   12.60
   3   4  -5  300.07   11.53
   3   4  -5  290.49   12.88
   3  -4  -5  288.10   11.32
  -3  -4   5  286.43   12.21
  -3   0   6   -0.47    4.02
   3   0  -6    4.37    4.80
   3   0  -6   -0.18    3.07
  -3   0   6   -1.49    3.49
  -3   4  -3   38.42    5.21
   3   4   3   40.80    5.31
  -3   4  -3   40.08    5.49
   3  -4   3   42.14    5.19
  -3  -4  -3   38.68    5.22
   3  -4   3   40.37    6.38
   3  -4   3   41.57    5.99
   1  -5  -6  707.55   22.05
   1  -5  -6  676.86   19.82
  -1  -5   6  644.57   23.23
   1   5  -6  740.47   20.69
   1   5  -6  723.89   20.03
   1  -5  -6  676.59   19.18
  -1  -5   6  722.19   18.89
  -1  -5   6  748.14   20.33
   3   0   4   -0.20    4.02
  -3   0  -4    1.87    3.63
   3   0   4   -1.10    3.10
  -3   0  -4    0.26    3.35
   3   0   4    0.50    4.42
  -1  -7  -4  256.78   12.30
  -1   7  -4  236.91   10.75
  -1   7  -4  274.13   11.21
  -1  -7  -4  251.32   11.40
   1   7   4  264.03   12.49
   1  -7   4  248.30   11.93
  -1  -7  -4  262.41   11.21
  -1  -7  -4  258.82   11.70
   1  -7   4  273.38   13.22
   1  -7   4  274.17   11.27
   0   0   7   -0.54    4.45
  -4   3   0    6.79    4.18
   4  -3   0    7.41    4.77
   4  -3   0    6.01    4.52
   4   3   0    6.85    3.85
  -4  -3   0    8.88    4.27
  -4   3   0    9.72    4.49
   2  -7  -4  138.90    8.07
  -2   7   4  148.55    8.66
   2  -7  -4  132.25    8.48
  -2  -7   4  147.28    9.12
   2  -7  -4  142.34    9.06
  -2  -7   4  131.97    8.66
   2   7  -4  142.87    8.95
   2  -7  -4  136.11    8.56
   2  -7  -4  130.27   10.02
   2   7  -4  147.10    8.57
  -2  -7   4  132.93    8.34
  -2   8  -1    9.51    4.58
  -2  -8  -1    7.31    3.74
   2  -8   1   12.53    4.91
  -2  -8  -1    5.22    4.59
  -3   1   6   74.23    6.48
  -3  -1   6   78.15    6.63
   3   1  -6   75.12    6.57
  -3   1   6   79.94    8.63
  -3  -1   6   75.36    7.71
   3  -1  -6   74.61    6.36
   3  -1  -6   78.32    7.41
  -4   0   4   45.49    5.51
   4   0  -4   43.29    6.35
  -4   0   4   45.01    6.84
  -1  -2   7   45.74    5.23
  -1  -2   7   43.33    5.65
  -1   2   7   43.97    6.09
   1   2  -7   41.86    5.45
   1   2  -7   42.02    6.14
   1  -2  -7   44.72    6.34
  -1  -2   7   42.12    5.00
  -3   1  -4  423.40   14.74
   3  -1   4  403.56   16.53
   3   1   4  414.92   15.49
   3   1   4  413.72   14.12
  -3   1  -4  425.00   15.06
  -3  -1  -4  427.45   14.89
   3   1   4  451.70   15.82
   3  -1   4  453.94   14.37
  -3  -1  -4  461.04   14.87
   3  -1   4  428.12   15.37
   0  -9  -2  321.43   14.33
   0  -9  -2  283.87   12.90
   0  -9   2  304.02   13.51
   0  -9  -2  246.45   12.62
   0  -9   2  275.95   12.99
   0  -9  -2  281.94   11.80
   0  -9  -2  276.59   12.42
   0   9  -2  277.57   12.58
  -2   6   5   24.52    4.76
   2  -6  -5   23.38    5.87
  -2  -6   5   23.60    5.35
  -2  -6   5   21.29    5.36
   2   6  -5   23.04    5.01
   2   6  -5   23.05    5.07
   2  -6  -5   22.03    4.21
   2  -6  -5   17.16    4.89
   1  -8   3    1.27    4.57
  -1  -8  -3   -0.85    3.45
   1   8   3    1.51    3.81
   1  -8   3   -0.07    4.55
  -1  -8  -3    1.25    3.44
  -1  -8  -3   -0.21    3.40
  -1  -8  -3    2.83    3.98
  -1   9  -1  170.63   10.04
  -1  -9  -1  154.56    9.77
  -1  -9  -1  172.50   10.91
  -1  -9  -1  166.41    9.07
   1  -9   1  155.83   11.22
   1   9   1  138.22    9.51
   1  -9   1  138.01   10.24
   4   2   1 1587.94   51.49
  -4   2  -1 1627.80   51.82
  -4   2  -1 1607.91   52.55
  -4  -2  -1 1633.38   53.05
   4  -2   1 1598.08   51.50
   4   2   1 1459.89   46.73
   4  -2   1 1527.81   49.43
   4   2   1 1663.11   54.80
  -4   2  -1 1625.87   53.00
  -4   3   3  194.43   10.63
  -4  -3   3  179.16   10.83
   4  -3  -3  193.05   12.20
  -4   3   3  202.90   11.19
   4  -3  -3  183.17   10.84
   4   3  -3  204.96   10.81
   0   5   6   33.16    5.57
   0  -5   6   35.77    5.36
   0  -5  -6   35.58    5.00
   0  -5   6   29.38    5.22
   0   5  -6   38.90    5.34
   0  -5   6   38.27    5.23
   0  -5  -6   29.91    5.70
   0   5  -6   36.63    5.89
  -2   0   7    1.99    3.64
  -2   0   7    3.36    4.50
   1   9  -2    2.81    3.95
   1  -9  -2    1.77    3.91
   1  -9  -2    3.53    3.87
  -1  -9   2    3.56    3.98
   1  -9  -2    7.25    4.80
  -1  -9   2    3.34    3.71
   1  -9  -2   -0.48    4.20
   1  -9  -2    3.98    3.82
   3  -2  -6  228.11   11.29
   3  -2  -6  212.28   11.71
  -3   2   6  228.81   11.44
   3   2  -6  232.75   12.68
  -3  -2   6  224.73   12.28
  -3   2   6  350.21   19.37
  -3  -2   6  230.49   11.75
   3   2  -6  244.92   12.03
   3  -2   4  214.06   12.04
  -3   2  -4  231.74   12.05
   3  -2   4  238.53   12.51
   3   2   4  227.32   13.07
  -3   2  -4  235.60   11.93
   3   2   4  224.85   11.85
  -3   2  -4  226.31   11.93
   3   2   4  255.82   12.47
   3  -2   4  244.69   11.74
  -3  -2  -4  241.28   12.01
  -2  -1   7  717.73   26.64
  -2  -1   7  671.22   24.57
   2   1  -7  653.53   24.77
   2  -1  -7  690.82   25.50
  -2   1   7  682.11   24.18
  -3   7   1  165.10    9.97
  -3  -7   1  165.70    9.88
   3   7  -1  168.46   10.09
  -3  -7   1  166.62   10.36
   3  -7  -1  183.66   11.60
   3  -7  -1  180.69   10.65
   0   2  -7  719.55   26.78
   0   2   7  698.10   27.06
   0  -2   7  630.55   23.33
   0  -2  -7  661.87   25.41
   0  -2  -7  701.41   27.69
   0  -2   7  741.07   25.97
  -1  -6  -5   -0.91    3.23
   1   6   5   -2.34    4.35
   1  -6   5   -1.22    4.46
  -1   6  -5    1.70    3.18
  -1   6  -5    0.60    4.06
   1  -6   5    0.59    4.45
   1  -6   5   -0.47    3.33
   1   6   5    0.50    4.40
   4   4  -1  161.82   10.63
   4  -4  -1  162.15   11.25
  -4  -4   1  167.95    9.83
  -4   4   1  178.18   10.61
  -4   4   1  169.67    9.83
   4  -4  -1  180.89   10.75
   4   4  -1  173.82   10.77
   4   4  -1  155.52    9.29
  -2  -7  -3  894.15   31.84
  -2   7  -3  991.23   32.75
   2   7   3  932.55   33.80
   2  -7   3  996.92   37.65
  -2  -7  -3 1074.53   36.56
  -2   7  -3 1001.77   35.03
   2   7   3  985.72   36.03
   4   2  -4 1087.33   35.24
  -4  -2   4 1046.90   36.47
  -4  -2   4  973.22   34.51
   4  -2  -4 1014.49   39.21
   4  -2  -4  956.50   36.05
  -4   2   4 1034.13   33.94
   4   4  -2   76.33    7.80
   4   4  -2   94.61    7.96
   4   4  -2   76.64    6.52
  -4  -4   2   78.35    7.07
  -4   4   2   88.21    7.45
   4  -4  -2   77.95    8.38
   4  -4  -2   84.56    7.69
  -2   4  -5  662.58   23.99
   2   4   5  628.35   24.77
  -2   4  -5  708.42   25.43
   2  -4   5  712.80   26.19
   2  -4   5  656.09   28.21
   2   4   5  680.99   25.54
   2  -4   5  733.23   25.13
  -2  -4  -5  697.07   24.99
   1  -4   6   72.33    7.10
  -1  -4  -6   64.61    6.20
  -1   4  -6   80.87    7.77
   1   4   6   79.39    7.47
  -1   4  -6   77.90    6.74
   1  -4   6   78.47    6.57
   2  -8  -3  994.74   39.45
   2   8  -3 1089.95   35.87
  -2  -8   3 1003.38   32.85
   2  -8  -3  955.90   33.07
  -2   8   3  990.27   33.67
   2  -8  -3 1080.46   36.19
   2   8  -3 1060.52   35.25
   1  -7  -5   65.89    6.75
   1  -7  -5   59.56    6.76
  -1  -7   5   64.80    6.39
   1  -7  -5   65.01    7.17
   1  -7  -5   65.73    7.46
  -1  -7   5   68.34    6.79
  -1  -7   5   68.13    6.36
   1   7  -5   64.84    6.70
   1   7  -5   50.90    5.69
   1  -7  -5   69.44    6.77
   0  -8  -4    5.61    4.39
   0  -8   4    8.16    4.44
   0  -8  -4    6.28    3.95
   0  -8  -4    7.54    4.31
   0  -8   4    5.81    4.71
   0  -8  -4    5.59    3.91
   0  -8  -4    7.82    4.83
   0  -8  -4    4.94    4.08
   1  -8  -4   17.03    4.31
   1  -8  -4    9.65    4.25
   1  -8  -4   12.74    4.76
  -1  -8   4   15.75    4.39
   1   8  -4   14.51    4.54
   1  -8  -4   15.22    3.94
   1   8  -4   13.67    3.94
  -1  -8   4   16.92    4.92
   1  -8  -4   14.23    5.04
   1  -8  -4   15.61    5.01
  -1  -3   7   85.14    7.33
   1   3  -7   82.10    7.07
  -1   3   7   84.68    7.85
  -1  -3   7   71.50    6.50
   1  -3  -7   74.07    7.85
  -1  -3   7   76.45    6.57
   1   3  -7   74.78    7.28
   3  -7  -2  244.75   12.62
   3   7  -2  271.85   13.85
   3  -7  -2  256.60   14.81
   3   7  -2  247.99   12.03
  -3  -7   2  253.98   12.61
  -3   7   2  237.01   12.18
  -3  -7   2  233.55   12.29
  -3  -7   2  241.53   12.55
  -3   7   2  251.73   12.60
  -3   7   0  518.41   20.25
  -3  -7   0  482.22   18.81
   3   7   0  547.01   21.14
  -3  -7   0  525.77   20.12
   3  -7   0  532.26   22.34
  -3   7   0  497.85   19.34
   3  -7   0  490.87   20.26
   0  -7   5  299.03   14.75
   0  -7  -5  257.61   12.70
   0  -7   5  309.25   15.29
   0   7  -5  292.95   13.29
   0   7   5  306.88   14.72
   0  -7  -5  282.59   15.21
   0  -7  -5  269.03   13.49
   0  -7   5  301.84   13.69
   0  -7  -5  251.05   13.36
   0   7  -5  265.47   13.37
  -2   6  -4  847.04   29.33
  -2   6  -4  809.16   30.48
   2  -6   4  958.47   31.04
  -2  -6  -4  911.01   31.91
   2   6   4  816.27   28.89
   2  -6   4  762.67   36.86
   2  -6   4  923.94   32.22
   2   6   4  848.90   33.46
   4   3   1   46.92    6.17
  -4  -3  -1   40.30    5.95
   4  -3   1   43.63    7.98
   4   3   1   42.16    7.31
   4  -3   1   46.99    7.41
  -4   3  -1   49.61    5.95
   4   3   1   47.99    6.16
  -4   3  -1   49.19    6.41
  -2  -2   7   52.80    5.79
  -2  -2   7   52.88    6.60
   2   2  -7   51.57    6.95
   2  -2  -7   43.95    6.22
  -2   2   7   49.16    5.51
  -3  -6   4  194.72   11.17
  -3  -6   4  199.84   11.29
   3   6  -4  201.11   11.55
   3  -6  -4  189.97   10.75
   3  -6  -4  191.35   12.59
   3   6  -4  199.02   10.50
  -3   6   4  197.15   10.81
  -3   6   4  197.02   11.28
   3  -6  -4  188.44   10.11
  -3  -6   4  190.02   10.93
   3   6   2  128.61    9.11
   3   6   2  141.61    9.14
  -3   6  -2  134.17    9.08
   3  -6   2  136.45    9.18
  -3   6  -2  124.57    8.43
  -3  -6  -2  143.90    9.22
   4  -4   0  194.53   11.33
  -4  -4   0  193.28   10.69
   4  -4   0  188.25   12.03
   4   4   0  196.85   11.16
   4   4   0  200.16   10.85
  -4   4   0  209.10   11.56
  -4   4   0  195.07   10.56
  -2   5   6    1.15    3.47
  -2  -5   6    3.53    3.86
   2  -5  -6    0.56    4.97
  -2  -5   6    1.34    4.18
   2   5  -6    0.91    3.98
   2   5  -6    1.92    4.38
  -2  -5   6    2.07    3.70
  -2   5   6    0.52    4.22
  -4   0  -2   20.26    5.33
   4   0   2   21.59    5.36
   4   0   2   19.46    5.04
  -4   0  -2   20.72    4.60
   1   9   2    0.52    3.73
   1  -9   2   -0.12    4.64
  -1  -9  -2    1.28    4.23
  -1  -9  -2    3.66    3.74
   2  -8   2   -0.79    4.39
  -3  -5   5  953.70   32.51
   3   5  -5  945.00   32.63
   3   5  -5  979.52   32.10
  -3  -5   5  930.41   31.16
   3  -5  -5  890.49   29.34
  -3  -5   5  862.88   29.45
   3  -5  -5  938.32   31.29
  -3   5   5  924.81   30.60
   3  -5  -5  884.20   35.03
  -3   3   6    5.67    4.87
  -3   3   6    9.77    4.35
   3   3  -6   12.77    5.59
   3  -3  -6   12.48    5.30
  -3  -3   6    8.47    4.55
   3   3  -6   13.52    4.64
   3  -3  -6    8.42    4.21
  -3  -3   6   12.50    5.61
   3   5   3   31.01    4.99
  -3   5  -3   17.80    5.26
  -3   5  -3   18.48    6.49
   3  -5   3   20.80    5.45
   3  -5   3   22.56    5.61
  -3  -5  -3   20.26    5.04
   3   5   3   30.04    5.81
   3  -3   4  414.85   16.48
  -3   3  -4  376.03   16.08
  -3   3  -4  382.94   16.02
   3  -3   4  354.78   16.84
   3   3   4  351.02   15.69
   3   3   4  351.47   15.34
  -3  -3  -4  392.12   16.33
   3   3   4  371.89   16.58
   3  -3   4  384.88   16.82
   4  -1   2   11.71    5.37
   4  -1   2   11.06    4.81
  -4   1  -2    5.91    4.23
  -4   1  -2   11.35    5.26
   4   1   2    9.75    4.64
   4   4  -3   88.15    7.92
   4   4  -3   83.65    6.85
   4  -4  -3   85.43    7.90
  -4   4   3   85.26    7.71
  -4  -4   3   82.52    7.77
  -4   4   3   87.66    7.54
   0   3   7   27.91    5.52
   0  -3   7   30.70    4.90
   0  -3   7   33.16    4.75
   0   3  -7   36.80    6.16
   0  -3  -7   38.16    6.64
   0   3  -7   30.24    5.19
   0  -3  -7   26.60    4.76
   4   3  -4   78.79    8.17
  -4   3   4   74.46    7.19
  -4  -3   4   76.82    7.17
   4   3  -4   78.20    7.01
  -4  -3   4   89.77    9.35
   4  -3  -4   73.05    7.71
   0  -9  -3   18.09    4.82
   0  -9  -3   18.28    5.13
   0  -9  -3   17.42    5.08
   0   9  -3   19.95    5.22
   0  -9  -3   20.40    5.28
   0  -9   3   18.31    5.37
  -1  -6   6    0.92    3.47
   1   6  -6    1.70    3.94
   1  -6  -6    0.76    3.76
  -1  -6   6    0.60    4.06
  -1  -6   6    0.82    3.87
  -1   6   6    1.05    4.08
   1  -6  -6    2.95    4.94
   1   6  -6    2.51    3.85
   2   0   6   -0.21    4.61
   2   0   6   -0.06    3.76
  -2   0  -6    0.86    3.68
   2   0   6   -0.31    2.83
   1  -9  -3  127.44    9.89
   1   9  -3  141.59    9.06
   1  -9  -3  132.53    9.08
   1  -9  -3  181.95   11.84
   1  -9  -3  130.46   10.04
   1  -9  -3  130.91    8.43
  -1  -9   3  134.84    8.84
   1   9  -3  134.58    9.25
   3   7  -3  223.42   11.68
   3  -7  -3  225.73   12.36
  -3  -7   3  204.74   12.48
   3   7  -3  223.53   15.31
  -3   7   3  218.02   11.63
  -3   7   3  222.17   12.10
  -3  -7   3  216.98   11.96
   3  -7  -3  218.56   13.16
  -3   7  -1  963.30   32.77
   3  -7   1  944.43   38.79
  -3   7  -1 1000.77   34.51
   3  -7   1  918.03   33.11
   3   7   1  997.78   35.28
  -3  -7  -1  961.33   33.24
  -3  -7  -1  893.64   31.94
   2   1   6  143.78    8.90
   2   1   6  157.59   10.28
   2  -1   6  158.66   10.54
   2   1   6  138.51    9.69
   2  -1   6  159.41    9.35
  -2  -1  -6  135.71    9.07
  -2   1  -6  151.79    9.46
   2  -1   6  138.47    9.54
   4   2   2  718.40   29.59
   4   2   2  752.24   28.31
   4   2   2  690.67   26.70
  -4   2  -2  775.30   29.18
   4  -2   2  795.72   31.83
   4  -2   2  792.84   30.27
  -4   2  -2  815.40   30.05
  -4  -2  -2  781.90   28.21
  -4   0   5    2.00    4.25
   4   0  -5   -0.57    4.67
  -4   0   5    2.75    5.19
   2  -3  -7  247.79   13.67
  -2   3   7  243.91   14.24
  -2  -3   7  275.84   13.89
   2   3  -7  248.61   14.18
  -2   3   7  259.49   12.56
  -2  -3   7  274.33   13.24
   1  -4  -7   29.96    6.05
  -1   4   7   26.51    5.52
   1   4  -7   30.60    5.78
   1   4  -7   32.48    5.23
  -1  -4   7   32.95    5.39
  -1  -4   7   27.98    4.55
  -1  -4   7   28.29    4.51
   0  10   0   97.48    8.58
   0 -10   0   85.99    8.40
   0 -10   0   83.66    7.71
   2  -9  -1  498.83   22.49
   2   9  -1  515.56   20.61
   2   9  -1  451.51   19.34
  -2  -9   1  511.77   21.58
  -2   9   1  505.01   20.89
  -4  -1   5  113.37   10.81
   4  -1  -5  125.68    9.78
  -4   1   5  122.86    8.96
  -4  -1   5  113.62    8.28
  -4   1   5  112.15    9.65
   4   1  -5  112.30    9.26
   0  -6   6   31.19    4.82
   0  -6  -6   24.37    6.20
   0   6   6   28.86    6.56
   0  -6   6   24.49    4.91
   0   6  -6   22.98    5.36
   0   6  -6   28.24    4.82
   0  -6  -6   25.87    4.62
   0  -6   6   28.49    5.40
   4   5  -1  103.39    7.51
  -4  -5   1   98.69    8.06
  -4   5   1  107.78    8.51
  -4   5   1  114.98    8.52
   4  -5  -1  100.83    8.42
   4   5  -1   96.23    8.46
   4   5  -1   99.70    8.21
   2   9   0  102.63    8.09
   2  -9   0   94.59    8.87
  -2  -9   0  107.76    8.28
   1   0   7 1217.09   49.21
   1   0   7 1276.65   50.05
  -4   4  -1   33.71    5.61
   4  -4   1   30.98    6.30
   4  -4   1   27.71    5.83
  -4   4  -1   30.22    5.35
  -4  -4  -1   29.99    5.15
   4  -5  -2  408.96   17.79
   4   5  -2  410.27   16.90
  -4   5   2  423.58   17.67
  -4  -5   2  398.49   17.39
   4   5  -2  392.60   17.70
   2   5   5   30.67    5.71
  -2   5  -5   28.19    4.86
   2  -5   5   30.75    4.82
   2   5   5   27.83    4.82
  -2   5  -5   24.96    5.22
   2   5   5   26.77    5.00
   2  -5   5   30.19    5.57
   1  -5   6  715.72   28.59
   1  -5   6  701.13   30.39
   1   5   6  652.42   30.50
   1   5   6  733.56   28.58
  -1   5  -6  759.85   28.41
  -1   5  -6  740.90   26.64
   1  -5   6  773.76   27.66
  -2  -7   5  158.41   10.41
   2  -7  -5  151.86   11.28
   2  -7  -5  147.99    9.81
   2  -7  -5  169.52   11.00
  -2   7   5  157.17    9.56
   2  -7  -5  158.37    9.24
   2   7  -5  165.85   10.04
   2   7  -5  166.51   11.35
  -2  -7   5  157.62   10.42
  -1  -1  -7   33.36    6.20
   1   1   7   38.79    7.32
   1  -1   7   41.19    6.72
   1   1   7   31.84    7.44
   0  10  -1   11.98    4.82
   0 -10   1    9.65    4.88
   0 -10   1   11.43    4.65
   0 -10  -1   11.15    4.67
   0 -10  -1   13.21    5.15
   2   2   6   -0.45    4.18
  -2   2  -6   -1.84    3.77
   2  -2   6   -0.36    2.97
   2  -2   6   -0.65    4.61
   2   2   6    2.08    3.95
  -2  -2  -6   -0.43    3.71
   2  -2   6    0.25    4.29
   2   2   6    0.37    3.25
   1  -8   4  636.63   27.55
  -1   8  -4  574.36   21.96
  -1   8  -4  646.46   23.75
  -1  -8  -4  630.43   25.66
   1  -8   4  643.00   25.95
   1   8   4  611.86   24.55
  -1  -8  -4  577.64   23.33
   2  -8  -4  684.53   28.10
  -2   8   4  702.25   25.56
   2  -8  -4  647.57   24.67
  -2  -8   4  740.52   26.86
  -2  -8   4  706.91   25.77
   2   8  -4  715.82   26.06
   2   8  -4  710.35   26.16
   2  -8  -4  767.67   28.13
   3  -4  -6  224.84   12.37
  -3  -4   6  224.08   12.37
  -3   4   6  226.73   11.79
  -3  -4   6  215.93   11.67
   3   4  -6  232.56   12.04
   3   4  -6  235.16   12.86
   3  -4   4  217.37   11.07
  -3  -4  -4  205.66   11.05
  -3   4  -4  197.98   11.29
   3  -4   4  209.42   12.02
  -3   4  -4  207.54   11.11
   3   4   4  186.39   10.68
   3   4   4  186.45   10.53
   3  -4   4  191.03   11.81
   2  -9  -2  810.39   31.53
   2   9  -2  848.39   31.01
  -2  -9   2  758.80   31.02
  -2  -9   2  774.67   28.07
  -2   9   2  826.35   29.84
   2   9  -2  794.11   29.24
  -4   2   5 1591.79   66.17
  -4  -2   5 1578.67   65.81
  -4   2   5 1491.13   50.26
   4  -2  -5 1555.54   65.22
   0  -4   7   40.29    5.18
   0   4   7   40.89    5.98
   0  -4  -7   41.30    6.90
   0   4  -7   39.41    5.55
   0  -4  -7   35.44    5.00
   0   4  -7   41.27    6.29
   0  -4   7   36.96    5.10
   0  -4   7   40.61    6.03
  -4  -5   0   46.90    5.97
   4  -5   0   46.41    6.25
  -4   5   0   43.07    6.00
  -4   5   0   49.71    5.83
   4   5   0   43.22    6.57
   4  -5   0   40.65    6.58
  -4  -4   4  231.17   12.83
  -4   4   4  255.68   12.93
   4   4  -4  264.96   12.82
   4  -4  -4  255.14   13.02
   4   4  -4  249.24   13.34
  -4  -4   4  390.12   20.79
   4   3   2  740.70   27.83
  -4  -3  -2  783.34   28.13
   4   3   2  765.85   28.93
   4  -3   2  705.16   27.58
  -4   3  -2  741.39   27.71
   4   3   2  645.38   24.58
   4  -3   2  743.83   30.11
   1  -7   5    0.34    4.22
  -1   7  -5   -1.07    3.22
   1   7   5   -0.12    4.40
   1   7   5    0.62    3.79
  -1   7  -5   -1.55    3.98
   1  -7   5    1.19    4.83
  -1  -2  -7    0.66    4.00
   1   2   7   -1.48    4.71
   1  -2   7   -2.63    4.26
   1   2   7   -0.13    4.11
  -1   2  -7   -2.44    5.13
   1  -2   7    0.50    3.00
   1  10   0  304.08   15.41
   1 -10   0  309.17   15.79
   1  10   0  306.86   14.34
  -1 -10   0  325.68   16.20
   1 -10   0  322.86   17.41
   4   5  -3  184.88   10.27
  -4   5   3  171.02   10.34
  -4  -5   3  185.86   11.34
   4  -5  -3  194.56   11.42
   4   5  -3  196.69   11.69
  -1 -10   1  282.80   14.75
  -1 -10   1  264.17   13.16
   1 -10  -1  260.80   16.02
   1 -10  -1  265.74   15.21
   1  10  -1  256.59   13.79
   1  10  -1  252.61   12.53
  -2  -6   6  258.90   13.19
  -2  -6   6  262.27   13.16
  -2   6   6  254.51   12.76
  -2   6   6  248.16   13.24
   2  -6  -6  264.99   13.68
   2   6  -6  270.98   13.76
  -2  -6   6  268.88   13.17
  -1  -9  -3  359.70   16.19
   1   9   3  375.35   16.97
   1  -9   3  386.09   18.38
   1  -9   3  384.02   20.33
  -1  -9  -3  381.86   17.89
   2   4  -7   10.03    4.73
  -2   4   7   13.95    7.80
   2  -4  -7   11.09    5.70
  -2  -4   7   12.98    4.12
  -2  -4   7    8.54    4.71
  -2   4   7   12.50    4.18
   3   8  -1   91.89    7.83
  -3   8   1   84.48    7.36
   3  -8  -1   76.40    8.28
  -3  -8   1   88.59    7.60
  -3  -8   1   87.63    7.23
  -3   0   7  328.90   15.67
   3   0  -7  321.50   15.52
  -3   0   7  323.82   14.53
   3   0   5   13.16    4.56
   3   0   5   16.31    5.27
  -3   0  -5    8.54    4.40
  -3   0  -5   14.41    4.58
   3   0   5   12.48    3.96
  -2   7  -4 1130.44   40.52
   2  -7   4 1125.54   46.48
   2   7   4  945.59   35.69
  -2  -7  -4 1102.77   38.15
  -2   7  -4 1204.50   41.72
   2   7   4 1118.67   45.96
  -2  -8  -3   34.94    5.52
   2   8   3   27.75    5.35
   2   8   3   40.05    6.23
   2  -8   3   29.09    6.37
  -2   8  -3   31.75    6.21
  -3  -6   5  786.59   28.21
   3  -6  -5  716.70   25.66
  -3   6   5  785.74   27.78
  -3  -6   5  801.85   29.39
  -3  -6   5  694.93   25.79
   3   6  -5  797.06   28.98
   3  -6  -5  787.96   28.35
   3  -6  -5  725.32   29.58
   3   6  -5  815.47   28.30
  -3   6  -3  170.40   11.27
  -3   6  -3  162.10   10.02
   3   6   3  184.17   11.16
   3  -6   3  176.82   10.63
   3   6   3  200.29   11.16
  -3  -6  -3  187.19   10.57
   2  -3   6 1047.87   52.04
  -2   3  -6 1128.05   48.93
   2   3   6 1144.59   51.12
   2   3   6 1041.69   45.60
   2   3   6 1183.58   34.00
   2  -3   6 1188.49   33.24
   2  -3   6 1106.52   48.32
   0 -10   2   91.77    8.64
   0 -10  -2   79.74    7.85
   0  10  -2   89.02    7.97
   0 -10  -2   83.46    7.51
   0 -10   2   81.97    7.60
  -3   7   4  638.57   29.33
   3  -7  -4  613.34   28.64
  -3   7   4  615.77   29.49
   3  -7  -4  619.47   31.20
  -3  -7   4  630.01   29.37
  -3  -7   4  620.17   28.76
   3   7  -4  631.09   28.71
   3   7  -4  636.70   30.04
  -3  -7   4  637.91   29.65
   3  -7   2   50.96    7.67
   3   7   2   63.26    7.28
  -3   7  -2   55.79    6.18
  -3  -7  -2   59.37    6.65
  -3   7  -2   50.86    6.62
   3  -1  -7  381.79   20.22
  -3   1   7  412.14   20.37
  -3   1   7  364.51   19.82
  -3  -1   7  403.96   20.17
  -3  -1   7  365.00   19.51
  -1  -8   5  322.03   17.41
   1  -8  -5  321.81   17.97
   1  -8  -5  293.02   17.76
   1  -8  -5  308.16   17.17
   1  -8  -5  320.95   17.48
  -1  -8   5  319.68   17.57
   1   8  -5  301.85   16.36
   1  -8  -5  284.07   16.56
   1   8  -5  294.51   16.52
   3   1   5   35.58    6.69
  -3   1  -5   34.57    5.78
  -3   1  -5   27.14    5.12
  -3  -1  -5   30.55    5.23
   3  -1   5   32.37    5.01
   3   1   5   26.13    4.42
   3  -1   5   31.54    5.83
   3   1   5   32.25    5.35
   3  -1   5   33.88    6.53
   1 -10   1  259.94   17.64
   1  10   1  278.60   15.74
   1 -10   1  280.46   16.66
  -1 -10  -1  287.90   16.90
   3  -8  -2  225.09   15.37
  -3   8   2  213.64   12.99
  -3  -8   2  217.07   13.15
   3   8  -2  240.09   14.27
   3   8  -2  222.67   13.14
  -3   8   2  210.96   13.02
  -3  -8   2  215.15   12.99
  -3  -8   0  429.51   21.42
   3   8   0  454.07   22.65
  -3   8   0  431.43   22.39
  -3  -8   0  422.45   21.12
  -3   8   0  428.42   21.28
   3  -8   0  359.75   22.63
   4  -3  -5  586.15   28.00
   4   3  -5  569.60   28.51
  -4   3   5  581.36   27.27
  -4  -3   5  550.06   27.43
  -4  -3   5  684.25   33.61
   0  -8  -5    2.74    4.57
   0  -8  -5   -0.74    4.90
   0   8  -5   -1.06    3.17
   0  -8   5    2.64    4.02
   0   8  -5    0.66    3.68
   0  -8   5   -0.86    4.62
   0  -8  -5   -1.40    3.51
   0  -8  -5   -1.04    3.96
   4   0   3    1.88    4.91
   4   0   3    2.82    5.56
  -1  -5   7   40.01    5.62
  -1  -5   7   39.43    5.27
   1   5  -7   36.79    6.85
   1  -5  -7   35.25    6.79
  -1   5   7   51.97    8.08
   1   5  -7   38.61    6.21
  -1  -5   7   50.65    6.30
  -1   0   8    2.79    5.63
  -2   9   3  435.88   21.74
   2   9  -3  441.88   22.08
   2  -9  -3  423.89   23.52
   2   9  -3  427.80   21.63
  -2  -9   3  414.74   20.44
   0  -9   4  124.63    9.62
   0  -9  -4  135.46   10.57
   0  -9   4  126.15   10.38
   0  -9  -4  115.40    9.38
   0  -9  -4  126.95    9.99
  -1  -3  -7  175.09   11.38
   1   3   7  189.87   12.83
   1  -3   7  170.95   12.11
   1   3   7  188.33   12.40
  -1   3  -7  199.57   13.09
   1  -3   7  168.11   11.21
   1  -3   7  206.93   12.13
   1  10  -2  234.45   14.16
  -1 -10   2  227.30   13.59
   1 -10  -2  201.84   14.02
   1  10  -2  204.24   13.01
  -1 -10   2  236.32   14.41
   1 -10  -2  239.90   14.52
   1 -10  -2  219.89   15.11
   1  -9  -4   51.20    6.91
   1  -9  -4   45.02    5.65
   1  -9  -4   54.10    6.45
   1  -9  -4   39.92    6.52
  -1  -9   4   47.20    6.09
  -1  -9   4   51.63    6.94
   1   9  -4   46.89    5.91
   1   9  -4   45.23    5.75
   1  -9  -4   48.30    7.10
  -4   1  -3  132.21   10.23
  -4   1  -3  126.11    9.61
   4   1   3  126.63    9.66
   4  -1   3  118.61    9.93
   4   1   3  117.76    9.73
   4  -1   3  126.87   10.24
  -4  -1  -3  129.63    9.58
  -4   5  -1  477.70   22.96
  -4   5  -1  415.58   21.10
  -4  -5  -1  427.95   21.15
   4  -5   1  427.13   21.58
   4  -5   1  381.98   22.01
   4   5   1  457.27   23.24
   3  -2  -7  132.87   10.48
   3   2  -7  126.87   10.30
  -3   2   7  136.27    9.66
  -3   2   7  147.17   12.37
  -3  -2   7  133.50   10.36
  -3  -2   7  131.37    9.55
  -1  -1   8  871.12   38.27
  -1  -1   8 1141.92   48.59
  -1   1   8 1119.45   52.14
   1   1  -8 1054.23   46.21
   3  -2   5   67.05    7.83
   3   2   5   65.66    6.77
   3  -2   5   68.50    8.04
  -3  -2  -5   68.50    6.70
  -3   2  -5   71.64    7.41
   3   2   5   72.27    6.85
   3  -2   5   73.39    6.75
   3   2   5   68.08    8.18
  -1  -7   6   56.76    6.56
   1   7  -6   51.91    6.04
   1   7  -6   55.08    6.64
  -1  -7   6   58.46    6.66
   1  -7  -6   54.68    7.48
  -1   7   6   59.56    7.12
   4  -4   2 1131.07   50.05
  -4  -4  -2 1138.48   49.93
  -4   4  -2 1148.84   50.40
  -4   4  -2 1171.04   29.38
   4   4   2 1326.89   36.20
   4   4   2 1044.53   45.20
   4  -4   2 1147.81   52.01
   4   6  -1  203.87   13.10
  -4  -6   1  203.99   13.22
   4  -6  -1  196.14   13.04
  -4   6   1  198.33   12.57
  -3   5   6  469.74   22.61
  -3  -5   6  451.03   22.25
  -3  -5   6  450.81   22.25
   3   5  -6  433.24   22.46
   3  -5  -6  461.23   22.83
  -3   5  -4   11.02    5.55
  -3  -5  -4   12.11    4.39
   3   5   4    9.47    4.02
   3   5   4   20.44    6.26
   3  -5   4   12.50    5.04
   3  -5   4   11.42    6.06
   3   5   4   21.34    5.28
  -3   5  -4    9.02    4.39
   4   6  -2 1078.37   46.80
  -4  -6   2 1038.77   45.07
   4  -6  -2 1025.18   47.36
  -4   6   2 1018.86   45.50
  -4   6   2 1119.57   47.78
   4  -6  -2 1045.15   45.72
   4   6  -2 1055.93   44.97
  -2   6  -5    0.80    3.28
  -2   6  -5   -0.44    4.33
   2  -6   5   -1.68    4.32
   2   6   5    0.35    3.54
   2   6   5    2.01    4.31
   2   6   5   -1.18    5.85
   1   6   6  571.93   31.33
   1  -6   6  630.40   33.14
   1  -6   6  677.06   32.87
  -1   6  -6  666.99   31.17
   1   6   6  785.85   37.88
   1  -6   6  710.00   32.28
  -1   6  -6  651.25   29.78
   0  -5  -7  541.25   27.92
   0   5   7  518.48   26.44
   0  -5  -7  509.40   25.34
   0  -5   7  578.89   26.98
   0   5  -7  570.47   27.30
   0  -5   7  490.67   27.19
   0   5  -7  547.74   26.13
   0  -5   7  494.75   24.20
  -2  -9  -2   19.43    4.86
   2  -9   2   19.00    5.63
  -2   9  -2   17.60    5.64
   2   9   2   13.87    4.84
   4   2   3   86.29    7.95
  -4   2  -3   95.65    8.76
   4  -2   3   88.16    8.74
   4  -2   3   83.17    8.81
  -4  -2  -3   93.48    8.16
   4   2   3   96.01    9.03
   4  -5  -4   95.94   10.07
   4   5  -4  105.47    8.21
  -4  -5   4  118.11   10.79
  -4   5   4   97.65    8.62
  -4  -5   4   97.53    8.57
   4  -5  -4   99.31    8.80
   4   5  -4  101.16    9.55
   0  -7   6  425.48   21.67
   0   7  -6  398.58   19.98
   0   7  -6  332.01   18.66
   0  -7   6  399.24   21.48
   0  -7  -6  420.40   22.54
   0   7   6  399.94   20.89
   3  -8  -3  102.76    9.72
  -3   8   3  105.25    8.81
  -3   8   3  114.97    9.33
   3  -8  -3  117.17    9.41
  -3  -8   3  113.12    8.87
   3   8  -3  116.78    8.88
   3   8  -3  116.57   10.31
   3   8   1  789.80   36.21
  -3  -8  -1  841.83   38.21
  -3   8  -1  762.87   36.22
  -3   8  -1  839.92   37.23
   3  -8   1  810.82   38.78
   1  -2  -8  190.25   13.20
  -1  -2   8  217.79   12.73
  -1   2   8  190.79   12.72
  -1  -2   8  202.30   14.07
   1   2  -8  204.62   13.54
  -1  -2   8  216.32   12.78
  -4   0   6  223.43   13.22
   4   0  -6  198.19   12.98
  -4   0   6  250.45   16.28
   2  -4   6  132.84   10.73
  -2   4  -6  155.87   10.80
   2   4   6  155.31   10.95
   2   4   6  134.16   10.13
  -2   4  -6  150.22   10.23
   2  -4   6  158.66   11.33
   2  -4   6  171.92   10.83
   0   0  -8   79.28    8.89
   0   0   8   77.81    7.94
  -1 -10  -2  175.64   11.71
   1  10   2  133.55   10.18
   1 -10   2  148.05   12.32
   1 -10   2  162.03   11.91
  -4   6   0    5.49    5.20
  -2   0   8  127.64   10.04
  -2   0   8  129.89    9.12
  -4  -1   6  396.55   19.94
   4  -1  -6  386.56   20.13
  -4  -1   6  614.19   32.31
  -4   1   6  399.33   20.10
  -4   1   6  401.56   21.51
   0   1   8  255.76   15.74
   0  -1   8  232.96   15.12
   0   1  -8  279.55   16.33
   2  -5  -7   63.16    7.83
  -2   5   7   79.55    8.88
  -2   5   7   72.54    6.91
  -2  -5   7   77.32    7.23
   2   5  -7   61.63    7.08
  -2  -5   7   74.06    7.39
   3   3  -7  408.48   21.56
  -3  -3   7  461.70   22.75
   3  -3  -7  434.59   22.96
  -3   3   7  459.55   22.60
  -3   3   7  529.52   27.06
  -3  -3   7  438.42   22.53
   3  -3   5  697.06   33.56
   3   3   5  682.35   33.75
   3  -3   5  675.34   33.89
   3   3   5  655.77   31.02
   3  -3   5  792.19   35.12
   3   3   5  683.07   31.91
  -3   3  -5  683.27   31.30
   2   1  -8  253.38   15.10
  -2   1   8  242.63   13.66
  -2  -1   8  258.36   15.64
   2  -1  -8  207.82   14.22
  -2  -1   8  231.45   13.30
   0 -10   3  659.53   33.72
   0 -10  -3  691.99   33.97
  -4  -6   3  882.54   39.86
  -4   6   3  918.53   40.05
   4  -6  -3  993.72   43.28
   4   6  -3  918.42   40.58
   4   6  -3  911.71   39.65
   4  -6  -3  866.01   41.49
  -2  -8   5  228.94   14.00
  -2  -8   5  246.56   14.09
   2   8  -5  239.59   14.21
  -2   8   5  232.21   13.52
   2  -8  -5  233.98   15.32
   2  -8  -5  247.99   14.61
   1  -4   7   22.50    5.21
  -1   4  -7   31.22    6.31
   1  -4   7   29.80    4.65
   1   4   7   29.07    5.45
   1 -10  -3   95.94    8.53
  -1 -10   3   92.00    7.17
   1  10  -3   87.39    8.39
   1 -10  -3   82.82    8.00
   1  10  -3   88.98    7.51
  -5   0   2    6.13    4.79
   5   0  -2    5.37    5.78
   5   0  -2    8.64    5.85
   4   3   3  376.07   14.22
  -4   3  -3  421.26   15.78
   4   3   3  390.50   17.32
  -4  -3  -3  432.64   15.65
   4  -3   3  434.28   17.15
   4  -3   3  416.49   16.39
  -4   2   6  438.05   16.84
   4  -2  -6  461.29   16.61
  -4  -2   6  491.33   18.44
  -4   2   6  475.90   16.15
  -4  -2   6  466.79   16.29
   0  -2   8  328.55   12.89
   0  -2  -8  321.43   16.20
   0  -2   8  332.85   16.82
   0   2   8  350.09   15.62
   0   2  -8  360.00   14.85
   5   0  -1  708.73   21.43
   5   0  -1  703.41   22.90
   5   0  -1  705.23   22.99
  -5   0   1  715.98   21.29
   1   3  -8   11.54    5.53
  -1   3   8   10.57    5.10
   1  -3  -8    6.94    5.45
  -1  -3   8    9.67    4.11
  -1  -3   8   10.86    5.23
  -1  -3   8   10.75    4.09
   2   7  -6   42.60    5.98
  -2  -7   6   44.59    6.01
   2  -7  -6   45.08    6.54
   2  -7  -6   41.58    6.90
  -2   7   6   42.78    5.62
  -2  -7   6   45.80    6.05
  -2  -2   8  188.70   10.73
  -2   2   8  204.56   10.01
  -2  -2   8  191.95    9.75
   2  -2  -8  178.33   11.04
   2   2  -8  194.55   11.25
   5   1  -2  422.80   15.46
   5  -1  -2  408.21   17.12
  -5   1   2  411.11   15.13
   5  -1  -2  384.72   15.68
   5   1  -2  373.16   15.55
   5   1  -2  416.78   16.71
  -5  -1   2  379.20   14.82
   2 -10  -1   89.76    8.21
  -2  10   1   73.70    7.05
  -2 -10   1   94.73    7.96
   2  10  -1   83.21    7.54
   2  10  -1   83.54    7.14
   1   9   4    0.37    4.71
  -1  -9  -4    1.06    4.14
   1  -9   4   -0.67    6.11
  -5   1   1   42.42    6.11
   5   1  -1   52.63    7.39
   5   1  -1   48.65    7.03
   5  -1  -1   58.45    7.77
   5   1  -1   50.29    6.18
   5  -1  -1   52.66    7.44
  -5  -1   1   51.24    6.74
   1   8   5  171.94   10.78
   1  -8   5  208.74   11.41
  -1   8  -5  148.36    8.78
  -1   8  -5  179.14    9.77
   1  -8   5  185.05   10.65
  -2  -9   4   67.61    6.98
   2   9  -4   63.18    6.38
   2   9  -4   64.98    6.73
   2  -9  -4   66.39    7.99
  -2   9   4   60.51    6.54
  -2  -9   4   62.65    6.07
  -2 -10   0  273.26   12.28
   2  10   0  238.39   11.83
   2 -10   0  289.98   13.88
  -3   7   5   26.29    5.64
   3  -7  -5   26.43    6.59
   3   7  -5   22.00    5.78
  -3  -7   5   24.06    5.93
   3  -7  -5   22.59    5.67
  -3  -7   5   29.52    5.82
   3   7  -5   22.08    7.22
  -3  -7  -3  644.34   20.01
   3   7   3  614.80   20.16
  -3   7  -3  557.04   19.10
  -3   7  -3  617.99   19.49
  -1  -6   7   18.67    5.00
  -1   6   7   16.07    5.69
  -1  -6   7   19.49    5.23
   1   6  -7   18.15    5.00
  -1  -6   7   21.43    4.66
   1  -6  -7   17.90    6.36
   4   5   2  198.49   11.34
   4  -5   2  207.18   10.97
  -4   5  -2  213.80   10.44
  -4   5  -2  222.41   11.23
   4  -5   2  211.71   12.23
  -4  -5  -2  221.05   10.77
   5   0  -3   18.85    6.25
   5   0  -3   17.73    5.87
   4  -6   1    2.94    5.36
   4   6   1    2.99    4.92
  -4  -6  -1   -0.41    4.21
   4  -6   1    0.71    4.34
  -4   6  -1   -1.17    4.54
  -4   6  -1   -0.17    3.84
   0 -11   0   -1.19    5.10
   0  11   0    0.68    4.27
   0 -11   0    1.10    4.15
  -2  -8  -4  398.07   15.37
  -2   8  -4  387.01   14.85
   2   8   4  367.16   15.59
   2  -8   4  303.69   16.14
   2   8   4  340.74   14.33
  -2   8  -4  341.71   14.52
   5  -1  -3  136.56   10.35
   5   1  -3  127.94    9.94
   5   1  -3  116.04    8.79
   5  -1  -3  137.59    9.54
   5   2  -2  324.98   14.36
   5  -2  -2  293.66   13.37
   5   2  -2  325.94   14.67
   5   2  -2  329.18   13.50
   5  -2  -2  326.57   14.79
  -5  -2   2  337.87   13.41
   2  10  -2  235.61   11.27
  -2 -10   2  227.93   11.29
   2 -10  -2  201.99   11.57
  -2  10   2  207.87   10.98
   2  10  -2  204.44   10.72
  -3   8   4  141.00    9.01
   3  -8  -4  132.12    8.68
   3  -8  -4  134.32   10.47
  -3   8   4  131.78    8.90
   3   8  -4  136.64    8.89
   3   8  -4  133.44    8.47
   5   2  -1  989.41   26.78
   5  -2  -1 1026.11   31.40
   5  -2  -1 1001.41   28.43
   5   2  -1 1013.38   28.36
   5   2  -1 1048.21   30.21
  -5   2   1 1025.45   28.76
  -5  -2   1 1026.30   28.06
  -3  -8  -2    5.54    4.67
   3  -8   2    4.47    5.40
  -3   8  -2    3.14    4.64
   3   8   2    5.14    5.01
   3  -4  -7   36.12    6.35
  -3  -4   7   35.26    6.48
  -3   4   7   27.09    4.88
  -3  -4   7   45.03    7.71
   3   4  -7   38.21    6.62
  -5   0   0    4.11    4.90
   5   0   0    0.11    5.52
   5   0   0    3.99    5.26
   5   0   0    3.74    5.39
   3   4   5  689.04   21.41
   3  -4   5  694.22   22.53
  -3   4  -5  679.94   20.85
   3   4   5  631.33   20.50
   3  -4   5  677.51   25.16
   0 -11   1  120.09    9.34
   0 -11  -1  153.04   10.26
   0 -11   1  140.74    9.06
   0  11  -1  150.28    9.72
  -3  -6   6  242.61   11.45
  -3  -6   6  252.84   11.90
  -3   6   6  252.37   11.36
   3  -6  -6  208.75   12.44
   3  -6  -6  255.97   11.98
   3   6  -6  252.52   12.16
  -3   6  -4  231.43   11.66
  -3  -6  -4  235.56   10.93
   3   6   4  215.53   10.82
   3   6   4  239.18   12.00
  -3   6  -4  221.98   10.78
  -4  -3   6   53.42    8.33
   4   3  -6   51.08    8.05
  -4  -3   6   52.09    7.07
  -4   3   6   46.69    7.88
   4  -3  -6   51.04    6.91
  -4   3   6   53.09    6.50
  -2   5  -6  169.51    9.13
  -2   5  -6  168.83    9.58
   2   5   6  168.04    9.73
   2  -5   6  201.76    9.84
   2  -5   6  192.75   10.48
   2  -5   6  167.11   10.95
   0  -3  -8  201.59   11.85
   0   3  -8  202.76   11.21
   0   3   8  191.05   11.17
   0  -3   8  188.81    9.78
   3  -9  -1   44.85    7.29
   3   9  -1   44.53    6.01
  -3  -9   1   43.48    6.14
   0  -6  -7  402.57   17.76
   0  -6   7  427.03   15.07
   0  -6   7  413.83   15.54
   0   6  -7  427.39   15.10
   0   6  -7  425.31   16.16
   0  -6   7  424.52   16.84
   5  -1   0  187.07   10.99
   5   1   0  195.64   11.05
   5   1   0  179.08   10.48
   5   1   0  187.38   10.70
   5  -1   0  191.51   11.18
  -5  -1   0  188.55   10.22
  -5   1   0  186.20   10.31
  -2  -3   8   75.11    6.69
   2  -3  -8   77.87    8.33
  -2  -3   8   75.99    7.86
   2   3  -8   74.67    7.80
  -2   3   8   80.59    8.31
   2   0   7    1.31    4.30
   2   0   7   -1.65    4.98
   2  10   1   83.55    7.34
   2 -10   1   84.93    8.31
  -2 -10  -1   86.45    7.31
  -2  10  -1   75.44    7.16
  -2   9  -3  440.19   17.21
   2   9   3  453.89   17.93
  -2  -9  -3  464.84   16.86
   2  -9   3  427.39   18.35
   4   6  -4   85.01    7.64
   4  -6  -4   92.04    7.69
   4   6  -4   82.37    6.63
   4  -6  -4   73.42    8.32
  -4   6   4   91.11    7.65
  -4  -5   5  106.41    8.36
   4  -5  -5  113.20    8.53
  -4  -5   5  113.67    8.34
   4  -5  -5  104.67    9.81
  -4   5   5  112.29    8.04
   4   5  -5  109.48    8.96
  -4   7   1   49.06    6.08
   4   7  -1   53.17    6.98
   4  -7  -1   55.40    8.15
  -4  -7   1   52.01    6.40
   1  -9  -5  752.67   25.14
  -1  -9   5  904.67   26.22
   1   9  -5  842.09   23.87
   1  -9  -5  809.04   25.54
   1  -9  -5  916.16   26.03
  -1  -9   5  872.37   25.59
   1 -10   3  269.98   13.18
   1  10   3  261.23   12.27
  -1 -10  -3  265.64   12.28
   2   1   7   24.23    5.89
   2   1   7   19.95    4.93
   2  -1   7   18.49    4.92
   2  -1   7   20.01    5.33
   5  -2  -3  720.88   21.67
   5   2  -3  682.26   23.09
  -5   2   3  706.41   20.61
   5   2  -3  712.34   22.91
   5   2  -3  732.56   21.76
   5  -2  -3  727.06   24.21
  -4  -4  -3   -1.99    3.96
   4  -4   3   -0.21    4.98
   4  -4   3    2.14    5.41
  -4   4  -3   -0.48    4.58
   4  -7  -2   56.58    6.84
   4  -7  -2   53.77    7.82
  -4  -7   2   57.69    6.99
   4   7  -2   60.25    7.27
  -4   7   2   56.05    6.68
  -4   7   2   56.44    7.13
  -2   7  -5  169.86    9.89
  -2   7  -5  178.16   10.11
  -2   7  -5  166.27    9.24
   2   7   5  136.90    9.07
   2  -7   5  165.37   10.90
   2   7   5  174.82   10.72
   3   9  -2   18.92    5.19
  -3  -9   2   19.24    5.27
  -3   9   2   16.64    5.23
   3  -9  -2   14.63    6.00
  -3  -9   0  462.87   16.69
   3   9   0  475.51   16.86
  -3   9   0  402.85   17.16
   3  -9   0  426.42   20.43
   1  -7   6   22.62    5.94
  -1   7  -6   18.40    5.19
   1   7   6   23.79    5.80
  -1   7  -6   23.97    4.62
   1   7   6   20.31    5.05
   1  -7   6   21.34    5.81
  -1  -4   8  214.90   10.72
  -1  -4   8  241.88   11.86
   1   4  -8  229.33   11.82
   1  -4  -8  241.42   12.72
  -1  -4   8  224.10   10.68
  -1   4   8  240.26   12.31
   0  -9   5  151.31   10.10
   0  -9   5  144.28    9.32
   0   9  -5  133.90    8.39
   0  -9  -5  154.18   10.19
   1   5   7   99.76    8.75
   1   5   7  129.88    9.15
   1  -5   7  119.12    8.82
   1  -5   7  140.63    8.56
  -1   5  -7  124.80    9.27
  -1   5  -7  120.48    7.84
   1 -11   0   14.35    6.12
   1 -11   0    3.15    5.12
   1  11   0    3.35    4.47
  -1 -11   0    5.53    5.32
  -1  -8   6   66.81    6.52
   1  -8  -6   72.83    7.95
  -1  -8   6   76.97    7.32
   1  -8  -6   74.21    7.92
   1   8  -6   73.01    6.60
   1   8  -6   63.89    6.59
  -4   0  -4 1201.84   23.36
   4   0   4 1107.87   33.46
   4   0   4 1146.57   33.78
   2   6  -7   60.65    6.75
   2  -6  -7   57.71    7.57
  -2   6   7   60.40    6.23
  -2  -6   7   63.84    6.48
  -2   6   7   64.47    7.41
  -2  -6   7   55.94    6.28
  -1 -11   1  434.37   17.44
   1  11  -1  419.70   16.84
   1 -11  -1  434.64   17.45
   1 -11  -1  383.12   20.03
   5   2   0  700.78   22.49
   5  -2   0  751.27   23.86
  -5  -2   0  681.08   22.36
  -5   2   0  735.77   23.08
   5   2   0  773.65   24.32
   5  -2   0  769.57   24.95
   5   2   0  686.82   23.77
   5   3  -2    2.43    4.19
   5  -3  -2    2.54    5.20
   5  -3  -2    1.48    6.11
  -5  -3   2    4.41    4.98
   5   3  -2    1.13    4.98
  -4   1  -4    4.55    4.67
   4  -1   4    7.29    5.32
  -4  -1  -4    9.70    5.26
   4   1   4   11.64    7.23
   4  -1   4    8.65    5.40
   4   1   4   11.51    5.60
   5   0  -4    0.85    5.78
   5   0  -4    2.82    5.21
  -5   0   4   -1.32    4.56
  -5  -3   1   34.73    5.95
   5  -3  -1   30.64    5.88
   5  -3  -1   40.31    7.28
  -5   3   1   31.03    5.62
   5   3  -1   29.62    5.45
   5   3  -1   31.53    6.23
   4   7   0  300.46   13.64
  -4  -7   0  310.47   13.14
  -4   7   0  319.12   13.76
  -4   7   0  301.51   12.77
   2   2   7   49.79    7.04
   2   2   7   50.53    6.17
   2  -2   7   40.64    6.07
   2  -2   7   52.73    6.71
   0 -11   2  710.55   23.66
   0 -11  -2  689.83   26.55
   0 -11   2  722.31   27.77
   0  -8  -6    4.95    5.72
   0  -8   6    2.23    4.60
   0  -8   6   -0.27    4.88
   0   8  -6   -0.16    4.21
   5   1  -4   95.28    8.08
   5  -1  -4   95.48    8.98
   5   1  -4   93.78    9.02
  -5  -1   4  101.18    7.96
  -5   1   4  104.87    8.09
   5  -1  -4  104.09    8.40
   2  10  -3    1.18    3.74
   2 -10  -3    2.89    5.64
   2  10  -3    1.20    4.06
  -2 -10   3   -0.12    4.63
  -2  10   3   -0.66    4.61
   0 -10   4  495.37   19.66
   0 -10   4  513.89   20.17
   0 -10  -4  494.17   19.01
  -1   0  -8   -2.56    5.94
   1   0   8   -0.03    4.94
  -1 -10   4   33.24    6.24
   1 -10  -4   36.49    6.22
   1 -10  -4   32.12    6.27
  -1 -10   4   32.85    5.49
   1  11   1  858.31   26.52
   1 -11   1  950.52   29.63
  -1 -11  -1  929.81   32.67
   1 -11   1  902.82   37.48
   4  -7  -3   41.45    7.70
   4  -7  -3   41.07    6.37
   4   7  -3   38.68    6.72
  -4  -7   3   36.34    6.22
  -4   7   3   47.63    6.66
   1  -1   8  530.78   21.07
  -1   1  -8  571.45   20.93
   1   1   8  495.69   18.94
  -3   0   8   -1.07    3.60
  -3   0   8    1.07    4.97
   5   3  -3    2.55    4.16
   5  -3  -3   -1.74    5.89
   5  -3  -3   -3.40    5.51
  -5   3   3   -2.05    4.63
   5   3  -3   -0.18    5.44
   3   0   6   -1.60    3.83
   3   0   6   -1.82    4.89
   4  -4  -6  161.39    9.89
  -4  -4   6  156.51   10.06
  -4  -4   6  158.43    9.41
  -4   4   6  163.95    9.54
   4   4  -6  164.69   10.46
   4   2   4   10.50    4.35
   4  -2   4   11.37    5.76
  -4   2  -4    9.02    4.62
   4   2   4   11.66    5.72
  -4  -2  -4   12.71    4.89
   4  -2   4    7.82    5.50
   0   4  -8  112.19    8.95
   0   4   8  103.45    8.38
   0  -4   8   99.84    7.51
   0  -4  -8   96.12    8.99
   5   0   1  518.56   18.75
   5   0   1  521.23   18.97
  -5   0  -1  527.27   18.09
   5   0   1  512.54   18.32
  -3   9   3    4.43    4.69
  -3  -9   3    7.75    4.82
   3   9  -3    7.69    4.39
   3  -9  -3    6.04    6.10
  -3  -9  -1   25.57    5.71
  -3   9  -1   21.33    6.01
   3  -9   1   17.83    5.95
   3   9   1   22.97    5.51
  -3   1   8    6.22    3.88
  -3  -1   8    6.69    5.30
  -3   1   8    8.26    5.49
  -3  -1   8    8.76    4.10
   3  -1  -8    9.57    5.99
   1 -11  -2  153.59   10.59
  -1 -11   2  175.17   10.52
   1 -11  -2  162.47   11.42
   1  11  -2  165.47   10.02
  -2  -4   8  200.94   10.40
   2  -4  -8  160.23   10.75
   2   4  -8  183.98   10.61
  -2  -4   8  206.31   11.30
  -2   4   8  229.10   13.44
   3  -1   6   -1.67    3.22
   3  -1   6    0.52    4.50
   3  -1   6    1.96    5.09
   3   1   6    1.47    3.85
  -4   6  -2    9.91    4.14
  -4   6  -2    9.77    5.41
   4   6   2   10.29    5.45
  -4  -6  -2   11.73    4.59
   4  -6   2   11.80    5.76
   5   2  -4    3.59    5.46
   5  -2  -4   10.92    6.07
   5  -2  -4    4.83    5.34
  -5  -2   4    4.61    4.48
  -5   2   4    5.63    4.77
  -5   1  -1   56.18    6.63
   5  -1   1   56.23    7.26
   5   1   1   56.93    7.66
  -5  -1  -1   64.30    6.95
   5  -1   1   55.51    7.09
   5   1   1   61.99    7.15
   5   1   1   62.77    7.12
  -3  -5   7    1.17    4.74
  -3   5   7   12.41    5.62
   3  -5  -7   10.26    5.46
   3   5  -7    4.81    5.17
  -3  -5   7    6.43    4.07
  -3   5   7    4.93    4.22
  -2  10  -2   38.16    6.38
   2 -10   2   31.25    6.73
   2  10   2   37.72    5.80
  -2 -10  -2   42.28    6.01
  -5   3   0   28.96    5.57
   5  -3   0   35.19    7.11
   5  -3   0   28.38    6.39
  -5  -3   0   31.77    5.69
   5   3   0   30.77    5.77
   5   3   0   33.35    6.77
  -3   5  -5   31.96    5.91
   3  -5   5   37.39    6.67
   3  -5   5   34.00    5.79
  -1   2  -8  378.22   16.38
   1  -2   8  337.15   16.26
   1   2   8  348.85   15.43
   2  -3   7  400.95   16.15
   2   3   7  404.35   16.60
   2  -3   7  377.42   17.01
   2   3   7  365.69   17.32
   1   7  -7  257.30   12.28
  -1  -7   7  256.63   12.29
   1  -7  -7  261.34   13.42
  -1  -7   7  273.44   12.72
   1   7  -7  249.97   11.49
  -1   7   7  271.45   13.46
   2  -9  -5   30.12    5.86
   2   9  -5   25.73    4.98
  -2  -9   5   25.94    5.09
  -2  -9   5   28.52    5.79
   2  -9  -5   30.04    6.58
  -2   9   5   26.88    5.28
  -4  -1   7   26.99    5.14
  -4   1   7   34.85    7.02
   4  -1  -7   31.13    6.61
  -4  -1   7   31.14    7.30
  -4   1   7   30.54    5.30
  -2  -8   6   10.06    4.89
   2  -8  -6    5.95    5.45
   2   8  -6    6.72    4.60
   2  -8  -6    8.19    5.60
  -2  -8   6    8.54    4.49
  -2   8   6    4.92    4.36
  -3  -2   8  447.26   16.13
  -3  -2   8  424.63   16.53
  -3   2   8  432.66   15.77
   3   2  -8  416.96   16.16
   3  -2  -8  404.91   17.52
  -3   2   8  474.98   19.57
   3  -2   6   58.10    6.73
   3  -2   6   68.68    7.60
   3  -2   6   66.72    6.15
   3   2   6   70.70    6.84
   3   2   6   76.12    8.52
   5   4  -2  221.68   11.91
   5   4  -2  189.20   11.24
   5  -4  -2  208.77   11.28
   5  -4  -2  213.95   12.90
  -5  -4   2  200.57   10.54
  -4   5  -3    0.28    4.83
  -4  -5  -3    0.37    4.07
   4  -5   3   -0.24    5.09
   4  -5   3   -2.13    4.65
   4   7   1    1.82    5.23
  -4   7  -1    0.64    4.89
  -4  -7  -1    2.03    4.58
  -2   6  -6    6.43    4.50
   2   6   6   10.87    4.94
  -2   6  -6    8.50    4.21
   2   6   6    9.39    5.22
  -5   2  -1  105.17    8.04
   5  -2   1   96.62    8.22
   5   2   1  101.53    8.72
  -5  -2  -1   96.60    7.60
   5  -2   1   96.61    8.26
   5   2   1   96.87    8.04
  -5  -4   1   31.24    5.63
   5  -4  -1   35.07    7.25
   5  -4  -1   30.75    6.19
   5   4  -1   29.05    5.49
  -5   4   1   32.55    5.95
   1  -5  -8  141.04   10.52
  -1  -5   8  113.43    8.42
  -1   5   8  181.44   11.59
  -1  -5   8  134.56    8.81
   1   5  -8  145.45    9.76
  -1  -5   8  154.40    9.74
   3  -8  -5  404.24   18.12
   3  -8  -5  468.72   17.01
  -3   8   5  488.68   17.14
  -3  -8   5  469.45   17.65
  -3  -8   5  471.02   16.85
   3   8  -5  488.55   17.77
   3   8   3  231.28   11.90
   3  -8   3  220.27   13.08
  -3   8  -3  246.74   12.38
  -3  -8  -3  248.81   11.66
  -4  -3  -4  119.80    8.26
   4  -3   4  106.71    8.51
   4  -3   4  106.67    9.00
   4   3   4  100.76    8.86
   4   3   4   96.21    7.23
  -4   3  -4  110.55    8.28
   4   6  -5   13.77    5.52
   4  -6  -5   12.11    5.17
  -4  -6   5   10.29    4.88
  -4  -6   5    8.65    4.95
  -4   6   5   14.17    5.03
   4  -6  -5   14.37    6.29
  -1 -11  -2  182.06   10.85
   1  11   2  157.26    9.46
   1 -11   2  177.51   10.82
   1 -11   2  181.02   11.88
   3  -7  -6    4.56    5.62
   3   7  -6    4.68    4.88
   3  -7  -6   -0.75    6.27
  -3  -7   6   -0.59    4.20
  -3  -7   6   -0.29    4.70
  -3   7   6   -0.19    4.19
   3   7   4   11.66    5.45
  -3   7  -4   10.37    5.13
   3   7   4   11.67    4.60
  -5  -3   4   -0.41    4.32
   5  -3  -4   -0.17    4.86
   5  -3  -4    6.31    6.01
  -5   3   4   -1.14    4.76
   0   7  -7   24.83    5.61
   0  -7  -7   24.59    6.87
   0   7   7   30.29    6.12
   0  -7   7   28.13    5.60
   0  -7   7   22.48    5.53
   1  -9   5  198.98   11.81
   1   9   5  186.23   11.13
   1  -9   5  192.50   11.13
   4   2  -7  171.48   10.12
  -4  -2   7  193.96   10.57
   4  -2  -7  196.60   10.40
  -4   2   7  190.35    9.35
  -4  -2   7  190.78    9.43
  -4   2   7  193.32   10.95
  -1   6  -7  187.20    9.93
  -1   6  -7  174.00    8.80
   1  -6   7  159.09    9.87
   1   6   7  190.04   10.99
   1   6   7  147.80   10.14
   1  -6   7  164.79    9.72
  -5   4   3  233.55   10.73
   5  -4  -3  246.64   11.49
   5   4  -3  227.98   12.01
   5  -4  -3  222.20   12.00
   5   4  -3  232.55   11.42
  -5  -4   3  241.35   10.62
   4  -7  -4   39.06    7.21
   4   7  -4   35.26    6.19
  -4   7   4   37.28    6.03
   4  -7  -4   39.36    5.94
   0 -11   3    2.94    5.51
   0 -11  -3    2.25    4.94
   5   0  -5    1.01    5.12
  -5   0   5    1.65    4.24
   1  -3   8  207.22    9.95
  -1  -3  -8  231.40   13.26
  -1   3  -8  254.78   12.08
   1  -3   8  192.16   11.08
   1   3   8  234.03   11.63
   1 -10   4   25.90    6.49
   1 -10   4   21.53    5.72
   1  10   4   19.64    5.11
  -1 -10  -4   24.26    5.16
  -5  -1   5   13.88    4.97
  -5   1   5   11.82    4.99
   5   1  -5   10.98    5.84
   5  -1  -5   16.03    5.71
  -5  -1   5   12.60    5.66
   5  -1  -5   12.06    6.11
   1 -11  -3    2.39    5.48
  -1 -11   3    0.54    4.08
   1 -11  -3   -2.70    4.58
  -5  -4   0   49.58    6.33
   5  -4   0   44.86    7.28
  -5   4   0   45.77    6.32
   5  -4   0   44.57    6.47
   2 -10  -4   65.90    7.83
   2  10  -4   67.53    6.27
  -1   0   9   20.85    5.88
   1   0  -9   10.28    6.06
  -3   3   8  445.83   13.50
   3   3  -8  349.48   14.08
   3  -3  -8  434.18   15.14
  -3  -3   8  444.03   14.88
  -3  -3   8  427.35   13.57
   2  -9   4   49.26    7.04
   2   9   4   46.34    6.66
   3  -3   6   69.48    7.31
   3  -3   6   74.40    6.50
   3   3   6   65.52    6.32
   3  -3   6   76.48    8.09
   3   3   6   71.37    8.09
   4  -5  -6  147.29    9.18
  -4  -5   6  130.64    8.62
   4  -5  -6  136.48   10.18
  -4   5   6  135.48    8.46
  -4  -5   6  145.14    8.76
   4   5  -6  141.98    9.43
   0  -5   8   57.83    6.12
   0   5   8   67.24    7.20
   0  -5   8   64.78    7.04
   0   5  -8   66.16    7.29
   0  -5  -8   68.72    8.29
  -5  -3  -1   83.87    7.09
   5  -3   1   80.64    7.73
   5   3   1   70.74    6.63
   5   3   1   81.73    8.04
  -5   3  -1   84.24    7.40
   5  -3   1   88.84    7.78
  -2  -7   7  100.99    7.60
   2  -7  -7  102.16    8.77
  -2   7   7   93.03    8.30
   2   7  -7   97.71    7.86
  -2  -7   7  101.14    7.87
   3  -9  -4  474.28   18.52
  -3   9   4  562.24   15.88
   3   9  -4  587.96   16.15
   3  -9   2  211.17   12.16
   3   9   2  238.34   10.97
  -3  -9  -2  260.39   11.06
  -3   9  -2  247.23   11.43
  -4  -8   1   29.24    6.20
   4   8  -1   28.66    6.44
   4  -8  -1   36.05    8.01
  -1   1   9  123.84    8.97
   1   1  -9  120.92    9.30
  -2  -5   8   12.49    4.59
  -2  -5   8    6.50    4.31
  -2  -5   8   11.38    5.50
   2  -5  -8    9.18    5.97
   2   5  -8    4.79    5.42
  -2   5   8   10.64    6.93
   2  -4   7   62.78    7.01
   2   4   7   63.50    7.57
   2   4   7   61.98    6.84
   2  -4   7   68.53    7.39
   2  11  -1  141.74    8.50
   2 -11  -1  157.14   10.67
  -2 -11   1  161.37    9.32
   4  -8  -2  668.51   21.88
  -4  -8   2  666.30   18.19
   4   8  -2  666.52   17.26
  -4   8   2  667.55   17.00
   2  -8   5   59.95    7.66
   2   8   5   56.66    7.12
  -2   8  -5   56.67    6.60
   1  -8   6    0.65    5.04
   1   8   6    3.56    4.79
  -1   8  -6   -1.84    4.34
   1  -8   6    1.48    5.07
  -2 -11   0   61.28    7.00
   2 -11   0   50.61    7.01
   2  11   0   57.38    6.40
   5  -2  -5   -0.97    4.95
   5  -2  -5   -2.51    6.15
  -5   2   5    1.05    4.58
  -5  -2   5    1.60    4.87
  -5  -2   5    2.36    4.34
  -4  -3   7    8.47    5.48
  -4   3   7    5.75    5.58
   4   3  -7    7.31    5.91
  -4  -3   7    8.58    4.74
   4  -3  -7    7.58    5.35
  -4   3   7    7.59    4.73
   5   0   2   -0.13    4.77
  -5   0  -2    2.16    4.83
   5   0   2   -0.13    4.85
   4   4   4  150.96    9.72
  -4   4  -4  154.63    9.13
   4  -4   4  142.28    9.58
   4  -4   4  153.05    9.43
  -4  -4  -4  152.16    8.63
   3  10  -1    1.96    4.29
  -3 -10   1    0.56    4.87
   3 -10  -1    0.62    5.61
  -3  10   1    2.45    5.12
  -4  -8   0   66.82    6.98
   4  -8   0   62.49    7.96
  -4   8   0   59.10    6.92
   4   8   0   65.50    7.47
  -3  -6   7   13.68    4.96
  -3   6   7   18.36    5.99
  -3   6   7   11.36    4.77
   3  -6  -7   12.80    5.96
   3   6  -7   13.65    5.43
  -3  -6   7   11.69    5.19
   3   6   5  152.16    9.70
   3  -6   5  148.95    9.97
  -3   6  -5  151.16    9.34
   5  -1   2   59.29    7.41
   5   1   2   52.16    6.36
   5  -1   2   61.12    7.42
   5   1   2   53.90    7.17
  -5  -1  -2   54.91    6.22
  -5   1  -2   60.06    6.58
   1   2  -9    6.20    6.36
  -1   2   9    7.12    5.61
   1  -2  -9    3.06    5.54
   5   5  -2  113.27    8.71
   5  -5  -2  106.66    9.20
  -5  -5   2  131.60    8.31
   5  -5  -2  124.69    9.03
   5   5  -2  113.24    8.49
   2 -10   3    9.80    5.98
   2  10   3   10.11    4.93
  -2 -10  -3    9.20    4.88
  -1  -9   6   15.03    5.25
   1  -9  -6   14.07    6.05
  -1  -9   6   13.33    5.15
   1   9  -6   12.98    4.53
   1  -9  -6   15.57    5.79
  -2 -11   2  347.35   12.74
   2 -11  -2  315.17   14.84
  -5  -4   4   40.87    5.92
   5   4  -4   39.06    6.68
   5  -4  -4   41.06    6.30
   5  -4  -4   39.93    7.61
  -5   4   4   41.86    6.46
  -5   5   1  116.35    8.40
   5  -5  -1  127.64    9.58
   5   5  -1  116.01    8.86
  -5  -5   1  121.22    8.20
   5  -5  -1  119.87    8.80
  -1 -10   5   13.15    5.10
  -1 -10   5   11.48    5.34
   1 -10  -5   10.84    5.44
   2   1  -9   74.42    7.67
  -2  -1   9   82.25    8.30
   0 -12   0    3.48    5.51
   4   7   2  240.06   11.67
  -4  -7  -2  250.55   10.67
  -4   7  -2  204.44   10.45
   3  10  -2   60.65    6.46
   3 -10  -2   57.54    7.45
  -3  10   2   61.78    6.96
  -3 -10   2   52.25    6.38
  -3 -10   0   15.98    5.35
   3 -10   0   12.88    6.32
   3  10   0   14.56    5.17
  -4  -8   3  216.46   10.18
  -4   8   3  217.46   10.36
   4  -8  -3  210.52   12.20
   4   8  -3  211.03   10.52
   0   0   9    0.96    5.21
   0   0  -9   -2.59    5.81
   1  -4   8   76.77    7.33
   1   4   8   84.63    7.79
   1  -4   8   72.89    6.77
  -1  -4  -8   63.48    8.06
  -1   4  -8   72.80    7.65
   0 -10   5  411.90   15.42
   0 -10   5  383.04   14.56
   2  11   1  214.01   10.49
   2 -11   1  233.39   11.79
  -2 -11  -1  242.65   11.40
  -4  -6  -3    8.20    4.60
   4  -6   3   12.37    5.86
  -4   6  -3    9.06    5.06
   4   6   3   10.98    5.54
   0  -9  -6   -0.80    5.58
   0  -9   6    0.86    4.82
   0  -9   6   -0.41    5.31
   0  -1   9    6.46    5.24
   0   1   9    8.57    5.06
   0   1  -9    9.76    6.03
   1  -6  -8   -0.22    6.19
   1   6  -8   -2.42    5.07
  -1  -6   8    3.20    4.41
  -1   6   8    0.99    6.27
  -1  -6   8   -0.49    4.33
   1 -11   3   31.35    6.59
  -1 -11  -3   37.65    6.14
   1  11   3   29.55    5.56
   5   2   2   97.39    7.53
   5  -2   2  104.94    8.72
   5   2   2  121.64    9.03
   5  -2   2  118.57    8.97
  -5   2  -2  114.50    8.03
  -5  -2  -2  116.55    8.07
   3   4  -8  309.67   12.79
  -3  -4   8  332.74   13.00
   3  -4  -8  302.04   12.72
  -3   4   8  301.58   11.81
  -3  -4   8  320.34   12.14
  -5   5   3    5.45    5.09
  -5  -5   3    3.57    4.57
   5  -5  -3    4.37    5.11
   5   5  -3    4.97    4.94
   5  -5  -3    6.29    5.78
   3   4   6  128.52    9.33
   3   4   6  135.94    8.56
   3  -4   6  144.58    9.06
   3  -4   6  143.52    9.49
   0 -12   1   58.30    7.10
   0 -12  -1   59.83    7.45
   5  -4   1   47.42    7.15
   5  -4   1   52.60    7.07
  -5   4  -1   55.65    6.56
  -5  -4  -1   51.38    6.39
  -5   3   5   12.87    5.01
  -5  -3   5   17.54    5.07
  -5  -3   5   15.89    5.66
   5  -3  -5   18.49    6.54
   5   3  -5   16.82    5.67
   5  -3  -5   16.03    5.51
   2   2  -9   41.10    6.82
  -2   2   9   43.15    6.85
   2  -2  -9   40.04    7.29
  -2  -2   9   39.88    6.70
   4   0   5    2.17    5.03
   4   0   5    3.40    5.50
  -2   7  -6  271.48   11.70
   2   7   6  251.74   11.78
   2  -7   6  246.18   12.60
  -5  -5   0   10.01    5.01
  -5   5   0    5.07    5.00
   5  -5   0    8.95    6.12
   5   5   0    9.74    5.68
   5  -5   0    7.65    5.37
   1  -3  -9   -1.18    5.53
  -1   3   9   -1.83    5.39
   1   3  -9    4.79    6.17
  -1  -3   9   -2.00    5.12
   4  -1   5  129.12    9.20
   4   1   5  115.15    7.91
   4  -1   5  124.99    8.89
   4   1   5  133.02    9.14
   1  -8  -7   64.28    8.13
   1   8  -7   50.29    6.17
  -1  -8   7   52.25    6.28
  -1  -8   7   58.16    6.64
   4  -7  -5   -2.16    5.79
  -4  -7   5   -0.05    4.49
  -4   7   5    5.84    5.08
   4  -7  -5    2.73    4.80
   4   7  -5    4.38    4.94
   0   2  -9   42.24    7.06
   0  -2   9   35.45    6.55
   0   2   9   44.27    6.57
  -4  -4   7   10.65    5.32
  -4   4   7    6.67    5.94
   4   4  -7   11.41    5.77
  -4  -4   7   11.63    4.99
   4  -4  -7   11.28    5.80
  -4   4   7   13.06    4.82
  -2   5  -7  436.71   15.38
   2  -5   7  393.96   16.19
   2  -5   7  390.75   15.14
   2   5   7  437.80   14.70
  -1 -12   0  121.06    8.66
   1 -12   0  116.78    9.59
   1 -12   0  114.21    8.74
  -4  -8  -1   51.17    6.46
   4   8   1   47.68    6.91
  -4   8  -1   51.03    6.88
   3 -10  -3   32.86    6.81
   3  10  -3   46.19    6.18
  -3 -10   3   43.22    6.10
  -3  10   3   40.76    6.41
   3 -10   1  334.01   16.97
   3  10   1  381.43   13.88
  -3 -10  -1  413.21   14.08
  -3  10  -1  369.10   14.75
   1 -12  -1   42.26    7.41
  -1 -12   1   47.87    6.75
   1 -12  -1   43.56    6.53
   2 -11  -3   89.74    8.88
  -2 -11   3  101.39    8.05
   2 -11  -3   99.31    8.85
   0 -11  -4  400.94   15.10
   0 -11   4  470.33   16.45
   0 -11   4  441.11   16.46
   1   7   7  269.17   12.57
  -1   7  -7  229.42   10.93
   1  -7   7  240.28   11.45
   1  -7   7  223.98   11.61
  -1 -11   4  271.40   11.70
  -1 -11   4  251.66   11.29
   1 -11  -4  230.85   11.87
   4  -6  -6   37.52    6.47
  -4   6   6   33.93    5.79
  -4  -6   6   34.88    5.99
  -4  -6   6   31.97    5.81
   4   6  -6   38.35    6.59
   4  -6  -6   31.96    7.43
   0  -6  -8   41.43    7.67
   0  -6   8   34.88    5.51
   0  -6   8   37.10    5.81
   0   6   8   54.19    7.98
   0   6  -8   47.28    7.00
   2  -9  -6   21.68    6.09
  -2  -9   6   25.95    5.55
   2   9  -6   24.46    5.10
   2  -9  -6   22.71    6.67
  -2  -9   6   25.78    5.48
   5  -3   2    2.55    5.55
   5   3   2    2.71    5.56
   5  -3   2   -0.18    5.44
  -5  -3  -2    3.97    4.75
  -5   3  -2    1.37    4.83
  -2  -6   8   22.66    5.41
   2   6  -8   24.36    5.78
   2  -6  -8   19.17    6.67
  -2  -6   8   24.50    5.22
  -2   6   8   27.39    6.68
   4   2   5   63.95    7.66
   4  -2   5   61.89    7.21
   4  -2   5   59.58    7.42
  -4   2  -5   58.37    6.61
   4   2   5   50.55    5.72
   3  -8  -6  292.60   12.07
  -3  -8   6  274.80   11.43
  -3  -8   6  280.51   11.62
   3   8  -6  268.57   11.78
   3  -8  -6  267.74   13.36
  -3   8   6  270.53   11.06
   3   8   4   71.40    7.76
   3  -8   4   64.17    8.11
  -3   8  -4   67.96    7.50
   5   0  -6   -4.34    5.80
  -5   0   6   -1.10    5.51
  -5   0   6   -0.50    4.83
  -4   5  -4    2.20    4.83
   4  -5   4    6.27    5.88
   4  -5   4    5.44    5.13
   0 -12   2    1.91    5.34
   0 -12   2   -1.83    5.75
   0 -12  -2   -0.14    5.59
   0  -8   7  157.21   10.10
   0  -8   7  177.60    9.98
   0   8  -7  166.89    9.47
   0  -8  -7  179.07   11.13
   0   8   7  171.93   10.04
   2   3  -9  196.18   10.86
  -2  -3   9  190.09   10.83
   2  -3  -9  176.86   10.95
  -2   3   9  201.88   11.06
  -3   9   5   28.19    5.92
  -3  -9   5   29.07    5.88
   3  -9  -5   29.54    7.00
   3   9  -5   32.05    5.78
   1 -12   1    8.14    6.25
  -1 -12  -1    9.31    5.45
   1 -12   1   10.57    5.68
   3  -9   3   15.96    6.45
  -3   9  -3   16.30    5.80
   3   9   3   17.15    5.91
  -3  -9  -3   16.39    5.21
   4   8  -4  117.26    8.33
  -4   8   4  121.33    8.34
   4  -8  -4  110.91    9.42
  -5  -1   6   39.92    6.85
  -5   1   6   41.20    7.09
  -5  -1   6   39.05    5.83
  -5   1   6   32.38    5.94
   5   1  -6   35.83    6.78
   5  -1  -6   42.12    7.03
   5  -5  -4  118.65    9.62
  -5   5   4  126.51    8.65
   5   5  -4  122.75    9.10
   5  -5  -4  114.47    8.47
  -2 -10   5   20.13    5.01
  -2 -10   5   23.48    5.77
   2 -10  -5   26.41    6.71
   2 -11   2   51.75    7.10
  -2 -11  -2   62.64    6.98
   2  11   2   52.07    6.33
   2   0   8   32.23    6.72
   2   0   8   31.19    5.85
  -5   4   5   19.63    5.80
   5   4  -5   20.07    6.26
   5  -4  -5   13.73    5.39
   5  -4  -5   19.84    6.41
  -5  -4   5   23.90    5.43
   0  -3  -9   98.25    9.36
   0   3  -9  107.30    8.98
   0  -3   9   95.49    8.46
   0   3   9   88.08    7.96
   1   5   8   32.37    6.06
   1  -5   8   29.29    5.41
  -1  -5  -8   35.33    7.54
  -1   5  -8   29.23    6.52
  -1 -12   2   13.05    5.63
   1 -12  -2   13.45    6.40
   5  -6  -2    6.20    6.21
   5   6  -2    9.03    5.48
   5  -6  -2    7.14    5.16
  -5  -6   2    4.88    4.61
   2  -1   8   12.86    5.57
   2   1   8    9.92    5.62
   2  -1   8    8.39    5.12
   2   1   8   10.10    4.51
   2  -8  -7    0.19    5.51
   2  -8  -7    3.53    5.94
  -2  -8   7   -1.26    4.74
   2   8  -7    0.79    4.52
  -2  -8   7    1.57    4.77
   5  -6  -1    4.26    5.14
   5  -6  -1    3.90    6.14
   5   6  -1    2.29    5.42
  -5   6   1    5.82    5.43
  -5  -6   1    7.20    4.89
  -4   0   8   15.28    4.54
   4   0  -8   18.24    6.06
  -4   0   8   19.50    7.54
  -1   4   9   44.96    6.87
  -1  -4   9   34.19    6.10
   1   4  -9   43.46    6.89
   1  -4  -9   36.46    7.39
   3   5  -8    2.34    5.09
  -3  -5   8    0.69    4.40
  -3  -5   8   -1.75    5.15
  -3   5   8   -0.97    5.27
   3  -5  -8    0.30    5.99
   3  -5   6    9.35    6.03
  -5  -2   6   95.83    7.62
   5  -2  -6   98.60    8.28
  -5   2   6   99.88    7.72
   5  -2  -6   94.45    9.20
  -5  -2   6   96.48    8.46
  -5   5  -1   19.50    5.79
  -5  -5  -1   22.48    5.28
   5  -5   1   24.76    6.07
   5   5   1   20.35    6.20
   5  -5   1   24.03    6.32
  -4   1   8   49.95    6.08
   4  -1  -8   51.12    7.08
  -4   1   8   60.45    8.65
  -4  -1   8   49.35    6.07
  -4  -1   8   55.24    7.82
   1 -10   5   15.62    6.27
   1 -10   5    6.93    5.31
   3  -7  -7   30.04    6.59
   3  -7  -7   26.14    7.25
  -3  -7   7   28.17    6.10
   3   7  -7   27.17    6.10
  -3  -7   7   26.25    5.77
  -3   7   7   23.76    5.57
  -3   7  -5  162.39    9.60
   3   7   5  165.29   10.44
   4   3   5    3.64    5.89
   4  -3   5    9.86    5.90
   4  -3   5    5.63    5.54
  -4   3  -5    7.35    4.87
  -3   0   9   15.51    6.05
   4  -9  -1  582.58   20.42
   4   9  -1  587.93   16.76
  -4  -9   1  594.79   17.06
   5   0   3  378.93   13.52
   5   0   3  427.84   14.76
  -5   0  -3  434.29   13.67
   3   0   7  240.69   11.38
   3   0   7  269.05   12.30
  -5   6   3   44.50    6.53
  -5  -6   3   44.68    6.44
   5   6  -3   46.18    7.00
   5  -6  -3   48.73    6.81
   2  -2   8    5.08    5.30
   2   2   8    7.49    4.77
   2  -2   8    5.88    4.67
   2   2   8    7.01    5.88
  -4   9   2   72.32    7.67
   4  -9  -2   74.39    9.06
   4   9  -2   65.95    7.49
  -4  -9   2   62.15    6.85
   2   9   5   24.69    5.73
   2  -9   5   22.81    6.28
   2  -9   5   20.60    6.04
   1  -9   6  132.53    9.65
   1  -9   6  167.66   10.41
   3  -1  -9   -0.71    6.01
  -3  -1   9    5.61    5.64
   3   1  -9    4.74    5.80
  -3   1   9    3.87    5.63
   4   5  -7   -0.21    5.48
  -4  -5   7    1.84    4.61
  -4  -5   7    2.25    5.18
   4  -5  -7    4.34    5.46
  -4   5   7    5.80    4.40
  -5   1  -3   95.41    8.00
   5  -1   3   95.99    8.31
   5   1   3  102.23    8.88
   5   1   3   86.26    7.71
  -5  -1  -3  104.71    7.92
   5  -1   3   95.87    8.26
   3   1   7    1.73    5.73
   3  -1   7   -0.40    4.71
   3   1   7    3.39    4.68
   3  -1   7    7.49    5.92
   5  -4   2   53.62    7.14
   5  -4   2   62.70    7.40
  -5  -4  -2   55.86    6.55
  -5   4  -2   52.75    6.59
   2  10   4  325.45   13.44
   2 -10   4  324.50   15.32
   2 -10   4  313.49   14.36
  -4  -7  -3   69.43    6.68
   4   7   3   55.10    7.10
   4  -7   3   60.10    7.61
  -4   7  -3   62.80    6.75
   3  10  -4   13.62    4.72
   3 -10  -4   12.26    6.23
  -3  10   4   10.29    5.04
   3 -10   2   80.80    8.27
  -3 -10  -2   94.30    7.78
   3  10   2   83.76    7.73
  -3  10  -2   86.45    7.96
   1 -12   2  147.03    9.44
   1 -12   2  144.85   10.96
  -1 -12  -2  146.89    9.33
  -4  -2   8   25.86    6.35
   4   2  -8   32.50    6.63
   4  -2  -8   34.06    6.71
  -4  -2   8   30.44    5.46
  -4   2   8   27.02    7.09
  -4   2   8   26.09    5.09
   1   7  -8   58.87    7.01
   1  -7  -8   54.47    7.79
  -1   7   8   50.80    6.86
  -1  -7   8   60.24    6.40
  -1  -7   8   52.70    6.48
  -5   6   0  359.86   13.45
   5  -6   0  367.90   15.28
  -5  -6   0  347.41   12.77
   5   6   0  337.22   13.45
  -2  -4   9  165.95   10.05
  -2   4   9  175.72   11.46
  -2  -4   9  142.36    8.51
   2  -4  -9  153.47   10.49
   2   4  -9  151.21    9.76
   4   8   2   52.75    6.66
  -4   8  -2   53.80    7.17
  -4  -8  -2   56.40    6.52
   1 -11   4   19.30    6.51
   1 -11   4   15.91    6.33
  -4  -9   0  124.50    8.63
   4  -9   0  133.66   10.40
  -4   9   0  132.31    9.06
   4   9   0  123.10    8.73
   2 -11  -4  116.48    9.50
   2 -11  -4  136.82    9.89
  -2   6  -7  116.13    8.72
   2  -6   7  103.48    8.31
   2   6   7   99.66    8.88
   5  -3  -6    3.61    5.35
   5  -3  -6   -1.75    6.53
   5   3  -6   -0.29    5.20
  -5   3   6   -1.15    4.45
  -5  -3   6   -0.84    4.83
  -5  -3   6   -0.56    5.69
   0 -12   3   84.67    7.90
   0 -12  -3   89.29    8.24
  -1   0  -9   28.86    7.12
   1   0   9   23.81    5.86
   3   2  -9    1.00    5.37
  -3  -2   9    2.15    3.84
   3  -2  -9   -0.56    5.82
  -3  -2   9    3.09    5.49
   0   4  -9  200.86   11.05
   0  -4  -9  185.13   11.87
   0   4   9  187.01   10.76
   5  -2   3   99.15    8.44
   5  -2   3  102.81    8.70
  -5  -2  -3  115.73    8.09
   5   2   3  109.79    9.05
  -5   2  -3  108.62    8.22
   3   2   7    1.25    5.73
   3  -2   7    1.79    4.54
   3  -2   7    1.46    5.58
   3   2   7    3.30    4.33
  -1  -1  -9   61.50    8.28
   1   1   9   47.88    6.57
   1  -1   9   51.39    6.69
  -1   1  -9   55.78    8.06
   4  -9  -3  173.78   11.63
   4   9  -3  204.78   10.33
  -4   9   3  193.48   10.10
  -4  -9   3  200.41   10.34
  -1 -12   3   32.96    6.45
   1 -12  -3   30.85    6.76
   2  -3   8   25.37    5.85
   2   3   8   24.48    5.64
   2   3   8   25.68    6.73
  -1 -10   6   28.85    6.17
  -1 -10   6   27.13    5.74
   4  -6   4  166.30   10.55
   4   6   4  174.99   10.38
  -4   6  -4  182.99   10.18
   2  -8   6    2.05    5.85
   2  -8   6    3.26    5.91
   2   8   6    4.50    5.37
   5   5  -5  127.20    9.46
  -5   5   5  118.02    8.55
  -5  -5   5  114.53    8.06
   5  -5  -5  117.15    8.68
   4   4   5    6.75    5.49
   4  -4   5    7.70    5.55
   4  -4   5    6.22    6.06
  -4   4  -5   10.10    5.30
   2 -12  -1    2.96    6.16
   2 -12  -1    2.37    5.59
  -2 -12   1    0.32    5.08
   4  -7  -6   -1.99    4.63
  -4  -7   6   -0.31    4.83
   4  -7  -6   -3.30    5.96
  -4   7   6    2.92    4.97
   4   7  -6   -1.04    5.30
   0  -7   8   -1.84    4.19
   0   7  -8    0.97    5.22
   0   7   8    5.12    5.54
   0  -7  -8   -0.23    6.56
   0  -7   8   -2.80    4.91
  -4  -8   5    7.87    5.08
   4  -8  -5    7.52    6.04
   4   8  -5    8.89    5.31
  -4   8   5    8.35    5.29
  -5   6   4   25.56    5.77
   5  -6  -4   26.33    5.94
   5   6  -4   25.75    6.22
  -3  11   1  158.09    9.52
   3  11  -1  161.00    9.47
  -3 -11   1  179.72    9.50
   3 -11  -1  174.87   11.08
  -4   3   8    2.18    4.21
   4   3  -8   -0.02    5.77
  -4  -3   8   -6.59    5.02
  -4   3   8   -1.28    5.77
   4  -3  -8    1.03    5.50
  -4  -3   8   -0.58    4.19
   1  -5  -9   -1.18    6.65
   1   5  -9    1.39    5.91
  -1   5   9   -2.88    5.78
  -1  -5   9   -0.51    5.15
   2 -12   0   -0.29    6.45
   2 -12   0    5.16    5.72
  -2 -12   0    3.98    4.94
  -2  -7   8    4.19    4.52
  -2   7   8    0.30    5.53
   2   7  -8   -1.92    4.80
  -2  -7   8   -0.33    5.12
   2  -7  -8    2.70    6.15
   2 -11   3   43.72    7.31
   2  11   3   41.06    6.31
   2 -11   3   39.44    7.56
  -2 -11  -3   46.68    6.27
  -1   2  -9    0.04    5.84
   1   2   9   -2.32    5.16
   0 -10   6    3.93    5.62
   0 -10   6    5.07    5.13
  -1 -11   5  249.07   11.66
  -1 -11   5  243.17   11.04
  -1  -6  -8   13.05    6.75
   1   6   8   11.29    5.05
  -1   6  -8   15.05    5.84
   1  -6   8    9.71    4.92
   1  -8   7   22.60    6.05
   1  -8   7   20.35    5.99
  -1  -8  -7   22.50    6.68
  -1  -9   7   56.04    6.95
  -1  -9   7   49.45    6.74
   1  -9  -7   47.00    7.60
   3  11  -2   28.91    5.44
  -3 -11   2   31.74    5.79
  -3  11   2   31.47    6.15
   3 -11  -2   30.70    7.17
   3  11   0   10.09    5.12
   3 -11   0   10.61    5.84
  -3 -11   0   13.89    5.22
   3  -3  -9   -6.02    5.82
   3   3  -9   -2.69    5.64
  -3  -3   9    2.09    5.62
  -3  -3   9   -0.14    3.88
  -5  -3  -3  100.02    7.83
   5  -3   3   79.08    8.04
  -5   3  -3   94.48    7.64
   5   3   3   95.78    8.66
   5  -3   3   87.13    8.38
   3   3   7    6.41    4.51
   3  -3   7    8.82    5.61
   3  -3   7   10.88    5.52
   3   3   7    6.22    5.47
   0 -11   5   17.85    6.43
   0 -11   5   15.49    5.58
   3  -6  -8  140.33    9.96
  -3  -6   8  138.86    8.67
  -3  -6   8  134.71    9.17
   3   6  -8  145.01    9.31
  -3   6   8  143.72   10.12
   3   6   6  206.56   11.12
   3  -6   6  189.32   11.63
   2 -12  -2   -0.39    6.15
  -2 -12   2   -3.10    5.07
   2 -12  -2   -0.37    5.44
  -4  -9  -1    0.61    4.74
   4  -9   1    0.38    5.89
   4   9   1    0.05    5.27
  -4   9  -1   -0.82    5.41
   5   6   1   90.02    8.29
   5  -6   1   79.15    8.74
  -5   6  -1   76.93    7.34
  -5  -6  -1   80.52    7.37
   5  -5   2    7.73    6.04
  -5  -5  -2    9.61    5.11
  -5   5  -2   11.96    5.48
  -5  -7   2   59.97    6.82
   5   7  -2   55.53    7.05
  -5   7   2   62.12    7.16
   5  -4  -6   10.44    5.97
  -5  -4   6   17.13    6.61
  -5  -4   6   13.48    5.23
  -5   4   6   14.75    5.46
   5   4  -6   18.04    6.66
   5   7  -1   69.00    7.59
  -5  -7   1   71.21    7.11
   5  -7  -1   67.88    8.68
  -2   5   9  161.55   11.88
   2  -5  -9  124.13   10.08
   2   5  -9  106.35    8.27
  -2  -5   9  123.23    8.89
  -2  -5   9  117.94    7.83
   2 -12   1    2.36    5.88
   2 -12   1    4.37    5.23
  -2 -12  -1    3.98    5.19
   3   9  -6   61.28    6.81
   3  -9  -6   50.15    8.05
  -3  -9   6   61.04    6.84
  -3   9   6   56.36    6.63
   3  -9   4   15.08    6.22
   3   9   4   12.62    5.96
  -3   9  -4   10.87    5.98
  -5   0   7  139.63    9.74
   5   0  -7  142.33    9.65
  -5   0   7  148.63    8.99
   0  -9   7   11.09    5.46
   0  -9   7    7.39    5.25
   0  -9  -7   10.25    6.13
  -4   6   7   -0.41    4.53
  -4  -6   7   -1.74    5.05
   4  -6  -7   -0.80    6.56
   4  -6  -7    1.49    5.63
   4   6  -7    1.10    5.78
   1 -12   3    0.69    5.75
  -1 -12  -3    0.93    4.83
  -2   4  -8   57.58    7.81
   2   4   8   44.75    7.50
   2  -4   8   49.33    6.71
   2   4   8   56.64    6.80
  -4   9   4   53.15    7.05
   4  -9  -4   57.13    7.94
   4   9  -4   60.42    6.74
   0 -13   0   -1.83    5.79
   1  -3   9  187.70   10.61
  -1  -3  -9  208.54   12.39
  -1   3  -9  220.42   11.67
   1   3   9  191.99   10.82
  -5   1   7    9.70    5.20
   5  -1  -7    8.71    6.50
  -5  -1   7    9.34    4.86
  -5   1   7    7.26    6.23
  -5  -1   7    8.48    6.28
  -6   0   2   -2.20    5.15
   6   0  -2   -0.67    5.29
   6   0  -2    6.65    5.36
   0   5   9  198.54   11.08
   0   5  -9  206.99   11.08
   0  -5  -9  174.35   11.56
   0  -5   9  191.01   11.12
  -2 -10   6    1.18    4.95
   2 -10  -6    1.65    6.06
  -2 -10   6    4.85    4.70
   5   7  -3   92.15    8.14
  -5   7   3   79.84    7.64
  -5  -7   3   84.13    7.57
   6  -1  -2    4.41    5.68
   6   1  -2    5.77    5.98
   6   1  -2    3.47    5.49
   6  -1  -2    6.82    6.02
  -6  -1   2    7.11    5.13
  -6   1   2    4.01    5.20
  -4   4   8    8.58    4.81
  -4  -4   8   10.17    4.95
  -4   4   8    4.06    6.11
  -4  -4   8    9.10    5.23
   4  -4  -8    4.11    6.05
   4   4  -8    3.42    5.97
  -3  11   3   32.72    6.43
  -3 -11   3   40.12    6.21
   3 -11  -3   39.46    7.36
  -3   8   7  313.17   11.98
   3  -8  -7  340.09   13.04
   3   8  -7  342.69   13.14
   3  -8  -7  320.97   14.46
  -3  -8   7  331.81   12.37
  -3  -8   7  329.02   12.55
  -3 -11  -1   -0.59    4.92
   3  11   1   -0.20    4.89
  -3  11  -1    4.71    5.82
   3 -11   1    1.15    6.07
   3   8   5   33.34    6.93
  -3   8  -5   28.15    6.50
   0 -13   1    8.25    5.78
   0 -13  -1   10.94    5.97
  -3 -10   5   20.84    5.86
   3 -10  -5   15.16    6.38
  -3  10   5   13.18    5.37
   3  10   3   69.96    7.76
   3 -10   3   72.79    8.28
  -3  10  -3   74.68    8.04
   6   0  -3    4.28    6.35
   6   0  -3    2.79    6.20
   6   0  -1   -0.52    5.52
  -6   0   1   -0.40    5.33
   4   0   6  118.72    8.21
   4   0   6  138.57    9.68
   1   0 -10   -5.03    6.73
  -1   0  10    3.63    5.76
   2  -9  -7   12.64    6.77
   2  -9  -7    6.24    6.37
  -2  -9   7   13.88    5.15
  -2  -9   7   12.71    4.93
  -5  -7   0   61.54    6.72
  -5   7   0   55.30    6.95
   5   7   0   69.90    7.66
   5  -7   0   66.86    8.55
  -4   5  -5   24.06    6.05
   4  -5   5   20.41    6.94
   6   1  -3  260.72   12.49
   6  -1  -3  270.55   12.20
   6   1  -3  267.57   12.36
   6  -1  -3  265.23   13.02
   6  -1  -1   16.00    6.14
  -6  -1   1   16.26    5.68
   6   1  -1   20.39    6.64
   6  -1  -1   19.77    5.97
   6   1  -1   20.83    6.00
  -6   1   1   19.68    5.97
  -5  -2   7  164.44    9.08
  -5  -2   7  162.94   10.15
  -5   2   7  168.79   10.42
   5  -2  -7  168.02   10.41
  -5   2   7  173.75    9.50
   4   1   6   90.03    8.77
   4   1   6   75.25    6.80
   4  -1   6   84.12    7.77
   4  -1   6   89.64    8.90
  -1  -1  10   91.43    8.83
   1   1 -10   81.87    8.81
  -1   1  10   90.28    8.44
   3   4  -9   -2.65    4.88
   3  -4  -9   -0.12    5.99
  -3  -4   9   -0.42    4.39
  -3   4   9   -0.98    6.24
  -3  -4   9   -0.37    5.69
  -5   4  -3  245.42   10.97
  -5  -4  -3  263.92   11.11
   5   4   3  230.57   11.54
   5  -4   3  237.78   11.44
   5  -4   3  221.87   11.30
   2 -12  -3   27.63    6.64
   2 -12  -3   30.06    6.59
  -2 -12   3   33.61    6.31
   3  -4   7    5.77    5.54
   3  -4   7    6.94    5.83
   3   4   7    3.04    6.00
   0 -12   4  150.38    9.69
   0 -12   4  164.56   10.46
   2  -7   7    4.41    5.48
   2   7   7   -2.85    5.53
   1 -12  -4   -0.84    5.15
  -1 -12   4   -2.10    5.32
   4   8   3    7.44    5.92
  -4   8  -3    9.44    5.63
   2 -11  -5   92.43    8.73
  -2 -11   5  106.14    8.42
  -6   2   2   23.93    5.83
  -6  -2   2   21.33    5.86
   6   2  -2   17.66    6.02
   6  -2  -2   21.17    6.22
   6  -2  -2   21.35    6.93
   6   2  -2   19.93    5.96
  -5   6   5  194.03   10.05
   5   6  -5  183.31   10.39
   5  -6  -5  176.09    9.91
  -5  -6   5  192.79    9.76
   1   8  -8   -0.42    4.72
  -1  -8   8   -0.97    4.98
  -1   8   8   -1.64    4.85
   1  -8  -8   -0.05    6.59
  -1  -8   8    1.92    4.64
   1 -13   0   51.82    8.01
  -1 -13   0   54.18    7.14
   2   0 -10    3.41    6.68
  -1 -13   1   33.68    6.26
   1 -13  -1   39.20    7.65
   1   6  -9    5.92    5.69
   1  -6  -9    9.24    6.93
  -1  -6   9    5.17    5.54
  -1   6   9    8.94    6.95
   5   0   4    5.81    6.57
   5   0   4    4.26    5.42
  -5   0  -4   -1.57    5.11
   4  -7   4   93.15    9.19
  -4   7  -4   99.05    8.41
   4   7   4   88.20    9.01
   6  -2  -3   56.46    8.29
   6   2  -3   53.00    7.31
   6   2  -3   61.91    8.00
   6  -2  -3   61.57    7.61
  -2   1  10  180.67   10.79
   2   1 -10  179.39   10.75
   6  -2  -1  115.43    9.56
  -6  -2   1  107.02    8.04
   6   2  -1  113.11    9.16
   6  -2  -1  103.58    9.08
  -6   2   1  111.23    8.41
   4  -2   6    5.64    5.61
   4   2   6    3.88    6.32
   4  -2   6    3.91    6.16
   1   2 -10    0.12    6.30
  -1   2  10    1.48    5.55
   4 -10  -1  210.62   12.65
   4  10  -1  239.03   11.02
  -4 -10   1  228.22   11.10
   2 -12   2   49.94    7.20
  -2 -12  -2   50.69    6.63
  -5   1  -4  213.04   10.23
   5  -1   4  203.82   10.71
   5  -1   4  207.04   11.06
   5   1   4  209.96   11.70
  -5  -5   6    3.36    5.36
  -5   5   6    6.33    5.00
   5  -5  -6    8.98    5.54
   5   5  -6    5.32    5.90
  -4  10   2    7.83    5.83
   4  10  -2    2.34    5.10
  -4 -10   2    0.35    5.28
   4 -10  -2    4.82    6.60
  -1  -4  -9   -2.43    7.27
   1   4   9    2.61    5.27
  -1   4  -9    1.25    6.08
  -4   9  -2   -0.88    5.13
   4  -9   2    0.88    6.35
  -4  -9  -2    1.96    4.95
   4   9   2   -1.52    5.42
   2  10   5   64.35    7.32
   2 -10   5   54.01    7.45
   2 -10   5   60.33    8.18
   0 -13  -2   41.17    7.20
   0 -13   2   43.30    7.54
   1 -10   6  133.28    9.59
  -1 -10  -6  133.91    9.93
   1 -10   6  137.19    9.55
   5  -7  -4   36.78    7.84
  -5   7   4   44.07    6.97
   5   7  -4   43.80    7.14
  -6   0   4  396.79   13.40
   6   0  -4  366.79   14.53
   6   0  -4  366.46   14.58
   1 -11   5    6.93    6.01
   1 -11   5    7.01    5.83
   6   0   0   47.42    7.62
  -6   0   0   40.53    6.55
   6   0   0   45.31    6.90
   1 -13   1   11.68    6.91
   1 -13   1   10.23    5.50
  -1 -13  -1   13.51    5.84
  -5  -3   7   -2.54    4.60
  -5   3   7   -0.14    4.90
   5  -3  -7   -5.06    6.65
  -5  -3   7   -3.46    6.80
   5  -3  -7   -2.18    6.01
   5   3  -7   -2.23    6.20
  -6   1   4    4.51    5.64
   6  -1  -4   10.08    6.52
   6  -1  -4    3.18    6.50
  -6  -1   4    9.81    6.08
   6   1  -4    8.13    6.92
   6   1  -4    6.83    6.60
   6  -1   0    1.98    5.99
  -6   1   0    4.65    5.73
  -6  -1   0    4.88    5.34
   1  -7   8   31.24    6.02
   1  -7   8   32.47    6.21
  -1  -7  -8   37.27    7.47
  -5  -6  -2    1.87    5.02
  -5   6  -2    6.03    5.51
   5   6   2    2.25    5.81
   5  -6   2    5.30    6.17
  -2   5  -8  170.66   10.48
   2  -5   8  162.16   10.16
   4  -8  -6   12.48    6.95
  -4   8   6   17.49    5.68
  -4  -8   6   17.73    5.67
   4   8  -6   18.17    5.83
   2  -2 -10   12.79    7.44
  -2   2  10   16.30    6.52
   2   2 -10    8.84    7.10
  -2  -2  10   10.23    6.58
   0   8   8    2.12    4.81
   0  -8   8   -0.40    4.61
   0  -8  -8    2.16    6.31
   0  -8   8    2.87    5.28
   0   0  10   39.78    7.24
   0   0 -10   35.60    7.84
   6  -3  -2   32.39    7.04
   6  -3  -2   35.09    6.57
  -6  -3   2   25.54    5.56
  -6   3   2   33.20    6.35
  -4  10   0   10.77    6.20
  -4 -10   0   13.22    5.61
   4  10   0   11.37    5.24
   4 -10   0    9.80    6.80
   2   6  -9    8.27    5.48
   2  -6  -9    4.86    6.37
  -2  -6   9    4.29    5.42
  -2  -6   9    6.48    4.53
  -2   6   9    8.96    6.33
   3  -7  -8   62.04    8.07
   3   7  -8   69.27    7.70
  -3  -7   8   64.60    7.63
  -3  -7   8   64.76    7.08
  -1 -13   2   17.15    6.20
   1 -13  -2    9.03    6.24
   2   8  -8  198.72   10.28
  -2  -8   8  204.92   10.63
  -2  -8   8  179.07    9.42
   2  -8  -8  199.82   11.58
   2 -11   4   55.12    8.15
   2  11   4   52.32    6.83
   2 -11   4   51.95    7.84
   3   7   6  375.61   14.86
   3  -7   6  374.40   16.08
   5  -2   4   86.66    8.48
  -5   2  -4   83.42    7.51
   5  -2   4   85.33    8.27
   5   2   4   89.22    8.82
   2  -9   6   13.55    6.43
   2  -9   6   12.86    6.32
   2   9   6   11.06    5.96
  -5   7  -1   44.79    7.06
   5   7   1   41.71    7.19
   5  -7   1   44.25    7.52
  -5  -7  -1   46.16    6.51
   0   1  10   18.97    6.07
   0  -1 -10   17.64    7.32
   0  -1  10   19.20    6.18
   0   1 -10   23.58    7.46
   3 -11  -4    7.34    6.02
  -3  11   4    1.05    4.79
  -3  11  -2   88.15    8.25
   3  11   2   85.93    7.88
  -3 -11  -2   92.53    7.67
   3 -11   2   84.89    8.79
  -4  -5   8  359.63   12.67
   4   5  -8  345.28   13.51
   4  -5  -8  357.38   13.31
  -4  -5   8  327.35   12.74
  -4   0   9    0.36    7.04
   6  -3  -3    8.77    6.79
   6  -3  -3   10.89    5.93
  -6  -3   3   13.11    5.84
  -6   3   3   10.18    5.70
  -6   3   1    1.10    5.37
   6   3  -1    1.32    5.49
   6  -3  -1   -4.41    5.96
  -6  -3   1    2.90    5.10
   6  -3  -1   -3.58    5.47
  -4  -9   5   -0.24    4.84
  -4   9   5    0.21    5.23
   4   9  -5   -0.27    5.01
   4  -9  -5   -3.60    6.15
   4  10  -3    3.24    5.21
  -4 -10   3    5.80    5.39
   4 -10  -3    3.37    6.36
  -4  10   3    6.15    5.77
   4  -3   6   88.20    8.29
   4  -3   6   78.81    8.14
   4   3   6   85.36    8.63
   1   3 -10   15.66    6.86
   1  -3 -10   18.61    7.39
  -1   3  10   14.74    6.40
  -6   2   4  356.44   12.90
  -6  -2   4  335.23   12.86
   6   2  -4  364.40   14.55
   6  -2  -4  361.28   13.87
   6   2  -4  349.66   14.54
   6  -2  -4  347.06   14.77
   0   6   9  447.44   18.01
   0   6  -9  379.00   13.99
   0  -6  -9  376.72   15.16
   0  -6   9  368.37   14.35
  -6   2   0  126.79    8.60
  -6  -2   0  127.76    8.42
   6  -2   0  133.32    9.43
   6  -2   0  111.84    8.67
   6   2   0  129.48    9.61
  -4  -1   9    2.73    5.51
  -4   1   9    7.72    9.38
   4  -1  -9    5.68    6.08
   3  -5  -9   11.61    6.58
  -3  -5   9    6.58    5.49
  -3   5   9    4.67    6.22
  -3  -5   9   10.60    5.23
   3   5  -9    8.97    5.53
   4   7  -7  182.89   10.37
   4  -7  -7  193.34   10.36
   4  -7  -7  180.06   12.09
  -4   7   7  196.33    9.85
  -4  -7   7  180.95    9.48
  -5  -5  -3    5.97    5.35
  -5   5  -3   10.02    5.80
   5  -5   3   10.15    6.48
   3  -5   7   43.88    7.19
   1  -9   7   23.30    5.94
   1  -9   7   25.04    6.67
  -1  -9  -7   28.27    7.35
  -5  -8   2   -1.14    5.18
   5   8  -2    1.64    5.17
  -5   8   2   -0.80    5.62
   1 -12   4   86.56    8.18
   1 -12   4   82.93    8.84
   0   2 -10   37.51    7.49
   0  -2  10   44.27    7.41
   0   2  10   49.55    7.63
  -5  -8   1   13.91    5.58
   5   8  -1   11.08    6.11
   2 -12  -4   15.34    6.02
   2 -12  -4   18.12    5.97
;
_shelx_hkl_checksum              33557
loop_
_space_group_symop_id
_space_group_symop_operation_xyz
1 +X,+Y,+Z
2 1/2-X,1/2+Y,1/2-Z
3 -X,-Y,-Z
4 -1/2+X,-1/2-Y,-1/2+Z
loop_
_atom_site_label
_atom_site_type_symbol
_atom_site_fract_x
_atom_site_fract_y
_atom_site_fract_z
_atom_site_U_iso_or_equiv
_atom_site_adp_type
_atom_site_occupancy
_atom_site_site_symmetry_order
_atom_site_calc_flag
_atom_site_refinement_flags_posn
_atom_site_refinement_flags_adp
F1 F 0.2399(3) 0.01249(13) 0.23277(18) 0.0333(4) Uani 1 1 d . .
F2 F 0.2735(3) -0.10454(14) -0.03731(17) 0.0385(4) Uani 1 1 d . .
F3 F 0.6743(3) -0.16834(14) 0.05936(17) 0.0359(4) Uani 1 1 d . .
O4 O 0.8503(3) -0.11873(15) 0.4004(2) 0.0297(4) Uani 1 1 d . .
O5 O 0.6961(3) 0.06829(15) 0.4059(2) 0.0303(4) Uani 1 1 d D .
H5 H 0.868(3) 0.091(3) 0.464(3) 0.045 Uiso 1 1 d D U
C1 C 0.4328(4) -0.0721(2) 0.2448(3) 0.0253(5) Uani 1 1 d . .
C2 C 0.4409(4) -0.1398(2) 0.0959(3) 0.0275(5) Uani 1 1 d . .
C3 C 0.3423(5) -0.2024(2) 0.2206(3) 0.0289(5) Uani 1 1 d . .
H3A H 0.456379 -0.264653 0.281264 0.035 Uiso 1 1 calc R U
H3B H 0.150261 -0.218819 0.202892 0.035 Uiso 1 1 calc R U
C4 C 0.6799(4) -0.0412(2) 0.3600(3) 0.0232(5) Uani 1 1 d . .
loop_
_atom_site_aniso_label
_atom_site_aniso_U_11
_atom_site_aniso_U_22
_atom_site_aniso_U_33
_atom_site_aniso_U_23
_atom_site_aniso_U_13
_atom_site_aniso_U_12
F1 0.0258(7) 0.0306(8) 0.0422(9) -0.0040(6) 0.0037(6) 0.0061(6)
F2 0.0415(8) 0.0387(9) 0.0301(8) 0.0005(6) -0.0051(6) -0.0012(7)
F3 0.0327(8) 0.0404(9) 0.0378(8) -0.0071(6) 0.0143(6) 0.0003(6)
O4 0.0245(8) 0.0307(9) 0.0322(9) -0.0012(7) 0.0020(7) 0.0013(7)
O5 0.0286(9) 0.0280(9) 0.0329(9) -0.0059(7) 0.0032(7) -0.0029(7)
C1 0.0222(11) 0.0237(12) 0.0303(12) -0.0006(10) 0.0063(9) 0.0020(9)
C2 0.0267(11) 0.0290(12) 0.0254(12) -0.0021(10) 0.0021(9) 0.0004(10)
C3 0.0240(11) 0.0263(13) 0.0354(13) -0.0010(10) 0.0037(10) -0.0030(10)
C4 0.0247(11) 0.0271(12) 0.0192(10) 0.0007(9) 0.0076(9) -0.0016(9)
loop_
_atom_type_symbol
_atom_type_description
_atom_type_scat_dispersion_real
_atom_type_scat_dispersion_imag
_atom_type_scat_source
C C 0.0033 0.0016
;
International Tables for Crystallography
(Vol. C, Tables 4.2.6.8 and 6.1.1.4)
;
H H 0.0000 0.0000
;
International Tables for Crystallography
(Vol. C, Table 6.1.1.4)
;
F F 0.0171 0.0103
;
International Tables for Crystallography
(Vol. C, Tables 4.2.6.8 and 6.1.1.4)
;
O O 0.0106 0.0060
;
International Tables for Crystallography
(Vol. C, Tables 4.2.6.8 and 6.1.1.4)
;
loop_
_geom_angle_atom_site_label_1
_geom_angle_atom_site_label_2
_geom_angle_atom_site_label_3
_geom_angle
C4 O5 H5 114.4(19)
F1 C1 C4 113.83(19)
F1 C1 C2 115.76(19)
C4 C1 C2 121.14(19)
F1 C1 C3 116.92(18)
C4 C1 C3 120.56(19)
C2 C1 C3 57.40(15)
F3 C2 F2 109.04(19)
F3 C2 C3 121.3(2)
F2 C2 C3 120.3(2)
F3 C2 C1 120.09(19)
F2 C2 C1 116.9(2)
C3 C2 C1 62.78(16)
C2 C3 C1 59.82(16)
C2 C3 H3A 117.8
C1 C3 H3A 117.8
C2 C3 H3B 117.8
C1 C3 H3B 117.8
H3A C3 H3B 114.9
O4 C4 O5 125.9(2)
O4 C4 C1 119.3(2)
O5 C4 C1 114.78(19)
loop_
_geom_bond_atom_site_label_1
_geom_bond_atom_site_label_2
_geom_bond_distance
F1 C1 1.364(3)
F2 C2 1.344(3)
F3 C2 1.344(3)
O4 C4 1.235(3)
O5 C4 1.285(3)
O5 H5 0.960(10)
C1 C4 1.488(3)
C1 C2 1.491(3)
C1 C3 1.534(3)
C2 C3 1.453(3)
C3 H3A 0.9900
C3 H3B 0.9900
loop_
_geom_hbond_atom_site_label_D
_geom_hbond_atom_site_label_H
_geom_hbond_atom_site_label_A
_geom_hbond_distance_DH
_geom_hbond_distance_HA
_geom_hbond_distance_DA
_geom_hbond_angle_DHA
_geom_hbond_site_symmetry_A
_geom_hbond_publ_flag
O5 H5 O4 0.960(10) 1.697(12) 2.644(2) 168(3) 3_756 yes
loop_
_geom_torsion_atom_site_label_1
_geom_torsion_atom_site_label_2
_geom_torsion_atom_site_label_3
_geom_torsion_atom_site_label_4
_geom_torsion
F1 C1 C2 F3 141.1(2)
C4 C1 C2 F3 -3.6(3)
C3 C1 C2 F3 -112.2(2)
F1 C1 C2 F2 5.3(3)
C4 C1 C2 F2 -139.4(2)
C3 C1 C2 F2 112.0(2)
F1 C1 C2 C3 -106.7(2)
C4 C1 C2 C3 108.6(2)
F3 C2 C3 C1 110.3(2)
F2 C2 C3 C1 -106.8(2)
F1 C1 C3 C2 104.7(2)
C4 C1 C3 C2 -109.6(2)
F1 C1 C4 O4 168.00(19)
C2 C1 C4 O4 -46.7(3)
C3 C1 C4 O4 21.3(3)
F1 C1 C4 O5 -13.4(3)
C2 C1 C4 O5 131.9(2)
C3 C1 C4 O5 -160.1(2)
