#------------------------------------------------------------------------------
#$Date: 2019-11-17 06:22:28 +0200 (Sun, 17 Nov 2019) $
#$Revision: 228390 $
#$URL: file:///home/coder/svn-repositories/cod/cif/7/12/11/7121181.cif $
#------------------------------------------------------------------------------
#
# This file is available in the Crystallography Open Database (COD),
# http://www.crystallography.net/
#
# All data on this site have been placed in the public domain by the
# contributors.
#
data_7121181
loop_
_publ_author_name
'Huang, Yubing'
'Yan, Donghao'
'Wang, Xu'
'Zhou, Peiqi'
'Wu, Wanqing'
'Jiang, Huanfeng'
_publ_section_title
;
 Controllable assembly of the benzothiazole framework using a C[triple
 bond, length as m-dash]C triple bond as a one-carbon synthon.
;
_journal_issue                   14
_journal_name_full
'Chemical communications (Cambridge, England)'
_journal_page_first              1742
_journal_page_last               1745
_journal_paper_doi               10.1039/c7cc09855c
_journal_volume                  54
_journal_year                    2018
_chemical_formula_moiety         'C14 H10 Br N S'
_chemical_formula_sum            'C14 H10 Br N S'
_chemical_formula_weight         304.20
_space_group_crystal_system      triclinic
_space_group_IT_number           2
_space_group_name_Hall           '-P 1'
_space_group_name_H-M_alt        'P -1'
_symmetry_space_group_name_Hall  '-P 1'
_symmetry_space_group_name_H-M   'P -1'
_atom_sites_solution_hydrogens   geom
_audit_block_doi                 10.5517/ccdc.csd.cc1q3t8x
_audit_creation_date             2017-10-27
_audit_creation_method
;
Olex2 1.2
(compiled 2017.08.10 svn.r3458 for OlexSys, GUI svn.r5381)
;
_audit_update_record
;
2017-10-27 deposited with the CCDC.
2018-01-23 downloaded from the CCDC.
;
_cell_angle_alpha                82.039(2)
_cell_angle_beta                 85.191(3)
_cell_angle_gamma                89.175(3)
_cell_formula_units_Z            2
_cell_length_a                   6.6340(3)
_cell_length_b                   9.3287(3)
_cell_length_c                   9.7895(2)
_cell_measurement_reflns_used    7653
_cell_measurement_temperature    100.00(10)
_cell_measurement_theta_max      73.5120
_cell_measurement_theta_min      4.5610
_cell_volume                     597.89(4)
_computing_cell_refinement       'CrysAlisPro 1.171.38.43f (Rigaku OD, 2015)'
_computing_data_collection       'CrysAlisPro 1.171.38.43f (Rigaku OD, 2015)'
_computing_data_reduction        'CrysAlisPro 1.171.38.43f (Rigaku OD, 2015)'
_computing_molecular_graphics    'Olex2 (Dolomanov et al., 2009)'
_computing_publication_material  'Olex2 (Dolomanov et al., 2009)'
_computing_structure_refinement  'ShelXL (Sheldrick, 2015)'
_diffrn_ambient_environment      N~2~
_diffrn_ambient_temperature      100.00(10)
_diffrn_detector                 'CCD plate'
_diffrn_detector_area_resol_mean 5.2684
_diffrn_detector_type            AtlasS2
_diffrn_measured_fraction_theta_full 1.000
_diffrn_measured_fraction_theta_max 0.976
_diffrn_measurement_details
;
List of Runs (angles in degrees, time in seconds):

  # Type    Start    End  Width  t~exp~   \w     \q     \k     \f   Frames
#--------------------------------------------------------------------------
  1  \w      2.00  29.00   1.00    1.00    --   41.11 -99.00 150.00   27
  2  \w     52.00  80.00   1.00    1.00    --   41.11-125.00 120.00   28
  3  \w     49.00 117.00   1.00    1.00    --  106.95 -77.00   0.00   68
  4  \w     91.00 119.00   1.00    1.00    --  106.95-125.00-120.00   28
  5  \w     56.00  90.00   1.00    1.00    --  106.95-125.00-120.00   34
  6  \w     23.00  88.00   1.00    1.00    --   41.11-125.00-120.00   65
  7  \w     28.00  88.00   1.00    1.00    --  106.95 -94.00 -30.00   60
  8  \w     42.00 133.00   1.00    1.00    --  106.95 -30.00  30.00   91
  9  \w    139.00 178.00   1.00    1.00    --  106.95  30.00  90.00   39
 10  \w    131.00 176.00   1.00    1.00    --  106.95  61.00 -30.00   45
 11  \w    147.00 177.00   1.00    1.00    --  106.95 125.00-120.00   30
 12  \w     98.00 172.00   1.00    1.00    --  106.95 125.00  30.00   74
 13  \w     97.00 149.00   1.00    1.00    --  106.95 125.00   0.00   52
 14  \w     85.00 133.00   1.00    1.00    --  106.95  30.00  90.00   48
 15  \w     45.00  89.00   1.00    1.00    --  106.95 -94.00 150.00   44
 16  \w     36.00 126.00   1.00    1.00    --  106.95 -30.00 -90.00   90
 17  \w   -107.00  -2.00   1.00    1.00    --  -41.11 -19.00 -30.00  105
 18  \w   -115.00 -22.00   1.00    1.00    --  -41.11 -37.00 -90.00   93
 19  \w     -9.00  31.00   1.00    1.00    --  -41.23  57.00 -30.00   40
 20  \w   -114.00 -17.00   1.00    1.00    --  -41.23 -77.00-150.00   97
 21  \w    -63.00 -12.00   1.00    1.00    --  -41.23  57.00 -30.00   51
 22  \w     10.00  50.00   1.00    1.00    --   41.23  77.00 -60.00   40
 23  \w     17.00  82.00   1.00    1.00    --   41.23  57.00 120.00   65
 24  \w    -18.00  36.00   1.00    1.00    --   41.23 -77.00  60.00   54
 25  \w     10.00  46.00   1.00    1.00    --   41.23  70.00-156.41   36
 26  \w      9.00  60.00   1.00    1.00    --   41.23  77.00  30.00   51
 27  \w     74.00 109.00   1.00    1.00    --  106.95  77.00 150.00   35
 28  \w     75.00 101.00   1.00    1.00    --  106.95  77.00  60.00   26
 29  \w     75.00 101.00   1.00    1.00    --  106.95  77.00 -90.00   26
 30  \w    133.00 159.00   1.00    1.00    --  106.95  77.00 -90.00   26
 31  \w     78.00 134.00   1.00    1.00    --  106.95  61.00-180.00   56
 32  \w    119.00 171.00   1.00    1.00    --  106.95  61.00-150.00   52
 33  \w     78.00 141.00   1.00    1.00    --  106.95  61.00-120.00   63
 34  \w    146.00 172.00   1.00    1.00    --  106.95  77.00-180.00   26
 35  \w     75.00 100.00   1.00    1.00    --  106.95  77.00-150.00   25
 36  \w     74.00 100.00   1.00    1.00    --  106.95  77.00-180.00   26
 37  \w     79.00 124.00   1.00    1.00    --  106.95  61.00  30.00   45
 38  \w     74.00 100.00   1.00    1.00    --  106.95  77.00-120.00   26
 39  \w     75.00 118.00   1.00    1.00    --  106.95  77.00 120.00   43
 40  \w     80.00 106.00   1.00    1.00    --  106.95  61.00  60.00   26
 41  \w     78.00 132.00   1.00    1.00    --  106.95  61.00   0.00   54
 42  \w     78.00 118.00   1.00    1.00    --  106.95  61.00 -30.00   40
 43  \w     74.00 100.00   1.00    1.00    --  106.95  77.00  30.00   26
 44  \w     81.00 107.00   1.00    1.00    --  106.95  45.00 120.00   26
 45  \w     74.00 110.00   1.00    1.00    --  106.95  77.00 -60.00   36
 46  \w     80.00 116.00   1.00    1.00    --  106.95  61.00-150.00   36
 47  \w     80.00 110.00   1.00    1.00    --  106.95  61.00 -60.00   30
 48  \w     78.00 134.00   1.00    1.00    --  106.95  61.00 -90.00   56
 49  \w     75.00 101.00   1.00    1.00    --  106.95  77.00   0.00   26
 50  \w     75.00 117.00   1.00    1.00    --  106.95  77.00 -30.00   42
 51  \w     78.00 129.00   1.00    1.00    --  106.95  61.00 150.00   51
 52  \w     78.00 103.00   1.00    1.00    --  106.95  61.00 120.00   25
 53  \w    126.00 151.00   1.00    1.00    --  106.95 178.00   0.00   25
 54  \w     12.00  37.00   1.00    1.00    --   46.00  81.00 119.60   25
 55  \w     20.00  45.00   1.00    1.00    --   54.00  81.00 -66.74   25
 56  \w     28.00  67.00   1.00    1.00    --   58.00  76.00  66.94   39
 57  \w     26.00  59.00   1.00    1.00    --   58.00  76.00 -34.49   33
 58  \w     30.00  68.00   1.00    1.00    --   62.00  76.00-136.68   38
 59  \w     31.00  57.00   1.00    1.00    --   62.00  77.00  16.05   26
 60  \w     31.00  43.00   1.00    1.00    --   62.00  76.00 141.00   12
;
_diffrn_measurement_device       'four-circle diffractometer'
_diffrn_measurement_device_type  'SuperNova, Dual, Cu at zero, AtlasS2'
_diffrn_measurement_method       '\w scans'
_diffrn_orient_matrix_type
'CrysAlisPro convention (1999,Acta A55,543-557)'
_diffrn_orient_matrix_UB_11      0.0440553000
_diffrn_orient_matrix_UB_12      -0.0785361000
_diffrn_orient_matrix_UB_13      -0.1278359000
_diffrn_orient_matrix_UB_21      -0.0103913000
_diffrn_orient_matrix_UB_22      0.1455673000
_diffrn_orient_matrix_UB_23      -0.0952160000
_diffrn_orient_matrix_UB_31      0.2283954000
_diffrn_orient_matrix_UB_32      0.0212445000
_diffrn_orient_matrix_UB_33      0.0068006000
_diffrn_radiation_monochromator  mirror
_diffrn_radiation_probe          x-ray
_diffrn_radiation_type           CuK\a
_diffrn_radiation_wavelength     1.54184
_diffrn_reflns_av_R_equivalents  0.0315
_diffrn_reflns_av_unetI/netI     0.0222
_diffrn_reflns_Laue_measured_fraction_full 1.000
_diffrn_reflns_Laue_measured_fraction_max 0.976
_diffrn_reflns_limit_h_max       8
_diffrn_reflns_limit_h_min       -7
_diffrn_reflns_limit_k_max       11
_diffrn_reflns_limit_k_min       -11
_diffrn_reflns_limit_l_max       11
_diffrn_reflns_limit_l_min       -12
_diffrn_reflns_number            9253
_diffrn_reflns_point_group_measured_fraction_full 1.000
_diffrn_reflns_point_group_measured_fraction_max 0.976
_diffrn_reflns_theta_full        67.684
_diffrn_reflns_theta_max         73.476
_diffrn_reflns_theta_min         4.576
_diffrn_source                   'micro-focus sealed X-ray tube'
_diffrn_source_type              'SuperNova (Cu) X-ray Source'
_exptl_absorpt_coefficient_mu    6.091
_exptl_absorpt_correction_T_max  1.00000
_exptl_absorpt_correction_T_min  0.21539
_exptl_absorpt_correction_type   multi-scan
_exptl_absorpt_process_details
;
CrysAlisPro 1.171.38.43f (Rigaku Oxford Diffraction, 2015)
Empirical absorption correction using spherical harmonics,
 implemented in SCALE3 ABSPACK scaling algorithm.
;
_exptl_crystal_colour            colourless
_exptl_crystal_colour_primary    colourless
_exptl_crystal_density_diffrn    1.690
_exptl_crystal_description       block
_exptl_crystal_F_000             304
_exptl_crystal_size_max          0.14
_exptl_crystal_size_mid          0.12
_exptl_crystal_size_min          0.1
_refine_diff_density_max         0.615
_refine_diff_density_min         -0.543
_refine_diff_density_rms         0.101
_refine_ls_extinction_method     none
_refine_ls_goodness_of_fit_ref   1.053
_refine_ls_hydrogen_treatment    constr
_refine_ls_matrix_type           full
_refine_ls_number_parameters     154
_refine_ls_number_reflns         2350
_refine_ls_number_restraints     0
_refine_ls_restrained_S_all      1.053
_refine_ls_R_factor_all          0.0274
_refine_ls_R_factor_gt           0.0271
_refine_ls_shift/su_max          0.001
_refine_ls_shift/su_mean         0.000
_refine_ls_structure_factor_coef Fsqd
_refine_ls_weighting_details
'w=1/[\s^2^(Fo^2^)+(0.0456P)^2^+0.7760P] where P=(Fo^2^+2Fc^2^)/3'
_refine_ls_weighting_scheme      calc
_refine_ls_wR_factor_gt          0.0778
_refine_ls_wR_factor_ref         0.0780
_reflns_Friedel_coverage         0.000
_reflns_number_gt                2319
_reflns_number_total             2350
_reflns_threshold_expression     'I > 2\s(I)'
_iucr_refine_instructions_details
;
TITL 4d_a.res in P-1
    4d.res
    created by SHELXL-2017/1 at 18:03:38 on 27-Oct-2017
REM Old TITL 4d in P1 #1
REM SHELXT solution in P-1
REM R1 0.072, Rweak 0.009, Alpha 0.050, Orientation as input
REM Formula found by SHELXT: C14 N S Br
CELL 1.54184 6.634044 9.328745 9.789479 82.0392 85.1909 89.1748
ZERR 2 0.000324 0.000288 0.000245 0.0023 0.003 0.0032
LATT 1
SFAC C H Br N S
UNIT 28 20 2 2 2

L.S. 10 0 0
PLAN  20
SIZE 0.1 0.12 0.14
BOND $H
LIST 6
MORE -1
CONF
fmap 2 53
acta
REM <olex2.extras>
REM <HklSrc "%.\\4d.hkl">
REM </olex2.extras>

WGHT    0.045606    0.776009
FVAR       6.91334
BR1   3   -0.150155    0.699272   -0.084188    11.00000    0.02575    0.01882 =
         0.01508   -0.00410   -0.00553   -0.00329
S1    5    0.204355    0.794563    0.588965    11.00000    0.01495    0.01528 =
         0.01605    0.00010    0.00049    0.00139
N1    4    0.545981    0.794869    0.439257    11.00000    0.01498    0.01455 =
         0.01568   -0.00372   -0.00207   -0.00265
C7    1    0.372486    0.859333    0.447018    11.00000    0.01513    0.01403 =
         0.01330   -0.00358   -0.00238   -0.00457
C13   1   -0.112037    0.811485    0.168305    11.00000    0.01386    0.01490 =
         0.01779   -0.00108   -0.00214    0.00004
AFIX  43
H13   2   -0.246862    0.784783    0.188854    11.00000   -1.20000
AFIX   0
C9    1    0.193605    0.914049    0.232849    11.00000    0.01906    0.00953 =
         0.01430    0.00145   -0.00387    0.00000
C1    1    0.557015    0.684064    0.549649    11.00000    0.01635    0.01336 =
         0.01606   -0.00477   -0.00359   -0.00221
C6    1    0.384404    0.667009    0.643218    11.00000    0.01674    0.01248 =
         0.01547   -0.00487   -0.00342   -0.00057
C8    1    0.307076    0.977694    0.338590    11.00000    0.01898    0.01253 =
         0.01720   -0.00015   -0.00294   -0.00379
AFIX  23
H8A   2    0.424955    1.029647    0.292548    11.00000   -1.20000
H8B   2    0.220457    1.045776    0.382374    11.00000   -1.20000
AFIX   0
C12   1   -0.009728    0.788280    0.043344    11.00000    0.02090    0.01116 =
         0.01421   -0.00120   -0.00552    0.00010
C5    1    0.373756    0.561150    0.759278    11.00000    0.02288    0.01549 =
         0.01564   -0.00345   -0.00096   -0.00185
AFIX  43
H5    2    0.258647    0.550632    0.820871    11.00000   -1.20000
AFIX   0
C10   1    0.292139    0.888665    0.107349    11.00000    0.01630    0.01438 =
         0.01738    0.00220   -0.00029   -0.00202
AFIX  43
H10   2    0.427748    0.913415    0.087363    11.00000   -1.20000
AFIX   0
C14   1   -0.008739    0.875406    0.261914    11.00000    0.01786    0.01363 =
         0.01426   -0.00199   -0.00040    0.00220
AFIX  43
H14   2   -0.076051    0.892600    0.345321    11.00000   -1.20000
AFIX   0
C4    1    0.540840    0.472351    0.779374    11.00000    0.02845    0.01295 =
         0.02104   -0.00211   -0.00949   -0.00084
AFIX  43
H4    2    0.538035    0.401312    0.856184    11.00000   -1.20000
AFIX   0
C2    1    0.723391    0.592199    0.570959    11.00000    0.01596    0.01779 =
         0.02327   -0.00797   -0.00366    0.00035
AFIX  43
H2    2    0.838091    0.601255    0.508943    11.00000   -1.20000
AFIX   0
C3    1    0.713635    0.487374    0.686496    11.00000    0.02199    0.01325 =
         0.02984   -0.00710   -0.01127    0.00341
AFIX  43
H3    2    0.823609    0.426183    0.702436    11.00000   -1.20000
AFIX   0
C11   1    0.190802    0.826701    0.011050    11.00000    0.02257    0.01613 =
         0.01335   -0.00101    0.00111   -0.00059
AFIX  43
H11   2    0.256899    0.811500   -0.073346    11.00000   -1.20000
AFIX   0
HKLF 4




REM  4d_a.res in P-1
REM R1 =  0.0271 for    2319 Fo > 4sig(Fo)  and  0.0274 for all    2350 data
REM    154 parameters refined using      0 restraints

END  
     
WGHT      0.0472      0.5085 

REM Highest difference peak  0.615,  deepest hole -0.543,  1-sigma level  0.101
Q1    1  -0.0219  0.6170 -0.0432  11.00000  0.05    0.61
Q2    1  -0.2659  0.7860 -0.1178  11.00000  0.05    0.57
Q3    1  -0.1000  0.6068 -0.0526  11.00000  0.05    0.56
Q4    1  -0.0356  0.7751 -0.0776  11.00000  0.05    0.56
Q5    1   0.2999  0.7235  0.6223  11.00000  0.05    0.55
Q6    1  -0.3108  0.7333 -0.1202  11.00000  0.05    0.53
Q7    1  -0.2544  0.6065 -0.0805  11.00000  0.05    0.48
Q8    1  -0.2944  0.6599 -0.1011  11.00000  0.05    0.47
Q9    1   0.0453  0.5324 -0.0018  11.00000  0.05    0.47
Q10   1   0.2138  0.5484  1.0284  11.00000  0.05    0.42
Q11   1  -0.0900  0.4863 -0.0153  11.00000  0.05    0.42
Q12   1   0.1304  0.5865  1.0012  11.00000  0.05    0.40
Q13   1   0.6117  0.5420  0.9168  11.00000  0.05    0.39
Q14   1   0.4733  0.6953  0.6358  11.00000  0.05    0.37
Q15   1   0.0797  0.7206  0.5761  11.00000  0.05    0.37
Q16   1   0.0752  0.8810  0.5439  11.00000  0.05    0.36
Q17   1   0.3525  0.9138  0.3949  11.00000  0.05    0.35
Q18   1   0.1752  1.0238  0.5303  11.00000  0.05    0.34
Q19   1   0.0986  0.7574 -0.0586  11.00000  0.05    0.34
Q20   1   0.0740  1.1197  0.4858  11.00000  0.05    0.32

  REM The information below was added by Olex2.
  REM
  REM R1 = 0.0271 for 2319 Fo > 4sig(Fo) and 0.0274 for all 9253 data
  REM n/a parameters refined using n/a restraints
  REM Highest difference peak 0.61, deepest hole -0.54
  REM Mean Shift 0, Max Shift -0.001.

  REM +++ Tabular Listing of Refinement Information +++
  REM R1_all = 0.0274
  REM R1_gt = 0.0271
  REM wR_ref = 0.0780
  REM GOOF = 1.053
  REM Shift_max = -0.001
  REM Shift_mean = 0
  REM Reflections_all = 9253
  REM Reflections_gt = 2319
  REM Parameters = n/a
  REM Hole = -0.54
  REM Peak = 0.61
  REM Flack = n/a

  
;
_cod_data_source_file            c7cc09855c2.cif
_cod_data_source_block           4d
_cod_depositor_comments          'Adding full bibliography for 7121181.cif.'
_cod_database_code               7121181
_shelx_shelxl_version_number     2017/1
_shelx_space_group_comment
;
The symmetry employed for this shelxl refinement is uniquely defined
by the following loop, which should always be used as a source of
symmetry information in preference to the above space-group names.
They are only intended as comments.
;
_shelx_estimated_absorpt_t_max   0.581
_shelx_estimated_absorpt_t_min   0.483
_reflns_odcompleteness_completeness 99.95
_reflns_odcompleteness_iscentric 1
_reflns_odcompleteness_theta     66.97
_olex2_refinement_description
;
1. Fixed Uiso
 At 1.2 times of:
  All C(H) groups, All C(H,H) groups
2.a Secondary CH2 refined with riding coordinates:
 C8(H8A,H8B)
2.b Aromatic/amide H refined with riding coordinates:
 C13(H13), C5(H5), C10(H10), C14(H14), C4(H4), C2(H2), C3(H3), C11(H11)
;
_olex2_submission_special_instructions 'No special instructions were received'
_oxdiff_exptl_absorpt_empirical_details
;
Empirical correction (ABSPACK) includes:
- Absorption correction using spherical harmonics
- Frame scaling
- Detector area scaling
;
_oxdiff_exptl_absorpt_empirical_full_max 3.438
_oxdiff_exptl_absorpt_empirical_full_min 0.516
loop_
_space_group_symop_operation_xyz
'x, y, z'
'-x, -y, -z'
loop_
_atom_site_label
_atom_site_type_symbol
_atom_site_fract_x
_atom_site_fract_y
_atom_site_fract_z
_atom_site_U_iso_or_equiv
_atom_site_adp_type
_atom_site_occupancy
_atom_site_site_symmetry_order
_atom_site_calc_flag
_atom_site_refinement_flags_posn
Br1 Br -0.15015(4) 0.69927(2) -0.08419(2) 0.01947(11) Uani 1 1 d .
S1 S 0.20436(9) 0.79456(6) 0.58897(5) 0.01576(14) Uani 1 1 d .
N1 N 0.5460(3) 0.7949(2) 0.43926(19) 0.0148(4) Uani 1 1 d .
C7 C 0.3725(3) 0.8593(2) 0.4470(2) 0.0139(4) Uani 1 1 d .
C13 C -0.1120(4) 0.8115(2) 0.1683(2) 0.0156(4) Uani 1 1 d .
H13 H -0.246862 0.784783 0.188854 0.019 Uiso 1 1 calc R
C9 C 0.1936(4) 0.9140(2) 0.2328(2) 0.0144(4) Uani 1 1 d .
C1 C 0.5570(4) 0.6841(2) 0.5496(2) 0.0149(4) Uani 1 1 d .
C6 C 0.3844(4) 0.6670(2) 0.6432(2) 0.0145(4) Uani 1 1 d .
C8 C 0.3071(4) 0.9777(2) 0.3386(2) 0.0163(5) Uani 1 1 d .
H8A H 0.424955 1.029647 0.292548 0.020 Uiso 1 1 calc R
H8B H 0.220457 1.045776 0.382374 0.020 Uiso 1 1 calc R
C12 C -0.0097(4) 0.7883(2) 0.0433(2) 0.0152(4) Uani 1 1 d .
C5 C 0.3738(4) 0.5612(2) 0.7593(2) 0.0179(5) Uani 1 1 d .
H5 H 0.258647 0.550632 0.820871 0.021 Uiso 1 1 calc R
C10 C 0.2921(4) 0.8887(2) 0.1073(2) 0.0165(5) Uani 1 1 d .
H10 H 0.427748 0.913415 0.087363 0.020 Uiso 1 1 calc R
C14 C -0.0087(4) 0.8754(2) 0.2619(2) 0.0153(4) Uani 1 1 d .
H14 H -0.076051 0.892600 0.345321 0.018 Uiso 1 1 calc R
C4 C 0.5408(4) 0.4724(3) 0.7794(3) 0.0204(5) Uani 1 1 d .
H4 H 0.538035 0.401312 0.856184 0.024 Uiso 1 1 calc R
C2 C 0.7234(4) 0.5922(3) 0.5710(3) 0.0184(5) Uani 1 1 d .
H2 H 0.838091 0.601255 0.508943 0.022 Uiso 1 1 calc R
C3 C 0.7136(4) 0.4874(3) 0.6865(3) 0.0208(5) Uani 1 1 d .
H3 H 0.823609 0.426183 0.702436 0.025 Uiso 1 1 calc R
C11 C 0.1908(4) 0.8267(2) 0.0111(2) 0.0176(5) Uani 1 1 d .
H11 H 0.256899 0.811500 -0.073346 0.021 Uiso 1 1 calc R
loop_
_atom_site_aniso_label
_atom_site_aniso_U_11
_atom_site_aniso_U_22
_atom_site_aniso_U_33
_atom_site_aniso_U_23
_atom_site_aniso_U_13
_atom_site_aniso_U_12
Br1 0.02575(17) 0.01882(15) 0.01508(15) -0.00410(10) -0.00553(10) -0.00329(10)
S1 0.0150(3) 0.0153(3) 0.0161(3) 0.0001(2) 0.0005(2) 0.0014(2)
N1 0.0150(10) 0.0145(9) 0.0157(9) -0.0037(7) -0.0021(7) -0.0026(7)
C7 0.0151(11) 0.0140(10) 0.0133(10) -0.0036(8) -0.0024(8) -0.0046(8)
C13 0.0139(11) 0.0149(10) 0.0178(11) -0.0011(8) -0.0021(8) 0.0000(8)
C9 0.0191(12) 0.0095(10) 0.0143(10) 0.0015(8) -0.0039(8) 0.0000(8)
C1 0.0164(11) 0.0134(10) 0.0161(11) -0.0048(8) -0.0036(8) -0.0022(8)
C6 0.0167(11) 0.0125(10) 0.0155(10) -0.0049(8) -0.0034(8) -0.0006(8)
C8 0.0190(12) 0.0125(10) 0.0172(11) -0.0001(8) -0.0029(9) -0.0038(8)
C12 0.0209(12) 0.0112(10) 0.0142(10) -0.0012(8) -0.0055(9) 0.0001(8)
C5 0.0229(13) 0.0155(11) 0.0156(11) -0.0034(8) -0.0010(9) -0.0019(9)
C10 0.0163(12) 0.0144(10) 0.0174(11) 0.0022(8) -0.0003(9) -0.0020(9)
C14 0.0179(12) 0.0136(10) 0.0143(10) -0.0020(8) -0.0004(8) 0.0022(8)
C4 0.0285(14) 0.0130(10) 0.0210(12) -0.0021(9) -0.0095(10) -0.0008(9)
C2 0.0160(12) 0.0178(11) 0.0233(12) -0.0080(9) -0.0037(9) 0.0003(9)
C3 0.0220(13) 0.0132(11) 0.0298(13) -0.0071(9) -0.0113(10) 0.0034(9)
C11 0.0226(13) 0.0161(11) 0.0133(10) -0.0010(8) 0.0011(9) -0.0006(9)
loop_
_atom_type_symbol
_atom_type_description
_atom_type_scat_dispersion_real
_atom_type_scat_dispersion_imag
_atom_type_scat_source
C C 0.0181 0.0091 'International Tables Vol C Tables 4.2.6.8 and 6.1.1.4'
H H 0.0000 0.0000 'International Tables Vol C Tables 4.2.6.8 and 6.1.1.4'
Br Br -0.6763 1.2805 'International Tables Vol C Tables 4.2.6.8 and 6.1.1.4'
N N 0.0311 0.0180 'International Tables Vol C Tables 4.2.6.8 and 6.1.1.4'
S S 0.3331 0.5567 'International Tables Vol C Tables 4.2.6.8 and 6.1.1.4'
loop_
_geom_angle_atom_site_label_1
_geom_angle_atom_site_label_2
_geom_angle_atom_site_label_3
_geom_angle
C6 S1 C7 89.05(11)
C7 N1 C1 110.49(19)
N1 C7 S1 116.07(17)
N1 C7 C8 123.8(2)
C8 C7 S1 120.05(17)
C12 C13 H13 120.7
C14 C13 H13 120.7
C14 C13 C12 118.7(2)
C10 C9 C8 120.5(2)
C14 C9 C8 120.5(2)
C14 C9 C10 118.9(2)
N1 C1 C6 115.3(2)
N1 C1 C2 125.0(2)
C2 C1 C6 119.8(2)
C1 C6 S1 109.12(16)
C5 C6 S1 129.11(19)
C5 C6 C1 121.8(2)
C7 C8 C9 110.33(17)
C7 C8 H8A 109.6
C7 C8 H8B 109.6
C9 C8 H8A 109.6
C9 C8 H8B 109.6
H8A C8 H8B 108.1
C13 C12 Br1 118.73(18)
C11 C12 Br1 119.71(17)
C11 C12 C13 121.6(2)
C6 C5 H5 121.2
C4 C5 C6 117.6(2)
C4 C5 H5 121.2
C9 C10 H10 119.5
C9 C10 C11 121.0(2)
C11 C10 H10 119.5
C13 C14 C9 121.1(2)
C13 C14 H14 119.5
C9 C14 H14 119.5
C5 C4 H4 119.3
C5 C4 C3 121.3(2)
C3 C4 H4 119.3
C1 C2 H2 120.7
C3 C2 C1 118.6(2)
C3 C2 H2 120.7
C4 C3 H3 119.5
C2 C3 C4 121.0(2)
C2 C3 H3 119.5
C12 C11 C10 118.8(2)
C12 C11 H11 120.6
C10 C11 H11 120.6
loop_
_geom_bond_atom_site_label_1
_geom_bond_atom_site_label_2
_geom_bond_distance
Br1 C12 1.903(2)
S1 C7 1.751(2)
S1 C6 1.736(2)
N1 C7 1.292(3)
N1 C1 1.394(3)
C7 C8 1.508(3)
C13 H13 0.9300
C13 C12 1.391(3)
C13 C14 1.390(3)
C9 C8 1.518(3)
C9 C10 1.391(3)
C9 C14 1.391(3)
C1 C6 1.402(3)
C1 C2 1.399(3)
C6 C5 1.396(3)
C8 H8A 0.9700
C8 H8B 0.9700
C12 C11 1.382(4)
C5 H5 0.9300
C5 C4 1.385(4)
C10 H10 0.9300
C10 C11 1.394(3)
C14 H14 0.9300
C4 H4 0.9300
C4 C3 1.398(4)
C2 H2 0.9300
C2 C3 1.387(4)
C3 H3 0.9300
C11 H11 0.9300
loop_
_geom_torsion_atom_site_label_1
_geom_torsion_atom_site_label_2
_geom_torsion_atom_site_label_3
_geom_torsion_atom_site_label_4
_geom_torsion
Br1 C12 C11 C10 -178.51(16)
S1 C7 C8 C9 -84.1(2)
S1 C6 C5 C4 -179.74(18)
N1 C7 C8 C9 92.2(3)
N1 C1 C6 S1 0.2(2)
N1 C1 C6 C5 -179.6(2)
N1 C1 C2 C3 179.4(2)
C7 S1 C6 C1 0.10(17)
C7 S1 C6 C5 179.8(2)
C7 N1 C1 C6 -0.4(3)
C7 N1 C1 C2 179.2(2)
C13 C12 C11 C10 0.7(3)
C9 C10 C11 C12 -1.1(3)
C1 N1 C7 S1 0.5(2)
C1 N1 C7 C8 -175.9(2)
C1 C6 C5 C4 0.0(3)
C1 C2 C3 C4 0.6(4)
C6 S1 C7 N1 -0.38(18)
C6 S1 C7 C8 176.20(18)
C6 C1 C2 C3 -1.0(3)
C6 C5 C4 C3 -0.4(3)
C8 C9 C10 C11 178.3(2)
C8 C9 C14 C13 -177.3(2)
C12 C13 C14 C9 -0.8(3)
C5 C4 C3 C2 0.1(4)
C10 C9 C8 C7 -97.9(2)
C10 C9 C14 C13 0.4(3)
C14 C13 C12 Br1 179.46(16)
C14 C13 C12 C11 0.2(3)
C14 C9 C8 C7 79.8(3)
C14 C9 C10 C11 0.5(3)
C2 C1 C6 S1 -179.49(17)
C2 C1 C6 C5 0.8(3)
loop_
_refln_index_h
_refln_index_k
_refln_index_l
_refln_F_squared_meas
_refln_F_squared_sigma
_refln_scale_group_code
-7 4 3 10337 475.822 50
-7 4 3 10527.1 479.82 41
-7 5 -1 167.072 65.8195 45
-7 5 0 24280.9 774.82 42
-7 5 2 1670.43 194.843 50
-6 -6 -5 14545.7 512.203 27
-6 -5 -7 8234.6 381.208 36
-6 -5 4 13319.3 462.628 28
-6 -4 -7 17327.7 606.654 36
-6 -4 -1 23696.9 927.801 60
-6 -4 0 828.892 170.153 60
-6 -4 5 11216.8 434.875 28
-6 -3 -4 9378.04 565.677 58
-6 -3 5 8594.09 399.813 40
-6 -2 -4 22604.2 943.374 58
-6 -2 1 33200.3 1318.18 56
-6 -2 2 15841.8 851.164 56
-6 -2 5 25809.1 831.067 43
-6 -2 6 13021.3 481.438 43
-6 -2 7 5737.92 260.628 28
-6 -1 -8 6860.05 358.576 35
-6 -1 1 210.275 108.297 56
-6 -1 2 33599.3 1304.49 56
-6 -1 6 12555.7 530.584 43
-6 -1 7 150.062 50.2554 43
-6 0 -8 5178.56 310.393 33
-6 0 -3 39889.2 1629.48 55
-6 0 -2 2696.03 376.826 55
-6 0 1 293.221 108.558 59
-6 0 2 4781.3 430.761 59
-6 0 3 12643.2 767.651 56
-6 0 3 14248.7 797.04 59
-6 0 6 15601.4 582.666 37
-6 0 7 803.319 115.299 43
-6 1 -3 29560.6 1398.42 55
-6 1 -2 1126.38 250.635 55
-6 1 -2 1142.13 226.31 57
-6 1 -1 560.519 154.962 57
-6 1 -1 625.724 179.709 55
-6 1 1 332.053 113.245 59
-6 1 2 49827.1 1525.02 59
-6 1 3 8050.25 584.062 59
-6 1 6 23610.2 796.871 37
-6 1 6 22828.7 780.098 49
-6 1 7 5723.49 311.181 43
-6 1 7 4992.69 281.561 37
-6 2 -8 8590.69 382.912 38
-6 2 -7 13541.7 592.675 38
-6 2 -3 35161.6 1413.29 57
-6 2 -2 28335.9 1315.95 55
-6 2 -2 32308.3 1279.3 57
-6 2 -1 9267.75 632.188 57
-6 2 0 6317.69 503.308 57
-6 2 1 1184.98 217.27 57
-6 2 2 423.84 129.473 59
-6 2 3 27048.2 1098.21 59
-6 2 6 8333.68 464.323 49
-6 2 7 22225.1 659.654 37
-6 2 7 19338.4 608.492 49
-6 3 -7 251.78 86.8265 48
-6 3 -7 284.355 81.8287 38
-6 3 -6 18974.1 769.783 38
-6 3 -2 12010.1 766.676 57
-6 3 -1 1999.19 298.772 57
-6 3 0 30289.7 1195.17 57
-6 3 1 17958.3 879.207 57
-6 3 2 2326.09 291.075 59
-6 3 4 31204.9 1089.54 50
-6 3 5 5840.57 423.687 41
-6 3 6 8257.57 452.92 49
-6 3 7 26498.9 735.898 49
-6 3 7 28013.6 754.288 37
-6 4 -7 5294.45 301.204 29
-6 4 -6 545.756 127.038 48
-6 4 -5 36240.3 1189.87 48
-6 4 4 25010.6 953.358 50
-6 4 5 1361.21 201.196 41
-6 4 5 1242.47 189.989 50
-6 4 6 1500.5 180.145 41
-6 4 6 1579.65 187.942 49
-6 5 -6 36952.2 980.239 29
-6 5 -5 9895.77 544.966 29
-6 5 -4 5227.12 438.737 29
-6 5 -3 348.317 132.937 29
-6 5 -2 21198.3 907.408 29
-6 5 -1 13084.7 650.674 47
-6 5 1 4800.87 385.194 45
-6 5 2 24006 910.344 42
-6 5 3 6711.86 452.963 42
-6 5 4 19120.6 792.253 50
-6 5 5 4554.48 350.589 41
-6 5 5 3809.06 311.619 50
-6 5 6 13284.2 501.238 49
-6 5 6 11932.4 484.863 41
-6 6 -5 25261.3 774.802 29
-6 6 -5 24567.9 767.867 47
-6 6 -4 3467.1 308.379 47
-6 6 -4 3785.09 321.936 29
-6 6 -3 4644.22 377.422 29
-6 6 -3 5182.45 400.268 47
-6 6 -2 2664.38 283.62 29
-6 6 -2 3152.38 306.154 47
-6 6 -1 17903.1 741.734 47
-6 6 0 102.53 70.0447 45
-6 6 1 14340.9 669.127 45
-6 6 2 20972 799.97 45
-6 6 2 24217.2 879.152 42
-6 6 3 11813.8 586.151 42
-6 6 3 11911.5 595.804 50
-6 6 4 4216.67 336.396 50
-6 6 5 8296.83 423.651 41
-6 6 5 7460.74 377.839 49
-6 6 5 7024.1 386.775 50
-6 7 -3 973.954 159.687 45
-6 7 -2 9734.69 498.576 47
-6 7 -2 10533.8 561.742 45
-6 7 -1 5767.79 414.991 45
-6 7 -1 4857.26 341.171 47
-6 7 0 738.554 149.071 45
-6 7 1 907.835 163.009 45
-6 7 1 855.417 151.77 42
-6 7 2 39611.9 1129.84 50
-6 7 2 39362.3 1104.93 42
-6 7 3 120.452 73.3631 50
-6 7 3 76.7227 47.0407 42
-5 -9 -4 316.889 65.0365 27
-5 -9 -3 919.175 108.24 51
-5 -9 -2 17113.3 525.133 51
-5 -9 -2 16653.6 530.945 39
-5 -9 -1 27956.1 733.205 39
-5 -9 0 729.61 98.9327 39
-5 -8 -6 5962 301.757 31
-5 -8 -6 5865.06 295.789 27
-5 -8 -5 20590 645.679 27
-5 -8 -4 38518.6 953.414 51
-5 -8 -3 8502.18 403.53 39
-5 -8 -1 5198.54 308.17 52
-5 -8 0 175.928 62.2271 52
-5 -8 1 8018.78 391.039 52
-5 -8 2 23024.5 673.378 52
-5 -8 3 70.7274 32.0832 52
-5 -7 -7 14008.7 491.703 27
-5 -7 -7 16023.9 541.499 31
-5 -7 -6 5180.17 317.961 27
-5 -7 -4 33865.6 942.995 51
-5 -7 -1 13248.3 573.405 52
-5 -7 3 10327.7 448.245 44
-5 -7 4 9260.48 369.865 44
-5 -6 -8 67.696 49.0527 36
-5 -6 -7 26214.5 807.615 31
-5 -6 -6 19582.4 703.621 27
-5 -6 0 22683.1 930.342 60
-5 -6 3 56.2977 47.2559 28
-5 -6 4 3383.01 257.926 28
-5 -6 5 6345.34 309.078 28
-5 -5 -9 21489.7 651.756 46
-5 -5 -9 22268.3 647.197 36
-5 -5 -8 9380.37 461.986 36
-5 -5 -7 27782.3 877.291 31
-5 -5 -1 16272.7 757.505 60
-5 -5 0 5107.48 426.254 60
-5 -5 5 14404.2 569.746 28
-5 -5 6 3794.32 238.596 28
-5 -4 -9 15708.3 573.694 46
-5 -4 -9 15462.1 551.686 36
-5 -4 -8 3903.21 306.066 36
-5 -4 -6 62352.7 1671.38 58
-5 -4 -2 45972 1330.17 60
-5 -4 -1 60105.4 1693.54 54
-5 -4 0 25196 1052.16 54
-5 -4 1 9490.85 645.282 54
-5 -4 1 8351.74 589.194 56
-5 -4 2 21029.8 948.64 56
-5 -4 3 11711.8 670.768 56
-5 -4 4 2878.01 285.779 40
-5 -4 5 14566.8 630.665 40
-5 -4 6 35172.8 959.194 40
-5 -4 7 891.907 110.226 40
-5 -4 7 1000.28 118.5 28
-5 -3 -10 16743 517.361 35
-5 -3 -9 29828.6 850.595 46
-5 -3 -9 25621.8 768.673 36
-5 -3 -8 2784.96 263.555 36
-5 -3 -6 53402 1541.51 58
-5 -3 -5 7603.86 497.503 58
-5 -3 -3 5239.84 380.259 25
-5 -3 -2 711.663 139.401 25
-5 -3 -2 777.148 156.455 54
-5 -3 -2 749.386 144.276 60
-5 -3 -1 5616.43 384.665 25
-5 -3 -1 6731.71 479.797 54
-5 -3 0 37656.5 1299.65 54
-5 -3 1 22889.5 1020.57 54
-5 -3 1 23921.3 1063.98 56
-5 -3 2 34584.9 1321.8 54
-5 -3 2 40109.2 1384.78 56
-5 -3 3 23708.3 1009.54 56
-5 -3 4 682.33 165.539 56
-5 -3 5 4073.61 334.813 43
-5 -3 6 17407.6 665.345 43
-5 -3 7 10908.2 448.553 43
-5 -3 7 11362.9 476.074 40
-5 -3 8 1968.38 145.109 28
-5 -2 -10 1383.86 150.331 35
-5 -2 -10 1731.49 172.943 33
-5 -2 -9 32540.5 918.162 46
-5 -2 -8 27045.8 919.784 46
-5 -2 -7 25438.5 1031.78 58
-5 -2 -6 23748.6 976.897 58
-5 -2 -5 431.727 122.595 58
-5 -2 -4 620.262 136.666 25
-5 -2 -4 474.38 185.548 20
-5 -2 -3 109076 2256.61 25
-5 -2 -2 59608.3 1443.33 25
-5 -2 -1 25831.5 971.15 54
-5 -2 0 63861.1 1893.38 56
-5 -2 0 64157 1758.03 54
-5 -2 1 5625.26 493.134 56
-5 -2 2 123.22 78.8226 23
-5 -2 2 137.735 97.785 56
-5 -2 3 27955.5 1126.21 56
-5 -2 4 17073.5 837.256 56
-5 -2 6 9045.03 509.763 43
-5 -2 7 4609.06 317.441 43
-5 -2 8 678.888 100.426 43
-5 -2 8 735.865 104.951 28
-5 -2 8 783.421 109.996 40
-5 -1 -10 42600.8 984.998 33
-5 -1 -10 40621.7 951.089 35
-5 -1 -9 6229.19 376.76 35
-5 -1 -7 897.901 192.569 58
-5 -1 -6 46221.1 1471.15 58
-5 -1 -5 2520.4 300.89 58
-5 -1 -4 9866.55 754.409 20
-5 -1 -4 11694.5 628.527 58
-5 -1 -3 21211.2 1064.19 20
-5 -1 -2 1467.66 259.881 20
-5 -1 -2 1172.59 224.72 22
-5 -1 -1 30780.8 1036.78 54
-5 -1 -1 26833 919.488 26
-5 -1 0 26858.1 926.504 26
-5 -1 1 51482.6 1363.24 59
-5 -1 1 46475.8 1376.81 26
-5 -1 2 7412.5 491.695 59
-5 -1 2 7093.55 506.798 26
-5 -1 3 20856.1 987.947 26
-5 -1 3 24409.4 1003.42 59
-5 -1 3 23537.5 1016.47 56
-5 -1 4 3622.35 384.254 56
-5 -1 5 27608.8 1109.43 56
-5 -1 6 27021.4 949.139 37
-5 -1 7 24721.9 829.382 37
-5 -1 7 26637.2 870.633 43
-5 -1 8 614.036 103.73 43
-5 -1 8 456.587 92.5652 37
-5 0 -10 13901.1 469.281 38
-5 0 -10 13636.8 475.092 33
-5 0 -9 33685 978.466 33
-5 0 -9 32363.5 930.53 35
-5 0 -8 5027.35 373.754 35
-5 0 -7 2164.92 291.168 58
-5 0 -6 19680 928.414 58
-5 0 -5 57648.6 1703.92 58
-5 0 -4 55503.6 1607.08 58
-5 0 -4 50994.9 1917.35 22
-5 0 -4 51108.8 1806.24 20
-5 0 -3 87457.5 2397.91 20
-5 0 -3 90652.9 2544.21 22
-5 0 -2 48539.3 1587.47 22
-5 0 -1 189.859 85.8647 22
-5 0 -1 206.529 96.1045 55
-5 0 0 15755.4 697.067 26
-5 0 0 15612.5 716.43 55
-5 0 0 16599.3 708.948 57
-5 0 1 18611.9 788.272 26
-5 0 2 9757.88 593.222 26
-5 0 2 10793.4 585.239 59
-5 0 3 30212.8 1184.56 26
-5 0 3 33216.8 1168.68 59
-5 0 4 9244.71 636.366 59
-5 0 4 9393.94 637.706 56
-5 0 5 130.519 90.7576 56
-5 0 6 9136 542.812 49
-5 0 7 11177.8 536.82 49
-5 0 7 11941.2 574.056 37
-5 0 8 12078.8 503.119 37
-5 0 8 12927.8 504.862 43
-5 1 -9 345.354 89.3504 33
-5 1 -9 326.079 84.7268 38
-5 1 -9 256.58 73.7273 35
-5 1 -8 4566.55 367.245 33
-5 1 -8 4882.62 358.511 35
-5 1 -7 38779.2 1218 35
-5 1 -6 10007.5 661.49 58
-5 1 -5 35394.9 1544.98 55
-5 1 -5 32704 1285.72 58
-5 1 -4 204.68 111.1 58
-5 1 -4 276.332 151.965 22
-5 1 -4 180.171 126.693 20
-5 1 -4 278.327 152.553 55
-5 1 -3 1592.7 305.52 55
-5 1 -3 1407.6 278.361 22
-5 1 -2 47758.2 1604.15 22
-5 1 -2 49276.6 1624.11 55
-5 1 -1 27136.5 1066.06 22
-5 1 -1 28534.5 1089.84 55
-5 1 0 4815.38 396.862 55
-5 1 0 4957.49 382.613 26
-5 1 0 4708.55 391.108 22
-5 1 0 4899.53 387.248 57
-5 1 1 121814 2589.53 26
-5 1 1 121654 2560.9 57
-5 1 2 19447.6 798.232 59
-5 1 2 17966.7 812.615 26
-5 1 3 1093.5 198.524 59
-5 1 3 710.673 169.272 26
-5 1 4 101471 2466.65 59
-5 1 5 44302.7 1535.24 56
-5 1 6 4877.49 409.081 49
-5 1 7 43668.7 1244.26 37
-5 1 7 40052.5 1199.27 49
-5 1 8 1154.88 153.285 37
-5 1 8 900.371 130.689 49
-5 1 8 1134.98 151.399 43
-5 2 -9 1930.99 183.881 38
-5 2 -9 1757.58 181.098 33
-5 2 -8 18785.2 754.095 33
-5 2 -7 3215.98 340.56 33
-5 2 -6 9914.09 674.513 33
-5 2 -5 105307 2997.77 55
-5 2 -4 18706.6 1101.6 55
-5 2 -3 23806.6 1216.94 22
-5 2 -3 25373.6 1238.1 55
-5 2 -2 24560.5 1123.33 55
-5 2 -2 22306.2 1081.24 22
-5 2 -1 3071.59 355.853 22
-5 2 -1 3041.44 322.94 57
-5 2 -1 3088.37 360.594 55
-5 2 0 555.449 136.066 57
-5 2 0 622.707 151.931 55
-5 2 0 560.189 144.058 22
-5 2 1 100351 2289.81 57
-5 2 1 100579 2292.92 26
-5 2 2 16693.6 764.389 57
-5 2 2 16063.6 766.366 26
-5 2 3 722.665 158.901 59
-5 2 4 30325.9 1152.18 59
-5 2 5 418.583 150.617 41
-5 2 5 250.575 123.952 59
-5 2 6 655.909 155.514 41
-5 2 7 22143.9 835.414 49
-5 2 7 20884.4 810.021 41
-5 2 8 15375.7 585.709 49
-5 2 8 16322.3 604.68 37
-5 2 8 15712.4 579.772 43
-5 3 -9 5533.6 287.531 38
-5 3 -9 5585.58 299.397 48
-5 3 -8 33916.9 1014.4 33
-5 3 -8 35973.7 1019.3 38
-5 3 -7 29260.5 1021.24 38
-5 3 -7 27365.4 1025.01 33
-5 3 -4 37856 1679.46 55
-5 3 -3 441.259 163.157 55
-5 3 -2 54807.5 1652.54 57
-5 3 -2 55025.5 1837.07 55
-5 3 -1 24221.9 984.938 57
-5 3 -1 21489.4 1018.66 22
-5 3 -1 22462.1 1031.53 55
-5 3 0 2638.29 320.474 22
-5 3 0 1960.19 267.509 57
-5 3 1 8223.97 541.321 57
-5 3 1 7138.61 501.246 26
-5 3 2 84756.4 2114.34 57
-5 3 3 4486.18 390.637 59
-5 3 4 99509.8 2381.05 59
-5 3 5 10760.8 690.522 59
-5 3 5 10948 658.541 50
-5 3 6 3293.19 347.458 41
-5 3 7 5272.73 384.201 49
-5 3 7 5737.27 411.115 41
-5 3 8 13798 532.859 37
-5 3 8 13449.2 532.772 49
-5 3 8 13445 514.13 43
-5 4 -8 434.35 90.9962 29
-5 4 -8 408.397 97.6395 48
-5 4 -8 565.754 106.19 38
-5 4 -7 27545.8 984.684 48
-5 4 -7 26387.1 922.074 38
-5 4 -6 11901.4 674.035 38
-5 4 -5 24715.1 1098.9 38
-5 4 -4 20373.6 1138.09 57
-5 4 -4 20566 1045.39 38
-5 4 -3 2981.6 398.335 57
-5 4 -2 1363.24 251.769 57
-5 4 -1 33370.9 1229.48 57
-5 4 0 31881.9 1174.01 57
-5 4 1 11122.9 658.42 57
-5 4 2 9008.39 600.991 57
-5 4 3 12927.3 700.381 59
-5 4 4 17332 856.158 59
-5 4 5 27152.2 1069.35 50
-5 4 6 12175.1 677.681 41
-5 4 6 12182 666.177 50
-5 4 7 3108.31 282.55 49
-5 4 7 3902.34 334.168 41
-5 4 8 12207.7 475.924 37
-5 4 8 11866.5 469.196 49
-5 4 8 11347.1 465.952 41
-5 5 -7 15263.3 605.382 29
-5 5 -7 16196.4 651.24 48
-5 5 -7 14869.8 596.685 38
-5 5 -6 6390.21 452.815 38
-5 5 -6 7144.35 506.023 48
-5 5 -5 134.553 107.288 38
-5 5 -5 276.276 120.665 48
-5 5 -4 33667.8 1330.14 48
-5 5 -3 7791.91 589.726 48
-5 5 -2 16690.6 946.121 57
-5 5 -1 1088.04 220.663 57
-5 5 0 1423.21 245.695 57
-5 5 1 2041.43 284.662 57
-5 5 2 66042.8 1773.55 45
-5 5 3 26569.9 1065.61 59
-5 5 3 29748.6 1099.71 42
-5 5 4 8752.76 577.841 42
-5 5 5 2182.19 289.266 42
-5 5 5 2041.07 279.701 50
-5 5 6 2503.79 284.439 41
-5 5 6 2243.3 273.338 50
-5 5 7 1295.25 169.205 49
-5 5 7 1104.11 164.86 50
-5 5 7 1422.54 187.86 41
-5 5 8 7423.92 328 49
-5 6 -6 17901.9 685.131 29
-5 6 -6 16764.2 697.576 48
-5 6 -5 1796.11 256.843 48
-5 6 -5 2387.63 286.734 29
-5 6 -4 21061.1 984.391 29
-5 6 -4 17977 881.833 48
-5 6 -3 16777.3 908.263 29
-5 6 -3 16341.3 820.235 48
-5 6 -2 7625.16 586.556 29
-5 6 -1 33289.1 1214.56 29
-5 6 0 21020.4 887.614 47
-5 6 1 2954.24 311.097 47
-5 6 2 33748.9 1168.47 45
-5 6 3 7137.21 495.437 45
-5 6 3 7823.95 525.803 42
-5 6 4 1851.71 256.586 50
-5 6 4 1777.25 252.458 42
-5 6 5 16259.5 773.969 42
-5 6 5 16442 764.422 50
-5 6 6 9749.71 493.599 49
-5 6 6 10027.2 540.671 50
-5 6 6 9815.81 524.455 41
-5 6 7 50.8518 53.9738 41
-5 6 7 -15.5428 39.4087 50
-5 6 7 26.7445 38.9695 49
-5 7 -5 75.6468 46.6534 45
-5 7 -5 95.2186 64.8426 47
-5 7 -5 86.7057 55.4735 29
-5 7 -5 10.9368 59.6221 48
-5 7 -4 23991.1 934.271 47
-5 7 -4 25992.6 986.796 29
-5 7 -3 4156.8 408.121 29
-5 7 -3 3766.25 347.817 48
-5 7 -3 4330.84 401.954 47
-5 7 -2 734.125 171.21 47
-5 7 -2 595.179 170.912 29
-5 7 -1 7810.97 525.865 47
-5 7 -1 7608.72 521.885 29
-5 7 0 21187 868.185 47
-5 7 0 20269.1 905.25 45
-5 7 1 25071 981.33 45
-5 7 1 25065.7 934.324 47
-5 7 2 8314.48 515.938 42
-5 7 2 7755.17 511.378 45
-5 7 3 7278.82 488.648 45
-5 7 3 7626.83 506.403 50
-5 7 3 8505.09 522.777 42
-5 7 4 565.425 139.43 50
-5 7 4 502.844 136.455 42
-5 7 5 1373.98 205.575 42
-5 7 5 1211.62 169.924 49
-5 7 5 1111.87 177.151 50
-5 7 5 1174.98 179.622 41
-5 7 6 13848 557.068 41
-5 7 6 13804.6 567.81 50
-5 8 -4 431.207 103.256 47
-5 8 -3 50912.1 1393.61 45
-5 8 -3 46217.3 1324.89 47
-5 8 -2 7360.9 526.723 45
-5 8 -2 6828.08 467.894 47
-5 8 -1 11639.2 616.717 47
-5 8 -1 12115.1 689.443 45
-5 8 0 13730.8 713.018 45
-5 8 0 13083.9 638.37 47
-5 8 1 1128.5 183.591 42
-5 8 1 1184.86 203.593 45
-5 8 1 851.121 159.406 47
-5 8 2 1718.86 250.566 50
-5 8 2 1772.08 233.653 45
-5 8 2 1437.79 205.868 42
-5 8 3 16144.9 735.84 50
-5 8 3 15299.6 676.228 45
-5 8 3 16476.8 705.916 42
-5 8 4 8341.67 476.248 42
-5 8 4 8218.89 476.675 50
-5 8 4 8353.53 458.81 41
-5 8 5 4157.82 290.603 50
-5 9 0 20011.8 808.412 42
-5 9 0 19636.2 836.514 45
-5 9 1 5116.14 382.853 42
-5 9 1 4400.27 361.856 45
-5 9 2 1090.98 169.785 42
-4 -10 -3 25.3033 36.3729 51
-4 -10 -3 42.8987 34.9349 39
-4 -10 -2 13392.6 469.685 39
-4 -10 -2 13526.3 457.06 51
-4 -10 -2 12317 446.057 27
-4 -10 -1 5200.34 279.718 39
-4 -10 -1 5651.29 277.719 51
-4 -10 0 752.542 98.0605 39
-4 -9 -6 152.618 51.5475 27
-4 -9 -6 250.75 63.6966 51
-4 -9 -5 170.825 64.6881 27
-4 -9 -5 99.6432 37.1696 51
-4 -9 -4 15394.7 559.582 51
-4 -9 -4 15103.7 555.193 39
-4 -9 -3 30824.3 856.831 51
-4 -9 -3 29826.2 869.193 39
-4 -9 -2 15077.7 591.286 39
-4 -9 -2 14330.5 550.515 52
-4 -9 -1 11962.5 520.473 39
-4 -9 -1 11394 500.624 52
-4 -9 0 915.715 138.827 52
-4 -9 1 -18.2517 40.8508 44
-4 -9 1 332.33 83.2636 52
-4 -9 2 8973.27 388.998 52
-4 -9 2 8470.86 365.866 39
-4 -9 2 7954.41 363.977 44
-4 -9 3 29920.5 720.474 52
-4 -8 -8 3059.24 204.659 36
-4 -8 -8 3213.16 211.254 31
-4 -8 -7 65894.7 1433.02 27
-4 -8 -7 67096.8 1432.73 31
-4 -8 -6 23657.1 749.319 51
-4 -8 -6 23918.9 767.131 27
-4 -8 -5 19220.8 685.699 51
-4 -8 -4 21169.6 738.044 39
-4 -8 -4 21358.2 738.088 51
-4 -8 -3 342.907 98.2987 39
-4 -8 -2 6152.42 385.044 52
-4 -8 -1 8541.41 471.157 52
-4 -8 0 51826.6 1335.72 44
-4 -8 1 26419.8 894.51 44
-4 -8 2 218.771 72.8156 44
-4 -8 3 34.1893 38.2848 44
-4 -8 4 482.862 91.3044 44
-4 -7 -9 34154.1 827.316 36
-4 -7 -8 9237.35 423.891 27
-4 -7 -8 9640.11 443.878 36
-4 -7 -8 9890.18 448.754 31
-4 -7 -7 4538.2 323.574 27
-4 -7 -7 4680.13 326.142 31
-4 -7 -6 8301 447.724 51
-4 -7 -6 8010.59 444.03 27
-4 -7 -5 9026.36 475.311 51
-4 -7 -4 19909.6 751.575 39
-4 -7 -2 1768.07 216.519 52
-4 -7 0 15266.7 692.041 44
-4 -7 3 45545.7 1238.88 28
-4 -7 4 2503.08 230.048 28
-4 -7 5 11204.9 452.325 28
-4 -7 6 5556.72 263.203 44
-4 -6 -9 19109.5 639.018 36
-4 -6 -9 18600.8 627.288 31
-4 -6 -8 26776.5 860.069 31
-4 -6 -8 25294.5 815.765 27
-4 -6 -7 37585.3 1093.86 27
-4 -6 -5 5691.98 386.198 51
-4 -6 -1 62813.1 1629.89 60
-4 -6 0 68210.4 1768.43 60
-4 -6 1 2948.91 325.101 60
-4 -6 2 9728.26 582.66 28
-4 -6 3 2316.71 274.684 28
-4 -6 4 51441 1376.05 28
-4 -6 5 3239.46 276.202 40
-4 -6 5 4244.6 309.186 28
-4 -6 6 26420.4 759.602 28
-4 -6 7 5748.32 262.776 28
-4 -5 -10 9210.42 378.876 35
-4 -5 -10 9258.82 395.718 46
-4 -5 -10 9623.37 402.138 36
-4 -5 -9 22397.4 749.672 31
-4 -5 -9 23205.8 768.042 36
-4 -5 -8 756.627 142.389 31
-4 -5 -7 911.054 156.393 27
-4 -5 -7 717.581 154.745 58
-4 -5 -4 19008.6 763.126 25
-4 -5 -3 22109.4 824.385 25
-4 -5 -2 56044.9 1439.57 60
-4 -5 -2 52537.8 1405.77 25
-4 -5 -1 639.24 131.601 23
-4 -5 -1 780.775 147.705 60
-4 -5 0 32577.6 1098.37 23
-4 -5 0 37597.3 1224.04 54
-4 -5 1 47862.7 1427.82 56
-4 -5 1 47326.3 1467.75 54
-4 -5 2 15793.4 778.963 56
-4 -5 2 14594 793.268 54
-4 -5 3 73199.9 1909.12 56
-4 -5 4 11248.7 626.241 40
-4 -5 5 84.7484 62.8168 40
-4 -5 6 5655.54 369.996 14
-4 -5 6 5727.09 370.609 40
-4 -5 6 6449.75 380.258 28
-4 -5 7 23820.8 681.687 28
-4 -5 7 22843.6 699.279 40
-4 -4 -10 10375.7 443.819 35
-4 -4 -10 11015.7 466.693 46
-4 -4 -10 10385.5 448.52 36
-4 -4 -9 24644.4 812.371 31
-4 -4 -9 22530.7 800.174 36
-4 -4 -8 60283.7 1539.67 31
-4 -4 -7 18067.8 765.722 31
-4 -4 -7 17551.4 795.232 58
-4 -4 -6 10420.3 567.459 58
-4 -4 -5 6657.23 434.862 25
-4 -4 -4 1576.68 197.96 25
-4 -4 -3 106771 2191.57 25
-4 -4 -2 142776 2774.9 25
-4 -4 -2 152057 2836.65 60
-4 -4 -1 5573.44 399.045 54
-4 -4 -1 5432.51 354.769 23
-4 -4 0 67380.1 1715.36 56
-4 -4 0 67914.8 1721.24 54
-4 -4 0 63977.2 1599.23 23
-4 -4 1 12856.5 661.715 23
-4 -4 1 13513.5 706.964 56
-4 -4 1 12808.8 681.154 54
-4 -4 2 5960.96 475.809 23
-4 -4 2 5959.72 463.766 56
-4 -4 2 5658.91 469.942 54
-4 -4 3 38906.5 1261.17 56
-4 -4 3 36002.9 1296.97 54
-4 -4 3 34380.6 1277.56 23
-4 -4 4 39401.2 1272.48 56
-4 -4 5 671.863 158.191 14
-4 -4 5 699.635 155.875 56
-4 -4 5 849.16 164.264 43
-4 -4 6 2093.59 236.394 40
-4 -4 6 1845.32 235.202 14
-4 -4 6 2220.05 236.471 43
-4 -4 7 9162.71 459.675 40
-4 -4 7 9163.28 441.958 28
-4 -4 7 8089.01 436.793 14
-4 -4 7 8374.6 425.731 43
-4 -4 8 1300.1 144.297 40
-4 -4 8 1253.42 136.196 28
-4 -4 8 1247.51 138.787 14
-4 -3 -10 1469.48 167.187 36
-4 -3 -10 1517.63 176.915 46
-4 -3 -10 1767.91 186.126 35
-4 -3 -9 12594.6 588.833 36
-4 -3 -8 13394.2 712.448 58
-4 -3 -8 15268.4 701.83 36
-4 -3 -7 14013.5 706.352 58
-4 -3 -6 34855 1097.34 58
-4 -3 -6 29922.2 1275.5 20
-4 -3 -5 60338.4 1885.42 20
-4 -3 -5 65218.1 1576.24 25
-4 -3 -4 492.601 169.68 20
-4 -3 -4 575.922 115.474 25
-4 -3 -3 850.996 129.795 60
-4 -3 -3 741.326 124.48 25
-4 -3 -2 23382.4 758.924 25
-4 -3 -2 23188.6 786.398 54
-4 -3 -1 14403.1 560.027 23
-4 -3 -1 15897.4 656.394 54
-4 -3 0 96589.1 2029.17 23
-4 -3 0 98787.7 2277.01 56
-4 -3 0 95395.4 2136.96 54
-4 -3 1 80986.6 2021.02 56
-4 -3 1 78329.8 1919.89 54
-4 -3 1 77295.5 1854.59 23
-4 -3 2 304.124 102.946 54
-4 -3 2 103.202 74.6465 56
-4 -3 2 110.583 85.0431 23
-4 -3 3 6061.45 484.759 23
-4 -3 3 7021.24 493.878 56
-4 -3 3 6562.06 499.555 54
-4 -3 4 12276.2 705.634 54
-4 -3 4 11380 686.297 23
-4 -3 4 13386 687.524 56
-4 -3 5 12443.6 659.352 56
-4 -3 6 52907.4 1457.58 43
-4 -3 7 66206.4 1589.35 40
-4 -3 7 63675.3 1547.4 43
-4 -3 8 80.0358 48.0896 28
-4 -3 8 47.2002 47.7066 14
-4 -3 8 37.4979 48.1359 40
-4 -3 8 10.0412 48.2364 43
-4 -3 9 1226.96 124.028 40
-4 -2 -11 25616.1 677.152 33
-4 -2 -11 25197.3 662.733 35
-4 -2 -10 30077.2 875.413 35
-4 -2 -10 31334.6 907.725 46
-4 -2 -9 25201.4 900.607 46
-4 -2 -9 26307.9 891.979 36
-4 -2 -8 32492.9 1174.38 58
-4 -2 -8 36115.2 1149.14 36
-4 -2 -7 9312.61 570.299 58
-4 -2 -6 2066.01 250.086 58
-4 -2 -6 1652.03 288.139 20
-4 -2 -5 28345.3 922.293 58
-4 -2 -5 25260.8 1140.14 20
-4 -2 -4 147516 3298.35 20
-4 -2 -4 151405 2785.06 25
-4 -2 -3 63226.7 1405.85 25
-4 -2 -3 64988.9 1390.8 60
-4 -2 -3 61125 1769.04 20
-4 -2 -2 70981 1560.84 54
-4 -2 -2 71114.2 1497.89 25
-4 -2 -2 70437.8 1824.83 20
-4 -2 -1 1339.19 173.354 54
-4 -2 -1 1229.39 191.467 20
-4 -2 0 93.0121 45.2024 26
-4 -2 0 25.7003 35.3239 23
-4 -2 1 35836.6 1018.8 26
-4 -2 1 34700.6 1074.28 23
-4 -2 1 34447.3 963.186 59
-4 -2 2 29038.3 983.496 26
-4 -2 2 28432 1030.91 56
-4 -2 2 26331.5 988.492 23
-4 -2 2 28599.3 936.757 59
-4 -2 3 21464.2 892.67 56
-4 -2 3 21237.3 908.405 26
-4 -2 3 20493.8 888.03 23
-4 -2 4 20394.1 864.919 56
-4 -2 4 18195 856.658 23
-4 -2 4 18006.2 895.233 26
-4 -2 5 21416.7 901.61 56
-4 -2 5 19561.8 866.801 37
-4 -2 6 375.836 122.675 37
-4 -2 6 213.17 95.0882 56
-4 -2 7 5204.02 381.656 43
-4 -2 7 4900.54 365.555 37
-4 -2 8 37534.2 1060.56 37
-4 -2 8 40786.4 1096.61 40
-4 -2 8 40538.2 1090.83 43
-4 -2 9 1123.49 119.605 28
-4 -2 9 1123.46 134.023 40
-4 -2 9 865.902 112.42 37
-4 -2 9 957.643 130.126 14
-4 -1 -11 19074.8 564.974 33
-4 -1 -11 18711 545.606 35
-4 -1 -10 8425.35 421.595 35
-4 -1 -10 7806.63 413.039 46
-4 -1 -9 89.187 55.9628 35
-4 -1 -9 163.974 94.2231 46
-4 -1 -8 19749.3 885.409 58
-4 -1 -8 21921.6 890.382 46
-4 -1 -7 64926.9 1750.49 58
-4 -1 -6 18687.3 994.2 20
-4 -1 -6 20188.6 841.074 58
-4 -1 -5 41807 1512.61 20
-4 -1 -5 47560.1 1286.67 58
-4 -1 -4 38355.4 1045.39 25
-4 -1 -4 37047 1328.65 20
-4 -1 -3 30.1655 29.3044 25
-4 -1 -3 128.073 78.4665 20
-4 -1 -2 70457.4 1431.52 25
-4 -1 -2 70164.5 1511.79 54
-4 -1 -1 88344.4 1688.04 25
-4 -1 0 19690.2 671.506 23
-4 -1 0 19546.5 674.741 22
-4 -1 0 19569.7 657.2 26
-4 -1 1 15746.3 602.597 26
-4 -1 2 11022.9 515.316 59
-4 -1 2 11127.8 539.517 26
-4 -1 3 2193.67 262.209 26
-4 -1 3 2353.7 257.984 59
-4 -1 4 74177.6 1966.08 26
-4 -1 4 73200.3 1891.82 56
-4 -1 5 101189 2593.18 26
-4 -1 5 110689 2502.63 56
-4 -1 6 25054.5 1002.94 37
-4 -1 6 24755.1 996.964 56
-4 -1 7 16434.1 739.348 37
-4 -1 8 5144.52 352.226 43
-4 -1 8 5230.29 363.107 37
-4 -1 9 1001.98 133.889 37
-4 -1 9 918.117 124.346 43
-4 -1 9 1068.58 138.208 40
-4 -1 9 809.338 108.377 28
-4 0 -10 19416.2 665.912 46
-4 0 -10 20035.4 685.225 35
-4 0 -10 20455.3 685.932 38
-4 0 -10 21213.1 711.552 33
-4 0 -9 283.072 102.194 35
-4 0 -9 227.118 87.5039 46
-4 0 -8 12485.9 655.201 46
-4 0 -8 12011.1 678.136 58
-4 0 -7 24490.5 1004.69 58
-4 0 -7 27186.4 1043.1 46
-4 0 -6 16404.3 773.803 58
-4 0 -6 15660.5 909.13 20
-4 0 -5 84497.1 1961.09 58
-4 0 -5 78701.9 2195.64 20
-4 0 -4 70004 1887.27 20
-4 0 -4 72380.8 1694.51 58
-4 0 -3 914.02 123.515 25
-4 0 -3 98.3384 58.9127 58
-4 0 -2 59734.3 1239 25
-4 0 -1 25282.5 867.456 22
-4 0 0 11363.3 505.221 22
-4 0 1 47055.4 1163.53 26
-4 0 1 45941.3 1118.38 57
-4 0 2 119560 2365.66 26
-4 0 3 4626.65 360.563 26
-4 0 3 4960.92 359.014 59
-4 0 4 2940.18 308.125 59
-4 0 4 2634.14 301.901 26
-4 0 5 5294.48 474.251 26
-4 0 5 5366.08 454.407 56
-4 0 6 1414.2 229.183 49
-4 0 6 1249.57 224.029 56
-4 0 7 23760.5 924.562 49
-4 0 7 24790.9 961.384 37
-4 0 8 27352.1 882.411 43
-4 0 8 27268.7 915.796 37
-4 0 9 1105.29 140.059 43
-4 0 9 1184.67 152.241 37
-4 1 -10 15367.6 567.734 38
-4 1 -10 15671.9 574.89 35
-4 1 -10 15835.6 588.998 33
-4 1 -9 2065.67 238.011 33
-4 1 -9 1925.17 220.639 46
-4 1 -9 2169.59 237.54 35
-4 1 -8 105050 2332.99 35
-4 1 -7 29846.1 1276.74 55
-4 1 -7 29677.9 1127.63 58
-4 1 -6 1512.89 301.913 22
-4 1 -6 1497.18 236.807 58
-4 1 -6 1431.17 274.605 20
-4 1 -5 5688.82 576.958 22
-4 1 -5 5104.41 423.979 58
-4 1 -5 5024.35 475.031 20
-4 1 -4 53692.5 1595.18 20
-4 1 -4 56540.4 1544.68 58
-4 1 -4 56459.2 1848.72 22
-4 1 -3 20744.1 962.835 22
-4 1 -3 20771.9 820.258 58
-4 1 -2 95760.7 2272.95 22
-4 1 -2 106040 2208.82 58
-4 1 -1 41156.9 1180.29 22
-4 1 0 2238.32 225.418 22
-4 1 0 2606.23 212.796 18
-4 1 0 2368.48 233.633 55
-4 1 1 9826.16 469.978 26
-4 1 1 9866.11 471.044 57
-4 1 1 9666.65 460.015 22
-4 1 1 10165.5 464.123 18
-4 1 1 9754.64 471.482 55
-4 1 2 23836.6 803.098 26
-4 1 2 24339.2 785.757 57
-4 1 3 83311.3 1860.62 59
-4 1 3 87794.2 1927.56 26
-4 1 4 69629.2 1685.47 59
-4 1 4 63666.6 1669.1 26
-4 1 5 60090.4 1688.46 59
-4 1 5 56271.1 1709.66 41
-4 1 5 57050.1 1685.32 26
-4 1 6 140.029 87.119 56
-4 1 6 236.057 100.717 41
-4 1 7 2233.44 278.269 41
-4 1 7 1598.12 234.008 49
-4 1 8 6543.69 422.467 37
-4 1 8 6639.34 430.925 41
-4 1 8 6761.76 416.727 43
-4 1 8 6691.32 428.985 49
-4 1 9 17646.5 616.821 43
-4 1 9 18428.5 647.452 37
-4 1 10 3131.94 198.364 37
-4 2 -10 11953.7 464.419 38
-4 2 -10 12272 485.156 33
-4 2 -9 1750.28 205.151 38
-4 2 -9 2046.68 232.502 33
-4 2 -9 1620.87 198.453 35
-4 2 -8 2115.86 266.625 33
-4 2 -8 2007.71 248.036 35
-4 2 -7 52132.5 1522.82 35
-4 2 -6 9692.28 620.434 35
-4 2 -6 10211.7 751.516 55
-4 2 -5 16733 847.292 58
-4 2 -5 15678.1 1010.93 22
-4 2 -5 15145 863.583 20
-4 2 -5 17652.6 1017.43 55
-4 2 -4 71936.7 2175.48 55
-4 2 -4 66593.2 2135.08 22
-4 2 -4 70740.6 1915.98 58
-4 2 -3 4808.06 464.62 22
-4 2 -3 5065.1 444.036 58
-4 2 -3 5258.91 487.018 55
-4 2 -2 195.724 101.771 55
-4 2 -2 151.089 85.1635 22
-4 2 -1 70967.6 1570.16 18
-4 2 -1 70707.5 1740.12 22
-4 2 -1 69061.7 1734.22 55
-4 2 0 87348.5 1826.7 18
-4 2 0 84851 1899.93 22
-4 2 0 86182.1 1864.5 57
-4 2 0 84042.2 1904.07 55
-4 2 1 19193.2 712.821 18
-4 2 1 17992.7 695.541 55
-4 2 1 18955.4 711.21 22
-4 2 1 19381.1 712.559 57
-4 2 2 25196.1 888.313 18
-4 2 2 26366.3 871.189 57
-4 2 2 25496.2 842.219 26
-4 2 3 4864.61 342.266 59
-4 2 3 4666.38 351.283 26
-4 2 4 3367.25 324.547 26
-4 2 4 3072.61 294.047 59
-4 2 5 21657.9 958.925 26
-4 2 5 23297.6 945.153 59
-4 2 6 30320.1 1192.51 41
-4 2 6 29175.9 1155.7 56
-4 2 7 3568.45 367.006 41
-4 2 7 3138.78 326.732 49
-4 2 8 8905.89 501.823 49
-4 2 8 9486.04 532.34 41
-4 2 8 8570.51 483.799 37
-4 2 9 3144.39 253.477 41
-4 2 9 3446.09 253.483 43
-4 2 9 3148.03 250.861 37
-4 2 9 3230.3 253.489 49
-4 2 10 1761.86 146.477 37
-4 3 -10 26532.1 689.23 38
-4 3 -10 27528.3 717.721 33
-4 3 -9 28105.1 888.193 33
-4 3 -9 27147 836.011 38
-4 3 -8 6917.64 440.693 38
-4 3 -8 6991.74 475.924 33
-4 3 -7 792.905 187.928 33
-4 3 -6 171.047 113.337 55
-4 3 -6 339.229 148.131 33
-4 3 -5 41833.6 1652.28 55
-4 3 -5 36969.3 1493.03 33
-4 3 -4 57429.9 1980.8 55
-4 3 -4 54596.5 1989.15 22
-4 3 -4 50855.9 1640.96 20
-4 3 -3 72492.7 2192.42 22
-4 3 -3 76070.9 2236.23 55
-4 3 -2 191.268 85.6911 22
-4 3 -2 352.785 102.172 18
-4 3 -2 241.875 105.759 55
-4 3 -1 780.642 169.163 55
-4 3 -1 836.54 147.671 18
-4 3 -1 772.138 162.469 22
-4 3 0 31845.8 1001.63 18
-4 3 0 28989.4 1002.35 22
-4 3 0 29658.1 1010.63 55
-4 3 0 30171 975.483 57
-4 3 1 12928.7 617.904 18
-4 3 1 13628.2 617.65 57
-4 3 2 22780.2 893.737 18
-4 3 2 23623.7 848.053 26
-4 3 3 214300 3823.3 59
-4 3 3 208573 3872.79 26
-4 3 3 213174 4118.19 18
-4 3 4 1696.96 229.774 59
-4 3 4 1360.75 214.449 26
-4 3 5 11555.8 677.025 50
-4 3 5 11720.5 668.499 59
-4 3 6 22440.9 998.356 50
-4 3 6 22975 1002.37 41
-4 3 7 6097.06 470.86 50
-4 3 7 6837.39 504.217 41
-4 3 7 6030.4 449.976 49
-4 3 8 7053.72 457.342 41
-4 3 8 7071.25 440.663 49
-4 3 9 44959.9 1078.15 43
-4 3 9 44135.1 1109.8 49
-4 3 9 47849.8 1141.32 37
-4 3 9 46301.2 1162.69 41
-4 4 -9 17098.2 583.501 38
-4 4 -9 17842.9 612.352 48
-4 4 -9 17918.3 621.451 33
-4 4 -8 3330.89 314.574 33
-4 4 -8 4073.08 336.264 48
-4 4 -8 3655.55 301.471 38
-4 4 -7 8225.19 525.892 38
-4 4 -7 8321.14 576.651 33
-4 4 -6 44465.6 1603.78 33
-4 4 -6 46650.2 1528.11 38
-4 4 -5 5296.87 568.224 55
-4 4 -5 4215.22 483.967 33
-4 4 -5 5344.41 521.316 38
-4 4 -4 3292.25 398.128 20
-4 4 -4 4307.01 527.791 55
-4 4 -3 39183.3 1609.33 55
-4 4 -3 38589.4 1598.87 22
-4 4 -2 10051.7 693.753 22
-4 4 -2 10350.2 712.544 55
-4 4 -2 12242.2 687.879 57
-4 4 -2 10080.4 612.782 18
-4 4 -1 76443.9 2022.08 22
-4 4 -1 80672.8 1938.24 18
-4 4 0 65321 1705.66 18
-4 4 0 63454.8 1631.76 57
-4 4 1 -16.0659 45.9167 18
-4 4 1 76.8491 46.5613 57
-4 4 2 18284.9 786.433 57
-4 4 2 17733 824.546 18
-4 4 2 17516.8 757.586 26
-4 4 3 38051.6 1218.87 26
-4 4 3 39411.1 1378.04 18
-4 4 3 39405.4 1192.96 59
-4 4 4 17825.4 839.542 26
-4 4 4 18752.2 999.867 18
-4 4 4 20577.2 864.523 59
-4 4 4 20603.8 904.873 42
-4 4 5 6085.76 495.461 59
-4 4 5 6448.22 513.099 42
-4 4 5 6090.24 497.004 50
-4 4 6 30289.7 1186.6 50
-4 4 6 30854.1 1172.92 41
-4 4 7 412.708 136.116 41
-4 4 7 306.447 121.012 49
-4 4 7 172.691 88.9601 50
-4 4 8 99.196 61.8608 41
-4 4 8 85.1466 55.8281 50
-4 4 8 -10.7441 62.5921 49
-4 4 9 10863.1 451.603 37
-4 4 9 10540.2 465.815 41
-4 4 9 10413.1 442.938 49
-4 5 -8 708.542 127.3 48
-4 5 -8 591.018 107.274 29
-4 5 -8 562.466 116.18 33
-4 5 -8 700.653 122.514 38
-4 5 -7 1113.29 193.885 33
-4 5 -7 677.555 153.607 48
-4 5 -7 761.244 147.801 29
-4 5 -7 912.255 167.663 38
-4 5 -6 53064.5 1700.32 33
-4 5 -6 53479.2 1625.67 38
-4 5 -6 54959 1712.39 48
-4 5 -5 51780.4 1741.88 38
-4 5 -5 52214.8 1829.71 48
-4 5 -4 1572.6 297.48 38
-4 5 -4 1337.86 287.886 48
-4 5 -4 1437.74 306.496 57
-4 5 -3 38239.1 1494.41 48
-4 5 -3 37216.1 1504.28 57
-4 5 -2 33348 1296.63 57
-4 5 -2 31452.8 1232.61 48
-4 5 -1 4877.43 441.429 18
-4 5 -1 5184.89 448.066 57
-4 5 0 37389.1 1294.72 18
-4 5 0 39254.2 1270.07 57
-4 5 1 40924.4 1299.84 57
-4 5 1 42790.6 1416.58 18
-4 5 2 22799.7 934.83 47
-4 5 2 25928.5 990.478 57
-4 5 2 24935.6 1075.26 18
-4 5 2 23467.8 945.153 26
-4 5 3 24426.9 994.383 45
-4 5 3 24643 953.969 59
-4 5 4 33540.6 1204.57 59
-4 5 4 34473.6 1240.27 42
-4 5 5 13098.1 760.557 42
-4 5 5 12360.1 743.616 59
-4 5 5 13481.1 756.598 50
-4 5 6 46905.3 1520.86 50
-4 5 6 45961.3 1520.18 42
-4 5 6 48383.7 1492.07 41
-4 5 7 18257.7 788.882 49
-4 5 7 18830.8 846.326 50
-4 5 7 19845.1 843.65 41
-4 5 7 17779.9 833.344 42
-4 5 8 19722.3 746.213 41
-4 5 8 18993.5 741.654 50
-4 5 8 19489.3 719.209 49
-4 5 9 8089.96 346.661 37
-4 5 9 9676.67 407.775 41
-4 6 -8 6811.9 324.096 48
-4 6 -7 9257.02 459.559 29
-4 6 -7 9668.14 499.056 48
-4 6 -6 15429.2 720.09 29
-4 6 -6 16333.7 796.539 48
-4 6 -6 15843.9 762.182 38
-4 6 -5 7146.91 557.24 29
-4 6 -5 7104.86 582.464 48
-4 6 -5 6990.06 558.418 38
-4 6 -4 768.945 215.794 29
-4 6 -4 414.725 143.918 38
-4 6 -4 826.944 225.108 48
-4 6 -3 27350.9 1351.35 57
-4 6 -3 32799.8 1344.26 48
-4 6 -2 49579.3 1792.89 57
-4 6 -2 53719.7 1830.14 29
-4 6 -2 52205 1661.63 48
-4 6 -1 20445.1 1020.89 57
-4 6 -1 20384 994.453 29
-4 6 0 8544.64 610.028 57
-4 6 0 8684.45 592.581 29
-4 6 1 9684.75 631.747 57
-4 6 1 10101 610.271 47
-4 6 2 10706.5 629.063 47
-4 6 2 9908.76 619.175 45
-4 6 3 20760.5 900.098 59
-4 6 3 23535.7 984.746 45
-4 6 4 15236.8 791.959 42
-4 6 4 13430.3 743.265 45
-4 6 5 9028.94 610.946 42
-4 6 5 8702.95 592.689 50
-4 6 6 7848.87 562.254 42
-4 6 6 7673.9 534.412 41
-4 6 6 8042.21 553.685 50
-4 6 7 20230 774.857 49
-4 6 7 19913.1 851.299 42
-4 6 7 20886.7 853.154 50
-4 6 7 20866.8 828.398 41
-4 6 8 2301.35 199.108 37
-4 6 8 2285.55 223.978 50
-4 6 8 2288.79 217.525 41
-4 6 8 2459.76 209.657 49
-4 7 -7 3413.07 233.656 48
-4 7 -6 15095.5 658.399 48
-4 7 -6 13313.8 586.282 47
-4 7 -6 14800.2 614.843 29
-4 7 -5 22702.8 929.261 29
-4 7 -5 22685.6 979.765 48
-4 7 -4 514.581 154.842 29
-4 7 -4 382.344 145.396 48
-4 7 -3 5158.61 514.874 29
-4 7 -3 4872.26 479.901 48
-4 7 -2 20692 1055.45 29
-4 7 -2 19715.7 938.478 48
-4 7 -1 1796.44 287.082 29
-4 7 -1 1718.34 258.36 48
-4 7 -1 1652.22 260.956 47
-4 7 0 42437.1 1383.56 47
-4 7 0 44133.9 1429.69 29
-4 7 1 8895.58 572.281 47
-4 7 1 8523.19 588.413 45
-4 7 2 1565.99 237.942 47
-4 7 2 1360.99 233.636 45
-4 7 3 6143.92 471.178 42
-4 7 3 5665.07 454.02 47
-4 7 3 6104.37 487.261 45
-4 7 4 13756.7 719.124 42
-4 7 4 12060.6 688.965 45
-4 7 4 12407.1 698.347 50
-4 7 5 12110.8 684.874 42
-4 7 5 11276.5 647.229 45
-4 7 5 11443.5 657.881 50
-4 7 6 38714.1 1270.18 42
-4 7 6 37021.6 1098.79 49
-4 7 6 37088.1 1197.2 50
-4 7 6 37527.8 1192.54 41
-4 7 7 15453.4 627.379 41
-4 7 7 14763.3 629.77 50
-4 7 8 326.663 68.9003 41
-4 8 -5 17223.5 677.588 29
-4 8 -5 16717.1 697.025 48
-4 8 -5 16778.5 650.911 47
-4 8 -4 15596.9 753.086 29
-4 8 -4 13488.9 632.765 45
-4 8 -4 16186.6 761.628 47
-4 8 -4 15590.5 761.482 48
-4 8 -3 8776.82 604.043 45
-4 8 -3 8830.41 626.668 29
-4 8 -3 7884.38 572.212 47
-4 8 -3 7666.48 554.695 48
-4 8 -2 29476.7 1165.58 47
-4 8 -2 31924 1261.9 29
-4 8 -2 31594.6 1317.89 45
-4 8 -2 29923.4 1123.31 48
-4 8 -1 4798.81 450.746 29
-4 8 -1 4469.47 387.748 48
-4 8 -1 4720.42 425.745 47
-4 8 -1 4692.9 486.756 45
-4 8 0 347.274 128.576 47
-4 8 0 393.204 156.761 45
-4 8 1 23381.3 1007.98 45
-4 8 1 23756.8 949.53 47
-4 8 2 17697.6 807.137 42
-4 8 2 18093.7 805.442 47
-4 8 2 17854.9 842.735 45
-4 8 3 5654.94 436.092 42
-4 8 3 5925.15 487.441 50
-4 8 3 5747.72 457.867 45
-4 8 4 19219 847.653 45
-4 8 4 20772.8 907.224 50
-4 8 4 20481.5 858.799 42
-4 8 5 8094.61 517.301 42
-4 8 5 7954.78 509.66 50
-4 8 5 8975.91 518.363 41
-4 8 6 138.231 64.4706 50
-4 8 6 125.282 58.6958 41
-4 8 6 78.2321 55.263 42
-4 8 7 3693.41 245.676 50
-4 9 -3 1440.76 213.136 47
-4 9 -3 956.338 163.54 48
-4 9 -2 27468.5 1027.05 42
-4 9 -2 27360.4 1041.05 47
-4 9 -1 11851.2 703.405 42
-4 9 -1 12179.2 777.814 45
-4 9 -1 10797.5 637.011 47
-4 9 0 2161.68 324.769 45
-4 9 0 1785.02 250.877 47
-4 9 0 1847.15 273.922 42
-4 9 1 19580.1 835.548 47
-4 9 1 22433.1 947.503 42
-4 9 1 21912.5 978.772 45
-4 9 2 752.038 162.964 45
-4 9 2 693.132 158.461 42
-4 9 2 662.884 189.587 50
-4 9 3 6616.45 524.296 50
-4 9 3 6261.94 450.53 42
-4 9 3 5833.59 435.917 45
-4 9 4 11688.6 590.483 42
-4 9 4 12650.1 644.763 50
-4 9 5 22061 773.112 42
-4 9 5 22552.6 777.337 50
-4 10 1 13810.6 749.562 45
-3 -10 -6 33343.2 809.501 27
-3 -10 -6 32261.3 796.734 51
-3 -10 -5 7658.52 356.076 51
-3 -10 -5 7558.56 365.299 27
-3 -10 -5 7069.62 331.629 39
-3 -10 -4 2347.24 202.862 39
-3 -10 -4 2560.11 217.965 27
-3 -10 -4 2428.13 202.24 51
-3 -10 -3 50.4769 46.3559 51
-3 -10 -3 43.7429 43.2591 39
-3 -10 -3 114.593 49.246 27
-3 -10 -2 8428.49 414.333 27
-3 -10 -2 8658.39 406.815 51
-3 -10 -2 8614.19 420.737 39
-3 -10 -1 84.1838 49.7547 52
-3 -10 -1 161.115 60.8858 39
-3 -10 0 36079.7 951.99 39
-3 -10 0 35323.1 944.257 52
-3 -10 1 4308.93 261.817 39
-3 -10 1 4300.06 268.371 52
-3 -10 2 7167.24 318.746 52
-3 -9 -7 19.3878 45.1397 51
-3 -9 -7 73.9887 45.889 27
-3 -9 -7 30.1144 37.8197 31
-3 -9 -7 54.6557 40.4744 36
-3 -9 -6 13687.7 545.131 51
-3 -9 -6 14294.1 553.884 27
-3 -9 -5 14400.5 570.808 39
-3 -9 -5 13720.4 569.302 27
-3 -9 -5 14396.2 575.173 51
-3 -9 -4 7329.41 400.217 51
-3 -9 -4 6861.25 400.234 39
-3 -9 -3 52231.4 1323.1 52
-3 -9 -3 54112 1343.95 39
-3 -9 -2 1079.61 159.62 52
-3 -9 -2 1300.35 179.479 39
-3 -9 -1 6402.87 415.15 44
-3 -9 -1 6946.7 420.246 39
-3 -9 -1 7277.99 429.28 52
-3 -9 0 36384 1069.48 52
-3 -9 0 35422.1 1062.76 44
-3 -9 1 18918.6 714.546 52
-3 -9 1 19250.1 735.705 44
-3 -9 2 15402.3 629.975 44
-3 -9 2 15086.6 601.954 52
-3 -9 3 24756.3 755.848 44
-3 -9 3 23732.6 715.853 52
-3 -9 4 1120.16 119.214 52
-3 -9 4 1110.47 127.629 44
-3 -8 -9 5703.17 279.317 31
-3 -8 -8 82385.1 1680.22 36
-3 -8 -8 85524.9 1691.41 31
-3 -8 -8 88411.1 1721.48 27
-3 -8 -7 378.762 91.9181 27
-3 -8 -7 370.512 94.7689 51
-3 -8 -7 449.736 100.805 31
-3 -8 -6 58010.3 1407.26 51
-3 -8 -6 54645.2 1373.54 27
-3 -8 -5 26.1995 57.0154 51
-3 -8 -5 41.5462 41.3276 39
-3 -8 -4 1960.65 223.605 39
-3 -8 -3 7650.78 464.681 39
-3 -8 -3 7229.63 439.541 52
-3 -8 -2 52581.4 1402.9 44
-3 -8 -2 54722.9 1428.45 52
-3 -8 -1 6363.54 430.444 44
-3 -8 -1 6305.21 431.439 52
-3 -8 0 85100.9 1992.46 44
-3 -8 1 7151.98 473.062 44
-3 -8 2 1191.67 192.164 44
-3 -8 3 13134.2 621.82 44
-3 -8 4 31013.2 936.499 44
-3 -8 5 3062.78 229.592 44
-3 -8 6 16362.1 477.516 44
-3 -7 -9 7621.07 375.186 27
-3 -7 -9 8078.5 393.57 36
-3 -7 -9 8245.99 400.726 31
-3 -7 -8 18346.1 691.635 27
-3 -7 -8 17115.9 662.723 51
-3 -7 -8 18472.6 692.332 36
-3 -7 -8 18515.2 682.326 31
-3 -7 -7 575.046 121.992 51
-3 -7 -7 858.501 148.666 27
-3 -7 -6 10040 531.141 51
-3 -7 -6 11536 559.552 27
-3 -7 -5 65938.3 1607.35 51
-3 -7 -5 65930.9 1601.32 39
-3 -7 -4 17046.2 713.978 39
-3 -7 -3 9016.92 505.549 52
-3 -7 -2 35085.5 1102.58 52
-3 -7 -1 34103.8 1104.63 44
-3 -7 0 14912.7 711.082 44
-3 -7 2 14715.8 712.404 28
-3 -7 2 15265.4 749.323 60
-3 -7 3 18396.1 787.413 28
-3 -7 4 3392.95 303.341 28
-3 -7 4 3423.15 324.727 14
-3 -7 5 12919 596.041 14
-3 -7 5 13910.4 582.99 28
-3 -7 6 39.0038 36.7373 14
-3 -7 6 57.4669 33.5866 28
-3 -7 7 17030.9 501.078 44
-3 -6 -10 14491 520.017 46
-3 -6 -10 15471.9 533.774 36
-3 -6 -10 15544.1 540.681 31
-3 -6 -9 25782.9 819.459 31
-3 -6 -9 24267.9 780.178 27
-3 -6 -8 55578.4 1406.83 31
-3 -6 -8 53777 1401.18 27
-3 -6 -7 1336.14 203.057 58
-3 -6 -7 1299.85 193.742 51
-3 -6 -7 1832.81 226.727 27
-3 -6 -6 45972.8 1283.45 51
-3 -6 -5 104632 2208.11 51
-3 -6 -4 17626.5 710.394 25
-3 -6 -3 31192.9 986.249 25
-3 -6 -2 93512.9 1996.7 23
-3 -6 -1 6905.75 425.843 60
-3 -6 -1 6365.83 412.061 23
-3 -6 -1 5673.18 404.35 44
-3 -6 0 14026.8 657.192 60
-3 -6 0 14804.6 677.797 23
-3 -6 1 12290.6 642.08 60
-3 -6 1 12132.8 645.016 23
-3 -6 2 22482.8 953.103 23
-3 -6 2 24263.9 968.699 28
-3 -6 3 34132.3 1226.5 14
-3 -6 3 39665.5 1258.21 28
-3 -6 4 11534.6 617.587 28
-3 -6 4 10391.7 614.221 40
-3 -6 4 10524.5 635.354 14
-3 -6 5 1837.51 250.759 14
-3 -6 5 2194.34 258.052 40
-3 -6 5 2485.35 262.915 28
-3 -6 6 2065.41 224.071 40
-3 -6 6 1928.52 226.194 14
-3 -6 6 2275.43 222.109 28
-3 -6 7 17144.6 576.958 28
-3 -6 7 17006.5 611.608 14
-3 -5 -11 3655.74 212.343 46
-3 -5 -10 538.528 102.101 35
-3 -5 -10 397.143 87.3353 31
-3 -5 -10 404.502 97.4567 46
-3 -5 -10 458.259 97.7362 36
-3 -5 -9 129.956 69.8097 36
-3 -5 -9 133.782 88.3666 31
-3 -5 -8 13911.3 644.804 31
-3 -5 -8 13541.3 631.207 27
-3 -5 -7 33173.2 1063.21 27
-3 -5 -7 31450.5 1069.43 58
-3 -5 -6 36404 1109.75 51
-3 -5 -5 47545.7 1258.22 25
-3 -5 -4 2113.61 215.72 25
-3 -5 -3 4658.47 315.616 25
-3 -5 -2 17453.1 648.237 60
-3 -5 -2 16819.2 613.107 23
-3 -5 -1 99940.4 2041.12 23
-3 -5 -1 101514 2060.23 60
-3 -5 0 20679.8 754.472 23
-3 -5 1 106721 2295.93 23
-3 -5 1 105680 2276.24 56
-3 -5 1 108916 2346.77 54
-3 -5 2 189.597 71.2266 56
-3 -5 2 399.278 119.748 17
-3 -5 2 372.928 122.04 54
-3 -5 2 246.201 99.3486 23
-3 -5 3 16364.5 794.736 23
-3 -5 3 14702.7 764.347 40
-3 -5 3 17912.7 816.166 54
-3 -5 3 14446.9 756.486 17
-3 -5 3 17041.5 755.3 56
-3 -5 3 14597 772.983 14
-3 -5 4 3281.1 346.091 40
-3 -5 4 2200 279.967 54
-3 -5 5 27759.2 1086.27 14
-3 -5 5 28561 1048.5 40
-3 -5 6 16385.8 679.833 28
-3 -5 6 16772.8 759.714 14
-3 -5 6 16179 712.154 40
-3 -5 7 81755.8 1795.31 40
-3 -5 7 81280.6 1738.06 28
-3 -5 7 80302.9 1823.1 14
-3 -5 8 72.5539 47.5204 28
-3 -5 8 96.738 50.726 14
-3 -5 8 7.89683 40.7062 40
-3 -4 -11 25960.6 692.651 35
-3 -4 -11 31429.1 778.47 46
-3 -4 -10 25901.5 827.489 46
-3 -4 -10 26757.5 846.329 31
-3 -4 -10 25878.5 814.132 35
-3 -4 -10 28378.3 861.014 36
-3 -4 -9 30908.5 1014.43 31
-3 -4 -9 31979.9 1014.62 36
-3 -4 -8 27845.5 1043.85 58
-3 -4 -8 33274.4 1076.95 31
-3 -4 -7 11874.8 612.306 58
-3 -4 -7 12333.2 613.903 27
-3 -4 -6 23817.5 1031.28 20
-3 -4 -5 49854.2 1248.13 25
-3 -4 -5 53622.5 1558.63 20
-3 -4 -4 48683.7 1168.12 25
-3 -4 -4 49488.3 1414.8 20
-3 -4 -3 69292.6 1463.81 25
-3 -4 -2 39789 961.181 23
-3 -4 -2 41937.3 1043.09 60
-3 -4 -1 149.593 57.3069 54
-3 -4 -1 107.648 44.4123 23
-3 -4 0 28206.7 886.154 54
-3 -4 0 28766.3 896.855 56
-3 -4 0 28842 858.024 23
-3 -4 1 24648.1 833.435 23
-3 -4 1 23781.9 847.578 54
-3 -4 1 25512.2 875.903 56
-3 -4 2 66201.4 1631.75 56
-3 -4 2 63689.3 1622.86 23
-3 -4 2 65212.5 1655 54
-3 -4 2 63397 1622.87 17
-3 -4 3 604.547 139.757 56
-3 -4 3 888.673 172.796 17
-3 -4 3 670.267 148.13 54
-3 -4 3 681.247 148.063 23
-3 -4 4 28511 1054.32 54
-3 -4 4 28849.1 1093.04 17
-3 -4 4 28992.5 999.608 56
-3 -4 4 28164.6 1071.93 23
-3 -4 5 5323.36 403.49 56
-3 -4 5 5329.85 417.378 43
-3 -4 6 71579.7 1797.15 40
-3 -4 6 67157.1 1721.67 43
-3 -4 7 2022.24 246.733 14
-3 -4 7 1771.71 216.282 43
-3 -4 7 1482.83 194.303 37
-3 -4 7 1884.16 228.464 40
-3 -4 7 1913.05 222.567 28
-3 -4 8 33368.2 916.251 28
-3 -4 8 32481.1 941.479 40
-3 -4 8 32199.1 973.431 14
-3 -4 9 92.0831 37.141 14
-3 -4 9 30.9873 27.1572 28
-3 -4 9 80.1147 41.6872 40
-3 -3 -11 3762.6 245.066 33
-3 -3 -11 4005.52 257.347 46
-3 -3 -11 3836.64 246.872 35
-3 -3 -10 3202.95 269.714 35
-3 -3 -10 3223.73 272.647 31
-3 -3 -10 3048.95 268.634 46
-3 -3 -10 3367.74 281.226 36
-3 -3 -9 27511.8 969.482 31
-3 -3 -9 29437.7 987.759 36
-3 -3 -8 19233.6 810.255 36
-3 -3 -8 18977 806.843 31
-3 -3 -7 67578.3 1925.46 20
-3 -3 -7 67224.6 1701.07 58
-3 -3 -7 68823.8 1731 31
-3 -3 -6 8075.16 565.378 20
-3 -3 -6 8216.53 458.546 58
-3 -3 -5 28071.4 833.83 25
-3 -3 -5 28971.5 1082.91 20
-3 -3 -4 21974.3 672.221 25
-3 -3 -4 22068.5 892.202 20
-3 -3 -3 42771 1262.29 20
-3 -3 -3 43211.5 1002.62 25
-3 -3 -2 63375.1 1541.82 20
-3 -3 -2 65094.7 1366.68 54
-3 -3 -2 64137.6 1251.03 23
-3 -3 -1 222293 3698.62 23
-3 -3 -1 225973 3804.68 54
-3 -3 0 522.905 116.596 56
-3 -3 0 696.148 110.588 23
-3 -3 1 22855.4 812.751 56
-3 -3 1 20315.4 733.566 54
-3 -3 1 21063.1 726.631 17
-3 -3 1 21021.2 718.532 23
-3 -3 1 20000 700.95 26
-3 -3 2 65637.1 1569.22 17
-3 -3 2 63817.2 1554.47 23
-3 -3 2 67067.6 1606.48 56
-3 -3 2 62066.9 1544.41 26
-3 -3 3 36236.5 1129.8 17
-3 -3 3 32179.6 1083.27 23
-3 -3 4 16673.6 710.89 56
-3 -3 4 17608.4 783.991 17
-3 -3 4 15973.2 747.532 23
-3 -3 5 199501 3681.57 43
-3 -3 5 165772 3511.53 54
-3 -3 5 196570 3543.16 56
-3 -3 5 181590 3652.74 17
-3 -3 5 182383 3648 23
-3 -3 6 4814.62 403.323 43
-3 -3 6 4662.9 389.934 37
-3 -3 6 4842 390.177 56
-3 -3 7 9338.97 533.323 43
-3 -3 7 9394.89 534.172 37
-3 -3 8 5052.8 353.493 43
-3 -3 8 4687.7 342.744 37
-3 -3 8 5108.26 354.632 40
-3 -3 8 4994.97 338.724 28
-3 -3 9 8347.38 400.286 37
-3 -3 9 8633.09 380.525 28
-3 -3 9 9340.76 425.077 40
-3 -3 9 9125.76 435.652 14
-3 -2 -11 18885.1 613.86 35
-3 -2 -11 18755.7 619.381 33
-3 -2 -11 19588.2 634.789 46
-3 -2 -10 41333.9 1153.89 46
-3 -2 -10 41490.4 1142.36 35
-3 -2 -9 990.611 188.533 58
-3 -2 -9 1003.84 175.818 36
-3 -2 -9 951.807 167.652 31
-3 -2 -9 1098.56 188.66 46
-3 -2 -8 2516.97 283.542 36
-3 -2 -8 2247.78 271.841 31
-3 -2 -8 1975.62 260.95 58
-3 -2 -7 23220.4 1016.53 20
-3 -2 -7 21685.2 879.367 31
-3 -2 -7 23280.6 886.989 58
-3 -2 -6 60194.9 1470.56 58
-3 -2 -6 59549.4 1717.47 20
-3 -2 -5 49985.6 1201.59 25
-3 -2 -5 50280.4 1493.05 20
-3 -2 -4 62769.6 1670.43 20
-3 -2 -4 65088 1350.1 25
-3 -2 -3 963.717 112.689 60
-3 -2 -3 785.697 151.755 20
-3 -2 -3 941.261 111.906 25
-3 -2 -2 3193.71 210.869 54
-3 -2 -2 3035.04 163.805 23
-3 -2 -2 3218.68 201.186 25
-3 -2 -2 3027.67 263.375 20
-3 -2 -1 51071.5 1050.25 26
-3 -2 -1 55118.5 1252.86 20
-3 -2 -1 53914.5 1088.56 23
-3 -2 -1 55594.6 1192.5 54
-3 -2 0 53311.2 1108.31 26
-3 -2 0 55926.4 1188.54 23
-3 -2 1 170.726 47.389 26
-3 -2 1 320.229 82.6536 17
-3 -2 1 219.698 65.6514 23
-3 -2 1 382.062 73.7001 59
-3 -2 2 211753 3638.05 17
-3 -2 2 198969 3539.65 26
-3 -2 2 207471 3687.27 56
-3 -2 2 199959 3506.04 59
-3 -2 3 980.169 162.257 17
-3 -2 3 707.508 131.054 56
-3 -2 3 929.002 157.076 26
-3 -2 4 3246.95 296.306 56
-3 -2 4 2940.43 292.804 17
-3 -2 5 47125 1391.88 17
-3 -2 5 49704.3 1353.21 56
-3 -2 5 40969 1337.09 37
-3 -2 5 42002.7 1319.05 23
-3 -2 6 21436.9 926.644 23
-3 -2 6 24883.9 967.966 37
-3 -2 6 22728.5 976.167 17
-3 -2 6 25300.9 938.642 56
-3 -2 7 176.708 90.2073 43
-3 -2 7 131.212 82.234 56
-3 -2 7 268.427 94.7318 37
-3 -2 8 41870.8 1183.53 43
-3 -2 8 40554.9 1200.61 37
-3 -2 9 446.556 88.4211 28
-3 -2 9 610.839 119.409 40
-3 -2 9 591.793 117.13 37
-3 -2 9 476.877 102.995 43
-3 -2 10 29.057 35.7834 40
-3 -2 10 4.93111 30.3793 37
-3 -2 10 31.9803 34.4826 14
-3 -1 -11 127.121 61.8358 33
-3 -1 -11 118.42 57.7261 35
-3 -1 -11 208.967 71.7994 46
-3 -1 -10 34589.2 1036.32 46
-3 -1 -10 33636.4 1003.54 35
-3 -1 -9 36914.1 1172.92 46
-3 -1 -9 37759.7 1166.68 36
-3 -1 -9 36207.6 1137.28 35
-3 -1 -8 14831.4 739.995 58
-3 -1 -8 16948.9 765.775 36
-3 -1 -7 65708.7 1699.68 58
-3 -1 -7 68494 1912.99 20
-3 -1 -7 68540.6 1750.52 36
-3 -1 -6 4711.9 342.783 58
-3 -1 -6 4321.68 408.572 20
-3 -1 -5 2811.52 237.632 58
-3 -1 -5 2630.48 298.733 20
-3 -1 -4 49848.2 1132.02 25
-3 -1 -4 58478 1482.64 20
-3 -1 -3 170710 2817.17 25
-3 -1 -3 170161 2751.08 54
-3 -1 -3 169375 3120 20
-3 -1 -2 59516.3 1147.03 25
-3 -1 -2 57907.9 1175.43 54
-3 -1 -1 67638.9 1260.9 23
-3 -1 0 34816.9 797.321 26
-3 -1 1 17547 483.451 22
-3 -1 1 16242.7 477.808 57
-3 -1 1 17434.4 530.007 26
-3 -1 1 17370.5 532.239 17
-3 -1 2 123562 2209.87 59
-3 -1 2 125647 2231.17 26
-3 -1 3 111340 2183.7 26
-3 -1 3 108682 2147.92 59
-3 -1 4 30349.2 1009.33 17
-3 -1 4 29479.4 997.587 26
-3 -1 4 29685.7 974.97 56
-3 -1 5 71809.7 1764 56
-3 -1 5 70023.5 1799.84 17
-3 -1 5 67182 1826.49 26
-3 -1 6 5072.24 438.161 17
-3 -1 6 4530.49 400.671 49
-3 -1 6 5171.29 403.387 56
-3 -1 7 1352.52 207.676 56
-3 -1 7 1751.15 236.241 49
-3 -1 7 1577.15 233.94 37
-3 -1 8 20183.2 810.515 37
-3 -1 8 19471.1 765.414 43
-3 -1 9 35193.9 984.15 43
-3 -1 9 35295 1019.23 37
-3 -1 9 34678.1 1001.47 40
-3 -1 10 1958.45 173.439 40
-3 -1 10 2666.16 207.597 37
-3 0 -11 8315.27 388.442 33
-3 0 -11 8146.51 383.594 46
-3 0 -10 14264.2 619.806 46
-3 0 -10 14789.8 613.943 35
-3 0 -10 14349.1 599.574 38
-3 0 -10 14634.4 628.279 33
-3 0 -9 10463.4 566.902 35
-3 0 -9 10776.8 585.586 46
-3 0 -8 12339.4 667.243 58
-3 0 -8 13404.6 689.105 46
-3 0 -7 31130.2 1072.28 58
-3 0 -7 33003.4 1266.43 20
-3 0 -6 79020.7 1815.2 58
-3 0 -6 76210.2 2036.86 20
-3 0 -5 2254.24 271.848 20
-3 0 -5 2362.73 234.721 58
-3 0 -4 26220.6 781.307 58
-3 0 -4 26076.1 896.499 20
-3 0 -3 1574.69 135.925 25
-3 0 -2 83743.6 1483.36 25
-3 0 -1 22990.9 537.009 25
-3 0 -1 22141.4 521.005 18
-3 0 0 103981 1906.12 22
-3 0 1 63364.8 1254.94 26
-3 0 1 60639 1242.57 55
-3 0 1 61958.3 1169.78 17
-3 0 1 63847.4 1232.92 22
-3 0 1 61757.5 1254.34 57
-3 0 2 25784.1 751.533 17
-3 0 2 24474.6 661.7 57
-3 0 3 53164.6 1219.41 59
-3 0 3 52192.8 1206.6 26
-3 0 4 10123 562.344 17
-3 0 4 11006.1 530.636 59
-3 0 4 10354.7 520.261 26
-3 0 5 17622 816.259 17
-3 0 5 18346.3 779.73 56
-3 0 5 16869.3 765.257 26
-3 0 6 52305.6 1607.58 41
-3 0 6 57283.6 1615.52 49
-3 0 6 57836.4 1567.55 56
-3 0 6 57941.9 1701.9 17
-3 0 7 811.614 171.27 37
-3 0 7 1015.08 181.884 56
-3 0 7 723.688 165.804 41
-3 0 7 658.737 152.607 49
-3 0 8 7471.44 478.181 49
-3 0 8 8644.46 529.392 37
-3 0 8 7213.47 483.152 41
-3 0 8 8327.55 510.589 43
-3 0 9 11624 587.956 37
-3 0 9 12404.3 566.518 43
-3 0 10 28143 782.449 40
-3 0 10 28582.3 837.816 37
-3 0 10 30713.1 817.53 43
-3 1 -11 16383.7 568.578 32
-3 1 -11 18277.9 581.696 33
-3 1 -10 21679.1 766.784 33
-3 1 -10 20525.7 743.781 46
-3 1 -10 20992.4 738.644 35
-3 1 -10 20981.2 731.023 38
-3 1 -9 45151 1318.36 46
-3 1 -9 46985.8 1314.64 35
-3 1 -9 47133.4 1335.22 33
-3 1 -8 1488.88 223.635 35
-3 1 -8 1530.98 235.186 46
-3 1 -7 5863.72 441.532 58
-3 1 -7 5376.13 513.159 22
-3 1 -7 6639.97 491.329 46
-3 1 -7 6028.06 528.001 20
-3 1 -6 18444.7 904.582 20
-3 1 -6 18278.5 773.006 58
-3 1 -6 17382.6 821.199 46
-3 1 -5 98853.3 2117.2 58
-3 1 -5 95686.1 2258.07 20
-3 1 -4 96258 2008.27 58
-3 1 -4 93707.9 2067.07 20
-3 1 -3 191510 3396.71 58
-3 1 -3 194556 3274.06 18
-3 1 -2 14452.6 531.159 58
-3 1 -2 13211.3 442.911 18
-3 1 -1 143.219 33.2643 25
-3 1 -1 148.149 43.7662 18
-3 1 -1 116.476 50.9194 22
-3 1 0 113570 2068 22
-3 1 0 109650 1795.74 25
-3 1 0 111235 2090.19 55
-3 1 1 82602.5 1618.71 55
-3 1 1 85162.8 1508.15 17
-3 1 1 83948.2 1607.38 22
-3 1 1 83879.7 1637.44 57
-3 1 2 41876.5 997.774 17
-3 1 2 42378.1 1007.35 57
-3 1 2 44636.1 997.204 26
-3 1 3 86907.8 1736.05 59
-3 1 3 87732.6 1881.92 17
-3 1 3 89289.2 1752.51 26
-3 1 4 2562.38 240.969 59
-3 1 4 2331.1 269.646 17
-3 1 4 2513.33 235.863 26
-3 1 5 1906.35 248.9 26
-3 1 5 1836.92 265.315 17
-3 1 5 1751.94 230.143 59
-3 1 6 32619.5 1120.49 56
-3 1 6 31756.4 1204.13 41
-3 1 6 32259.1 1244.81 17
-3 1 6 31733.3 1194.7 26
-3 1 7 32415.9 1135.17 49
-3 1 7 31302.3 1168.32 41
-3 1 8 13349.7 646.527 43
-3 1 8 14206.9 699.484 37
-3 1 8 12658.7 647.308 49
-3 1 8 13171.2 682.914 41
-3 1 9 46452.5 1257.34 37
-3 1 9 43541.7 1178.84 43
-3 1 10 16.1797 41.7069 41
-3 1 10 46.6506 43.978 43
-3 1 10 35.9183 34.7279 40
-3 1 10 133.298 57.7993 37
-3 2 -11 10.3819 24.2669 33
-3 2 -10 436.027 98.8994 33
-3 2 -10 339.267 88.2757 38
-3 2 -10 384.694 108.202 32
-3 2 -9 18652.2 748.826 35
-3 2 -9 18544.2 743.441 38
-3 2 -9 18453.7 751.431 33
-3 2 -9 18073.7 753.27 46
-3 2 -8 35788.2 1173.53 35
-3 2 -8 36767.8 1217.23 33
-3 2 -8 34427.1 1195.91 46
-3 2 -7 5815.82 454.307 35
-3 2 -7 5529.47 466.391 46
-3 2 -6 47121.8 1457.86 35
-3 2 -6 53176.6 1658.89 55
-3 2 -6 43595 1534.29 20
-3 2 -6 50959.1 1734.65 22
-3 2 -5 4977.94 423.677 20
-3 2 -5 6208.83 555.909 22
-3 2 -5 5105.81 406.8 58
-3 2 -4 260.321 97.2907 18
-3 2 -4 210.649 107.821 22
-3 2 -4 392.53 119.788 58
-3 2 -4 264.364 90.8685 20
-3 2 -3 69742.3 1832.29 22
-3 2 -3 67721.2 1512.62 18
-3 2 -3 69135.1 1709.26 58
-3 2 -2 63761.3 1367.96 18
-3 2 -2 64753.3 1579.75 22
-3 2 -1 6425.64 367.6 22
-3 2 -1 6815.05 324.49 18
-3 2 -1 6375.57 381.468 55
-3 2 0 250326 4238.27 22
-3 2 0 252199 4266.34 55
-3 2 1 3675.7 252.187 57
-3 2 1 3558.42 217.403 17
-3 2 1 3604.06 242.223 18
-3 2 1 3750.37 254.294 55
-3 2 1 3594.17 243.859 22
-3 2 2 3866 244.999 26
-3 2 2 4163.81 276.466 57
-3 2 2 4142.66 269.335 17
-3 2 3 30009.7 927.002 17
-3 2 3 33273.5 893.118 57
-3 2 4 106266 2490 17
-3 2 4 111520 2285.83 26
-3 2 5 9680.41 537.944 59
-3 2 5 8549.9 601.229 17
-3 2 5 8478.95 512.077 26
-3 2 6 29116.7 1248.36 17
-3 2 6 29489.7 1136.53 26
-3 2 6 29732.9 1142.45 41
-3 2 6 25855.9 1076.95 50
-3 2 7 4273.96 384.116 49
-3 2 7 4089.52 401.268 41
-3 2 8 4533.69 394.724 41
-3 2 8 4671 385.129 49
-3 2 9 33544.8 1005.57 37
-3 2 9 31655.2 964.114 43
-3 2 9 30048.1 964.473 49
-3 2 9 31621.5 1019.72 41
-3 2 10 24100.4 763.823 41
-3 2 10 21921.3 680.326 43
-3 3 -10 34.5194 37.8719 38
-3 3 -10 61.6252 47.5531 48
-3 3 -10 123.441 52.2466 33
-3 3 -9 6226.4 397.074 38
-3 3 -9 5872.41 401.806 33
-3 3 -9 5820.77 415.961 32
-3 3 -8 12516.4 631.139 38
-3 3 -8 13011.6 680.254 33
-3 3 -8 11878.7 632.604 35
-3 3 -7 58.2066 63.6785 35
-3 3 -7 1054.85 208.763 33
-3 3 -6 161960 3359.64 35
-3 3 -6 165528 3498.85 55
-3 3 -6 174184 3587.51 33
-3 3 -5 80870.2 2304.55 18
-3 3 -5 98983.7 2635.66 22
-3 3 -5 87001.3 2247.05 20
-3 3 -5 104026 2575.23 55
-3 3 -4 2648.31 297.536 18
-3 3 -4 2362.07 270.597 20
-3 3 -4 3110.24 385.697 55
-3 3 -4 2686.95 366.886 22
-3 3 -3 40876.9 1404.74 55
-3 3 -3 40712.4 1392.95 22
-3 3 -3 37691.4 1106.82 18
-3 3 -2 46210.4 1344.93 22
-3 3 -2 44656.7 1356.81 55
-3 3 -2 45450.9 1157.31 18
-3 3 -1 6017.49 384.4 22
-3 3 -1 5981.42 341.429 18
-3 3 -1 6385.2 410.542 55
-3 3 0 94710.5 1971.12 55
-3 3 0 94123.6 1951.49 22
-3 3 0 94085.2 1899.65 57
-3 3 1 70375.2 1535.59 18
-3 3 1 72500.1 1538.69 57
-3 3 2 16590.1 619.579 17
-3 3 2 17103.6 656.762 18
-3 3 2 17523.5 634.332 57
-3 3 3 5096.62 369.358 17
-3 3 3 5006.34 316.365 26
-3 3 4 5988.75 383.243 59
-3 3 4 5608.35 371.205 26
-3 3 4 6170.16 474.224 17
-3 3 5 15039.7 772.645 42
-3 3 5 16173.5 892.555 17
-3 3 5 16401.2 745.071 26
-3 3 5 17282.7 811.471 50
-3 3 6 18678.6 1049.81 17
-3 3 6 21231.6 935.368 41
-3 3 6 20636 949.282 50
-3 3 6 18799.5 907.511 26
-3 3 7 48226.5 1514.06 41
-3 3 7 47783.3 1443.93 49
-3 3 7 46648.8 1514.56 50
-3 3 8 13109.7 662.907 49
-3 3 8 13953.7 706.689 41
-3 3 8 12656.1 674.323 50
-3 3 9 7985.36 449.793 37
-3 3 9 7859.33 465.888 41
-3 3 9 7898.38 443.457 49
-3 3 9 8301.4 439.404 43
-3 3 10 2407.64 204.168 37
-3 3 10 2710.57 226.865 41
-3 4 -10 3889.66 240.674 33
-3 4 -9 27964.7 878.485 48
-3 4 -9 29086.7 880.197 38
-3 4 -9 30660.2 931.385 33
-3 4 -8 35977.2 1114.16 38
-3 4 -8 36743.4 1198.01 33
-3 4 -7 1620.01 268.895 33
-3 4 -7 1041.27 196.609 38
-3 4 -6 8047.03 648.552 33
-3 4 -6 8294.43 589.168 38
-3 4 -5 36701.8 1397.36 38
-3 4 -5 36928.3 1434.1 55
-3 4 -5 36627.5 1494.07 33
-3 4 -5 27533 1189.02 20
-3 4 -5 29318.2 1310.8 18
-3 4 -5 32184.7 1436.55 22
-3 4 -4 4357.91 489.639 55
-3 4 -4 3770.81 389.095 18
-3 4 -4 3232.07 422.918 33
-3 4 -4 3371.14 347.197 20
-3 4 -4 4333.25 501.526 22
-3 4 -3 31034.7 1068.99 18
-3 4 -3 32503 1332.14 55
-3 4 -3 32219.1 1320.53 22
-3 4 -2 121977 2761.64 22
-3 4 -2 121463 2494.94 18
-3 4 -2 124398 2808.02 55
-3 4 -1 6075.01 383.594 18
-3 4 -1 5466.99 374.072 57
-3 4 -1 5409.82 400.696 22
-3 4 0 14253.5 610.888 18
-3 4 0 13637.4 576.584 57
-3 4 1 63795 1478.55 57
-3 4 1 64881.6 1528.94 18
-3 4 2 48369 1303.7 18
-3 4 2 48719.6 1303.79 17
-3 4 2 48107.9 1251.86 57
-3 4 3 47285.3 1357.39 17
-3 4 3 48182 1370.21 18
-3 4 4 64950.3 1832.14 18
-3 4 4 68307.8 1883.67 17
-3 4 4 69951.4 1644.63 59
-3 4 4 63119.4 1708.54 42
-3 4 4 63225.9 1594.63 26
-3 4 5 228.916 106.201 42
-3 4 5 296.506 136.952 17
-3 4 5 269.794 107.973 59
-3 4 5 85.6419 71.6893 50
-3 4 5 12.5939 60.8605 26
-3 4 6 3670.17 402.319 42
-3 4 6 3373.18 383.223 50
-3 4 7 37689.8 1302.58 41
-3 4 7 37732 1274.58 49
-3 4 7 37625.8 1345.75 50
-3 4 7 36629.4 1351.93 42
-3 4 8 25837.3 1007.11 50
-3 4 8 28031.4 1002.26 49
-3 4 8 27278.4 1010.24 41
-3 4 9 4837.63 342.279 49
-3 4 9 4649.39 348.449 41
-3 4 9 5156.03 348.178 37
-3 4 10 19322.6 604.43 37
-3 4 10 21598.7 666.542 41
-3 5 -9 857.28 120.829 48
-3 5 -9 1060.57 141.478 33
-3 5 -8 27669.6 879.743 29
-3 5 -8 33523.4 1061.72 33
-3 5 -8 30886.5 952.982 38
-3 5 -8 30306.4 979.473 48
-3 5 -7 48357.4 1514.5 33
-3 5 -7 44027.3 1319.88 29
-3 5 -7 46307 1435.34 48
-3 5 -7 45640.1 1358.75 38
-3 5 -6 30075.9 1185.57 38
-3 5 -6 29527.3 1289.75 33
-3 5 -6 30527.4 1255.16 48
-3 5 -5 5308.68 555.862 33
-3 5 -5 6769.75 587.228 38
-3 5 -4 10343.3 761.94 57
-3 5 -4 9110.38 721.082 33
-3 5 -4 10764.1 784.752 38
-3 5 -4 9078.41 669.428 18
-3 5 -4 8837.83 755.898 22
-3 5 -3 1179.71 265.581 22
-3 5 -3 1428 242.767 18
-3 5 -3 1387.5 258.77 57
-3 5 -3 1531.89 294.272 38
-3 5 -2 40096 1342.41 57
-3 5 -2 38801 1254.79 18
-3 5 -2 37295 1364.73 48
-3 5 -1 62855.1 1672.25 57
-3 5 -1 64080.6 1650.15 18
-3 5 0 15090 676.437 57
-3 5 0 15171 686.881 18
-3 5 1 26386.8 940.485 18
-3 5 1 25660.9 903.541 57
-3 5 2 1962.98 247.526 18
-3 5 2 2301.59 254.743 57
-3 5 2 2073.87 256.717 47
-3 5 3 364.799 122.726 47
-3 5 3 468.885 131.153 18
-3 5 3 379.887 103.419 26
-3 5 3 421.141 130.343 45
-3 5 3 415.689 104.983 59
-3 5 4 1496.12 236.874 42
-3 5 4 1219.65 251.475 17
-3 5 4 1099.58 207.442 45
-3 5 4 1248.62 197.649 59
-3 5 4 1310.2 248.042 18
-3 5 5 118728 2721.22 42
-3 5 5 119421 2664.97 59
-3 5 5 117361 2702.4 50
-3 5 6 2231.98 323.909 42
-3 5 6 2689.31 344.788 50
-3 5 7 58487.4 1634.9 49
-3 5 7 53375.2 1701.93 42
-3 5 7 56297.4 1657 41
-3 5 7 56543.5 1711.51 50
-3 5 8 417.809 126.236 41
-3 5 8 403.318 123.456 50
-3 5 8 315.483 98.6553 49
-3 5 9 604.182 111.812 37
-3 5 9 489.548 106.283 49
-3 5 9 537.597 110.115 41
-3 5 10 1802.32 163.137 41
-3 6 -8 10778.2 507.101 33
-3 6 -8 10777.2 480.407 48
-3 6 -7 4270.7 382.721 33
-3 6 -7 3582.02 302.532 29
-3 6 -7 4097.99 351.519 48
-3 6 -6 185.352 110.57 33
-3 6 -6 87.0435 74.1048 38
-3 6 -6 -17.3132 61.6257 29
-3 6 -6 -25.2678 81.1625 48
-3 6 -5 13873.2 895.422 33
-3 6 -5 15308.2 854.251 29
-3 6 -5 15444.1 915.537 48
-3 6 -5 15281.5 894.212 38
-3 6 -4 51370.5 1871.74 48
-3 6 -4 49505.7 1802.33 38
-3 6 -4 46824.1 1723.89 33
-3 6 -4 53809.5 1853.39 29
-3 6 -3 12893.9 837.268 38
-3 6 -3 14153.8 893.77 48
-3 6 -2 9483.67 671.483 48
-3 6 -2 8564.58 610.507 18
-3 6 -2 9693.11 733.323 29
-3 6 -2 9428.67 686.691 57
-3 6 -1 20397.8 931.044 48
-3 6 -1 22130.6 960.364 18
-3 6 -1 22051.8 1037.42 29
-3 6 -1 22757.3 1009.98 57
-3 6 0 1576.85 237.395 18
-3 6 0 1191.99 206.72 48
-3 6 0 1536.47 251.747 29
-3 6 0 1558.53 240.842 57
-3 6 1 64558.7 1716.4 47
-3 6 1 64605.9 1762.76 18
-3 6 1 65664.8 1741.81 57
-3 6 2 77853.6 1942.29 47
-3 6 2 72135.1 1926.28 45
-3 6 2 75155.5 1996.5 18
-3 6 3 6460.91 534.985 18
-3 6 3 6589.89 504.343 45
-3 6 3 6959.48 508.495 47
-3 6 4 29399.8 1157.79 45
-3 6 4 30220.2 1158.79 42
-3 6 5 27006.6 1127.62 42
-3 6 5 26021.3 1115.33 45
-3 6 5 25801.3 1101.94 50
-3 6 6 19207.8 941.919 50
-3 6 6 20005.2 936.856 41
-3 6 6 20300.9 980.085 42
-3 6 7 5093.9 401.301 49
-3 6 7 5033.84 428.969 41
-3 6 7 4980.6 440.03 50
-3 6 7 4973.73 458.61 42
-3 6 8 18281.9 698.828 37
-3 6 8 20627.9 825.972 50
-3 6 8 18952.5 724.283 49
-3 6 8 20090.3 800.339 41
-3 6 9 2247.69 212.526 10
-3 6 9 2923.68 240.699 41
-3 7 -7 21997.4 768.253 33
-3 7 -7 21698.2 738.403 48
-3 7 -6 1022.56 193.721 33
-3 7 -6 1216.98 187.689 29
-3 7 -6 1062.93 191.807 48
-3 7 -5 14556 827.509 48
-3 7 -5 13622.4 801.946 33
-3 7 -5 14659 775.477 29
-3 7 -4 10675.6 768.046 48
-3 7 -4 10705.9 750.51 29
-3 7 -3 37924.9 1514.83 48
-3 7 -3 37027 1533.4 29
-3 7 -2 10532 782.599 29
-3 7 -2 10409.2 719.27 48
-3 7 -1 79300 2096.9 48
-3 7 -1 80027 2252.91 29
-3 7 0 3184.61 353.542 47
-3 7 0 3465.08 359.622 48
-3 7 0 3224.61 374.795 29
-3 7 1 30135.2 1143.27 29
-3 7 1 29228.6 1163.72 45
-3 7 1 30288.8 1127.43 47
-3 7 2 7608.78 536.136 47
-3 7 2 7732.39 558.315 45
-3 7 3 10921.9 646.595 42
-3 7 3 11196.1 663.266 47
-3 7 3 11417 687.742 45
-3 7 4 25264.4 1086.25 50
-3 7 4 25707.8 1099.66 45
-3 7 4 26479.3 1069.31 42
-3 7 5 49391.2 1603.97 45
-3 7 5 52265.1 1615.41 42
-3 7 5 49339.1 1590.09 50
-3 7 6 2133.94 260.516 49
-3 7 6 2185.18 289.705 50
-3 7 6 2438.57 304.734 41
-3 7 6 1988.52 295.428 42
-3 7 7 38685.7 1218.06 50
-3 7 7 38870.2 1221.84 41
-3 7 7 34898.5 1058.72 49
-3 7 7 39040.8 1300.27 42
-3 7 8 22353.9 794.357 50
-3 7 8 22904.2 783.472 41
-3 8 -6 9947.18 488.207 48
-3 8 -5 13523.7 660.962 29
-3 8 -5 13697.4 703.364 48
-3 8 -5 12776.1 624.921 47
-3 8 -4 7437.65 585.644 48
-3 8 -4 8356.86 602.112 29
-3 8 -4 7809.7 576.273 47
-3 8 -3 8789.87 664.33 47
-3 8 -3 9515.61 668.784 45
-3 8 -3 8938.5 680.139 29
-3 8 -3 8832.61 662.224 48
-3 8 -2 1399.28 267.559 47
-3 8 -2 1610.39 278.96 48
-3 8 -2 1560.76 302.489 29
-3 8 -2 1729.81 324.484 45
-3 8 -1 14047.6 778.867 48
-3 8 -1 15208.6 959.745 45
-3 8 -1 14710.7 876.198 29
-3 8 -1 13907.3 810.537 47
-3 8 0 38197.8 1345.39 47
-3 8 0 37385.8 1282.93 48
-3 8 0 40904.3 1566.88 45
-3 8 1 33382.9 1324.72 45
-3 8 1 31155.6 1170.92 47
-3 8 2 17841.5 896.552 45
-3 8 2 18277 864.234 42
-3 8 2 18463.1 855.309 47
-3 8 3 1869.81 279.761 45
-3 8 3 2089.24 281.977 42
-3 8 3 2147.24 323.712 50
-3 8 3 2463.8 307.179 47
-3 8 4 1860.34 268.347 42
-3 8 4 1376.22 235.262 45
-3 8 4 1157.94 225.575 50
-3 8 5 16606.1 819.04 42
-3 8 5 16835.3 834.675 50
-3 8 5 16429.5 794.374 41
-3 8 6 4415.49 370.817 41
-3 8 6 4543.19 402.807 42
-3 8 6 4783.75 399.807 50
-3 8 7 8057.74 433.721 41
-3 8 7 7955.02 455.693 50
-3 9 -5 630.252 116.388 48
-3 9 -4 20385 783.982 47
-3 9 -4 22731 901.411 48
-3 9 -3 45666.7 1487.82 48
-3 9 -3 47557.5 1509.99 47
-3 9 -2 8536.64 655.484 45
-3 9 -2 7975.22 616.354 47
-3 9 -2 8179.37 583.01 48
-3 9 -1 24049.1 1119.06 42
-3 9 -1 24068.7 1242.23 45
-3 9 -1 21951.4 956.637 48
-3 9 -1 21594.5 1027.36 47
-3 9 0 3913.49 399.422 47
-3 9 0 4242.98 508.208 45
-3 9 0 3943.58 363.524 48
-3 9 0 4214.58 454.403 42
-3 9 1 3382.69 420.831 45
-3 9 1 2804.37 359.408 42
-3 9 1 3062.52 342.109 47
-3 9 2 39362.4 1377.83 42
-3 9 2 37743.7 1394 45
-3 9 3 9105.14 612.068 45
-3 9 3 9798.46 627.537 42
-3 9 3 10920.7 769.009 50
-3 9 4 7164.1 514.147 45
-3 9 4 8271.98 602.171 50
-3 9 4 7966.11 545.094 42
-3 9 5 16095.5 759.459 50
-3 9 5 14874.7 721.581 42
-3 9 6 1064.84 163.82 50
-3 9 6 1064.74 169.081 42
-3 10 -2 2507.08 275.133 48
-3 10 -1 11202.7 697.697 47
-3 10 -1 11292 721.595 45
-3 10 0 35512.7 1518.91 45
-3 10 1 639.28 198.392 42
-3 10 1 527.004 195.224 45
-3 10 2 1915.71 310.302 42
-3 10 2 2041.35 342.524 45
-3 10 3 6034.09 497.526 42
-3 10 4 5811.47 440.338 42
-2 -11 -4 903.667 115.021 39
-2 -11 -4 818.381 109.172 51
-2 -11 -3 11575.9 440.886 51
-2 -11 -3 11134.7 439.53 39
-2 -11 -2 724.028 103.749 51
-2 -11 -2 787.981 114.744 39
-2 -11 -1 9950.87 411.558 39
-2 -10 -7 6273.38 294.173 27
-2 -10 -7 6598.39 305.155 51
-2 -10 -6 10687.5 429.273 39
-2 -10 -6 10728 428.408 31
-2 -10 -6 12067.6 473.428 27
-2 -10 -6 11439.1 459.316 51
-2 -10 -5 267.43 76.2719 39
-2 -10 -5 265.535 80.6803 27
-2 -10 -5 471.948 91.5176 31
-2 -10 -5 352.551 81.5996 51
-2 -10 -4 3774.65 280.957 39
-2 -10 -4 3946.6 283.35 51
-2 -10 -4 3944.79 294.801 27
-2 -10 -3 27782.8 851.912 39
-2 -10 -3 26627.9 826.289 51
-2 -10 -3 26000.7 843.651 27
-2 -10 -2 29821.2 906.537 39
-2 -10 -2 29704.6 879.602 51
-2 -10 -2 27134.2 861.315 27
-2 -10 -1 545.517 109.3 51
-2 -10 -1 589.863 114.619 39
-2 -10 -1 765.233 131.708 52
-2 -10 0 21831.1 734.796 39
-2 -10 0 17187.6 657.573 52
-2 -10 1 50.4672 51.7336 44
-2 -10 1 92.0047 54.2723 39
-2 -10 1 198.12 68.4948 52
-2 -10 2 19164.3 650.984 44
-2 -10 2 19084.8 627.55 52
-2 -10 3 2394.88 188.96 44
-2 -10 3 2020.94 160.773 52
-2 -9 -8 5696.69 301.272 31
-2 -9 -8 5618.72 298.188 27
-2 -9 -8 6166.51 319.636 51
-2 -9 -7 26556.2 804.701 27
-2 -9 -7 25879.6 788.424 31
-2 -9 -7 26377.3 806.548 51
-2 -9 -6 7972.66 425.008 51
-2 -9 -6 7542.8 421.898 27
-2 -9 -6 7256.82 404.089 39
-2 -9 -6 7372.73 407.027 31
-2 -9 -5 30063.8 933.345 39
-2 -9 -5 30101.2 917.704 51
-2 -9 -5 29177.2 937.118 27
-2 -9 -4 900.574 146.325 39
-2 -9 -4 1199.85 174.256 27
-2 -9 -4 917.612 144.706 51
-2 -9 -3 3791.28 315.409 39
-2 -9 -3 3781.64 299.643 51
-2 -9 -3 4043.15 321.696 52
-2 -9 -2 19603.1 755.501 39
-2 -9 -2 18500.9 738.146 52
-2 -9 -1 41410 1186 52
-2 -9 -1 40534 1190.61 39
-2 -9 -1 41371 1202.16 44
-2 -9 0 9857.74 534.934 44
-2 -9 0 8980.5 507.833 39
-2 -9 0 9322.38 504.457 52
-2 -9 1 74638.6 1747.92 52
-2 -9 1 77436.2 1806.43 44
-2 -9 1 74295.8 1742.05 39
-2 -9 2 336.395 90.6486 39
-2 -9 2 220.982 82.4582 44
-2 -9 2 221.764 81.8455 52
-2 -9 3 6315.91 389.166 44
-2 -9 3 6667.79 384.213 52
-2 -9 4 441.558 92.9031 44
-2 -9 4 446.702 88.1632 52
-2 -9 5 24535.5 667.372 44
-2 -8 -9 14517 499.242 36
-2 -8 -9 16285.1 539.594 51
-2 -8 -8 19115.8 668.879 36
-2 -8 -8 19657.4 702.814 51
-2 -8 -8 18956.3 676.306 31
-2 -8 -8 19461.6 686.096 27
-2 -8 -7 5950.52 383.594 36
-2 -8 -7 5718.94 370.001 31
-2 -8 -7 5813.6 384.992 51
-2 -8 -7 5901.63 379.037 27
-2 -8 -6 19.5458 48.2243 39
-2 -8 -6 84.2051 62.0841 51
-2 -8 -6 94.3494 53.8643 27
-2 -8 -5 26553.8 902.337 51
-2 -8 -5 27314 929.659 27
-2 -8 -5 27849.5 933.213 39
-2 -8 -4 81389.4 1880.23 39
-2 -8 -4 81103.8 1809.39 51
-2 -8 -3 20984.1 813.291 39
-2 -8 -3 21042.8 811.826 52
-2 -8 -2 18732.6 775.99 44
-2 -8 -2 18500.4 759.474 52
-2 -8 -1 11514.3 597.41 44
-2 -8 -1 11002.5 575.898 52
-2 -8 0 5179.96 400.582 44
-2 -8 1 6696.18 469.705 14
-2 -8 1 6603.19 464.876 44
-2 -8 2 64391.1 1655.1 44
-2 -8 2 57825.2 1629.34 14
-2 -8 3 1535.19 223.464 14
-2 -8 3 1501.63 213.168 44
-2 -8 4 19470.3 800.793 14
-2 -8 4 20019.4 777.435 44
-2 -8 5 73.0998 49.5355 44
-2 -8 5 104.727 52.6433 14
-2 -8 5 122.632 51.7859 52
-2 -8 6 5620.45 317.154 14
-2 -8 6 5429.85 294.569 44
-2 -7 -10 8355.39 366.351 31
-2 -7 -9 5438.79 340.881 31
-2 -7 -9 5221.14 333.636 36
-2 -7 -9 5344.21 336.766 27
-2 -7 -9 5280.55 334.705 51
-2 -7 -8 11833.7 553.447 31
-2 -7 -8 11957.4 570.878 36
-2 -7 -8 12095.1 567.652 27
-2 -7 -8 12188.5 579.283 51
-2 -7 -7 73601 1753.33 27
-2 -7 -7 74744.9 1768.19 51
-2 -7 -6 7472.59 461.24 51
-2 -7 -6 7495.24 456.215 39
-2 -7 -6 7250.23 453.791 27
-2 -7 -5 17853 735.727 39
-2 -7 -5 17651.8 717.47 51
-2 -7 -4 4249.33 353.543 39
-2 -7 -4 4183.18 327.821 25
-2 -7 -4 3795.7 321.641 52
-2 -7 -3 7653.17 446.883 25
-2 -7 -3 9724.67 519.261 52
-2 -7 -2 15060.2 670.987 44
-2 -7 -2 13162.3 600.127 25
-2 -7 -2 14656.6 655.128 52
-2 -7 -1 93381.6 2076.15 44
-2 -7 -1 88088.3 2003.2 23
-2 -7 0 26830.2 963.32 44
-2 -7 0 25659.7 928.597 23
-2 -7 1 18921.3 827.045 14
-2 -7 1 20498.1 836.881 23
-2 -7 2 976.822 183.467 28
-2 -7 2 978.966 189.665 14
-2 -7 3 8056.09 520.028 28
-2 -7 3 7800.66 546.603 14
-2 -7 4 30994.7 1055.74 28
-2 -7 4 30601.2 1124.78 14
-2 -7 5 32530.4 1016.5 28
-2 -7 5 33214.2 1112.11 14
-2 -7 6 1251.08 180.798 14
-2 -7 7 19228.6 604.355 44
-2 -7 7 18768.9 633.51 14
-2 -6 -10 41989.3 1047.62 46
-2 -6 -10 43453.2 1075.03 36
-2 -6 -10 42123.8 1067.76 31
-2 -6 -9 9385.87 487.089 27
-2 -6 -9 9775.83 501.331 36
-2 -6 -9 9282.85 486.033 51
-2 -6 -9 9434.52 483.687 31
-2 -6 -8 6827.83 443.875 36
-2 -6 -8 6361.28 414.303 31
-2 -6 -8 6680.59 441.005 27
-2 -6 -8 6576.19 435.629 51
-2 -6 -7 728.645 145.269 27
-2 -6 -7 610.956 133.552 51
-2 -6 -6 146994 2898.53 27
-2 -6 -6 145695 2883.36 51
-2 -6 -5 2723.18 269.773 39
-2 -6 -5 2857.09 267.8 51
-2 -6 -5 2244.05 233.807 25
-2 -6 -4 109281 2200.17 25
-2 -6 -4 114381 2327.3 39
-2 -6 -3 7525.34 441.803 52
-2 -6 -3 8885.54 436.636 25
-2 -6 -2 7667.67 408.419 23
-2 -6 -1 7910.75 421.617 23
-2 -6 0 110072 2197.04 60
-2 -6 0 104398 2174.7 23
-2 -6 1 2628.36 258.666 60
-2 -6 1 2548.16 259.048 23
-2 -6 2 73674.8 1923.53 14
-2 -6 2 76548.2 1908.33 28
-2 -6 2 79718.4 1894.11 23
-2 -6 2 83289.3 1885.41 60
-2 -6 3 7626.59 531.017 40
-2 -6 3 7332.86 532.896 14
-2 -6 3 7521.2 483.029 60
-2 -6 3 7351.81 499.265 28
-2 -6 3 7443.02 508.92 23
-2 -6 4 20086.2 934.734 14
-2 -6 4 20411.1 904.618 40
-2 -6 5 9965.13 625.813 14
-2 -6 5 10353.1 605.027 40
-2 -6 5 10678.7 571.129 28
-2 -6 6 60361.8 1565.04 40
-2 -6 6 59962.8 1480.12 28
-2 -6 6 60861.7 1613.03 14
-2 -6 7 11521.7 507.574 28
-2 -6 7 12525.3 570.551 14
-2 -6 8 27379 781.864 14
-2 -5 -11 46.8945 36.8545 46
-2 -5 -11 228.154 67.1304 31
-2 -5 -10 15953 622.217 36
-2 -5 -10 16043.4 621.043 46
-2 -5 -10 16565.4 635.294 31
-2 -5 -9 42618.5 1210.4 27
-2 -5 -9 44811.8 1245.26 36
-2 -5 -9 43707.1 1226.25 31
-2 -5 -8 29703.4 997.17 31
-2 -5 -8 28735.1 1011.17 36
-2 -5 -8 29033.5 1011.6 27
-2 -5 -8 29961.9 1030.18 51
-2 -5 -7 57672.8 1511.4 27
-2 -5 -7 57874.7 1512.64 51
-2 -5 -6 3514.78 376.872 20
-2 -5 -6 3721.09 321.901 27
-2 -5 -6 3763.56 320.678 51
-2 -5 -5 8870.38 548.476 20
-2 -5 -5 8697.95 461.326 51
-2 -5 -5 9036.05 442.644 25
-2 -5 -4 2408.16 248.848 20
-2 -5 -4 2646.95 216.779 25
-2 -5 -3 106343 2007.28 25
-2 -5 -2 65348.5 1378.04 23
-2 -5 -1 108805 2067.08 23
-2 -5 -1 111532 2098.22 60
-2 -5 0 582.564 104.285 23
-2 -5 1 156.694 57.0226 23
-2 -5 2 19624.7 746.274 23
-2 -5 3 110241 2524.36 40
-2 -5 3 111588 2577.71 14
-2 -5 4 26589.1 1045.25 17
-2 -5 4 27190.6 1086.12 14
-2 -5 4 26389.7 1030.66 40
-2 -5 4 26502.6 1000.6 23
-2 -5 5 52813.9 1525.91 40
-2 -5 5 50726.4 1425.03 28
-2 -5 5 51939.5 1599.48 14
-2 -5 6 4985.2 376.559 28
-2 -5 6 4964.18 429.42 14
-2 -5 6 4839.8 393.946 40
-2 -5 7 176.522 83.3382 28
-2 -5 7 230.438 92.6558 40
-2 -5 7 109.661 68.5828 14
-2 -5 8 579.06 111.224 40
-2 -5 8 647.003 115.411 28
-2 -5 8 487.213 109.226 14
-2 -5 9 22669.9 660.786 14
-2 -4 -11 8048.22 384.601 31
-2 -4 -11 7574.9 369.368 46
-2 -4 -10 37943.7 1060.88 35
-2 -4 -10 38087.3 1090.68 36
-2 -4 -10 41007 1123.74 46
-2 -4 -10 39846.8 1116.22 31
-2 -4 -9 4849.21 375.335 31
-2 -4 -9 5033.48 379.291 36
-2 -4 -9 4321.29 347.153 27
-2 -4 -8 5363.03 404.865 27
-2 -4 -8 5138.6 396.833 36
-2 -4 -8 5396 408.396 31
-2 -4 -7 23711.3 870.512 58
-2 -4 -7 24522 892.401 31
-2 -4 -7 24442.7 908.891 27
-2 -4 -7 24423.8 1029.53 20
-2 -4 -6 88743 2102.85 20
-2 -4 -6 91194.3 1846.86 58
-2 -4 -6 85843.6 1913.25 27
-2 -4 -5 4889.34 380.182 20
-2 -4 -5 4633.71 292.987 25
-2 -4 -4 239047 3891.25 25
-2 -4 -4 235612 4150.32 20
-2 -4 -3 167388 2961.92 20
-2 -4 -3 167907 2825.28 25
-2 -4 -2 14378.9 469.884 20
-2 -4 -2 15468.9 478.224 23
-2 -4 -1 44643.1 987.537 23
-2 -4 0 109264 2039.45 56
-2 -4 0 107421 2040.12 54
-2 -4 0 112478 2022.19 23
-2 -4 1 404.889 91.3938 54
-2 -4 1 262.977 76.2681 56
-2 -4 1 441.77 88.9243 23
-2 -4 2 58344.5 1376.9 23
-2 -4 2 59830.6 1384.21 56
-2 -4 2 57127.9 1376.91 54
-2 -4 3 86.0318 146.899 23
-2 -4 3 106.627 84.7876 56
-2 -4 3 184.988 84.5785 54
-2 -4 4 8005.61 500.017 17
-2 -4 4 7890.7 488.044 23
-2 -4 4 7815.91 456.901 54
-2 -4 4 7745.84 443.937 56
-2 -4 5 77773.5 1932.67 43
-2 -4 5 82306.4 2000.12 40
-2 -4 5 84728.7 2048.74 17
-2 -4 5 76917.4 1941.23 23
-2 -4 6 23417.3 934.451 37
-2 -4 6 25727.5 966.609 40
-2 -4 6 24163.8 936.385 43
-2 -4 7 5345.26 400.904 43
-2 -4 7 5183.74 397.623 37
-2 -4 7 5540.72 408.024 40
-2 -4 7 5797.48 404.048 28
-2 -4 7 5503.11 431.85 14
-2 -4 8 8949.66 482.176 37
-2 -4 8 9264.46 471.562 28
-2 -4 8 9324.99 489.597 40
-2 -4 8 8762.65 488.682 14
-2 -4 9 4.84572 33.4283 14
-2 -4 9 31.5466 33.6575 28
-2 -4 10 2419.92 171.982 13
-2 -4 10 4545.86 235.307 14
-2 -3 -11 8370.81 394.83 35
-2 -3 -11 9315.57 432.61 31
-2 -3 -11 9285.91 430.696 46
-2 -3 -10 43037.9 1194.6 35
-2 -3 -10 44185.5 1223.81 36
-2 -3 -10 46847.7 1259.95 31
-2 -3 -10 43647.2 1214.4 46
-2 -3 -9 55072.3 1484.87 36
-2 -3 -9 53565.1 1481.2 31
-2 -3 -8 9301.82 558.826 58
-2 -3 -8 10166.1 577.117 31
-2 -3 -8 10802.3 591.81 36
-2 -3 -7 22407.5 936.779 20
-2 -3 -7 21940.7 850.648 31
-2 -3 -6 4632.93 383.224 20
-2 -3 -6 4759.22 319.456 58
-2 -3 -5 27618.9 933.555 20
-2 -3 -5 25692 738.216 25
-2 -3 -4 100272 2089.62 20
-2 -3 -4 99831.6 1813.19 25
-2 -3 -3 196517 3451.54 20
-2 -3 -3 199227 3200.84 25
-2 -3 -2 18197.4 596.953 20
-2 -3 -2 19472.8 497.429 23
-2 -3 -1 34986.6 783.973 20
-2 -3 -1 35905.2 813.324 56
-2 -3 -1 37955.7 802.881 23
-2 -3 -1 38157.8 853.497 54
-2 -3 0 351.165 69.9912 54
-2 -3 0 248.849 62.8396 56
-2 -3 1 174578 3028.33 23
-2 -3 1 178996 3074.26 54
-2 -3 2 78847.4 1647.34 23
-2 -3 2 81157.7 1679.32 54
-2 -3 2 83591.5 1716.06 56
-2 -3 3 190767 3444.8 54
-2 -3 3 193715 3463.8 23
-2 -3 3 197365 3470.99 17
-2 -3 3 199478 3441.9 56
-2 -3 4 7161.19 435.784 17
-2 -3 4 7138.77 436.659 23
-2 -3 4 7126.24 404.531 56
-2 -3 4 6781.08 406.032 54
-2 -3 5 2978.23 273.315 56
-2 -3 5 2330.61 270.732 43
-2 -3 5 2376.81 267.789 17
-2 -3 5 1960.61 255.16 37
-2 -3 5 2238.53 257.499 23
-2 -3 5 2221.49 238.88 54
-2 -3 6 39.7767 45.2999 23
-2 -3 6 205.351 82.05 17
-2 -3 6 44.8635 62.3136 43
-2 -3 6 134.664 87.3359 37
-2 -3 6 48.1902 60.6 56
-2 -3 7 22092.9 872.226 43
-2 -3 7 21059.4 853.762 40
-2 -3 7 20651.3 860.855 37
-2 -3 8 12905.5 624.109 37
-2 -3 8 12838.8 611.688 43
-2 -3 8 13340.5 633.236 40
-2 -3 8 12759.3 588.841 28
-2 -3 9 50821.1 1299.14 14
-2 -3 9 48733.4 1182.38 28
-2 -3 9 48706.7 1255 37
-2 -3 9 51418.9 1274.4 40
-2 -3 10 113.991 54.1632 14
-2 -2 -11 164.789 64.0955 46
-2 -2 -11 176.572 66.904 35
-2 -2 -11 96.1787 51.373 33
-2 -2 -11 143.53 61.5649 31
-2 -2 -10 5749.04 389.705 35
-2 -2 -10 5226.73 375.864 46
-2 -2 -10 5769.62 395 31
-2 -2 -9 19091.2 798.145 46
-2 -2 -9 18852.7 807.806 31
-2 -2 -9 19553.5 817.327 36
-2 -2 -8 5926.65 479.591 20
-2 -2 -8 6230.5 451.351 36
-2 -2 -8 6853.46 475.632 31
-2 -2 -8 5741.85 437.3 58
-2 -2 -7 44093.2 1293.13 31
-2 -2 -7 42842.2 1238.28 58
-2 -2 -7 44522.8 1360.7 20
-2 -2 -6 113361 2424.78 20
-2 -2 -6 112280 2216.24 58
-2 -2 -5 2823 273.186 20
-2 -2 -5 2075.79 186.204 58
-2 -2 -4 21673.9 766.6 20
-2 -2 -4 21971.3 582.832 25
-2 -2 -3 77429.1 1381.75 25
-2 -2 -3 75790.4 1646.8 20
-2 -2 -2 9769.61 424.381 20
-2 -2 -2 10426.7 339.889 54
-2 -2 -2 9988.41 282.068 23
-2 -2 -1 150138 2529.23 20
-2 -2 -1 147288 2312.43 26
-2 -2 -1 153150 2397.04 23
-2 -2 -1 154051 2473.3 54
-2 -2 0 67132.5 1210.67 20
-2 -2 0 69754.9 1264.46 23
-2 -2 0 70098.4 1406.48 56
-2 -2 1 23771.1 606.913 26
-2 -2 1 24216.9 639.562 23
-2 -2 1 23630.3 702.963 56
-2 -2 2 1908.91 173.882 17
-2 -2 2 2012.59 192.496 56
-2 -2 2 2119.67 186.772 26
-2 -2 3 23239.9 727.587 17
-2 -2 3 21412.9 733.187 26
-2 -2 3 23191.3 734.939 56
-2 -2 4 104189 2111.88 17
-2 -2 4 100710 2063.33 56
-2 -2 5 6838.21 408.403 56
-2 -2 5 6516.02 419.948 17
-2 -2 6 69722.7 1738.85 43
-2 -2 6 70027.8 1639.66 56
-2 -2 6 66201.6 1724.41 37
-2 -2 6 64392.8 1679.64 17
-2 -2 6 62036.5 1653.52 23
-2 -2 7 13963.3 681.811 43
-2 -2 7 13745.1 693.576 37
-2 -2 7 13313.1 633.248 56
-2 -2 8 12204.3 627.438 40
-2 -2 8 11744.7 609.333 37
-2 -2 8 12706.3 616.066 43
-2 -2 8 11857.1 588.803 28
-2 -2 9 3262.06 276.463 43
-2 -2 9 3323.36 290.125 37
-2 -2 9 3134.87 282.354 40
-2 -2 9 3282.66 262.219 28
-2 -2 10 54984.6 1280.69 37
-2 -2 10 59220.5 1337.13 14
-2 -2 10 56616.6 1271.56 40
-2 -1 -11 55609 1307.96 33
-2 -1 -11 58488.5 1329.17 35
-2 -1 -11 57773.8 1330.39 46
-2 -1 -10 12673.6 597.427 35
-2 -1 -10 13322 606.418 46
-2 -1 -10 13052.9 604.138 31
-2 -1 -9 43255.7 1304.32 36
-2 -1 -9 43865.1 1298.4 35
-2 -1 -9 40647.3 1267.29 31
-2 -1 -9 41745.5 1265.69 46
-2 -1 -8 50.5365 54.3319 31
-2 -1 -8 114.083 70.518 58
-2 -1 -8 70.5337 62.162 20
-2 -1 -8 198.945 122.853 46
-2 -1 -8 228.49 100.317 36
-2 -1 -7 27877.7 991.958 36
-2 -1 -7 27966.7 951.569 58
-2 -1 -7 29866.3 1074.95 20
-2 -1 -6 27382 854.811 58
-2 -1 -6 25618.2 942.9 20
-2 -1 -5 135575 2707.6 20
-2 -1 -5 139668 2490.73 58
-2 -1 -4 84297.1 1544.51 25
-2 -1 -4 83351.1 1793.22 20
-2 -1 -3 219211 3799.72 20
-2 -1 -3 231550 3551.81 25
-2 -1 -2 261.843 45.505 25
-2 -1 -2 144.749 33.5799 54
-2 -1 -2 236.78 27.7092 23
-2 -1 -1 8781.36 255.779 23
-2 -1 0 133035 2174 17
-2 -1 1 460384 6935.92 17
-2 -1 1 448840 6803.34 26
-2 -1 2 638.212 101.865 17
-2 -1 2 627.465 87.3272 26
-2 -1 2 873.337 102.994 59
-2 -1 3 95005.5 1905.2 59
-2 -1 3 95642.2 1886.43 26
-2 -1 4 11833.2 521.597 17
-2 -1 4 10877.3 512.497 26
-2 -1 4 10684 492.729 56
-2 -1 5 5960.06 377.859 56
-2 -1 5 5632.32 377.342 17
-2 -1 6 10704.6 567.559 17
-2 -1 6 9792.07 573.435 49
-2 -1 6 11072.3 546.947 56
-2 -1 7 140110 2872.24 43
-2 -1 7 145179 2925.15 37
-2 -1 7 135264 2919.54 17
-2 -1 7 143429 2920.81 49
-2 -1 7 130662 2885.38 41
-2 -1 7 141753 2786.33 56
-2 -1 8 354.163 116.8 43
-2 -1 8 370.9 108.69 41
-2 -1 8 471.567 125.275 37
-2 -1 9 12870.6 599.57 40
-2 -1 9 12377.2 592.603 37
-2 -1 9 13420.1 604.486 43
-2 -1 10 176.865 71.5397 37
-2 -1 10 211.609 73.5588 40
-2 -1 11 283.461 62.1874 13
-2 -1 11 537.626 85.3945 14
-2 0 -11 6079.97 351.558 46
-2 0 -11 6082.09 348.293 33
-2 0 -10 310.867 97.6826 35
-2 0 -10 296.876 93.0506 33
-2 0 -10 190.39 81.5143 46
-2 0 -9 5047.72 392.601 35
-2 0 -9 5419.73 410.269 46
-2 0 -8 65423.1 1708.01 46
-2 0 -8 66752.9 1703.7 35
-2 0 -8 65546.4 1718.67 36
-2 0 -8 61718.1 1817.32 20
-2 0 -7 27294.9 956.24 58
-2 0 -7 28331.1 1021.73 46
-2 0 -7 26268.9 972.708 36
-2 0 -7 29986 1099.31 20
-2 0 -6 1728.25 202.451 58
-2 0 -6 3014.04 307.057 20
-2 0 -5 14242.9 642.482 20
-2 0 -5 13610 533.564 58
-2 0 -4 23695.8 765.259 20
-2 0 -4 22465.9 653.825 58
-2 0 -3 63077.9 1237.75 18
-2 0 -3 62051.7 1198.39 58
-2 0 -3 58586.6 1279.15 20
-2 0 -3 59270.2 1129.41 25
-2 0 -2 188220 2892.22 18
-2 0 -2 184999 2890.05 25
-2 0 -1 9105.45 239.015 18
-2 0 -1 8897.18 247.176 25
-2 0 0 81094.6 1264.51 17
-2 0 1 6015.43 216.346 22
-2 0 1 6033.59 232.151 26
-2 0 1 6556.15 250.921 17
-2 0 2 59587.7 1109.54 57
-2 0 2 59075.2 1256.13 17
-2 0 2 59540.8 1136.45 26
-2 0 3 2587.1 223.683 17
-2 0 3 2826.34 194.132 26
-2 0 4 272417 4640.68 59
-2 0 4 284631 4653.24 26
-2 0 4 283399 4724.39 17
-2 0 5 18741.7 749.747 17
-2 0 5 20451.9 775.437 26
-2 0 5 18080.7 719.887 56
-2 0 6 30101.3 957.75 56
-2 0 6 27748.2 983.952 17
-2 0 7 18663.2 755.393 56
-2 0 7 21684.3 964.191 37
-2 0 7 17888.4 840.885 17
-2 0 7 21362.1 935.554 41
-2 0 8 38772 1259.88 43
-2 0 8 37482.9 1232.39 37
-2 0 9 11542.6 600.081 41
-2 0 9 11907.1 595.43 37
-2 0 10 69829.4 1542.33 37
-2 0 10 64883.9 1474.33 40
-2 0 11 335.268 69.602 37
-2 0 11 266.719 66.6399 13
-2 1 -11 38047.4 979.672 33
-2 1 -10 389.714 104.748 33
-2 1 -10 404.353 107.862 46
-2 1 -10 388.034 98.0114 38
-2 1 -10 472.105 107.489 35
-2 1 -9 549.631 147.247 35
-2 1 -9 497.138 132.535 46
-2 1 -9 532.118 140.508 38
-2 1 -9 705.003 152.645 33
-2 1 -8 54994.2 1517.26 35
-2 1 -8 54636 1543.5 46
-2 1 -7 37573 1201.13 35
-2 1 -7 37252.6 1233.26 46
-2 1 -7 37939 1301.64 20
-2 1 -6 36462.5 1204.67 20
-2 1 -6 33810.9 1036.22 58
-2 1 -5 257300 4479.84 20
-2 1 -5 247149 4296.21 58
-2 1 -4 3384.99 270.739 20
-2 1 -4 4058.65 295.22 18
-2 1 -4 3364.09 257.635 58
-2 1 -3 12099.4 470.191 58
-2 1 -3 11724 431.683 18
-2 1 -2 25911.9 613.343 18
-2 1 -2 26795.2 697.627 58
-2 1 -1 108915 1861.8 58
-2 1 -1 107168 1708.81 25
-2 1 -1 108235 1789.77 18
-2 1 0 93478.8 1498.42 17
-2 1 0 91706.1 1426.3 25
-2 1 0 90260.9 1626.45 22
-2 1 1 138812 2224.06 17
-2 1 1 134708 2269.68 55
-2 1 1 139719 2296.81 57
-2 1 1 139055 2263.97 22
-2 1 2 2154.67 165.756 17
-2 1 2 2081.25 152.154 57
-2 1 2 2096.37 145.095 26
-2 1 3 11016.9 393.568 26
-2 1 3 11185.4 412.953 59
-2 1 3 11376.8 484.803 17
-2 1 4 71216 1693.89 17
-2 1 4 73965.5 1528.02 26
-2 1 4 69808.3 1520.85 59
-2 1 5 65274 1539.87 26
-2 1 5 56536.8 1564.39 17
-2 1 6 20049.8 891.007 17
-2 1 6 22062.1 805.249 56
-2 1 7 79946.2 1990.41 49
-2 1 7 82675.5 2084.68 41
-2 1 7 75817.8 2048.06 17
-2 1 8 122.766 83.1729 49
-2 1 8 65.9262 75.9367 37
-2 1 8 96.1054 74.1863 43
-2 1 8 112.661 80.7808 41
-2 1 9 21781.5 840.58 37
-2 1 9 21491.4 816.576 43
-2 1 9 21516.8 889.474 41
-2 1 10 4027.37 301.743 37
-2 1 10 3865.64 290.682 43
-2 1 10 3568.96 304.475 41
-2 1 11 26444.4 719.882 37
-2 2 -11 2488.43 200.393 33
-2 2 -11 2717.8 221.765 32
-2 2 -10 4400.06 312.002 38
-2 2 -10 4684.27 338.078 33
-2 2 -9 28840.4 1013.64 46
-2 2 -9 29975.5 1023.86 33
-2 2 -9 28951.4 988.441 35
-2 2 -9 29609.9 997.387 38
-2 2 -8 72203.7 1875.09 46
-2 2 -8 71432.3 1826.64 35
-2 2 -8 71405.6 1849.9 33
-2 2 -7 1565.82 238.096 35
-2 2 -7 1817.54 270.902 20
-2 2 -7 1874.48 263.571 46
-2 2 -6 806.875 174.225 20
-2 2 -6 690.165 164.607 46
-2 2 -6 924.575 182.183 35
-2 2 -6 832.742 178.6 22
-2 2 -5 14815 697.478 20
-2 2 -5 15873.6 757.835 18
-2 2 -5 16740.5 814.329 22
-2 2 -4 124077 2486.53 18
-2 2 -4 130118 2755.68 22
-2 2 -4 120706 2436.9 20
-2 2 -4 133767 2570.81 58
-2 2 -3 11231.1 454.12 18
-2 2 -3 11195.4 564.425 22
-2 2 -3 11261.9 542.127 58
-2 2 -2 129066 2515.97 58
-2 2 -2 135150 2286.66 18
-2 2 -2 130090 2469.71 22
-2 2 -1 2535.45 202.419 55
-2 2 -1 2497.66 190.069 22
-2 2 -1 2654.21 169.631 18
-2 2 0 51355.9 1007.19 18
-2 2 0 48923.9 1058.11 55
-2 2 0 48442.9 1033.28 22
-2 2 1 38803 865.025 57
-2 2 1 39056 826.176 17
-2 2 1 38439.4 847.95 22
-2 2 1 37760.2 856.208 55
-2 2 2 132455 2283.29 17
-2 2 2 130368 2280.44 57
-2 2 3 128396 2321.35 17
-2 2 3 122860 2155.46 26
-2 2 3 121753 2183.13 59
-2 2 4 142279 2789.91 17
-2 2 4 141274 2553.25 26
-2 2 4 144211 2602.38 59
-2 2 5 8977.24 620.709 17
-2 2 5 9313.62 488.966 26
-2 2 5 9306.7 508.916 59
-2 2 6 663.329 138.856 56
-2 2 6 739.314 187.198 17
-2 2 6 1212.03 203.187 26
-2 2 6 692.135 156.279 41
-2 2 7 33851.6 1163.94 49
-2 2 7 33633 1238.09 41
-2 2 8 116238 2542.47 49
-2 2 8 119489 2543.93 43
-2 2 8 121192 2677.02 41
-2 2 8 125206 2662.36 37
-2 2 9 12987.1 620.009 49
-2 2 9 11904.4 582.965 43
-2 2 9 14195.8 683.517 41
-2 2 9 13295.6 636.57 37
-2 2 10 28471 893.736 41
-2 2 10 27052.1 850.657 37
-2 2 11 135.519 53.4813 37
-2 3 -10 20105.2 734.783 32
-2 3 -10 19496.9 695.768 33
-2 3 -9 14848.3 656.216 38
-2 3 -9 15562.3 685.16 33
-2 3 -8 23864.1 985.058 46
-2 3 -8 25568.9 955.831 38
-2 3 -8 23620.3 939.805 35
-2 3 -8 24777.4 964.571 33
-2 3 -7 85068.9 2094.96 38
-2 3 -7 83072.2 2113.68 35
-2 3 -7 85900.6 2173.94 33
-2 3 -7 87034.4 2234.44 46
-2 3 -6 11430.9 727.132 46
-2 3 -6 13787.1 778.086 33
-2 3 -6 13036.3 726.508 35
-2 3 -6 11065.5 673.145 20
-2 3 -5 40003.4 1302.24 20
-2 3 -5 47438.8 1516.81 22
-2 3 -5 40922.2 1392.57 18
-2 3 -5 47722.4 1451.7 55
-2 3 -4 2720.31 259.122 20
-2 3 -4 3720.03 381.473 22
-2 3 -4 3457.26 358.343 55
-2 3 -4 3155.8 296.666 18
-2 3 -3 10840.6 599.888 22
-2 3 -3 10534.4 479.285 18
-2 3 -3 10353.4 592.707 55
-2 3 -2 24513 714.586 18
-2 3 -2 25137.1 870.87 55
-2 3 -2 25228.5 841.117 22
-2 3 -1 229956 3764.76 18
-2 3 -1 231120 3922.37 55
-2 3 -1 229813 3860.53 22
-2 3 0 3067.27 210.744 57
-2 3 0 3297.87 213.021 18
-2 3 0 3065.85 222.864 55
-2 3 0 3132.39 216.522 22
-2 3 1 45152.2 1007.99 18
-2 3 1 47471.3 1023.96 17
-2 3 1 43993.2 1011.83 57
-2 3 2 28010.3 756.284 17
-2 3 2 27106.5 742.126 57
-2 3 3 25518.1 795.583 17
-2 3 3 23561.8 660.203 26
-2 3 4 15258.1 681.963 17
-2 3 4 14903.8 555.029 26
-2 3 4 14937.3 580.678 59
-2 3 5 55824 1646.39 17
-2 3 5 55514.4 1420.76 26
-2 3 5 56629.7 1450.23 59
-2 3 6 10414.8 632.428 41
-2 3 6 10209.7 626.282 8
-2 3 6 10270.4 702.463 17
-2 3 6 10351.9 610.342 26
-2 3 6 9672.62 648.764 42
-2 3 6 10149.7 650.448 50
-2 3 7 28622.1 1070.04 49
-2 3 7 25273.8 1195.91 17
-2 3 7 27341.1 1122.76 50
-2 3 7 25409.7 1114.35 42
-2 3 7 28361.4 1100.49 41
-2 3 8 1548.47 233.78 49
-2 3 8 1405.61 239.816 50
-2 3 8 1406.83 206.917 43
-2 3 8 1450.04 234.285 41
-2 3 9 6759.87 452.24 37
-2 3 9 7336.55 488.268 41
-2 3 9 6771.56 456.513 49
-2 3 10 19141.1 718.594 41
-2 3 10 16427.3 642.531 37
-2 3 11 32532.6 815.327 37
-2 3 11 41205 930.704 41
-2 4 -10 54850.8 1204.57 33
-2 4 -10 47293.6 1143.33 32
-2 4 -9 7185.1 435.264 33
-2 4 -9 6921.22 453.898 32
-2 4 -9 7209.53 420.458 38
-2 4 -9 6243.32 388.776 48
-2 4 -8 4498.49 385.819 33
-2 4 -8 4255.33 361.633 38
-2 4 -8 4717.9 437.083 32
-2 4 -8 4276.61 371.63 48
-2 4 -7 11312.8 693.412 33
-2 4 -7 10531.9 623.899 38
-2 4 -7 11355.5 772.305 32
-2 4 -6 15180.1 797.318 38
-2 4 -6 16087.5 898.066 33
-2 4 -5 13303.7 787.903 18
-2 4 -5 11846.9 776.69 35
-2 4 -5 13640.4 863.902 33
-2 4 -5 14055.2 799.668 38
-2 4 -4 145040 3207.12 22
-2 4 -4 135856 2912.35 18
-2 4 -4 133714 2779.34 20
-2 4 -4 146515 3147.28 55
-2 4 -3 16.9462 62.2607 55
-2 4 -3 342.624 127.277 22
-2 4 -3 258.676 87.0183 18
-2 4 -2 79.1177 67.6415 22
-2 4 -2 57.1565 40.256 18
-2 4 -1 113518 2160.25 18
-2 4 -1 112545 2196.87 57
-2 4 -1 113853 2281.92 22
-2 4 0 63986.1 1369.02 18
-2 4 0 61600 1362.98 57
-2 4 1 9184 413.573 18
-2 4 1 9394.41 418.129 57
-2 4 2 327797 5393.91 18
-2 4 2 342682 5456.43 17
-2 4 2 333916 5390.69 57
-2 4 3 8989.65 464.782 18
-2 4 3 9652.44 493.991 17
-2 4 3 8839.29 393.338 26
-2 4 4 2084.41 259.293 17
-2 4 4 2238.92 215.479 26
-2 4 4 2310.51 229.176 59
-2 4 5 12840.3 708.835 42
-2 4 5 13900.2 789.201 17
-2 4 5 13958.6 659.435 59
-2 4 5 13993 641.376 26
-2 4 5 13600.3 727.818 50
-2 4 6 69257.7 1994.54 42
-2 4 6 69442.4 1922.06 41
-2 4 6 70001.5 2172.99 17
-2 4 6 70553.5 1992.19 8
-2 4 6 72477.4 2002.15 50
-2 4 7 24910.1 1006.72 49
-2 4 7 22868 1005.93 41
-2 4 7 22287.8 1057.49 42
-2 4 7 24447.4 1071.73 50
-2 4 8 43022.9 1327.96 49
-2 4 8 39123.7 1305.7 41
-2 4 8 40508.2 1375.81 50
-2 4 9 103.412 61.5226 49
-2 4 9 108.279 77.7801 10
-2 4 9 166.996 75.1871 37
-2 4 9 -28.4434 67.2691 41
-2 4 10 1884.07 205.305 41
-2 4 10 1587.68 172.656 37
-2 4 11 10787.5 413.198 41
-2 5 -9 12303 501.048 48
-2 5 -9 14388.6 573.438 33
-2 5 -8 9200.05 511.756 48
-2 5 -8 8932.98 502.444 38
-2 5 -8 9441.64 542.629 33
-2 5 -7 49878.4 1513.06 48
-2 5 -7 53294.6 1615.2 33
-2 5 -7 47906.9 1399.75 29
-2 5 -7 48775.9 1454.4 38
-2 5 -6 1770.15 301.696 48
-2 5 -6 1617.65 267.507 38
-2 5 -6 1766.55 301.03 33
-2 5 -5 14127.4 892.147 18
-2 5 -5 16543.2 917.988 38
-2 5 -5 15435.8 968.032 33
-2 5 -4 50972 1623.3 18
-2 5 -4 54344 1840.82 38
-2 5 -4 52435.4 1859.41 33
-2 5 -3 37206.6 1275.36 57
-2 5 -3 33330.9 1376 38
-2 5 -3 36674.7 1197.84 18
-2 5 -2 19390.2 809.428 57
-2 5 -2 20223.5 784.68 18
-2 5 -1 171116 3138.55 18
-2 5 -1 166816 3166.85 57
-2 5 0 848.372 136.326 18
-2 5 0 794.346 137.017 57
-2 5 1 5438.53 348.873 57
-2 5 1 5297.8 347.167 18
-2 5 2 36677.4 1063 18
-2 5 3 31098.8 1031.75 18
-2 5 3 33755.9 1093.18 17
-2 5 3 31976.3 900.121 26
-2 5 3 33480.5 931.757 59
-2 5 4 24162.1 983.071 18
-2 5 4 24659 966.322 42
-2 5 4 24578.2 1006.79 17
-2 5 4 22780.5 956.739 45
-2 5 4 25338.9 860.617 59
-2 5 5 30331.5 1189.42 45
-2 5 5 34481.2 1344.04 18
-2 5 5 34950.9 1255.53 42
-2 5 5 34353.1 1362.17 17
-2 5 5 33084.6 1211.18 50
-2 5 6 149.026 105.32 42
-2 5 6 311.74 134.736 41
-2 5 6 279.841 142.35 17
-2 5 6 387.257 159.639 18
-2 5 6 278.811 126.201 50
-2 5 6 373.056 153.75 8
-2 5 7 133.191 91.7901 41
-2 5 7 329.93 124.89 50
-2 5 7 284.072 117.886 8
-2 5 7 93.4583 70.581 49
-2 5 8 9934.18 606.24 41
-2 5 8 9630.95 563.535 49
-2 5 8 10045.8 635.783 50
-2 5 9 35692.7 1111.92 41
-2 5 9 35206.5 1127.51 50
-2 5 10 15547.9 596.477 10
-2 5 10 18308.1 642.427 41
-2 6 -9 1822.44 166.994 33
-2 6 -8 42.8595 39.6861 48
-2 6 -8 115.447 68.6374 33
-2 6 -7 12138.3 636.953 48
-2 6 -7 12727.2 695.946 33
-2 6 -6 44088.5 1488.54 48
-2 6 -6 43247.3 1570.84 33
-2 6 -6 42652.6 1436.74 38
-2 6 -6 39653.6 1324.16 29
-2 6 -5 15842.9 948.963 48
-2 6 -5 15305.2 906.588 38
-2 6 -5 14673.2 953.5 33
-2 6 -5 15941.2 877.588 29
-2 6 -4 16784.3 1010.27 48
-2 6 -4 17335.9 1021.03 33
-2 6 -4 16544.6 1001.19 38
-2 6 -4 18155.7 1015.42 29
-2 6 -3 83948.3 2410.43 48
-2 6 -3 86431.4 2432.61 38
-2 6 -3 86162 2506.51 29
-2 6 -3 84119.8 2219.51 18
-2 6 -3 81409.6 2310.67 33
-2 6 -2 5499.99 487.352 38
-2 6 -2 5691.5 453.574 18
-2 6 -2 6550.96 578.936 29
-2 6 -2 6329.19 528.831 48
-2 6 -1 18521 857.794 48
-2 6 -1 19314.9 940.963 29
-2 6 -1 18103.1 789.575 18
-2 6 -1 19128.1 854.602 57
-2 6 0 95645 2166.47 57
-2 6 0 89774.7 2212.94 29
-2 6 0 90997.6 2078.83 18
-2 6 1 31192.6 1065.62 47
-2 6 1 31667.5 1050.27 18
-2 6 2 48854.7 1411.17 47
-2 6 2 46361.8 1401.2 45
-2 6 2 47165.9 1377.34 18
-2 6 3 29341.6 1067.84 47
-2 6 3 27765.2 1059.74 45
-2 6 3 26932.9 1044.6 18
-2 6 4 9281.29 615.213 45
-2 6 4 8549.42 618.266 18
-2 6 4 9307.53 593.881 42
-2 6 4 8432.88 585.568 50
-2 6 4 9680.73 613.141 47
-2 6 5 27354.7 1119.31 42
-2 6 5 23867.9 1194.6 18
-2 6 5 27048.6 1149.54 45
-2 6 5 25082.2 1182.5 8
-2 6 5 25206.5 1090.55 50
-2 6 5 25873 1262.68 17
-2 6 6 49197.8 1518.39 49
-2 6 6 52583 1730.49 42
-2 6 6 53044 1666.3 41
-2 6 6 56350.2 1814.39 8
-2 6 6 47886.5 1638.07 50
-2 6 7 5677.48 437.734 49
-2 6 7 6345.39 542.694 42
-2 6 7 6364.08 513.642 41
-2 6 7 5317.92 474.478 50
-2 6 7 6105.91 514.225 8
-2 6 8 20698 904.003 50
-2 6 8 22388.7 897.389 41
-2 6 8 20735.4 794.457 49
-2 6 9 6942.22 424.331 41
-2 6 10 5681.03 309.257 41
-2 6 10 5136.61 300.902 10
-2 7 -8 2870.87 225.907 33
-2 7 -7 8802.59 477.943 48
-2 7 -7 9911.38 545.886 33
-2 7 -6 16890.6 799.983 48
-2 7 -6 16900.7 871.392 33
-2 7 -6 14656.7 695.957 29
-2 7 -5 8791.62 659.163 48
-2 7 -5 8327.98 674.436 33
-2 7 -5 8696.79 607.687 29
-2 7 -4 22996.5 1186.63 48
-2 7 -4 24020.1 1200.14 33
-2 7 -4 25562.8 1208.41 29
-2 7 -3 32346.6 1410.31 48
-2 7 -3 32580.6 1337.36 33
-2 7 -3 34791.8 1504.2 29
-2 7 -2 88230.6 2533.44 29
-2 7 -2 87742.6 2418.61 48
-2 7 -1 15521.3 816.534 18
-2 7 -1 17209.7 869.673 48
-2 7 -1 17021.8 929.183 29
-2 7 -1 16711.6 883.724 47
-2 7 0 15667.7 796.714 47
-2 7 0 16956.2 930.723 45
-2 7 0 15278 791.464 18
-2 7 0 16527.9 812.148 48
-2 7 0 16713.3 861.952 29
-2 7 1 16073.1 777.999 48
-2 7 1 15178.1 755.223 47
-2 7 1 15770.6 843.175 45
-2 7 1 14782.2 776.131 18
-2 7 1 15724.9 797.181 29
-2 7 2 13960.9 765.091 18
-2 7 2 14711 747.146 47
-2 7 2 13977.8 765.212 45
-2 7 2 14207.7 736.264 48
-2 7 3 43923.3 1402.12 47
-2 7 3 38506 1438.08 18
-2 7 3 42335.8 1386.92 42
-2 7 3 40697.7 1399.34 45
-2 7 3 41732.3 1467.06 50
-2 7 4 2412.75 324.511 45
-2 7 4 2074.51 294.855 42
-2 7 4 2361.51 330.711 50
-2 7 5 3088.26 383.564 45
-2 7 5 3212.19 384.613 50
-2 7 5 2851.87 390.749 8
-2 7 5 3061.51 369.274 42
-2 7 6 457.346 145.195 41
-2 7 6 467.952 159.737 50
-2 7 6 468.813 164.166 42
-2 7 6 728.436 204.361 8
-2 7 7 56019.2 1699.7 42
-2 7 7 59131.2 1683.57 8
-2 7 7 55987.5 1592.65 41
-2 7 7 53688.3 1610.11 50
-2 7 8 4211.33 353.295 50
-2 7 8 4223.83 342.774 41
-2 7 9 45753.2 1208.81 10
-2 7 9 44779.4 1107.78 41
-2 8 -7 5541.92 318.541 33
-2 8 -6 22513.5 828.039 48
-2 8 -6 23305.7 896.05 33
-2 8 -5 5078.52 447.766 48
-2 8 -5 4605.59 444.707 33
-2 8 -4 1747.96 274.062 47
-2 8 -4 1659.3 285.234 33
-2 8 -4 2120.74 316.413 29
-2 8 -4 2091.38 329.542 48
-2 8 -3 12126.5 824.702 48
-2 8 -3 12197.4 822.476 47
-2 8 -3 11731.4 742.306 33
-2 8 -3 13051.6 876.28 29
-2 8 -2 14912.5 891.769 48
-2 8 -2 15324.2 939.21 47
-2 8 -2 14891.1 952.836 29
-2 8 -2 15563.7 996.794 45
-2 8 -1 26280.5 1135.33 48
-2 8 -1 26495 1201.81 47
-2 8 -1 26773.4 1377.29 45
-2 8 -1 27126.6 1261.08 29
-2 8 0 36320.9 1348.09 47
-2 8 0 34692.2 1282.75 48
-2 8 0 38736.3 1609.46 45
-2 8 1 2935.95 334.459 48
-2 8 1 3172.38 412.211 45
-2 8 1 2578.12 319.728 47
-2 8 2 1128.24 209.601 47
-2 8 2 878.156 205.818 42
-2 8 2 1093.07 226.01 45
-2 8 2 964.168 202.878 48
-2 8 3 20160.8 957.904 42
-2 8 3 20138.9 968.913 45
-2 8 3 19946.4 920.248 47
-2 8 3 20383 1097.47 50
-2 8 4 27663.5 1146.44 42
-2 8 4 27137.8 1138.94 45
-2 8 5 14929 816.681 42
-2 8 5 14024.1 756.175 41
-2 8 5 15256.4 841.994 50
-2 8 6 62598.6 1817.51 42
-2 8 6 65547.7 1864.62 8
-2 8 6 61906.3 1698.75 41
-2 8 6 63902.9 1782.56 50
-2 8 7 104.733 82.2688 42
-2 8 7 60.7396 54.343 41
-2 8 7 68.6634 63.3308 50
-2 8 8 1527.44 168.978 41
-2 8 9 597.06 97.6189 10
-2 9 -5 19919 767.213 48
-2 9 -4 27081.9 1077.63 48
-2 9 -3 69041.8 2031.7 48
-2 9 -3 70858.2 2004.27 47
-2 9 -2 653.587 190.68 48
-2 9 -2 833.784 217.603 47
-2 9 -1 17644.6 905.632 48
-2 9 -1 18660.6 1150.77 45
-2 9 -1 17094.3 969.359 47
-2 9 0 517.173 151.916 48
-2 9 0 671.892 241.053 45
-2 9 0 438.671 156.818 47
-2 9 1 55250.4 2009.98 45
-2 9 1 53168 1821.66 42
-2 9 1 50613.3 1629.2 47
-2 9 1 48128 1504.29 48
-2 9 2 1129.11 256.371 45
-2 9 2 1068.78 237.566 42
-2 9 3 35356.7 1371.01 45
-2 9 3 39241.9 1429.59 42
-2 9 4 6965.41 556.105 42
-2 9 4 7319.2 627.73 50
-2 9 5 6499.18 511.517 42
-2 9 5 7011.21 543.23 50
-2 9 6 11380.4 635.968 42
-2 9 6 11599.8 619.093 50
-2 10 -4 1639.95 192.748 48
-2 10 -3 4609.32 396.071 48
-2 10 -2 15510.5 804.69 48
-2 10 -1 107.619 99.1776 48
-2 10 0 7098.41 716.411 45
-2 10 1 5626.4 646.724 45
-2 10 2 9990.28 791.259 45
-2 10 2 10403.3 816.968 42
-2 10 3 20739.2 1063.37 42
-2 10 3 14863.8 673.708 30
-2 10 4 38581.4 1381.26 42
-2 10 5 11597.1 626.845 42
-2 11 1 29928.4 1024.71 30
-1 -11 -4 1180.17 140.173 39
-1 -11 -4 1088.52 135.403 51
-1 -11 -3 455.721 92.1976 39
-1 -11 -3 402.577 86.764 51
-1 -11 -2 1226.88 151.956 39
-1 -11 -2 1110.03 137.801 51
-1 -11 -1 51032.5 1185.69 39
-1 -11 0 1672.9 156.736 39
-1 -10 -7 2658.96 203.061 51
-1 -10 -6 3305.68 250.895 51
-1 -10 -6 3008.23 237.718 27
-1 -10 -5 3383.45 266.647 39
-1 -10 -5 3592.95 280.828 27
-1 -10 -5 3429.82 269.721 51
-1 -10 -4 67107.3 1537.37 39
-1 -10 -4 68415.7 1541.63 51
-1 -10 -4 63952.6 1536.95 27
-1 -10 -3 7775.23 434.801 39
-1 -10 -3 8049.27 437.774 51
-1 -10 -2 19560.7 739.319 39
-1 -10 -2 19428.1 710.552 51
-1 -10 -1 506.542 111.193 9
-1 -10 -1 567.75 126.95 39
-1 -10 -1 587.272 118.046 51
-1 -10 0 19090.3 751.519 9
-1 -10 0 19437.1 724.85 52
-1 -10 0 20063.7 729.701 39
-1 -10 0 19115.2 673.658 51
-1 -10 1 7315.58 393.848 39
-1 -10 1 6928.65 433.213 9
-1 -10 1 7696.59 421.916 52
-1 -10 2 28252.2 939.859 9
-1 -10 2 29342.9 913.249 44
-1 -10 3 5377.29 342.107 9
-1 -10 4 1781.9 166.111 9
-1 -9 -8 14972.4 544.737 51
-1 -9 -8 13243.4 492.577 31
-1 -9 -7 36562.3 1016.92 27
-1 -9 -7 34747.7 972.51 31
-1 -9 -7 38165.4 1029.92 51
-1 -9 -6 2331.44 237.438 39
-1 -9 -6 2265.13 228.751 31
-1 -9 -6 2341.37 243.343 27
-1 -9 -6 2099.13 224.166 51
-1 -9 -5 5665.88 381.312 39
-1 -9 -5 5449.44 367.601 51
-1 -9 -5 5345.85 383.715 27
-1 -9 -4 3212.5 298.645 27
-1 -9 -4 3403.92 293.165 51
-1 -9 -4 3501.94 304.499 39
-1 -9 -3 34961.4 1080.17 39
-1 -9 -3 34889.6 1100.49 27
-1 -9 -3 36679.6 1080.69 51
-1 -9 -2 4812.65 362.791 52
-1 -9 -2 4455.23 354.801 39
-1 -9 -1 38394.2 1227.59 9
-1 -9 -1 38836.4 1180.72 44
-1 -9 -1 39310.4 1160.11 52
-1 -9 -1 40009.9 1198.43 39
-1 -9 0 9317.66 520.249 39
-1 -9 0 7505.77 468.197 52
-1 -9 0 7959.89 517.072 9
-1 -9 0 8321.91 492.879 44
-1 -9 1 651.051 140.007 44
-1 -9 1 1073 174.671 39
-1 -9 1 895.488 160.918 52
-1 -9 2 879.492 159.245 44
-1 -9 2 1074.16 157.655 39
-1 -9 2 986.397 161.348 52
-1 -9 3 25417.5 864.722 44
-1 -9 3 23925.7 804.128 52
-1 -9 4 12442.9 536.706 44
-1 -9 4 11546.1 471.764 52
-1 -9 5 37970 931.039 44
-1 -8 -9 1557.06 165.169 31
-1 -8 -9 1526.77 164.937 51
-1 -8 -8 1233.8 166.642 27
-1 -8 -8 1370.23 172.417 31
-1 -8 -8 1261.47 172.232 51
-1 -8 -7 5289.44 373.318 51
-1 -8 -7 4943.6 354.882 31
-1 -8 -7 5131.28 367.825 27
-1 -8 -6 48443.1 1329.14 39
-1 -8 -6 47733.6 1337.45 27
-1 -8 -6 48379.4 1313.74 51
-1 -8 -5 23207.1 858.666 39
-1 -8 -5 21835.1 852.933 27
-1 -8 -5 21997.1 818.4 51
-1 -8 -4 47419.2 1320.4 39
-1 -8 -4 46241 1274.28 51
-1 -8 -4 47118.8 1333.65 27
-1 -8 -3 750.164 147.516 39
-1 -8 -3 822.562 154.626 52
-1 -8 -2 128.887 77.7642 44
-1 -8 -2 279.205 89.117 39
-1 -8 -2 137.168 69.9856 52
-1 -8 -1 35796.4 1126.14 44
-1 -8 -1 35145.4 1125.39 39
-1 -8 -1 34876.7 1182.86 9
-1 -8 -1 34979.7 1090.09 52
-1 -8 0 79205.8 1877.48 44
-1 -8 0 76684.2 1843.43 52
-1 -8 1 9653.84 553.111 44
-1 -8 1 9214.85 569.048 14
-1 -8 1 9881.8 554.3 52
-1 -8 2 36160.6 1174.45 44
-1 -8 2 34405.2 1201 14
-1 -8 2 35505.2 1138.79 52
-1 -8 3 253.083 109.725 14
-1 -8 3 150.596 77.3034 52
-1 -8 3 76.1234 51.5068 44
-1 -8 4 14810.1 675.114 44
-1 -8 4 15101 717.044 14
-1 -8 4 14423.2 615.937 52
-1 -8 5 360.181 107.415 14
-1 -8 5 273.56 88.7852 44
-1 -8 6 36056.5 929.76 44
-1 -8 6 35312.3 986.234 14
-1 -8 7 10503.1 400.035 14
-1 -7 -10 8420.61 383.195 31
-1 -7 -9 64987.6 1504.19 36
-1 -7 -9 68565.5 1551.91 31
-1 -7 -9 69007.6 1566.6 51
-1 -7 -8 10899.5 545.021 36
-1 -7 -8 11092.7 550.336 31
-1 -7 -8 10969.2 549.896 27
-1 -7 -8 11096 563.93 51
-1 -7 -7 28243.9 977.419 27
-1 -7 -7 26706.5 942.186 39
-1 -7 -7 28870.1 972.463 31
-1 -7 -7 29968.5 1012.23 36
-1 -7 -7 29010.2 995.026 51
-1 -7 -6 1218.95 189.341 51
-1 -7 -6 1621.26 216.98 39
-1 -7 -6 1522.3 212.062 27
-1 -7 -5 15361.7 666.245 51
-1 -7 -5 16087.8 702.468 27
-1 -7 -5 15935.5 697.847 39
-1 -7 -4 10042.3 534.112 39
-1 -7 -4 9586.98 498.397 51
-1 -7 -3 66492.7 1627.52 39
-1 -7 -3 69190.8 1650.14 52
-1 -7 -2 10323.2 538.605 44
-1 -7 -2 9432.35 506.441 52
-1 -7 -1 61103 1514.26 52
-1 -7 -1 60915 1539.6 44
-1 -7 0 691.548 141.606 44
-1 -7 0 503.501 127.819 14
-1 -7 0 899.537 150.436 23
-1 -7 1 6748.59 450.206 44
-1 -7 1 6776.03 471.526 14
-1 -7 1 6613.39 435.157 23
-1 -7 2 3050.58 310.059 28
-1 -7 2 3215.42 334.54 14
-1 -7 2 3102.96 307.492 23
-1 -7 3 150240 3095.35 28
-1 -7 3 156442 3230.92 14
-1 -7 4 6935.19 471.078 28
-1 -7 4 7242.22 526.415 14
-1 -7 5 22950.9 925.498 14
-1 -7 6 881.514 169.023 14
-1 -7 7 8105.63 386.388 44
-1 -7 7 8389.36 427.836 14
-1 -7 8 1477.38 142.543 14
-1 -6 -11 4022.71 231.8 31
-1 -6 -10 12062.2 514.677 31
-1 -6 -9 14073.8 609.953 46
-1 -6 -9 14102.1 628.455 36
-1 -6 -9 14099.1 623.851 31
-1 -6 -9 14160.9 631.743 51
-1 -6 -8 14492.4 666.684 31
-1 -6 -8 14287.3 668.459 27
-1 -6 -8 14210.8 670.865 36
-1 -6 -8 14456.7 682.686 51
-1 -6 -7 22262.6 883.983 36
-1 -6 -7 22101.8 849.135 31
-1 -6 -7 21290.5 856.427 27
-1 -6 -7 22172.8 869.352 51
-1 -6 -6 34701 1091.12 27
-1 -6 -6 35390 1098.21 51
-1 -6 -6 33267.5 1070.99 39
-1 -6 -5 14585.3 648.268 39
-1 -6 -5 14467.1 630.373 51
-1 -6 -5 13114.4 706.121 20
-1 -6 -5 14932.9 648.962 27
-1 -6 -5 12431.5 553.076 25
-1 -6 -4 17575.9 702.064 39
-1 -6 -4 18625.3 625.049 25
-1 -6 -4 16375.7 674.969 52
-1 -6 -3 21319 831.433 19
-1 -6 -3 21126.4 660.436 25
-1 -6 -2 133901 2623.39 19
-1 -6 -1 54813.2 1268.6 23
-1 -6 0 43110.6 1092.15 23
-1 -6 1 25981.1 834.656 23
-1 -6 2 117.638 56.9053 14
-1 -6 2 47.6656 45.4785 60
-1 -6 2 71.9819 53.8111 23
-1 -6 3 1014.98 190.377 40
-1 -6 3 1233.39 201.359 28
-1 -6 3 1371.86 222.829 14
-1 -6 3 1250.8 194.373 23
-1 -6 4 41834.3 1331.34 40
-1 -6 4 41788.4 1254.88 28
-1 -6 4 41816.1 1367.85 14
-1 -6 5 5941.51 459.133 40
-1 -6 5 5977 423.435 28
-1 -6 5 5931.92 474.927 14
-1 -6 6 63763.9 1579.82 28
-1 -6 6 66028.5 1718.4 14
-1 -6 7 2310.33 247.175 14
-1 -6 8 107.777 54.7781 14
-1 -6 8 113.354 50.0684 13
-1 -6 9 425.996 76.0312 14
-1 -5 -11 31931.8 803.363 31
-1 -5 -11 24601.6 691.082 46
-1 -5 -10 10854.8 505.443 46
-1 -5 -10 11296.6 522.526 31
-1 -5 -9 66264.3 1674.3 51
-1 -5 -9 69196.9 1698.7 36
-1 -5 -9 70562.7 1682.13 31
-1 -5 -8 4955.13 395.979 36
-1 -5 -8 5247.77 395.173 31
-1 -5 -8 5210.59 406.196 27
-1 -5 -8 5037.95 405.423 51
-1 -5 -7 8548.41 615.88 20
-1 -5 -7 8377.64 518.334 51
-1 -5 -7 8020.15 489.341 31
-1 -5 -7 8690.96 524.192 27
-1 -5 -6 12844.1 619.882 27
-1 -5 -6 12716 612.248 51
-1 -5 -5 131216 2708.36 20
-1 -5 -5 125368 2375.07 25
-1 -5 -4 30025.2 939.383 20
-1 -5 -4 28515.9 765.965 25
-1 -5 -3 94711.4 1888.56 20
-1 -5 -3 95534.3 1761.11 25
-1 -5 -2 10585 400.203 20
-1 -5 -1 7081.35 346.455 19
-1 -5 -1 7518.96 334.834 23
-1 -5 0 3796.84 248.223 60
-1 -5 0 3749.1 240.525 23
-1 -5 1 100099 1951.93 60
-1 -5 1 102924 1961.52 23
-1 -5 2 95333.1 1939.15 23
-1 -5 3 84430.4 1858.92 23
-1 -5 4 680.855 154.187 40
-1 -5 4 708.516 144.871 28
-1 -5 4 958.843 193.123 14
-1 -5 4 634.101 132.38 23
-1 -5 5 211.41 93.0443 40
-1 -5 5 78.2556 57.9274 17
-1 -5 5 291.096 97.0511 28
-1 -5 5 170.899 87.6806 14
-1 -5 5 274.08 93.1635 23
-1 -5 6 15941.5 747.932 40
-1 -5 6 16439.4 722.4 28
-1 -5 6 17128.2 803.406 14
-1 -5 7 42652 1258.66 40
-1 -5 7 44016.4 1227.97 28
-1 -5 7 43892.4 1310.19 14
-1 -5 8 6137.14 399.023 14
-1 -5 9 23384.8 726.855 14
-1 -4 -11 166.946 62.4384 46
-1 -4 -11 173.655 72.1569 31
-1 -4 -10 1992.99 221.112 31
-1 -4 -10 1923.39 217.56 46
-1 -4 -9 11280.9 594.157 46
-1 -4 -9 10687.8 585.114 36
-1 -4 -9 11369.7 593.001 31
-1 -4 -8 34675.5 1149.98 36
-1 -4 -8 34066.5 1155.93 51
-1 -4 -8 34570.8 1121.71 31
-1 -4 -8 34237.9 1143.74 27
-1 -4 -7 7092.54 521.349 20
-1 -4 -7 6472.88 455.088 36
-1 -4 -7 6122.5 425.045 31
-1 -4 -7 6380.02 450.071 27
-1 -4 -7 7190.47 475.136 51
-1 -4 -6 32139.5 1090.68 20
-1 -4 -6 31378.3 894.447 58
-1 -4 -6 29835 990.057 27
-1 -4 -5 16304.9 679.854 20
-1 -4 -5 15909.9 555.204 25
-1 -4 -4 219327 3814.29 20
-1 -4 -4 223067 3590.1 25
-1 -4 -3 9939.5 415.769 20
-1 -4 -3 10458.1 358.739 25
-1 -4 -2 173742 2872.3 20
-1 -4 -2 175092 2834.91 23
-1 -4 -1 34693.6 718.087 20
-1 -4 -1 36352.6 821.719 60
-1 -4 -1 35712.4 791.707 23
-1 -4 0 98218.4 1674.78 19
-1 -4 0 93878.9 1715.55 23
-1 -4 1 1179.94 126.101 23
-1 -4 2 73734.1 1498.84 54
-1 -4 2 75155 1525.22 23
-1 -4 3 223.186 65.3327 54
-1 -4 3 249.488 76.465 23
-1 -4 4 147459 2828.24 17
-1 -4 4 145676 2793.68 23
-1 -4 5 256.809 106.296 43
-1 -4 5 230.769 88.1196 40
-1 -4 5 212.69 97.3924 37
-1 -4 5 217.825 88.0858 17
-1 -4 5 193.875 80.0527 28
-1 -4 6 63487.5 1723.75 37
-1 -4 6 65044.2 1707.37 43
-1 -4 6 65543.7 1696.48 40
-1 -4 6 68717.3 1688.03 28
-1 -4 6 66068.7 1768.63 17
-1 -4 7 606.062 148.52 40
-1 -4 7 380.458 114.239 37
-1 -4 7 496.752 124.982 28
-1 -4 7 481.066 135.535 14
-1 -4 8 11211.8 564.98 40
-1 -4 8 10132 513.126 28
-1 -4 8 9777.28 548.675 14
-1 -4 8 9082.43 514.317 37
-1 -4 9 4240.21 317.096 14
-1 -4 10 51777.4 1110.9 14
-1 -4 10 44811.8 1080.52 13
-1 -3 -11 32816.8 924.751 46
-1 -3 -11 34136.6 950.602 31
-1 -3 -10 11158.1 543.478 35
-1 -3 -10 11831.8 577.984 31
-1 -3 -10 11633.5 568.274 46
-1 -3 -9 53725.5 1497.63 46
-1 -3 -9 53702.5 1483.65 36
-1 -3 -9 54563 1481.22 35
-1 -3 -9 56303.9 1519.61 31
-1 -3 -8 4314.2 407.193 20
-1 -3 -8 4146.67 363.567 36
-1 -3 -8 4358.33 373.387 31
-1 -3 -8 4199.02 368.027 27
-1 -3 -7 69878.6 1780.08 20
-1 -3 -7 68833.7 1634.19 58
-1 -3 -7 73271.2 1767.29 36
-1 -3 -7 72731.8 1738.75 31
-1 -3 -7 66667.1 1711.71 27
-1 -3 -7 62894 1688.45 51
-1 -3 -6 88569.4 1834.38 58
-1 -3 -6 90718.1 2014.06 20
-1 -3 -5 142655 2718.59 20
-1 -3 -4 1977.51 192.282 20
-1 -3 -4 2125.14 152.679 25
-1 -3 -3 173046 2944.81 20
-1 -3 -3 173997 2775.86 25
-1 -3 -2 23067.7 592.084 20
-1 -3 -2 24175.6 540.115 23
-1 -3 -1 128286 2057.27 20
-1 -3 -1 130302 2106.97 23
-1 -3 -1 129009 2143.25 60
-1 -3 0 90729.7 1501.93 19
-1 -3 0 95061.1 1611.51 54
-1 -3 0 88817.1 1590.5 56
-1 -3 0 90276.2 1574.41 23
-1 -3 1 217112 3503.53 56
-1 -3 1 222065 3486.58 54
-1 -3 1 216595 3451.31 23
-1 -3 1 215066 3274.58 21
-1 -3 2 9604.01 379.48 23
-1 -3 2 9705.68 377.92 54
-1 -3 2 9909.46 395.527 56
-1 -3 3 10587.9 422.126 54
-1 -3 3 10792.5 442.101 23
-1 -3 3 11006.9 439.58 56
-1 -3 4 954.838 141.08 17
-1 -3 4 776.356 114.8 54
-1 -3 4 860.485 132.418 23
-1 -3 4 1039.07 139.082 56
-1 -3 5 91391.1 1963.41 17
-1 -3 5 87441.9 1907.38 23
-1 -3 6 29488.8 1016.4 43
-1 -3 6 31206.7 1052.07 40
-1 -3 6 29186.4 1038.55 37
-1 -3 6 29718.5 1023.92 17
-1 -3 7 68412.1 1739.91 43
-1 -3 7 70853.3 1773.25 40
-1 -3 7 66365.1 1746.57 37
-1 -3 7 73110.1 1728.17 28
-1 -3 7 64684.4 1783.86 17
-1 -3 8 4212.46 357.976 40
-1 -3 8 4428.25 368.264 37
-1 -3 8 4629.32 351.664 28
-1 -3 9 54.4178 47.4627 40
-1 -3 9 203.559 82.4531 37
-1 -3 9 108.912 57.8101 28
-1 -3 9 121.303 71.4366 14
-1 -3 10 249.675 74.4843 14
-1 -2 -11 103.432 56.8073 46
-1 -2 -11 126.883 60.5052 31
-1 -2 -10 44606.1 1258.48 46
-1 -2 -10 42751.3 1222.99 35
-1 -2 -10 44877.6 1274.12 31
-1 -2 -9 550.811 136.049 46
-1 -2 -9 516.584 136.077 36
-1 -2 -9 416.501 113.452 35
-1 -2 -9 161.798 70.9115 31
-1 -2 -8 53175 1566.57 20
-1 -2 -8 53441.1 1486.95 36
-1 -2 -8 51468.2 1471.09 31
-1 -2 -8 48674.5 1405.54 58
-1 -2 -7 346.13 111.772 20
-1 -2 -7 329.938 101.506 36
-1 -2 -7 628.998 139.012 31
-1 -2 -7 291.791 103.2 58
-1 -2 -6 7176.09 429.191 20
-1 -2 -6 6592.18 371.674 58
-1 -2 -5 26773.7 832.5 20
-1 -2 -5 26405.1 728.586 58
-1 -2 -4 154251 2731.81 20
-1 -2 -4 151887 2511.88 25
-1 -2 -3 757.907 108.008 20
-1 -2 -3 647.296 70.1918 25
-1 -2 -2 954859 14458.8 20
-1 -2 -2 964671 14280.1 25
-1 -2 -2 999999 14251.1 23
-1 -2 -1 87473.9 1412.46 23
-1 -2 -1 89716 1456.12 54
-1 -2 0 11430.2 227.207 20
-1 -2 0 13395.1 371.082 56
-1 -2 1 31042.5 729.496 56
-1 -2 2 156836 2638.16 56
-1 -2 2 155564 2598.05 23
-1 -2 3 9521.17 393.222 17
-1 -2 3 12894.7 457.476 56
-1 -2 4 192950 3235.23 23
-1 -2 4 189147 3209.51 56
-1 -2 5 16079.2 588.251 56
-1 -2 5 15563.7 612.855 17
-1 -2 5 15165.2 593.846 23
-1 -2 6 15481.8 689.349 43
-1 -2 6 14874.9 634.772 23
-1 -2 6 15261.5 702.929 37
-1 -2 6 15949.8 674.008 17
-1 -2 6 15788.4 613.479 56
-1 -2 7 33383.7 1093.06 43
-1 -2 7 34046.2 1126.64 17
-1 -2 7 34778.2 1129.27 37
-1 -2 8 25309.8 920.288 43
-1 -2 8 24556.9 934.767 40
-1 -2 8 23680.1 915.775 37
-1 -2 8 24093 867.767 28
-1 -2 9 25529.8 904.939 40
-1 -2 9 31600.6 987.521 37
-1 -2 10 45749.7 1134.94 40
-1 -2 10 44261.4 1142.23 37
-1 -2 10 44747.1 1183.33 14
-1 -2 11 2358.24 174.025 14
-1 -2 11 2221.6 177.282 13
-1 -1 -12 7555.47 344.702 32
-1 -1 -11 32750.2 954.31 46
-1 -1 -10 1425.69 205.289 46
-1 -1 -10 1547.89 205.654 33
-1 -1 -10 1582.57 212.2 35
-1 -1 -10 1542.96 209.308 31
-1 -1 -9 5226.55 407.581 35
-1 -1 -9 5322.97 418.237 31
-1 -1 -9 5222.99 412.452 46
-1 -1 -8 100369 2304.28 46
-1 -1 -8 106351 2376.78 36
-1 -1 -8 109819 2379.48 35
-1 -1 -8 101570 2333.73 31
-1 -1 -8 105453 2442.2 20
-1 -1 -7 108365 2300.91 20
-1 -1 -7 100247 2157.89 58
-1 -1 -7 105539 2284.11 36
-1 -1 -6 26469.3 886.673 20
-1 -1 -6 22915.6 771.438 58
-1 -1 -5 146300 2640.52 58
-1 -1 -5 155623 2798.73 20
-1 -1 -4 27547.1 793.698 20
-1 -1 -4 27758 682.39 58
-1 -1 -3 1108.49 129.817 20
-1 -1 -3 1049.32 85.4986 25
-1 -1 -2 162245 2683.58 20
-1 -1 -1 166594 2463.29 23
-1 -1 -1 164444 2507.08 54
-1 -1 0 13415.7 280.516 26
-1 -1 1 112307 1807.39 26
-1 -1 2 25758.3 625.476 17
-1 -1 2 24552 615.638 26
-1 -1 3 58759.3 1265.89 26
-1 -1 3 60729.9 1261.01 56
-1 -1 4 58977.5 1297.2 17
-1 -1 4 60761.1 1298.29 56
-1 -1 5 200052 3389.88 56
-1 -1 5 194034 3426.05 17
-1 -1 6 8343.24 454.219 17
-1 -1 6 8672.23 427.58 56
-1 -1 7 12351.6 620.078 43
-1 -1 7 10751.4 611.914 41
-1 -1 7 10309 566.511 17
-1 -1 7 11666.3 606.365 37
-1 -1 8 723.364 150.132 43
-1 -1 8 619.069 142.098 41
-1 -1 8 675.248 144.695 37
-1 -1 9 1809.68 223.687 43
-1 -1 9 1743.81 224.879 37
-1 -1 9 1775.61 221.235 40
-1 -1 10 1329.96 168.038 40
-1 -1 10 1486.28 183.022 37
-1 -1 11 36007 886.331 14
-1 -1 11 33218.9 886.2 13
-1 0 -12 5597.36 283.925 32
-1 0 -11 5658.52 348.507 46
-1 0 -10 32014 1035.98 46
-1 0 -10 32588.3 1040.7 35
-1 0 -10 33050.9 1039.38 33
-1 0 -10 31695.5 1017.17 31
-1 0 -9 112.483 90.8944 35
-1 0 -9 110.247 76.2362 33
-1 0 -9 208.165 91.4502 16
-1 0 -9 205.653 90.8721 31
-1 0 -9 240.638 93.8004 46
-1 0 -8 61579.1 1641.22 46
-1 0 -8 66129.6 1702.74 35
-1 0 -8 64723.6 1757.67 20
-1 0 -8 64938.1 1701.95 31
-1 0 -7 6345.27 442.403 20
-1 0 -7 6146.74 428.653 46
-1 0 -7 5509.7 415.733 36
-1 0 -7 5071.57 406.343 31
-1 0 -6 1865.81 224.145 20
-1 0 -6 1583.54 189.354 58
-1 0 -5 77623.3 1698.08 20
-1 0 -5 74427.8 1585.58 58
-1 0 -4 210918 3519.46 20
-1 0 -4 200671 3384.65 58
-1 0 -3 24663.7 673.137 20
-1 0 -3 24607.2 606.125 58
-1 0 -2 54507.6 1040.15 20
-1 0 -2 54657.5 1005.92 18
-1 0 -2 54563.9 946.046 25
-1 0 -1 62030.4 966.465 18
-1 0 -1 59844.3 970.831 25
-1 0 0 11267.6 214.377 17
-1 0 1 478514 7138.56 17
-1 0 1 476461 6974.96 22
-1 0 2 187509 3082.87 17
-1 0 3 98895.2 2056.4 26
-1 0 3 99427.8 1947.1 59
-1 0 4 109415 2056.86 17
-1 0 4 113415 2064.96 56
-1 0 5 363.772 88.7373 17
-1 0 5 334.218 82.4055 56
-1 0 6 56801.6 1291.1 56
-1 0 6 53589.3 1378.95 17
-1 0 7 13889.3 683.179 37
-1 0 7 14243.4 674.891 43
-1 0 7 13775.6 701.568 41
-1 0 7 12907.8 644.18 17
-1 0 7 14014.4 679.303 49
-1 0 8 90330.4 2062.09 43
-1 0 8 88857.1 2135.16 41
-1 0 8 91318.8 2091.66 37
-1 0 9 47193.3 1390.27 41
-1 0 9 47969.5 1344.34 43
-1 0 9 47972.7 1333.58 40
-1 0 9 48672.6 1372.1 37
-1 0 10 360.91 95.324 37
-1 0 11 76.8863 42.6918 37
-1 0 11 98.3736 45.3476 13
-1 1 -11 3184.61 242.633 33
-1 1 -11 4006.24 296.114 32
-1 1 -10 10533.6 537.333 46
-1 1 -10 11311.4 564.159 33
-1 1 -9 95132.7 2322.96 16
-1 1 -9 97791.9 2196.95 35
-1 1 -9 95287.4 2170.01 46
-1 1 -9 91483.6 2150.3 31
-1 1 -9 97610.6 2216.37 33
-1 1 -8 20741.5 855.047 46
-1 1 -8 20200.2 847.287 35
-1 1 -8 18449.6 829.897 31
-1 1 -8 20572.8 961.001 16
-1 1 -7 69164.3 2033.45 16
-1 1 -7 79779.6 1910.73 35
-1 1 -7 69933 1886.98 31
-1 1 -7 81695.7 1944.19 46
-1 1 -7 88913.8 1994.04 20
-1 1 -6 40019.8 1175.88 20
-1 1 -5 2236.59 232.069 20
-1 1 -5 2324.61 223.748 58
-1 1 -4 13799.8 532.679 20
-1 1 -4 12903.2 552.256 18
-1 1 -4 13420.2 527.166 58
-1 1 -3 109894 1959.69 20
-1 1 -3 106123 1973.47 18
-1 1 -3 110587 2032.81 58
-1 1 -2 198.728 46.1058 18
-1 1 -2 207.163 62.6657 58
-1 1 -1 88256.3 1438.06 18
-1 1 0 32020.2 597.751 18
-1 1 0 31978 573.91 17
-1 1 1 91250.5 1460.89 17
-1 1 1 88706.5 1453.54 22
-1 1 2 49602.2 1014.62 17
-1 1 2 51890.6 929.115 26
-1 1 3 426219 6883.08 17
-1 1 3 438074 6806.85 59
-1 1 4 8152.31 396.886 17
-1 1 4 2500.2 201.657 26
-1 1 5 175578 3195.21 17
-1 1 5 170970 3004.25 56
-1 1 6 77.9517 65.2239 17
-1 1 7 6268.14 447.831 49
-1 1 7 5624.75 424.948 43
-1 1 7 5818.68 450.343 17
-1 1 7 6305.7 471.18 37
-1 1 7 6875.96 504.552 41
-1 1 8 545.823 146.712 49
-1 1 8 671.682 156.155 43
-1 1 8 636.127 162.521 41
-1 1 8 620.2 147.245 37
-1 1 8 535.655 154.896 17
-1 1 9 88379.4 2022.57 43
-1 1 9 89066.4 2074.19 37
-1 1 9 90314.5 2136.58 41
-1 1 10 3788.03 319.405 41
-1 1 10 3723.05 305.173 37
-1 1 11 21500.9 682.216 37
-1 2 -11 1618.94 163.246 33
-1 2 -11 2190.98 204.916 32
-1 2 -10 47934.2 1284.41 33
-1 2 -9 795.794 152.219 38
-1 2 -9 734.657 162.782 33
-1 2 -8 2264.07 283.18 46
-1 2 -8 2776.79 304.764 38
-1 2 -8 2453.99 332.338 16
-1 2 -8 2257.36 268.942 35
-1 2 -8 2330.93 287.202 33
-1 2 -7 16226.7 899.267 16
-1 2 -7 18163.1 809.242 35
-1 2 -7 17403.3 826.374 33
-1 2 -7 17752.7 806.598 38
-1 2 -7 17616.7 825.784 46
-1 2 -6 81141.5 1896.83 20
-1 2 -5 50282.9 1341.3 20
-1 2 -5 55131.4 1408.08 22
-1 2 -4 31302.3 901.694 20
-1 2 -4 32347.1 990.755 22
-1 2 -4 31499.3 956.763 18
-1 2 -4 33734 998.016 55
-1 2 -3 15957.5 511.136 20
-1 2 -3 16005.3 542.557 18
-1 2 -3 15732.9 599.904 22
-1 2 -2 13891.4 433.02 18
-1 2 -2 14227 507.524 55
-1 2 -2 14628.3 491.238 22
-1 2 -1 383121 5673.33 18
-1 2 -1 379007 5762.39 55
-1 2 -1 371501 5502.77 24
-1 2 -1 377621 5727.23 22
-1 2 0 571915 8468.23 18
-1 2 1 42548.4 828.16 17
-1 2 2 173255 2785.58 17
-1 2 2 174002 2791.89 57
-1 2 2 170359 2698.7 26
-1 2 3 27780.5 729.277 17
-1 2 3 26610.5 632.915 26
-1 2 3 26960 673.448 59
-1 2 4 9541.97 487.815 17
-1 2 4 8598.83 374.134 26
-1 2 4 9083.42 412.302 59
-1 2 5 2967.26 299.602 17
-1 2 5 2798.37 250.618 26
-1 2 6 267075 4878.09 17
-1 2 7 35516.9 1172.34 49
-1 2 7 36622.8 1240.18 41
-1 2 7 33318.5 1216.6 17
-1 2 7 34449 1238.39 50
-1 2 8 84509.3 2036.4 43
-1 2 8 96112.6 2241 41
-1 2 8 97056.6 2339.85 10
-1 2 8 84663.4 2261.34 17
-1 2 8 97147.8 2194.19 37
-1 2 8 84740.4 2085.28 49
-1 2 9 1768.78 225.625 43
-1 2 9 2123.94 274.193 41
-1 2 9 1972.29 272.854 10
-1 2 9 1962.3 253.607 37
-1 2 10 8387.71 473.771 37
-1 2 10 7886.07 471.319 41
-1 2 11 1470.77 160.795 37
-1 3 -11 7333.88 346.473 32
-1 3 -10 27237.7 871.452 33
-1 3 -10 28555.6 922.911 32
-1 3 -9 48948.8 1340.79 38
-1 3 -9 49483.9 1394.57 33
-1 3 -9 50086.1 1460.68 32
-1 3 -8 1894.4 253.569 38
-1 3 -8 3078.3 331.335 33
-1 3 -7 74201.6 1907.79 38
-1 3 -7 70774.8 1941.66 33
-1 3 -7 69682.9 1957.07 46
-1 3 -7 71720.4 1903.88 35
-1 3 -6 5443.52 493.481 46
-1 3 -6 6169.25 481.023 38
-1 3 -6 6309.5 495.998 35
-1 3 -6 6170.58 509.452 33
-1 3 -6 6203.72 512.983 24
-1 3 -5 14826.7 764.702 18
-1 3 -5 14587.4 649.409 20
-1 3 -5 15272.9 750.809 24
-1 3 -4 13982.8 577.035 20
-1 3 -4 14602.2 649.441 18
-1 3 -4 13848.4 632.067 24
-1 3 -4 15820 684.935 55
-1 3 -4 14524.1 659.742 22
-1 3 -3 139081 2780.85 55
-1 3 -3 143339 2626.31 18
-1 3 -3 139916 2731.87 22
-1 3 -2 412.081 81.3641 18
-1 3 -2 378.34 58.3797 24
-1 3 -2 380.293 92.0873 55
-1 3 -2 387.772 88.4588 22
-1 3 -1 195628 3083.47 18
-1 3 -1 195379 3145.2 22
-1 3 0 32758.2 733.125 18
-1 3 0 31135.7 719.842 57
-1 3 1 15211.3 446.195 18
-1 3 1 15851.4 462.776 17
-1 3 1 14942.4 450.606 57
-1 3 2 74553.7 1418.19 17
-1 3 3 105381 1968.15 17
-1 3 3 104120 1818.98 26
-1 3 3 107548 1892.77 59
-1 3 4 1714.06 160.232 26
-1 3 4 2012.84 191.841 59
-1 3 4 2011.62 214.558 17
-1 3 5 73503.1 1809.28 17
-1 3 5 71091 1590.09 26
-1 3 6 9358.84 611.514 17
-1 3 7 35484.3 1195.91 49
-1 3 7 28165 1231.09 17
-1 3 7 30982.3 1228.61 8
-1 3 7 39657.5 1374.87 41
-1 3 7 45276.3 1433.76 50
-1 3 8 35148.8 1199.54 49
-1 3 8 37068.2 1275.34 41
-1 3 8 38041.4 1325.47 50
-1 3 9 100826 2342.52 41
-1 3 9 97009.4 2203.59 37
-1 3 10 3485.11 290.891 37
-1 3 10 3237.38 309.363 41
-1 3 10 3823.75 328.277 10
-1 3 11 39986.3 1026.66 41
-1 4 -10 9571.56 440.026 33
-1 4 -10 10273.5 476.294 32
-1 4 -9 5414.78 387.45 33
-1 4 -9 5373.88 406.637 32
-1 4 -8 6845.58 470.702 48
-1 4 -8 7631.4 494.447 38
-1 4 -8 8322.72 583.561 32
-1 4 -8 6884.92 489.558 33
-1 4 -7 24164.8 1019.57 48
-1 4 -7 24165 994.507 38
-1 4 -7 22962.3 1017.82 33
-1 4 -7 24513.8 1149.44 32
-1 4 -6 67774 1890.27 38
-1 4 -6 66144.3 1973.09 33
-1 4 -5 773.115 186.201 18
-1 4 -5 740.073 185.657 38
-1 4 -5 647.52 184.791 33
-1 4 -4 17027.8 766.637 18
-1 4 -3 30889.7 950.507 18
-1 4 -3 29920.8 835.367 20
-1 4 -3 30172.4 1015.09 22
-1 4 -2 340287 5512.17 18
-1 4 -2 343163 5493.09 57
-1 4 -1 61382.6 1310.26 18
-1 4 -1 61882.1 1296.45 57
-1 4 0 126750 2210.08 18
-1 4 0 120766 2192.11 57
-1 4 1 34481.1 841.835 57
-1 4 1 33635.2 829.319 18
-1 4 2 7469.21 342.862 18
-1 4 2 7576.56 354.262 17
-1 4 3 12191.8 488.682 18
-1 4 3 12438.8 505.567 17
-1 4 3 12598.2 407.185 26
-1 4 3 11711.3 432.624 59
-1 4 4 59592 1477.71 17
-1 4 4 57718.2 1249.33 26
-1 4 4 60218.4 1368.61 59
-1 4 5 50481.1 1508.81 17
-1 4 6 92373.5 2238.41 49
-1 4 6 98190.9 2475.31 42
-1 4 6 97814.7 2383 41
-1 4 6 95096 2516.84 17
-1 4 6 97769.9 2535.63 8
-1 4 6 100838 2419.6 50
-1 4 7 32.3321 77.0735 49
-1 4 7 38.497 79.5734 42
-1 4 7 78.7336 93.114 41
-1 4 7 115.164 84.354 17
-1 4 7 101.726 98.2562 8
-1 4 7 197.54 98.8063 50
-1 4 8 18768.6 875.96 41
-1 4 8 20259 869.252 49
-1 4 9 3005.35 341.398 10
-1 4 9 3306.08 331.445 41
-1 4 10 48210 1359.48 10
-1 4 10 46355.5 1269.61 41
-1 4 11 8372.98 406.164 41
-1 4 11 7501.62 365.044 10
-1 5 -10 5262.5 271.975 33
-1 5 -9 34778.1 1005.54 33
-1 5 -9 34722.7 1047.04 32
-1 5 -8 1680.67 226.242 33
-1 5 -8 1772.37 260.382 32
-1 5 -7 1595.58 245.229 48
-1 5 -7 1857.38 266.072 38
-1 5 -7 1836.77 272.552 33
-1 5 -7 1615.8 289.775 32
-1 5 -6 26262.9 1144.18 48
-1 5 -6 25085.7 1085.83 38
-1 5 -6 24834.4 1157 33
-1 5 -6 24927.3 1258.98 32
-1 5 -5 78665 2260.96 48
-1 5 -5 67930.7 2105.78 18
-1 5 -5 74608.9 2108.1 38
-1 5 -5 71217 2202.42 33
-1 5 -5 63447.2 2178.45 32
-1 5 -5 68409.2 1998.11 29
-1 5 -4 8880.24 701.755 48
-1 5 -4 9043.68 673.427 38
-1 5 -4 8781.64 603.307 18
-1 5 -4 9908.19 731.247 33
-1 5 -4 9575.86 696.698 29
-1 5 -3 75249.6 1850.12 18
-1 5 -2 40576.5 1152.58 18
-1 5 -1 41487.5 1108.96 18
-1 5 -1 41864.3 1105.4 57
-1 5 0 12881 522.348 18
-1 5 0 12273.9 517.468 57
-1 5 1 156835 2827.2 18
-1 5 2 4476.28 298.981 18
-1 5 3 70334.6 1609.26 18
-1 5 3 72806.4 1657.54 17
-1 5 4 1519.6 210.316 18
-1 5 4 1532.16 214.651 17
-1 5 5 1876.87 277.101 45
-1 5 5 2196.46 290.942 18
-1 5 5 2527.11 312.424 42
-1 5 5 2158.69 295.432 17
-1 5 5 1807.33 278.893 50
-1 5 5 1950.02 290.429 8
-1 5 6 29449.8 1106.39 49
-1 5 6 29375.2 1286.33 18
-1 5 6 32548.5 1237.36 41
-1 5 6 31958.5 1371.74 17
-1 5 6 35033.3 1387.08 8
-1 5 6 31865.5 1272.44 42
-1 5 6 31532.7 1229.78 50
-1 5 7 75053.3 1909.72 49
-1 5 7 70656.1 2097.08 42
-1 5 7 74464 2027.99 41
-1 5 7 76286.2 2195.49 8
-1 5 7 75459.6 2052.88 50
-1 5 8 15149.8 719.755 49
-1 5 8 17243.9 822.003 41
-1 5 8 16131.9 816.028 50
-1 5 8 17576.7 881.124 8
-1 5 9 40244 1229.42 41
-1 5 10 1844.87 216.435 41
-1 5 10 1961.64 229.481 10
-1 5 11 45.9047 37.3758 10
-1 6 -9 7483.78 364.45 33
-1 6 -8 32184 1014.28 33
-1 6 -8 31015.3 1032.38 32
-1 6 -7 1938.94 248.44 48
-1 6 -7 1717.03 247.615 33
-1 6 -7 1871.14 288.794 32
-1 6 -6 16572.7 919.405 33
-1 6 -6 15560.5 940.716 32
-1 6 -6 16913.2 878.344 48
-1 6 -5 448.002 169.606 33
-1 6 -5 748.097 184.352 29
-1 6 -5 692.303 212.801 48
-1 6 -4 14539.2 933.897 48
-1 6 -4 13928.7 850.41 18
-1 6 -4 15095.3 944.466 33
-1 6 -4 15977.4 940.713 29
-1 6 -3 48155.2 1703.43 48
-1 6 -3 42882.4 1470.26 18
-1 6 -3 46827.3 1638.14 33
-1 6 -3 48385.7 1751.74 29
-1 6 -2 126801 2874.23 48
-1 6 -2 123525 2685.18 18
-1 6 -2 131528 3078.9 29
-1 6 -1 1177.97 188.076 18
-1 6 0 44772.1 1252.88 18
-1 6 1 6581.97 414.523 18
-1 6 2 17784.2 725.964 18
-1 6 3 4469.46 397.993 45
-1 6 3 5219.84 395.641 18
-1 6 3 5026.79 409.354 47
-1 6 4 143479 3055.5 18
-1 6 4 145263 3107.26 42
-1 6 4 143262 3127.57 45
-1 6 4 153444 3131.32 8
-1 6 4 134322 3138.34 50
-1 6 5 6723.2 563.932 18
-1 6 5 7486.08 573.995 42
-1 6 5 6471.43 519.727 41
-1 6 5 7656.36 606.731 17
-1 6 5 7344.66 575.738 45
-1 6 5 8627.3 627.68 8
-1 6 5 6740.08 552.86 50
-1 6 6 32688.1 1314.28 42
-1 6 6 33752.3 1272.95 41
-1 6 6 32834.9 1506.95 17
-1 6 6 33490.8 1291.06 50
-1 6 7 9284.29 670.846 42
-1 6 7 9753.21 653.03 50
-1 6 7 10261.4 646.945 41
-1 6 7 10428.4 734.572 8
-1 6 8 6159.96 462.008 41
-1 6 8 6845.55 530.28 8
-1 6 8 5938.35 467.618 50
-1 6 9 14165.9 641.938 41
-1 6 10 21270.9 698.856 41
-1 6 10 21615.5 753.859 10
-1 7 -8 3322.22 250.219 33
-1 7 -7 16283.2 666.944 48
-1 7 -7 17193.7 747.14 33
-1 7 -6 16698.7 806.236 48
-1 7 -6 17139.2 882.249 33
-1 7 -5 56993.4 1849.17 48
-1 7 -5 55098.8 1909.67 33
-1 7 -5 57144.1 1721.53 29
-1 7 -4 2555.29 396.756 48
-1 7 -4 2655.11 410.347 33
-1 7 -4 2709.73 379.875 29
-1 7 -4 2509.26 353.283 8
-1 7 -3 106545 2849.83 48
-1 7 -3 99870.5 2770.07 47
-1 7 -3 104409 2740.24 33
-1 7 -3 108705 2936.97 29
-1 7 -3 100517 2577.41 8
-1 7 -2 5933.12 535.601 48
-1 7 -2 5481.12 540.989 47
-1 7 -2 5711.99 497.474 33
-1 7 -2 5547.72 567.015 29
-1 7 -2 4989.68 481.135 18
-1 7 -2 4994.4 452.282 8
-1 7 -1 32334.9 1218.93 48
-1 7 -1 32880.8 1294.67 47
-1 7 -1 30834.7 1422.2 45
-1 7 -1 31561.6 1187.22 18
-1 7 -1 29019.1 1109.36 33
-1 7 -1 33496.4 1334.98 29
-1 7 -1 30254.8 1131.43 8
-1 7 0 9949.87 608.852 48
-1 7 0 10210.5 638.825 47
-1 7 0 10355.6 751.586 45
-1 7 0 9560.22 595.805 18
-1 7 0 10796.6 677.876 29
-1 7 0 9251.69 575.152 8
-1 7 1 77046.8 1988.49 47
-1 7 1 77542.3 1964.57 18
-1 7 1 81895.5 2243.14 45
-1 7 1 80022.1 1988.26 48
-1 7 1 74613.8 1907.58 8
-1 7 2 775.33 168.359 47
-1 7 2 558.5 150.644 42
-1 7 2 608.901 150.711 18
-1 7 2 662.151 180.256 45
-1 7 2 583.511 142.236 8
-1 7 2 724.454 157.455 48
-1 7 3 34553.3 1210.6 47
-1 7 3 33191 1261.98 45
-1 7 3 32029.5 1218.62 18
-1 7 3 34483.3 1254.63 42
-1 7 3 37522.7 1241.42 8
-1 7 3 32513.4 1375.15 50
-1 7 4 18591 932.04 45
-1 7 4 17238.9 935.866 18
-1 7 4 19658.9 948.347 42
-1 7 4 17571.9 974.763 50
-1 7 5 51245.5 1702.05 42
-1 7 5 51645.5 1736.17 50
-1 7 6 37593.7 1430.66 42
-1 7 6 36481 1308.54 41
-1 7 6 38854.7 1504.92 8
-1 7 6 36786 1369.21 50
-1 7 7 25479.1 1104.64 42
-1 7 7 26445.6 1016.56 41
-1 7 7 28524.1 1214.04 8
-1 7 7 26459.6 1065.06 50
-1 7 8 914.601 161.135 41
-1 7 8 1058.36 182.385 50
-1 7 8 1051.14 202.072 8
-1 7 9 4942.19 322.708 41
-1 7 9 4575.43 356.273 10
-1 7 10 1049.59 136.025 10
-1 8 -7 54.8417 52.229 33
-1 8 -6 8644.5 490.733 48
-1 8 -6 9045.39 556.186 33
-1 8 -5 10837.8 669.09 48
-1 8 -5 10720.2 713.735 33
-1 8 -4 43071.6 1604.9 48
-1 8 -4 41178.9 1576.81 33
-1 8 -3 11356.4 811.284 48
-1 8 -3 11575.5 802.045 47
-1 8 -3 11764.2 784.21 33
-1 8 -3 11293 722.352 8
-1 8 -2 35814.3 1447.98 48
-1 8 -2 35965.6 1530.05 47
-1 8 -2 34532 1322.48 33
-1 8 -2 35226.6 1307.52 8
-1 8 -1 8864.47 648.903 48
-1 8 -1 10091 753.057 47
-1 8 -1 10111 868.956 45
-1 8 -1 9281.94 613.651 8
-1 8 0 10150.9 654.548 48
-1 8 0 10333.8 713.085 47
-1 8 0 10407.2 872.662 45
-1 8 0 9817.83 614.237 8
-1 8 1 12909.4 727.359 48
-1 8 1 13103 767.525 47
-1 8 1 14554.9 970.144 45
-1 8 1 14247.1 728.946 8
-1 8 2 65569.6 1841.26 48
-1 8 2 62847 1835 47
-1 8 2 68382.6 2146.57 45
-1 8 2 68178.4 2041.07 42
-1 8 2 70543.2 1836.88 8
-1 8 3 22567.1 1075.85 42
-1 8 3 23853.2 995.774 8
-1 8 3 20951.9 1054.41 45
-1 8 4 57301.7 1831.27 45
-1 8 4 58913.1 1884.07 42
-1 8 4 65775.4 1881.93 8
-1 8 4 67776.6 2168 50
-1 8 5 1467.72 270.843 42
-1 8 5 1757.52 297.406 8
-1 8 5 2023.73 312.625 50
-1 8 6 18749.1 936.298 42
-1 8 6 20434.2 946.612 50
-1 8 6 20905.8 1030.89 8
-1 8 7 3893.42 359.175 50
-1 8 7 4164.35 412.577 8
-1 8 8 30528 1031.38 8
-1 8 9 3431.57 263.281 10
-1 9 -5 30694.1 1006.86 48
-1 9 -4 106.522 104.687 48
-1 9 -3 201.546 112.59 48
-1 9 -2 26388.7 1219.53 48
-1 9 -2 28679.5 1327.39 47
-1 9 -1 6864.21 646.326 47
-1 9 -1 5870.64 471.228 8
-1 9 -1 6164.89 541.427 48
-1 9 0 28654.7 1331.66 47
-1 9 0 28639 1169.24 48
-1 9 0 28439.6 1086.28 8
-1 9 1 30177.4 1171.08 48
-1 9 1 30393.3 1310.15 47
-1 9 1 34594.9 1719.76 45
-1 9 1 32487 1148.95 8
-1 9 2 1233.35 297.361 45
-1 9 2 1028.46 192.294 8
-1 9 3 5047.62 544.431 42
-1 9 3 5140.89 446.454 8
-1 9 3 4828.38 524.104 45
-1 9 4 32787.3 1357.3 42
-1 9 4 33931.9 1252.87 8
-1 9 4 29623.9 1110.31 30
-1 9 5 31334 1255.19 42
-1 9 5 30797.6 1225.13 8
-1 9 6 375.563 120.652 50
-1 9 6 507.976 145.839 8
-1 9 7 4278.62 359.637 8
-1 9 8 2465.19 226.174 10
-1 10 -4 17688.5 702.825 48
-1 10 -3 152.889 87.259 48
-1 10 -2 10359.5 690.867 48
-1 10 -1 561.196 161.371 48
-1 10 1 45243.5 1401.65 8
-1 10 2 31647.6 1152.51 8
-1 10 3 844.33 167.444 30
-1 10 3 930.124 182.115 8
-1 10 4 36072.8 1268.12 8
-1 10 4 31953.5 1078.34 30
-1 10 5 696.441 159.358 8
-1 10 6 5804.5 387.112 8
-1 11 1 258.319 117.666 30
-1 11 2 27.5672 65.5713 30
-1 11 3 26715.6 908.435 30
0 -11 -3 36045.9 964.284 39
0 -11 -2 16526.8 603.658 39
0 -11 -1 831.562 123.074 39
0 -11 -1 748.148 123.796 9
0 -11 0 4728.98 303.867 9
0 -11 1 1201.13 146.068 9
0 -10 -7 1362.99 148.225 51
0 -10 -6 52623.9 1251.84 51
0 -10 -5 8456.8 436.197 39
0 -10 -5 8201.63 438.046 51
0 -10 -4 5437.56 365.886 51
0 -10 -4 5828.18 373.142 39
0 -10 -3 38.0047 61.9155 39
0 -10 -3 147.481 70.7392 51
0 -10 -2 21507.1 796.056 39
0 -10 -2 20045.3 781.146 9
0 -10 -2 20283.9 745.652 51
0 -10 -1 790.925 152.006 9
0 -10 -1 756.238 143.496 39
0 -10 0 81328.9 1795.26 39
0 -10 0 79758.6 1882.13 9
0 -10 1 15807.7 693.419 9
0 -10 2 9409.03 509.669 9
0 -10 3 88.0428 55.6179 9
0 -10 4 25609.8 755.431 9
0 -9 -8 6743.26 351.425 51
0 -9 -7 6814.47 395.233 51
0 -9 -6 5729.57 387.759 27
0 -9 -6 5718.02 388.595 51
0 -9 -5 32662.7 1024.5 39
0 -9 -5 32072.8 1045.23 27
0 -9 -5 32668.1 1029.63 51
0 -9 -4 8014.52 473.491 39
0 -9 -4 7676.58 490.261 9
0 -9 -4 7478.82 476.913 27
0 -9 -4 7781.48 467.602 51
0 -9 -3 53953.2 1452.28 39
0 -9 -3 55400.4 1513.57 9
0 -9 -3 54410.2 1443.24 51
0 -9 -2 321.369 99.5848 51
0 -9 -2 202.039 86.5867 39
0 -9 -1 4289.37 361.543 39
0 -9 -1 4642.58 392.402 9
0 -9 -1 4574.74 363.953 52
0 -9 -1 4475.55 345.104 51
0 -9 0 4232.9 352.974 39
0 -9 0 4378.37 382.411 9
0 -9 0 4357.02 354.883 52
0 -9 1 59133.2 1523.53 44
0 -9 1 57278.1 1468.05 39
0 -9 1 56596.5 1592.5 9
0 -9 1 56498.2 1488.33 52
0 -9 2 1713.25 218.528 44
0 -9 2 1475.96 192.971 52
0 -9 3 46006.4 1239.52 44
0 -9 3 43599.1 1152.16 52
0 -9 4 7248.43 400.404 44
0 -9 5 1256.48 153.559 12
0 -9 5 1203.75 139.851 44
0 -9 6 215.955 52.7741 12
0 -8 -9 3949.29 251.973 31
0 -8 -8 32019 947.713 31
0 -8 -8 33816.5 992.568 51
0 -8 -7 13366.3 609.637 31
0 -8 -7 13670.8 627.547 27
0 -8 -7 13685.6 625.548 51
0 -8 -6 39025.6 1184.18 39
0 -8 -6 36998.2 1136.13 31
0 -8 -6 38340 1190 27
0 -8 -6 38058.2 1170.68 51
0 -8 -5 8373.92 506.753 39
0 -8 -5 8057.5 514.662 27
0 -8 -5 8359.58 501.126 51
0 -8 -4 473.919 123.086 51
0 -8 -4 554.961 141.406 39
0 -8 -4 389.787 118.295 27
0 -8 -4 301.394 116.856 9
0 -8 -3 746.429 152.578 39
0 -8 -3 336.482 113.749 9
0 -8 -3 459.573 121.129 51
0 -8 -3 515.312 132.738 27
0 -8 -2 120263 2514.89 39
0 -8 -2 115699 2578.27 9
0 -8 -2 114289 2434.05 52
0 -8 -2 120270 2455.87 51
0 -8 -1 33114.7 1087.5 39
0 -8 -1 30520.8 1100.77 9
0 -8 -1 32104.6 1040.78 44
0 -8 -1 31424.9 1035.4 52
0 -8 0 72253.3 1789.55 39
0 -8 0 70977.2 1752.49 44
0 -8 0 72504.4 1772.54 52
0 -8 1 1857.35 239.352 44
0 -8 1 1533.31 212.555 39
0 -8 1 1532.85 216.441 52
0 -8 2 3935.65 355.434 44
0 -8 2 3928.38 371.073 14
0 -8 2 4264.06 355.086 52
0 -8 3 3002.21 303.324 44
0 -8 3 2619.26 300.444 14
0 -8 3 2872.52 278.71 52
0 -8 4 33518.7 1063.18 44
0 -8 4 32273.8 1101.21 14
0 -8 5 8356.2 485.204 14
0 -8 5 8450.22 451.745 44
0 -8 6 18887.1 686.926 14
0 -8 7 887.744 112.598 12
0 -8 7 1142.91 132.243 14
0 -7 -10 9440.19 398.591 31
0 -7 -9 13755.8 576.303 31
0 -7 -9 14006.2 592.219 51
0 -7 -8 7140.24 446.246 31
0 -7 -8 7019.69 435.432 27
0 -7 -8 7264.81 453.874 51
0 -7 -7 57.6519 54.9348 31
0 -7 -7 148.208 79.3054 27
0 -7 -7 174.951 92.3716 51
0 -7 -6 9037.05 536.528 39
0 -7 -6 9029.71 529.082 31
0 -7 -6 8927.43 545.907 27
0 -7 -6 8065.01 501.43 51
0 -7 -5 111171 2359.31 39
0 -7 -5 107427 2380.03 27
0 -7 -5 107789 2316.32 51
0 -7 -4 16140.3 862.649 19
0 -7 -4 16794.9 722.963 39
0 -7 -4 16948.8 772.456 9
0 -7 -4 18166.5 776.507 27
0 -7 -4 17747.4 731.268 51
0 -7 -3 40694.4 1364.34 19
0 -7 -3 39843.6 1254.83 9
0 -7 -3 42009.8 1207.43 39
0 -7 -3 40687.4 1229.01 27
0 -7 -3 43016.8 1212.3 52
0 -7 -3 44997.1 1217.15 51
0 -7 -2 2014.21 261.93 19
0 -7 -2 2085.87 233.025 44
0 -7 -2 1803.2 222.112 39
0 -7 -2 2174.73 259.059 9
0 -7 -2 2059.39 227.019 52
0 -7 -1 10944.5 548.373 44
0 -7 -1 10709 563.357 39
0 -7 -1 11425.9 558.862 52
0 -7 0 5787.76 395.785 44
0 -7 0 4960.56 380.796 39
0 -7 0 5335.92 402.527 14
0 -7 0 5756.94 397.631 52
0 -7 1 87030.2 1969.76 44
0 -7 1 82868.1 1983.5 14
0 -7 1 87326.6 1962.97 52
0 -7 2 19575.6 814.533 44
0 -7 2 18647 819.758 14
0 -7 2 17666.2 751.529 23
0 -7 2 19142.3 791.259 52
0 -7 3 18891.5 808.922 44
0 -7 3 17948.9 817.389 14
0 -7 3 17928 757.594 52
0 -7 4 4735.91 393.268 44
0 -7 4 4954.71 416.579 14
0 -7 5 15304.3 687.136 44
0 -7 5 15177.1 733.575 14
0 -7 6 9364.99 478.736 44
0 -7 6 9499.76 528.048 14
0 -7 7 60331.7 1434.81 14
0 -7 8 4921.4 275.928 12
0 -7 8 7590.23 345.466 14
0 -6 -11 48.0735 38.5873 31
0 -6 -10 17220.2 630.319 31
0 -6 -9 3016.61 284.492 51
0 -6 -9 3199.09 289.269 31
0 -6 -8 73447.5 1798.58 36
0 -6 -8 74581.6 1812.35 31
0 -6 -8 72430.1 1787.11 27
0 -6 -8 74066.6 1833.62 51
0 -6 -7 340.216 108.112 36
0 -6 -7 341.468 120.588 51
0 -6 -7 293.988 110.882 31
0 -6 -7 421.525 126.453 27
0 -6 -6 1313.59 242.302 20
0 -6 -6 1444.5 217.149 39
0 -6 -6 1733.96 226.813 31
0 -6 -6 1396.23 206.193 51
0 -6 -5 296.264 111.208 20
0 -6 -5 254.147 96.6455 39
0 -6 -5 614.713 143.558 27
0 -6 -5 284.199 90.1626 51
0 -6 -4 31971.6 1064.13 20
0 -6 -4 34019.6 1176.89 19
0 -6 -4 32720.1 1024.14 39
0 -6 -4 32203.6 1038.61 27
0 -6 -4 32820.6 1003.1 51
0 -6 -3 69563.6 1747.41 19
0 -6 -2 150626 2932.37 19
0 -6 -1 8049.35 450.853 19
0 -6 0 31239.4 941.474 19
0 -6 0 30490.7 866.262 23
0 -6 1 670.076 117.28 23
0 -6 2 43368.2 1279.83 14
0 -6 2 43953.5 1171.11 23
0 -6 3 10556.5 573.02 28
0 -6 3 11249.9 611.431 14
0 -6 3 9927.11 518.761 23
0 -6 4 81288.9 1935.19 28
0 -6 4 81536.8 2025.4 14
0 -6 5 9266.52 587.177 14
0 -6 6 305.864 113.436 14
0 -6 7 3367.9 304.904 14
0 -6 7 3269.93 307.802 13
0 -6 8 12515.9 535.666 14
0 -6 8 10488.4 488.709 13
0 -6 9 1579.03 140.293 12
0 -6 9 3286.59 211.068 14
0 -5 -11 30176.9 807.1 31
0 -5 -10 3428.41 284.861 31
0 -5 -9 4284.32 352.147 31
0 -5 -8 2286.49 275.225 36
0 -5 -8 1919.28 245.039 31
0 -5 -8 1507.59 223.93 27
0 -5 -8 1862.09 252.313 51
0 -5 -7 112346 2747.22 20
0 -5 -7 115172 2533.99 36
0 -5 -7 116717 2496.84 31
0 -5 -7 114487 2500.99 27
0 -5 -7 117718 2539.63 51
0 -5 -6 56463 1634.15 20
0 -5 -6 50010.5 1423.07 39
0 -5 -6 50611.9 1464.88 36
0 -5 -6 56864.2 1482.27 31
0 -5 -6 54575.1 1465.39 27
0 -5 -6 56318.8 1483 51
0 -5 -5 112813 2453.65 20
0 -5 -4 16571.2 674.788 20
0 -5 -4 16098.7 519.697 25
0 -5 -3 208.384 70.0051 20
0 -5 -3 803.69 91.6729 25
0 -5 -2 158.283 58.4054 19
0 -5 -2 162.409 42.5041 25
0 -5 -1 116312 2202.75 19
0 -5 0 24640.7 734.313 19
0 -5 0 26904.3 706.065 23
0 -5 1 114770 2083.14 23
0 -5 1 110263 2078.71 21
0 -5 2 3131.11 238.633 23
0 -5 3 1042.13 144.772 23
0 -5 4 206.02 93.7293 40
0 -5 4 79.9792 67.3744 28
0 -5 4 35.0004 53.592 14
0 -5 4 239.698 78.9966 23
0 -5 5 148608 3048.5 40
0 -5 5 148968 3073.66 17
0 -5 5 150104 2983.98 28
0 -5 5 151192 3140.48 14
0 -5 6 16261.8 720.489 28
0 -5 6 16952.5 804.745 14
0 -5 7 49077.4 1425.4 14
0 -5 8 4462.44 346.405 14
0 -5 9 3499.5 261.297 14
0 -5 9 3036.21 252.994 13
0 -4 -11 156.075 64.4681 31
0 -4 -10 59961.7 1470.48 46
0 -4 -10 65632.3 1550.68 31
0 -4 -9 6772.81 448.256 46
0 -4 -9 7327.7 478.145 36
0 -4 -9 7038.2 464.958 31
0 -4 -8 17398.3 790.148 36
0 -4 -8 17494 777.972 31
0 -4 -8 17502 784.09 27
0 -4 -8 17278.8 795.08 51
0 -4 -7 17863.4 791.738 36
0 -4 -7 16849.8 832.572 16
0 -4 -7 18704.7 875.002 20
0 -4 -7 17651 772.754 31
0 -4 -7 18169.3 789.232 27
0 -4 -7 19392.7 824.46 51
0 -4 -6 106.103 80.0768 31
0 -4 -6 85.0805 56.3131 27
0 -4 -6 125.478 84.7681 51
0 -4 -5 18450.6 738.841 20
0 -4 -4 137615 2592.38 20
0 -4 -3 60779.5 1293.08 20
0 -4 -3 58110 1102.15 25
0 -4 -2 109098 1947.74 20
0 -4 -2 108756 1801.63 25
0 -4 -1 9465.07 379.798 19
0 -4 -1 10013.9 337.099 23
0 -4 0 9171.38 360.612 19
0 -4 0 9377.47 330.813 23
0 -4 1 30957.4 726.232 60
0 -4 1 31178.8 739.857 23
0 -4 2 117533 2051.55 23
0 -4 2 123065 2072.65 21
0 -4 3 114354 2179.82 23
0 -4 3 125753 2221.68 21
0 -4 4 30301.8 863.749 23
0 -4 5 5621.16 415.065 40
0 -4 5 5674.42 406.455 17
0 -4 5 4714.59 393.205 37
0 -4 5 5829.73 405.023 28
0 -4 5 5739.07 441.15 14
0 -4 6 4886.31 406.001 17
0 -4 6 4692.12 398.563 37
0 -4 6 4818.79 395.088 40
0 -4 6 5774.51 411.015 28
0 -4 6 5621.16 445.576 14
0 -4 7 41.4057 63.6822 40
0 -4 7 150.283 54.2391 28
0 -4 7 44.0703 66.8065 14
0 -4 8 72416.5 1796.29 14
0 -4 9 8333.1 422.185 12
0 -4 9 10640.9 517.159 14
0 -4 10 11674.8 452.207 14
0 -4 10 12123.6 482.264 13
0 -3 -11 17529.9 620.098 46
0 -3 -11 19264.8 666.204 31
0 -3 -10 1343.12 190.335 46
0 -3 -10 1280.94 188.286 31
0 -3 -9 17304.6 760.904 46
0 -3 -9 18476.1 853.595 16
0 -3 -9 16490.2 747.05 31
0 -3 -8 30894.4 1203.1 20
0 -3 -8 31945.3 1089.92 46
0 -3 -8 30244.2 1081.48 36
0 -3 -8 30223.6 1174.39 16
0 -3 -8 30254.3 1059.79 31
0 -3 -8 30483.1 1087.77 51
0 -3 -7 213333 3943.37 20
0 -3 -7 213411 3859.77 36
0 -3 -7 208440 3811.39 31
0 -3 -7 204566 3820.43 27
0 -3 -6 15125.5 679.725 20
0 -3 -5 70633.1 1606.2 20
0 -3 -4 2893.52 228.12 20
0 -3 -3 72310.6 1417.83 20
0 -3 -3 70710.9 1252.28 25
0 -3 -2 60860.1 1175.14 20
0 -3 -2 61232.5 1059.86 25
0 -3 -1 214759 3314.89 20
0 -3 -1 210825 3280.5 23
0 -3 0 10067.1 327.175 19
0 -3 0 10231.9 311.782 60
0 -3 0 9624.21 298.007 23
0 -3 1 1710.01 122.932 23
0 -3 2 368.563 63.928 23
0 -3 2 233.696 54.03 21
0 -3 3 23998.7 647.642 23
0 -3 3 24602 656.269 21
0 -3 4 102813 1930.15 23
0 -3 5 147371 2764.85 17
0 -3 5 141155 2608.72 23
0 -3 6 4878.49 391.36 37
0 -3 6 5129.45 387.63 17
0 -3 6 5252.2 402.785 40
0 -3 6 5665.81 396.997 28
0 -3 7 9323.13 571.935 17
0 -3 7 10676 591.595 40
0 -3 7 10073.1 577.106 37
0 -3 7 10429.9 551.344 28
0 -3 8 3886.05 343.962 40
0 -3 8 3609.79 334.266 37
0 -3 8 3936.77 320.021 28
0 -3 8 3829.97 356.504 14
0 -3 9 22326.8 837.899 14
0 -3 10 3071.75 248.196 14
0 -3 10 3300.94 269.545 13
0 -3 11 23835.6 637.365 13
0 -2 -11 45208.6 1161.93 46
0 -2 -11 45285.6 1198.2 31
0 -2 -10 34149.7 1086.18 46
0 -2 -10 30489.2 1070.55 16
0 -2 -10 32245.5 1057.03 31
0 -2 -9 1269.94 211.837 46
0 -2 -9 1072.44 186.102 35
0 -2 -9 1332.97 242.88 16
0 -2 -9 1309.85 220.418 31
0 -2 -8 3479.22 369.585 20
0 -2 -8 3657.18 355.073 46
0 -2 -8 2896.11 320.877 36
0 -2 -8 2564.59 294.005 35
0 -2 -8 3136.01 352.152 16
0 -2 -8 3016.75 319.913 31
0 -2 -7 55.504 60.5679 20
0 -2 -7 148.081 85.205 36
0 -2 -7 78.6982 52.969 31
0 -2 -7 105.98 81.7138 51
0 -2 -6 62415.9 1500.6 20
0 -2 -6 55025.7 1319.19 58
0 -2 -5 80594.5 1660.45 20
0 -2 -5 73357.9 1520.9 58
0 -2 -4 128206 2239.2 20
0 -2 -4 119103 2083.7 58
0 -2 -3 110596 1907.62 20
0 -2 -3 105294 1766.83 25
0 -2 -2 120695 1993 20
0 -2 -2 119434 1873.03 25
0 -2 -1 60895.7 1049.17 20
0 -2 0 233245 3545.9 19
0 -2 1 385863 5772.29 23
0 -2 1 389160 5775.9 21
0 -2 2 502162 7447.92 54
0 -2 2 500101 7490.09 23
0 -2 3 39656.2 801.043 54
0 -2 3 41393 873.837 23
0 -2 4 10241.9 420.201 17
0 -2 4 9734.22 380.577 23
0 -2 5 21992.8 723.215 17
0 -2 5 21337.9 647.807 23
0 -2 6 105459 2198.67 17
0 -2 7 4810.03 377.978 43
0 -2 7 4840.85 385.909 40
0 -2 7 4382.62 361.914 17
0 -2 7 4549.53 372.265 37
0 -2 8 95597.6 2177.96 40
0 -2 8 97448.5 2189.32 37
0 -2 9 4646.51 358.589 40
0 -2 9 4750.08 365.269 37
0 -2 10 97.8294 50.9635 14
0 -2 11 555.603 100.26 13
0 -1 -11 1916.95 208.143 16
0 -1 -10 7918.97 540.114 46
0 -1 -10 7943.51 513.662 16
0 -1 -10 9204.3 538.282 31
0 -1 -9 80786.8 1942.82 46
0 -1 -9 87827.4 2064.59 35
0 -1 -9 70229.1 1952.5 16
0 -1 -9 69395.8 2048.72 31
0 -1 -8 40289.1 1361.67 20
0 -1 -8 47002.4 1362.98 35
0 -1 -8 41726.5 1417.86 16
0 -1 -8 39600.7 1387.32 31
0 -1 -8 46955.9 1372.23 46
0 -1 -7 117288 2550.47 20
0 -1 -7 121149 2591.4 31
0 -1 -6 1978.7 219.822 20
0 -1 -5 73.393 47.0129 20
0 -1 -5 109.969 55.4924 58
0 -1 -4 41511.5 1028.59 20
0 -1 -4 47752.6 1019.41 58
0 -1 -3 237807 3851.99 20
0 -1 -3 245217 3777.11 58
0 -1 -2 657.551 74.3749 20
0 -1 -2 862.202 66.93 25
0 -1 -1 32503.2 606.613 20
0 -1 -1 34630 560.781 25
0 -1 0 437.922 35.9923 19
0 -1 1 7760.08 191.684 54
0 -1 1 7679.42 202.243 23
0 -1 2 3361.67 169.938 56
0 -1 2 3475.36 164.288 21
0 -1 3 290576 4437.77 56
0 -1 3 278749 4457.07 17
0 -1 4 34690.2 820.874 56
0 -1 4 36253.6 874.809 17
0 -1 5 35087 935.955 17
0 -1 6 7409.43 411.362 17
0 -1 7 16511 724.05 43
0 -1 7 14662.1 716.791 41
0 -1 7 14148.3 681.179 40
0 -1 7 15654.3 678.967 17
0 -1 7 15734.3 714.692 37
0 -1 8 8391.88 537.349 41
0 -1 8 7626.82 487.326 40
0 -1 8 7950.55 524.496 17
0 -1 8 8031.02 503.959 37
0 -1 9 89482 2053.51 37
0 -1 10 18796 716.725 37
0 -1 10 18628.4 723.396 14
0 -1 11 8587.35 411.147 13
0 0 -11 9822.1 499.39 32
0 0 -10 3003.43 302.854 46
0 0 -10 2949.78 307.768 16
0 0 -9 12619.1 655.389 46
0 0 -9 12317.7 643.482 35
0 0 -9 12189.3 694.337 16
0 0 -9 11782.4 634.782 31
0 0 -8 22977 969.518 20
0 0 -8 24102.2 939.021 46
0 0 -8 26367.1 986.303 35
0 0 -8 25130.8 1045.52 16
0 0 -8 23251.4 936.724 31
0 0 -7 12481.5 622.872 20
0 0 -7 13025.5 656.079 35
0 0 -7 11797.6 694.217 16
0 0 -7 10983.5 607.21 31
0 0 -7 11870 627.042 46
0 0 -6 213959 3791.81 20
0 0 -5 8016.22 398.659 20
0 0 -4 32457 835.107 20
0 0 -4 31159.3 844.531 58
0 0 -3 1179.81 123.638 20
0 0 -3 1147.11 124.398 58
0 0 -2 72852 1316.73 20
0 0 -1 6054.64 189.544 20
0 0 1 4789.54 171.011 17
0 0 2 67050.5 1247.41 17
0 0 3 1371.58 136.064 17
0 0 3 1227.49 108.5 56
0 0 4 32424.1 827.107 17
0 0 4 29426.4 702.589 56
0 0 5 8062.77 397.503 17
0 0 5 7733.58 321.643 56
0 0 6 208560 3692.01 17
0 0 7 11618.1 594.178 43
0 0 7 12067.1 638.521 41
0 0 7 12306.3 602.947 17
0 0 7 11964.4 617.877 37
0 0 8 26067.8 935.991 43
0 0 8 23823.3 950.774 41
0 0 8 23382.2 947.901 17
0 0 8 24869.6 937.188 37
0 0 9 11990.8 638.852 41
0 0 9 12341.4 627.784 37
0 0 10 2888.97 271.064 37
0 0 11 8382.42 418.814 13
0 1 -11 8955.87 453.446 32
0 1 -10 18863.3 805.683 16
0 1 -9 75491 1970.87 16
0 1 -9 70240.4 1797.03 46
0 1 -9 71182.7 1806.37 33
0 1 -8 7253.02 509.254 46
0 1 -8 7465.98 511.232 35
0 1 -8 7986.6 582.571 16
0 1 -8 7453.57 515.116 33
0 1 -8 7450.06 511.725 31
0 1 -8 8238.38 578.098 24
0 1 -7 15611.3 739.278 35
0 1 -7 15858.7 829.523 16
0 1 -7 13214.3 708.472 33
0 1 -7 14163.5 724.668 31
0 1 -7 14633.2 734.398 46
0 1 -6 7512.95 426.11 20
0 1 -5 34994.4 940.264 20
0 1 -4 35877.7 901.439 20
0 1 -3 281059 4405.06 20
0 1 -3 273255 4526.86 18
0 1 -2 3451.68 197.941 18
0 1 -2 3523.08 179.886 20
0 1 -1 7920.11 237.561 18
0 1 -1 7944.96 195.767 22
0 1 0 372.245 34.109 18
0 1 0 523.909 34.2344 24
0 1 1 41089.9 644.816 17
0 1 1 33201.9 567.18 26
0 1 2 653.467 51.4389 1
0 1 2 680.36 66.982 26
0 1 3 245383 3940.89 17
0 1 4 51903.1 1146.19 17
0 1 4 37045.8 832.344 56
0 1 5 8.90453 41.7928 17
0 1 6 2383.27 259.96 17
0 1 7 109851 2444.06 41
0 1 7 104768 2407.56 37
0 1 8 39633.8 1207.42 43
0 1 8 41490.6 1299.46 41
0 1 8 38605.5 1337.41 10
0 1 8 39974 1324.01 17
0 1 8 43263.2 1292.1 37
0 1 9 69646.3 1798.43 41
0 1 9 71920.4 1773.55 37
0 1 9 68440.2 1853.14 10
0 1 10 7869.25 494.104 10
0 1 10 8338.58 472.657 37
0 1 10 8035.56 474.11 13
0 1 11 1927.49 191.342 13
0 2 -11 604.728 111.871 32
0 2 -10 95.3719 64.8194 33
0 2 -10 337.963 101.928 32
0 2 -9 4970.46 439.435 16
0 2 -9 4927.89 395.725 33
0 2 -8 94848.4 2365.93 16
0 2 -8 91080.8 2188.91 33
0 2 -7 4458.82 411.19 46
0 2 -7 4717.53 413.84 35
0 2 -7 5030.82 484.986 16
0 2 -7 4302.98 411.115 33
0 2 -7 5362.24 468.324 24
0 2 -6 120618 2691.25 24
0 2 -5 22708.3 719.211 20
0 2 -4 10530.6 428.998 20
0 2 -4 10373.5 521.394 18
0 2 -3 42661.6 934.131 20
0 2 -3 41120.4 1034.22 18
0 2 -3 42773.2 904.757 22
0 2 -2 507616 7559.18 20
0 2 -2 490157 7697.33 18
0 2 -2 504515 7572.88 22
0 2 -1 385873 5786.71 18
0 2 -1 382259 5710.4 24
0 2 0 225293 3503.65 18
0 2 0 234346 3459.35 24
0 2 1 62267.8 1061.1 18
0 2 1 62275.3 1088.07 17
0 2 2 120680 1948.26 17
0 2 2 117122 1844.7 26
0 2 3 111186 1930.66 17
0 2 3 108944 1807.56 1
0 2 3 108822 1864.29 26
0 2 4 126040 2342.49 17
0 2 5 79252.4 1815.85 17
0 2 6 64806.6 1771.31 17
0 2 7 96.3449 74.4075 49
0 2 7 168.899 83.5925 41
0 2 7 41.3624 61.2134 17
0 2 7 167.669 92.5531 50
0 2 7 82.0629 70.306 8
0 2 8 2698.08 340.588 10
0 2 8 3211.38 366.753 17
0 2 8 3190.76 319.341 37
0 2 8 2913.09 321.18 41
0 2 9 1201.25 197.971 41
0 2 9 1114.06 209.488 10
0 2 9 982.438 175.071 37
0 2 10 29644.3 982.964 41
0 2 10 29004.2 1022.38 10
0 2 10 28390.8 929.798 37
0 3 -11 24730.5 693.533 32
0 3 -10 3123.39 259.882 33
0 3 -10 3020.64 275.367 32
0 3 -9 21380.6 843.261 33
0 3 -9 22334.4 898.017 32
0 3 -8 3779.51 350.969 38
0 3 -8 4004.32 417.659 16
0 3 -8 3696.06 364.613 33
0 3 -8 4202.72 417.05 32
0 3 -7 10355.7 622.851 38
0 3 -7 10342.6 710.032 16
0 3 -7 10404.9 669.258 33
0 3 -7 9681.09 694.792 24
0 3 -6 4823.26 428.812 38
0 3 -6 4926.72 466.083 46
0 3 -6 5024.45 502.166 16
0 3 -6 5400.01 486.42 33
0 3 -6 5297.93 494.699 24
0 3 -5 141601 3099.24 24
0 3 -4 101983 2251.14 18
0 3 -4 106232 2304.24 24
0 3 -3 22666.8 630.609 20
0 3 -3 23540.1 767.319 18
0 3 -3 24826 755.607 24
0 3 -2 215.52 42.4051 20
0 3 -2 138.83 54.1079 18
0 3 -2 242.495 58.8518 24
0 3 -1 1449.7 104.727 57
0 3 -1 1695.56 140.552 18
0 3 -1 1884.61 123.899 24
0 3 0 9830.46 324.953 18
0 3 0 9143.79 301.434 57
0 3 1 214994 3368.61 18
0 3 2 59035.7 1097.09 18
0 3 2 61233.2 1146.79 17
0 3 3 69184 1309.8 1
0 3 3 69593.4 1379.34 17
0 3 3 68885.3 1244.03 26
0 3 4 2903.3 237.311 17
0 3 4 3046.47 192.311 1
0 3 5 68644.2 1688.49 17
0 3 6 13922.7 738.631 17
0 3 7 214548 4080.04 41
0 3 7 203469 4245.02 17
0 3 7 202845 4173.75 8
0 3 7 218534 4262.44 50
0 3 7 215843 3979.74 49
0 3 8 32753 1164 41
0 3 8 34026.5 1293.11 10
0 3 9 20979.1 881.234 41
0 3 9 19595.1 917.98 10
0 3 10 1601.01 228.811 10
0 3 10 1415.43 201.024 41
0 3 11 20314.9 718.346 10
0 4 -10 10135.9 441.422 33
0 4 -10 11989.3 511.635 32
0 4 -9 10285.8 538.963 33
0 4 -9 9898.22 554.828 32
0 4 -8 73786.9 1909.28 33
0 4 -8 73758.5 2001.77 32
0 4 -7 112.475 81.9113 38
0 4 -7 61.3117 93.5514 33
0 4 -7 110.208 110.688 32
0 4 -6 5010.65 460.254 38
0 4 -6 5474.52 516.148 33
0 4 -6 4600.88 510.961 32
0 4 -6 3997.34 471.9 24
0 4 -5 5636.54 507.343 38
0 4 -5 5506.53 533.954 33
0 4 -5 5315.06 549.842 32
0 4 -5 5739.61 517.79 24
0 4 -4 29128.5 1089.15 18
0 4 -4 31749 1113.18 24
0 4 -3 116576 2422.56 18
0 4 -3 118489 2301.02 24
0 4 -2 117530 2251.49 18
0 4 -2 115683 2106.01 24
0 4 -1 31155.6 825.136 18
0 4 -1 32750.1 751.434 24
0 4 0 9278.5 373.932 18
0 4 1 9045.06 355.968 18
0 4 2 105823 1902.77 18
0 4 2 107434 1958.6 17
0 4 3 56696.7 1210.67 18
0 4 3 57780.5 1271.38 17
0 4 4 133155 2538.13 17
0 4 4 128972 2355.29 1
0 4 5 17135.7 773.527 17
0 4 6 144.249 85.1482 42
0 4 6 32.4474 61.4427 17
0 4 6 24.0217 78.4474 8
0 4 6 223.243 124.728 50
0 4 7 17709.6 846.059 41
0 4 7 16747.7 966.024 17
0 4 7 15914.3 864.963 8
0 4 7 17730.4 860.035 50
0 4 7 16288.7 755.56 49
0 4 8 17765.1 894.839 41
0 4 8 17657.7 871.705 8
0 4 9 7369.54 498.781 41
0 4 9 7712.43 544.44 10
0 4 10 72440.9 1746.63 41
0 4 10 69692.8 1784.67 10
0 4 11 92.4572 60.7969 10
0 5 -10 1988.31 166.766 32
0 5 -9 3058.14 262.504 33
0 5 -9 3252.34 284.863 32
0 5 -8 3915.31 354.217 33
0 5 -8 4088.62 387.225 32
0 5 -7 51622.2 1627.09 33
0 5 -7 51795.6 1736.31 32
0 5 -6 17558.8 961.519 33
0 5 -6 16659.4 1012.75 32
0 5 -5 147866 3427.57 48
0 5 -5 148861 3519.37 33
0 5 -5 144114 3597.22 32
0 5 -4 490.177 174.279 48
0 5 -4 127.711 108.483 18
0 5 -4 210.438 94.0809 38
0 5 -4 239.675 125.587 33
0 5 -4 252.119 129.651 32
0 5 -3 1298.55 212.68 18
0 5 -2 2938.6 281.028 18
0 5 -2 2776.54 226.645 24
0 5 -1 117261 2302.08 18
0 5 0 25079.5 766.727 18
0 5 1 114046 2138.23 18
0 5 2 82.0929 47.5135 18
0 5 3 236.981 69.8012 18
0 5 4 16728.7 644.17 1
0 5 4 16579.4 659.92 18
0 5 4 15990.8 698.364 17
0 5 5 102943 2331.52 18
0 5 5 106056 2470.37 17
0 5 6 53044.3 1713.57 42
0 5 6 52968.5 1783.43 17
0 5 6 56340.1 1703.75 8
0 5 6 56485.7 1681.38 50
0 5 7 112381 2564.46 41
0 5 7 114433 2646.73 50
0 5 7 107561 2711.74 8
0 5 8 1837.52 251.992 41
0 5 8 2002.6 292.766 8
0 5 9 4125.16 363.427 41
0 5 9 4222.53 397.89 10
0 5 10 3564.87 329.759 10
0 5 10 3106.17 274.32 41
0 5 11 32978.1 937.941 10
0 6 -9 3225.42 228.997 33
0 6 -9 3308.58 238.859 32
0 6 -8 12970.8 601.015 33
0 6 -8 12259 620.076 32
0 6 -7 3535.97 360.96 33
0 6 -7 3615.22 393.384 32
0 6 -6 32.1477 72.925 48
0 6 -6 357.532 160.821 33
0 6 -6 252.953 152.179 32
0 6 -5 10254.5 724.432 48
0 6 -5 8967.61 715.428 33
0 6 -5 8858.17 741.594 32
0 6 -4 84677.2 2464.63 48
0 6 -4 79641.6 2405.65 18
0 6 -4 80905 2397.26 33
0 6 -4 82544.4 2399.29 32
0 6 -4 88493.9 2400.98 29
0 6 -3 10777.3 759.85 48
0 6 -3 10303.2 695.427 18
0 6 -3 11566 744.327 33
0 6 -3 9848.56 659.476 32
0 6 -3 11312.5 787.929 29
0 6 -2 43551 1480.16 48
0 6 -2 43114.8 1388.36 18
0 6 -2 41806.5 1380.36 33
0 6 -1 743.816 154.122 18
0 6 0 30225.6 982.869 18
0 6 1 7897.27 448.2 18
0 6 2 146970 2813.68 18
0 6 3 63284.1 1619.54 1
0 6 3 69357.3 1650.63 18
0 6 4 29377.7 1165.63 45
0 6 4 30245.8 1038.31 1
0 6 4 30585.6 1205.51 42
0 6 5 210.709 84.6652 8
0 6 5 259.557 122.513 50
0 6 6 1089.48 233.726 42
0 6 6 1200.08 272.626 17
0 6 6 1883.75 291.943 8
0 6 6 1437.76 258.983 50
0 6 7 471.896 137.464 41
0 6 7 240.252 121.8 50
0 6 7 447.49 160.186 8
0 6 8 71838.2 1820.47 41
0 6 8 72490.8 2001.5 8
0 6 9 2966.88 279.638 41
0 6 9 2927.07 309.732 10
0 6 10 16420.2 611.677 41
0 6 10 17895.7 705.244 10
0 6 11 9.83128 26.5264 10
0 7 -8 6619.43 355.5 32
0 7 -8 6549.57 345.619 8
0 7 -7 62729.8 1596.9 33
0 7 -7 58799.5 1611.32 32
0 7 -6 10145.5 593.281 48
0 7 -6 9941.53 650.459 33
0 7 -6 9224.08 656.266 32
0 7 -5 15538.3 864.096 48
0 7 -5 13983.6 883.367 33
0 7 -5 12974.4 858.174 32
0 7 -4 4929.94 530.629 48
0 7 -4 4913.8 535.82 33
0 7 -4 4916.07 516.89 32
0 7 -3 17917.3 1041.76 48
0 7 -3 16051.9 998.833 18
0 7 -3 19258.5 1018.66 33
0 7 -3 17816.8 932.631 32
0 7 -2 19524.1 1015.3 48
0 7 -2 17942.2 971.398 18
0 7 -2 19281.2 935.969 33
0 7 -2 19255.9 909.956 8
0 7 -1 85347.5 2227.92 48
0 7 -1 80588.3 2307.31 47
0 7 -1 81485.4 2188.11 18
0 7 -1 81978.3 2092.35 33
0 7 -1 87457.9 2121.71 8
0 7 0 4846.1 415.36 48
0 7 0 5198.29 479.215 47
0 7 0 5402.16 600.087 45
0 7 0 4658.42 415.099 18
0 7 0 5702.19 436.207 8
0 7 1 9958.33 595.347 48
0 7 1 10543.5 654.548 47
0 7 1 10510.2 792.835 45
0 7 1 10023.8 600.374 18
0 7 1 10965.1 603.946 8
0 7 2 2025.46 265.198 48
0 7 2 1981.69 274.745 47
0 7 2 1848.48 253.751 18
0 7 2 2180.74 342.146 45
0 7 2 1910.36 244.921 8
0 7 3 41323.7 1516.92 45
0 7 3 39072.4 1473.3 42
0 7 3 37317 1291.81 1
0 7 4 16939.3 940.637 42
0 7 4 18583.5 827.829 8
0 7 4 17541.4 1040.8 50
0 7 5 103132 2731.84 42
0 7 5 118665 2640.36 8
0 7 5 100252 2567.81 30
0 7 5 115980 2880.16 50
0 7 6 8856.39 638.985 50
0 7 6 8361.5 645.385 42
0 7 6 9266.08 656.482 8
0 7 7 202.944 104.623 50
0 7 7 324.227 135.374 8
0 7 8 7492.72 547.406 8
0 7 9 13903.8 650.066 10
0 7 10 10699.4 476.54 10
0 8 -6 18630.4 803.025 33
0 8 -6 19992.6 830.749 8
0 8 -5 8158.6 610.959 33
0 8 -5 7814.95 584.489 32
0 8 -5 8635.73 578.444 48
0 8 -5 8511.4 617.023 8
0 8 -4 33767.6 1374.55 48
0 8 -4 30373.1 1334.28 33
0 8 -4 31586 1317.48 8
0 8 -3 2478.81 382.878 48
0 8 -3 2749.51 387.682 33
0 8 -3 2719.16 368.481 8
0 8 -2 4179.28 490.351 48
0 8 -2 4176.17 439.92 33
0 8 -2 3703.21 401.123 8
0 8 -1 1499.5 267.874 48
0 8 -1 1507.51 306.78 47
0 8 -1 1452.07 239.832 8
0 8 0 69673.5 1974.1 48
0 8 0 76644.9 2306.53 47
0 8 0 73609.5 1920.09 8
0 8 1 32335 1207.04 48
0 8 1 33125.8 1356.19 47
0 8 1 33597.5 1167.98 8
0 8 2 127932 3422.93 45
0 8 2 117189 2730.99 48
0 8 2 123704 2662.94 8
0 8 3 418.609 127.272 8
0 8 4 554.633 192.394 42
0 8 4 443.805 146.492 30
0 8 4 478.684 142.929 8
0 8 5 7727.27 642.99 42
0 8 5 8992.55 610.364 8
0 8 5 8495.51 603.332 30
0 8 5 9184.05 712.316 50
0 8 6 39381.1 1420.62 50
0 8 6 40580 1440.86 8
0 8 7 14178.5 790.196 8
0 8 8 32111 1078.59 10
0 8 8 34686.8 1159.31 8
0 8 9 4687.3 322.198 10
0 9 -5 1686.49 204.78 48
0 9 -5 1899.26 226.786 8
0 9 -4 6911.29 532.248 48
0 9 -4 7114.16 525.991 8
0 9 -3 38386.2 1511.45 48
0 9 -3 40840.8 1428.22 8
0 9 -2 1225.56 275.033 48
0 9 -2 1510.83 250.45 8
0 9 -1 58638.4 1898.87 48
0 9 -1 57219 1688.03 8
0 9 0 4586.94 410.973 8
0 9 0 4477.75 447.919 48
0 9 1 4425.96 426.34 48
0 9 1 4570.38 397.545 8
0 9 2 230.203 98.8913 8
0 9 3 58328.8 1620.99 8
0 9 4 8200.82 546.281 8
0 9 4 7077.06 532.057 30
0 9 5 33760.4 1224.46 8
0 9 5 31876.2 1177.22 30
0 9 6 6102.56 494.419 8
0 9 7 6442.21 468.608 8
0 9 8 6463.48 379.083 10
0 9 8 7234.98 420.405 8
0 10 -3 190.952 94.0977 8
0 10 -2 9048.4 559.601 8
0 10 -1 14987.7 744.949 8
0 10 0 79619.3 1962.99 8
0 10 1 607.732 144.01 8
0 10 2 20778.9 853.267 8
0 10 3 105.313 71.3144 30
0 10 3 263.694 106.337 8
0 10 4 5790.57 444.137 8
0 10 4 5005.21 418.514 30
0 10 5 8412.41 540.487 8
0 10 5 7936.07 498.32 30
0 10 6 51777.7 1444.45 8
0 10 7 1356.35 174.549 8
0 11 -1 1300.53 243.584 30
0 11 0 5537.72 529.159 30
0 11 0 4781.57 375.428 8
0 11 1 1011.24 232.377 30
0 11 1 687.926 149.202 8
0 11 2 18764.5 805.403 8
0 11 2 18007.1 858.748 30
0 11 3 39566.2 1225.28 8
0 11 3 35677.9 1179.63 30
0 11 4 81.5439 70.0669 30
0 11 4 -7.99417 64.4446 8
1 -11 -2 64.3473 44.4954 16
1 -11 -1 347.423 85.2565 9
1 -11 0 1305.76 158.778 9
1 -11 1 26764.3 773.016 9
1 -10 -6 5638.84 318.71 51
1 -10 -5 827.677 133.713 51
1 -10 -4 32211.8 958.269 16
1 -10 -4 33213.4 985.507 51
1 -10 -3 1003.48 165.525 39
1 -10 -3 800.02 145.651 9
1 -10 -2 29099.7 970.438 39
1 -10 -2 29841.5 973.927 9
1 -10 -1 45834.3 1259.08 39
1 -10 -1 45870.4 1280.38 9
1 -10 0 11720.7 579.757 9
1 -10 1 578.038 127.254 9
1 -10 2 10946.1 534.405 9
1 -10 3 66.3374 42.0197 9
1 -10 4 16625.8 566.422 9
1 -9 -7 4150.98 300.516 51
1 -9 -6 238.548 79.9855 16
1 -9 -6 454.901 111.709 51
1 -9 -5 29995.7 995.299 16
1 -9 -5 30965 1020.61 51
1 -9 -4 31718.2 1051.47 39
1 -9 -4 32307.6 1078.86 9
1 -9 -4 30771.7 1025.55 16
1 -9 -4 30903.8 1043.96 51
1 -9 -3 5360.59 412.702 9
1 -9 -3 5030.3 399.332 39
1 -9 -3 5166.09 395.536 51
1 -9 -2 972.649 179.118 39
1 -9 -2 1087.2 185.123 9
1 -9 -1 29970.7 1048.82 39
1 -9 -1 28857.4 1034.31 9
1 -9 0 28107.4 983.236 39
1 -9 0 27850.8 1017.68 9
1 -9 1 6015.22 440.582 9
1 -9 2 25593.7 949.06 9
1 -9 3 174.497 69.3696 12
1 -9 3 241.526 89.3063 9
1 -9 4 19.3304 47.5162 12
1 -9 5 27087.5 787.67 12
1 -9 5 30044.8 884.732 9
1 -9 6 3598.77 214.462 12
1 -9 6 4600.44 256.271 9
1 -8 -8 29075.7 891.266 51
1 -8 -7 3679.05 323.72 16
1 -8 -7 3713.43 319.209 51
1 -8 -6 21184.1 850.274 16
1 -8 -6 19850.2 816.255 27
1 -8 -6 20531.5 829.276 51
1 -8 -5 1791.95 237.26 39
1 -8 -5 1610.58 229.501 16
1 -8 -5 1762.97 242.642 27
1 -8 -5 1733.63 238.935 51
1 -8 -4 60250.3 1616.31 39
1 -8 -4 60882.1 1665.32 9
1 -8 -4 60331.4 1669.36 27
1 -8 -4 62024 1647.45 51
1 -8 -3 22030.4 882.29 51
1 -8 -3 21678.8 890.309 39
1 -8 -3 21409.2 889.152 9
1 -8 -2 65548 1738.45 39
1 -8 -2 65349.2 1730.99 9
1 -8 -1 12754.9 673.578 39
1 -8 -1 13204.6 682.507 9
1 -8 0 10023.7 581.797 39
1 -8 0 9744.8 583.595 9
1 -8 0 10309.8 575.237 52
1 -8 1 8938.63 537.697 44
1 -8 1 10685.3 581.875 52
1 -8 2 34908.7 1172.44 44
1 -8 2 44210.3 1266.5 52
1 -8 3 11981.8 607.768 44
1 -8 3 11509.1 624.674 14
1 -8 4 43546.4 1208.63 44
1 -8 4 42960.2 1288.23 14
1 -8 5 10525.6 531.383 12
1 -8 5 10294 537.523 14
1 -8 6 9198.86 436.509 12
1 -8 7 68.1682 38.4716 12
1 -7 -9 4113.03 284.269 31
1 -7 -8 1118.29 183.395 16
1 -7 -8 1106.12 170.777 31
1 -7 -8 1028.04 169.469 51
1 -7 -7 27234.8 1018.81 16
1 -7 -7 25434 925.152 31
1 -7 -7 26613.4 974.662 51
1 -7 -6 39466.5 1266.6 16
1 -7 -6 37597.6 1238.61 27
1 -7 -6 38532 1239.34 51
1 -7 -5 52898.6 1506.48 39
1 -7 -5 55624.8 1550.24 16
1 -7 -5 55628.8 1582.5 27
1 -7 -5 54443.2 1530.09 51
1 -7 -4 18336.6 947.138 19
1 -7 -4 19637 816.234 39
1 -7 -4 19881.3 847.01 9
1 -7 -4 20102.4 882.67 27
1 -7 -4 20562.2 841.148 51
1 -7 -3 35745 1294.47 19
1 -7 -3 34308.4 1128.76 39
1 -7 -3 35089.2 1158.1 9
1 -7 -3 35255.5 1134.65 51
1 -7 -2 610.595 160.212 19
1 -7 -2 613.534 145.447 39
1 -7 -2 577.983 138.719 9
1 -7 -2 541.787 131.594 51
1 -7 -1 77753.3 2016.72 19
1 -7 -1 80808.7 1948.83 39
1 -7 -1 80722.9 1944.52 9
1 -7 -1 82745.1 1907.94 52
1 -7 0 10787.4 564.891 44
1 -7 0 9011.4 545.184 39
1 -7 0 10188.5 556.271 52
1 -7 0 9027.98 564.792 21
1 -7 1 33396.2 1089.77 44
1 -7 1 31513.2 1065.27 14
1 -7 1 31795 1070.02 52
1 -7 2 5764.22 428.093 44
1 -7 2 5523.96 422.514 14
1 -7 2 5394.01 405.154 52
1 -7 3 112812 2419.73 44
1 -7 3 103016 2412.35 14
1 -7 4 2547.08 276.766 44
1 -7 4 2671.4 305.819 14
1 -7 5 52881.2 1499.59 14
1 -7 6 17135.7 722.968 14
1 -7 7 16850.9 620.862 12
1 -7 7 17312.3 649.065 14
1 -7 8 3345.05 222.922 12
1 -6 -10 19380.8 639.828 31
1 -6 -9 13623.1 637.908 16
1 -6 -9 13677.1 603.469 31
1 -6 -8 6412.51 476.433 16
1 -6 -8 6439.43 435.624 31
1 -6 -8 6245.18 440.34 51
1 -6 -7 9922.57 606.763 16
1 -6 -7 10217.1 585.799 31
1 -6 -7 9582.63 566.677 27
1 -6 -7 9399.9 565.96 51
1 -6 -6 32128.2 1345.24 19
1 -6 -6 36332.5 1211.68 16
1 -6 -6 34154.3 1153.09 31
1 -6 -6 35157.8 1178.36 27
1 -6 -6 35141.5 1172.5 51
1 -6 -5 7594.13 579.309 19
1 -6 -5 7270.34 482.537 39
1 -6 -5 7648 500.245 16
1 -6 -5 7908.03 523.348 27
1 -6 -5 7774.92 498.939 51
1 -6 -4 146968 3110.56 19
1 -6 -4 143322 2877.95 39
1 -6 -4 146516 2940.32 9
1 -6 -4 137706 2950.61 27
1 -6 -4 147330 2908.35 51
1 -6 -3 5132.31 415.238 19
1 -6 -3 4885.53 368.767 39
1 -6 -2 18976.4 790.832 19
1 -6 -1 7074.4 452.75 19
1 -6 0 43882.3 1250.1 19
1 -6 1 730.849 138.523 21
1 -6 2 119634 2546.5 44
1 -6 2 127210 2590.4 14
1 -6 2 121080 2519.16 21
1 -6 3 42302.2 1291.62 44
1 -6 3 45807.2 1354.33 14
1 -6 4 14420.7 723.295 14
1 -6 5 512.264 131.753 14
1 -6 6 17222.2 776.362 14
1 -6 7 1773.3 218.041 14
1 -6 8 30403.7 894.084 14
1 -6 8 27830 858.926 13
1 -6 9 6168.81 288.171 12
1 -5 -10 1652.64 198.927 16
1 -5 -10 1530.13 184.055 31
1 -5 -9 37474.8 1201.91 16
1 -5 -9 35826.5 1112.95 31
1 -5 -8 16442 808.806 16
1 -5 -8 16380.9 748.656 31
1 -5 -8 15958.3 752.509 51
1 -5 -7 69909.2 1837.57 36
1 -5 -7 75680.3 1952.13 16
1 -5 -7 76036.9 1883.9 31
1 -5 -7 70291.1 1817.17 27
1 -5 -7 72957.5 1864.26 51
1 -5 -6 33468.7 1246.76 20
1 -5 -6 34598.3 1171.19 16
1 -5 -6 31875.7 1105.88 31
1 -5 -6 35437.5 1163.21 27
1 -5 -6 33002.9 1118.02 51
1 -5 -5 2248.9 276.829 20
1 -5 -5 2026.04 241.982 39
1 -5 -5 1982.47 242.995 16
1 -5 -5 2227.66 266.247 27
1 -5 -5 2089.8 245.639 51
1 -5 -4 1454.76 201.47 20
1 -5 -4 1725.06 229.943 19
1 -5 -3 77461.8 1777.35 19
1 -5 -2 4761.69 335.571 19
1 -5 -1 164786 3007.52 19
1 -5 0 13248.5 551.636 19
1 -5 1 39771.7 1050.83 21
1 -5 2 39567.9 1001.92 23
1 -5 2 40334.5 1081.29 21
1 -5 3 70289.8 1592.59 23
1 -5 3 88307.7 1848.09 21
1 -5 4 9287.81 563.681 14
1 -5 5 67010.8 1771.79 17
1 -5 5 71801.9 1855.25 14
1 -5 6 26025.7 1011.42 14
1 -5 7 1598.74 225.098 14
1 -5 7 1629.75 233.912 13
1 -5 8 1866.72 211.009 12
1 -5 8 1669.94 206.011 14
1 -5 8 1712.97 218.952 13
1 -5 9 32333.5 881.374 12
1 -5 9 33314.7 901.888 14
1 -4 -10 33593.9 1062 16
1 -4 -10 32593.2 1002.71 31
1 -4 -9 2207.67 282.117 16
1 -4 -9 2321.45 268.258 31
1 -4 -8 18106 872.555 16
1 -4 -8 17746.3 795.551 31
1 -4 -7 -19.658 51.0728 20
1 -4 -7 78.5438 73.4544 36
1 -4 -7 203.811 104.252 16
1 -4 -7 104.703 59.7804 31
1 -4 -7 287.543 104.918 51
1 -4 -6 101043 2344.06 20
1 -4 -6 92558.8 2224.8 36
1 -4 -6 96838.6 2261.57 16
1 -4 -6 97402.5 2219.7 31
1 -4 -6 98936.9 2211.4 27
1 -4 -6 103162 2248.57 51
1 -4 -5 52315.4 1425.24 20
1 -4 -4 60607.3 1458.69 20
1 -4 -3 12802.2 512.708 20
1 -4 -2 8164.68 391.432 19
1 -4 -1 36506.1 919.254 19
1 -4 0 128717 2312.49 19
1 -4 1 61420.5 1205.53 23
1 -4 2 342642 5417.91 23
1 -4 2 356900 5578.89 21
1 -4 3 29556.3 778.972 23
1 -4 3 33574 938.46 21
1 -4 4 17819.5 686.476 21
1 -4 5 843.854 151.666 17
1 -4 5 479.973 119.223 28
1 -4 5 546.688 137.468 14
1 -4 6 60312.5 1661.11 17
1 -4 6 67628.3 1767.26 14
1 -4 7 23945.5 950.537 14
1 -4 8 7654.1 482.043 14
1 -4 8 8460.28 534.229 13
1 -4 9 5052.57 327.533 12
1 -4 9 5076.88 342.071 14
1 -4 9 5984.31 396.192 13
1 -4 10 10896 460.966 13
1 -3 -11 48876.9 1210.49 16
1 -3 -10 3517.71 333.906 16
1 -3 -10 2637.19 279.396 31
1 -3 -9 91024.8 2224.06 16
1 -3 -9 80336.3 2038.99 31
1 -3 -8 26652.1 1091.37 16
1 -3 -8 27979.5 1056.56 31
1 -3 -7 33997.7 1203.92 36
1 -3 -7 30738.7 1166.72 16
1 -3 -7 32619 1135.31 31
1 -3 -7 32732.2 1149.19 51
1 -3 -6 11677.5 638.867 20
1 -3 -5 77016.6 1778.6 20
1 -3 -4 1834.37 190.066 20
1 -3 -3 105172 1965.78 20
1 -3 -2 74448.8 1425.74 20
1 -3 -1 16968.8 494.155 19
1 -3 -1 13706.3 271.341 25
1 -3 0 33177.7 781.134 19
1 -3 1 193118 3039.39 23
1 -3 2 280.664 51.821 23
1 -3 2 512.022 85.4028 21
1 -3 3 137248 2390.14 23
1 -3 3 158746 2644.86 21
1 -3 4 14725.8 568.963 21
1 -3 5 14667.8 609.507 17
1 -3 6 5950.41 445.337 40
1 -3 6 6314.87 421.195 17
1 -3 6 5610.17 420.576 37
1 -3 6 5330.32 394.529 28
1 -3 6 5723.02 440.849 14
1 -3 7 63313.9 1689.65 17
1 -3 7 67824.1 1774.57 14
1 -3 8 2310.45 270.881 14
1 -3 9 47733.3 1309.62 14
1 -3 9 54252.1 1421.16 13
1 -3 10 31758.4 931.34 13
1 -3 11 7158.53 318.088 13
1 -2 -11 1522.66 182.638 16
1 -2 -10 10232.4 520.29 46
1 -2 -10 11005.5 605.643 16
1 -2 -10 10029.6 528.112 31
1 -2 -9 2227.56 263.203 46
1 -2 -9 2571.68 318.763 16
1 -2 -9 2436.33 288.295 31
1 -2 -8 93105.8 2157.83 46
1 -2 -8 94734.4 2185.97 31
1 -2 -7 33025.5 1188.27 20
1 -2 -7 33480.3 1198.32 16
1 -2 -7 36683.5 1177.88 31
1 -2 -6 247003 4548.29 20
1 -2 -5 2841.7 273.769 20
1 -2 -4 9229.14 421.606 20
1 -2 -3 26696.8 700.036 20
1 -2 -2 168555 2737.08 20
1 -2 -1 43506.3 884.688 19
1 -2 0 567878 8461.96 19
1 -2 1 388799 5757.75 6
1 -2 1 377566 5749.76 23
1 -2 2 13847 359.418 6
1 -2 2 13514.1 343.045 23
1 -2 3 16175 454.425 6
1 -2 3 14959.1 394.861 23
1 -2 4 31594.1 814.163 17
1 -2 4 32320.5 845.837 21
1 -2 5 50945.7 1214.94 17
1 -2 6 78710.6 1753.37 17
1 -2 7 16757.5 758.821 40
1 -2 7 16441.5 713.222 17
1 -2 7 18504.7 793.724 37
1 -2 8 2349.96 273.213 37
1 -2 8 2343.96 276.104 14
1 -2 10 49648.6 1292.85 13
1 -2 11 2210.21 193.957 13
1 -1 -11 23863.3 791.533 16
1 -1 -11 23943.2 796.088 32
1 -1 -10 3687.6 340.129 16
1 -1 -9 113056 2476.53 46
1 -1 -9 124898 2538.65 31
1 -1 -8 467.574 146.953 20
1 -1 -8 820.981 206.694 16
1 -1 -8 635.596 158.3 31
1 -1 -7 6183.92 477.067 20
1 -1 -7 6456.23 472.63 46
1 -1 -7 6778.45 512.217 16
1 -1 -7 6306.2 476.873 31
1 -1 -6 155.891 73.9074 20
1 -1 -5 146112 2769.16 20
1 -1 -4 1939.04 184.047 20
1 -1 -3 422096 6502.66 20
1 -1 -2 51832.7 990.797 20
1 -1 -1 91349.3 1506.07 20
1 -1 -1 91651.4 1417.55 2
1 -1 0 33147 647.164 19
1 -1 0 32648.5 625.439 6
1 -1 1 90719.9 1482.67 6
1 -1 1 91913.3 1527.72 21
1 -1 2 341.844 54.8898 6
1 -1 2 175.849 47.3019 21
1 -1 3 109037 1798.2 17
1 -1 3 107963 1838.36 21
1 -1 4 14054.6 479.951 17
1 -1 5 2395.21 204.968 17
1 -1 6 40262.6 1072.04 17
1 -1 7 82864.6 1846.31 17
1 -1 7 82526.8 1962.66 37
1 -1 8 21413.8 946.53 10
1 -1 8 21988.6 877.452 37
1 -1 9 97905.7 2328.61 10
1 -1 9 102279 2237.32 37
1 -1 10 12057.3 581.601 13
1 -1 11 3966.47 276.938 13
1 0 -11 41.2792 38.6952 16
1 0 -11 57.1606 41.0049 32
1 0 -10 320.642 117.843 16
1 0 -10 304.393 94.6175 32
1 0 -9 50047.1 1447.25 46
1 0 -9 47867.7 1486.77 16
1 0 -9 51640.7 1460.66 31
1 0 -8 87736.9 2237.16 16
1 0 -8 86709.9 2199.47 31
1 0 -7 13339.4 686.615 20
1 0 -7 15690.6 770.511 46
1 0 -7 13006.8 691.709 35
1 0 -7 13874.8 745.771 16
1 0 -7 16160.8 800.937 31
1 0 -6 62859.8 1582.56 20
1 0 -5 667.361 120.206 20
1 0 -4 101339 2008.32 20
1 0 -3 109148 1916.01 20
1 0 -2 187119 2921.39 20
1 0 -1 477113 7100.44 20
1 0 -1 489651 7113.32 24
1 0 0 10821.1 248.909 2
1 0 0 11177.1 244.913 24
1 0 1 60630.2 960.413 17
1 0 1 64515.2 1075.7 6
1 0 2 56082.4 1035.66 17
1 0 2 57786.2 1080.68 21
1 0 3 26451.1 668.498 17
1 0 4 232263 3809.94 17
1 0 5 82715.1 1688.94 17
1 0 6 1885.54 203.794 17
1 0 7 5835.28 430.717 41
1 0 7 5762.55 458.743 10
1 0 7 6494.54 426.12 17
1 0 7 5592.47 422.274 37
1 0 8 64185.3 1721.66 41
1 0 8 66749 1845.31 10
1 0 8 70062.6 1754.99 37
1 0 9 175.821 101.374 10
1 0 9 139.381 73.5137 37
1 0 10 33799.8 1118.4 10
1 0 10 35915 1089.57 13
1 0 11 6091.92 356.429 13
1 1 -11 38323.1 1007.39 32
1 1 -10 1376.12 204.481 16
1 1 -10 1462.8 203.804 32
1 1 -9 2325.65 291.676 16
1 1 -8 756.676 164.489 46
1 1 -8 592.848 161.198 16
1 1 -7 11274.1 674.473 46
1 1 -7 11879.2 691.076 16
1 1 -7 10613.2 642.187 31
1 1 -7 12121.8 702.454 24
1 1 -6 9820.11 595.4 24
1 1 -5 208731 3622.39 20
1 1 -4 57875.4 1239.83 20
1 1 -3 61780.9 1183.77 20
1 1 -3 62315.1 1328.67 24
1 1 -2 25974.7 527.65 20
1 1 -1 117239 1884.35 1
1 1 0 14405.3 335.006 6
1 1 0 13839.5 353.701 1
1 1 1 162676 2485.87 2
1 1 1 163727 2457.69 17
1 1 2 162576 2496.84 17
1 1 3 1156.51 108.292 17
1 1 4 25633.8 737.063 17
1 1 5 143272 2691.61 17
1 1 6 25798.5 890.218 17
1 1 7 100222 2306.64 41
1 1 7 95432.7 2351.82 10
1 1 8 101745 2434.78 10
1 1 8 99837.5 2260.3 37
1 1 8 99775 2298.52 41
1 1 9 5169.72 442.844 10
1 1 9 4887.5 386.931 37
1 1 9 5493.67 428.411 13
1 1 10 1825.9 241.175 10
1 1 10 1632.08 208.813 13
1 1 11 32678.1 918.221 13
1 2 -11 2597.9 204.989 34
1 2 -11 2693.23 213.622 32
1 2 -10 45696.5 1269.62 32
1 2 -9 24358.6 974.366 16
1 2 -9 26036.5 1007.09 32
1 2 -8 24505.6 1032.33 16
1 2 -7 34161.3 1277.16 16
1 2 -7 37025.5 1408.07 24
1 2 -6 14729.9 813.774 46
1 2 -6 16010.1 840.628 16
1 2 -5 16454.1 799.147 24
1 2 -4 171945 3272.03 24
1 2 -3 9540.22 307.978 20
1 2 -3 10139.6 447.272 24
1 2 -2 160868 2836.02 18
1 2 -2 156183 2633.02 24
1 2 -1 30373.7 751.834 18
1 2 -1 29753.5 652.369 24
1 2 0 13060.7 358.385 18
1 2 0 13288.5 330.5 6
1 2 1 82868.7 1341.12 18
1 2 1 90293.3 1469.77 6
1 2 2 965462 13952.4 18
1 2 2 989536 14075.5 17
1 2 3 676.139 83.8239 17
1 2 4 147781 2599.25 17
1 2 5 23336 797.476 17
1 2 6 6123.54 434.317 17
1 2 7 464.533 131.107 41
1 2 7 453.64 142.084 10
1 2 7 531.038 138.04 17
1 2 7 448.062 141.654 8
1 2 8 56507.7 1567.04 41
1 2 8 50049 1590.54 10
1 2 9 327.027 107.761 41
1 2 9 272.504 106.652 10
1 2 10 47336 1399.94 10
1 2 11 252.562 82.2236 10
1 3 -10 117.08 54.8413 34
1 3 -10 155.718 69.6231 32
1 3 -9 210.825 103.387 32
1 3 -8 4221.99 412.374 16
1 3 -8 4181.76 384.111 33
1 3 -8 4398.97 428.489 32
1 3 -7 68318.2 1989.99 16
1 3 -7 70440.6 1967.3 33
1 3 -7 71994.6 2093.66 32
1 3 -6 29854.4 1250.61 16
1 3 -6 29185.8 1218.51 33
1 3 -6 29229.7 1294.28 32
1 3 -6 30808 1326.86 24
1 3 -5 79441.6 2185.67 24
1 3 -4 865.98 172.979 24
1 3 -3 10698.4 562.601 18
1 3 -3 11628.6 515.63 24
1 3 -2 9300.42 463.817 18
1 3 -2 9495.56 385.781 24
1 3 -1 225400 3759.33 18
1 3 -1 231947 3660.49 24
1 3 0 87516.6 1590.83 18
1 3 0 91104.2 1490.74 6
1 3 1 128049 2087.21 18
1 3 1 129424 2132.52 6
1 3 2 23054.9 492.242 2
1 3 2 23088.8 514.741 18
1 3 2 23932.2 605.328 17
1 3 2 22850 633.486 1
1 3 3 164931 2665.45 18
1 3 3 168074 2856.44 1
1 3 3 169366 2813.17 17
1 3 4 1975.46 186.541 17
1 3 5 136727 2718.34 17
1 3 6 80210.7 2033.38 17
1 3 7 68246.1 1818.19 41
1 3 7 70237.5 1918.49 10
1 3 7 70434 2009.33 17
1 3 7 69729.4 1965.77 8
1 3 8 4348.16 391.093 41
1 3 8 4152.83 406.997 10
1 3 8 4477.63 420.229 8
1 3 9 52881.5 1505.76 41
1 3 9 52001.1 1570.87 10
1 3 10 11607.5 621.366 10
1 3 11 36093.3 1049.97 10
1 4 -10 50194 1186.6 32
1 4 -9 4087.95 330.549 34
1 4 -9 4334.49 347.887 32
1 4 -8 9729.67 620.32 34
1 4 -8 8710.71 547.624 33
1 4 -8 9301.74 604.874 32
1 4 -7 683.27 176.719 33
1 4 -7 805.787 207.887 32
1 4 -6 64088.6 2028.93 16
1 4 -6 69373.9 2030.98 33
1 4 -6 64146.3 2078.01 32
1 4 -5 473.477 164.449 33
1 4 -5 155.115 81.2655 16
1 4 -5 238.458 133.03 32
1 4 -5 135.539 106.749 24
1 4 -4 143682 3089.94 24
1 4 -3 86.5229 67.7411 18
1 4 -3 163.684 80.1654 24
1 4 -2 73322.5 1723.96 18
1 4 -2 75411.1 1579.06 24
1 4 -1 1463.55 167.349 18
1 4 -1 1417.72 146.531 24
1 4 0 97715.4 1832.45 18
1 4 1 36101.4 826.696 18
1 4 1 35615.5 791.102 6
1 4 2 175553 2727.39 2
1 4 2 174051 2832.41 18
1 4 3 9317.49 354.592 18
1 4 3 10050.7 432.531 17
1 4 3 9971.55 442.89 1
1 4 4 221194 3806.63 17
1 4 4 215740 3770.02 1
1 4 5 15792.2 715.843 17
1 4 6 29048.5 1157.58 17
1 4 6 27476.7 1091.84 8
1 4 6 29656.3 1128.37 50
1 4 7 6022.02 470.024 41
1 4 7 5466.37 534.935 17
1 4 7 6033.14 514.512 8
1 4 8 34463.4 1181.08 41
1 4 8 32899.7 1232.66 10
1 4 8 33918.9 1257.8 8
1 4 9 10273.3 581.522 41
1 4 9 10744.4 637.506 10
1 4 10 1908.5 242.999 10
1 4 11 136.442 72.8619 10
1 5 -9 19237.3 654.4 33
1 5 -9 20864.1 727.812 32
1 5 -8 5578.38 408.469 33
1 5 -8 5992.04 451.321 32
1 5 -7 44323.2 1463.09 33
1 5 -7 44031.5 1543.61 32
1 5 -6 17421.4 952.12 33
1 5 -6 15660.2 965.043 32
1 5 -5 63.1438 123.2 33
1 5 -5 95.1608 102.582 32
1 5 -5 106.123 113.259 24
1 5 -4 700.966 195.597 33
1 5 -4 413.65 167.348 32
1 5 -4 627.834 169.864 24
1 5 -3 86115.4 2279.29 18
1 5 -3 91113.7 2128.37 24
1 5 -2 97555.1 2278.82 18
1 5 -2 100144 2087.8 24
1 5 -1 102330 2177.84 18
1 5 0 3632.43 275.17 18
1 5 1 6994.91 360.285 18
1 5 2 10357.6 435.849 18
1 5 2 10908.8 442.683 6
1 5 2 10386.5 503.853 1
1 5 3 92626.8 1976.81 1
1 5 4 27631.6 933.152 1
1 5 5 131111 2816.11 17
1 5 5 121325 2618.55 8
1 5 6 11517.1 758.535 17
1 5 6 12955.9 716.368 8
1 5 6 12697.6 742.288 50
1 5 7 6327.1 620.459 17
1 5 7 7852.76 588.592 8
1 5 8 5051.26 418.289 41
1 5 8 5264.17 462.663 10
1 5 8 4897.31 452.913 8
1 5 9 65624.1 1667.42 41
1 5 9 68517.6 1793.03 10
1 5 10 12067.1 599.434 10
1 5 11 34170.2 947.238 10
1 6 -9 295.958 69.34 32
1 6 -8 173.985 77.1475 33
1 6 -8 211.255 87.529 32
1 6 -7 2268.05 282.698 33
1 6 -7 2208.02 297.795 32
1 6 -6 67829.4 1987.39 33
1 6 -6 59937.4 1982.88 32
1 6 -5 5179.46 539.032 33
1 6 -5 4827.17 538.992 32
1 6 -4 38030.2 1508.25 48
1 6 -4 39474.8 1552.65 33
1 6 -4 37553 1522.8 32
1 6 -3 1040.82 238.771 48
1 6 -3 1293.81 272.257 18
1 6 -3 1238.31 238.419 33
1 6 -3 1369.58 251.646 32
1 6 -2 224.554 118.698 48
1 6 -2 38.906 66.2003 18
1 6 -2 112.88 68.8551 33
1 6 -2 109.108 56.2756 32
1 6 -1 27572 1066.02 18
1 6 0 44328.1 1310.93 18
1 6 1 54747.2 1423.2 18
1 6 2 123972 2628.59 1
1 6 3 19390.7 814.157 1
1 6 4 19090.3 840.391 1
1 6 4 18851.8 875.451 30
1 6 4 17825.3 753.915 8
1 6 5 13671.5 840.965 42
1 6 5 13382.2 771.5 30
1 6 5 14243 701.658 8
1 6 5 13779.9 850.868 50
1 6 6 33791.5 1240.76 8
1 6 6 31927.8 1277.45 30
1 6 6 34908 1330.48 50
1 6 7 20486.7 981.299 8
1 6 8 13694.6 743.939 10
1 6 8 12701.5 739.337 8
1 6 9 14779.2 707.106 10
1 6 9 14569.5 700.935 8
1 6 10 11908.1 558.72 10
1 6 11 3764.37 245.587 10
1 7 -8 1511.3 160.404 32
1 7 -8 1429.14 156.94 8
1 7 -7 8783.23 495.343 33
1 7 -7 8649.72 517.562 32
1 7 -6 783.197 174.986 33
1 7 -6 958.287 217.864 32
1 7 -5 21059.2 1069.76 33
1 7 -5 20123.7 1072.99 32
1 7 -4 7844.32 647.874 48
1 7 -4 6215.7 593.052 33
1 7 -4 6539.55 605.686 32
1 7 -3 154923 3696.8 48
1 7 -3 149964 3485.58 33
1 7 -3 154389 3481.85 32
1 7 -2 3398.09 424.837 48
1 7 -2 2749.81 414.938 18
1 7 -2 3165.43 367.113 33
1 7 -2 3787.68 391.743 32
1 7 -1 7925.69 601.577 48
1 7 -1 6735.58 500.999 33
1 7 -1 6922.81 504.228 32
1 7 -1 7158.07 508.981 8
1 7 0 471.011 141.726 48
1 7 0 730.692 156.766 8
1 7 1 58100 1669.37 48
1 7 1 61336 1611.95 8
1 7 1 58513.1 1827.62 1
1 7 2 9083.72 619.724 1
1 7 2 10217.7 567.788 8
1 7 3 67720.7 1693.83 8
1 7 3 62982.1 1822.53 1
1 7 4 8070.14 591.975 1
1 7 4 9400.17 625.42 30
1 7 4 9735.21 561.602 8
1 7 5 14867.3 840.475 30
1 7 5 16645.4 785.299 8
1 7 6 1391.77 236.126 8
1 7 6 1206.7 240.784 30
1 7 7 28619.4 1179.42 8
1 7 8 10232.7 603.863 10
1 7 8 10162.4 631.012 8
1 7 9 67380.6 1673.11 10
1 7 9 71888.3 1724.17 8
1 7 10 8521.22 421.243 10
1 8 -7 9979.62 433.045 8
1 8 -6 34515.2 1136.83 32
1 8 -6 36680.8 1165.17 8
1 8 -5 511.481 144.15 32
1 8 -5 295.929 127.426 8
1 8 -4 12494.5 800.589 33
1 8 -4 12386.2 799.889 32
1 8 -4 15402.6 849.737 48
1 8 -4 13717.6 833.068 8
1 8 -3 5.99806 97.0397 48
1 8 -3 72.23 70.981 32
1 8 -3 151.026 96.4617 8
1 8 -2 36128.8 1540.07 48
1 8 -2 35329.2 1330.56 8
1 8 -1 9939.85 734.195 48
1 8 -1 10099.7 632.784 8
1 8 0 82809.7 2265.38 48
1 8 0 83083.3 2064.65 8
1 8 1 37167.5 1218.26 8
1 8 2 141.133 75.7125 8
1 8 3 757.701 160.674 8
1 8 4 44558.5 1519.58 30
1 8 4 49687.5 1437.51 8
1 8 5 21523.1 1018.44 30
1 8 5 24101 978.376 8
1 8 6 50041.3 1545.03 8
1 8 6 45529.4 1542.34 30
1 8 7 4891.24 423.135 10
1 8 7 4963.09 448.022 8
1 8 8 1145.1 182.331 10
1 8 8 1461.27 221.36 8
1 8 9 1632.08 186.433 10
1 9 -5 37943.3 1148.33 8
1 9 -4 11923.8 692.91 8
1 9 -3 25974.8 1166.67 48
1 9 -3 24172.7 1068.56 8
1 9 -2 1130.99 270.039 48
1 9 -2 1020.48 211.472 8
1 9 -1 1207.58 272.124 48
1 9 -1 1130.54 210.32 8
1 9 0 7697.85 524.099 8
1 9 1 40034 1271.42 8
1 9 2 4027.23 356.427 8
1 9 3 31888 1258.66 30
1 9 3 36624.8 1157.24 8
1 9 4 3483.88 378.959 30
1 9 4 3345.01 333.545 8
1 9 5 5499.24 433.915 8
1 9 5 5047.06 449.421 30
1 9 6 2304.3 287.035 8
1 9 7 34604.2 1113.08 10
1 9 7 36326.7 1175.72 8
1 9 8 11868.6 515.781 10
1 9 8 15126.6 622.254 8
1 10 -4 1633.19 182.086 8
1 10 -3 4845.32 387.218 8
1 10 -2 32492.8 1249.46 30
1 10 -2 29039.9 1074.97 8
1 10 -1 8149.61 699.54 30
1 10 -1 7658.83 517.73 8
1 10 0 21699 1196.81 30
1 10 0 20524.3 855.079 8
1 10 1 421.187 163.627 30
1 10 1 440.352 118.53 8
1 10 2 19213.3 961.239 30
1 10 2 19416.2 786.369 8
1 10 3 7821.8 564.085 30
1 10 3 7972.91 485.048 8
1 10 4 69337.1 1694.82 8
1 10 4 62332.6 1752.6 30
1 10 5 3522.02 327.545 8
1 10 5 3007.56 313.93 30
1 10 6 3182.19 302.795 8
1 10 7 2474.61 235.622 8
1 11 -1 16229.8 791.465 30
1 11 -1 15401.4 664.293 8
1 11 0 1968.21 329.128 30
1 11 0 2301.28 255.501 8
1 11 1 56451.9 1873.61 30
1 11 1 53770 1437.66 8
1 11 2 1543.91 264.97 30
1 11 2 1373.37 196.896 8
1 11 3 322.79 116.392 30
1 11 3 449.43 120.635 8
1 11 4 1091.06 171.605 8
1 11 4 1206.77 187.03 30
1 11 5 13244.1 586.65 8
2 -11 -2 739.454 103.63 7
2 -11 -2 816.413 111.046 16
2 -11 -1 23878.8 692.046 16
2 -11 0 4399.94 268.289 9
2 -10 -5 10049.7 442.731 16
2 -10 -4 35207.8 984.206 16
2 -10 -3 16855.7 650.707 16
2 -10 -2 8512.24 464.155 9
2 -10 -1 4285.52 327.71 9
2 -10 0 6022.86 385.258 9
2 -10 1 177.079 73.4837 9
2 -10 2 14571.2 594.502 9
2 -10 3 4672.38 296.481 9
2 -9 -7 22440.5 704.799 16
2 -9 -6 11025.2 525.42 16
2 -9 -5 6147.44 401.462 16
2 -9 -5 6423.49 413.175 51
2 -9 -4 7493.38 458.364 16
2 -9 -3 35676.1 1126.92 9
2 -9 -2 940.632 165.648 9
2 -9 -1 48343.5 1363.11 9
2 -9 0 612.226 136.8 9
2 -9 1 16015.2 720.611 9
2 -9 2 518.813 130.678 9
2 -9 3 61929.7 1490.79 12
2 -9 3 68472.7 1642.32 9
2 -9 4 25579.8 793.091 12
2 -9 4 26001 852.443 9
2 -9 5 18605.2 597.779 12
2 -9 5 19763.7 637.905 9
2 -8 -8 1937.41 196.839 16
2 -8 -7 127.359 66.376 16
2 -8 -6 65018.1 1625.93 16
2 -8 -6 62915.6 1619.94 51
2 -8 -5 16674.3 736.245 16
2 -8 -5 16024 754.878 51
2 -8 -4 29063.5 1046.42 9
2 -8 -4 29225.1 1087.14 51
2 -8 -3 20330.7 899.138 39
2 -8 -3 20003.7 846.314 9
2 -8 -2 974.836 188.378 39
2 -8 -2 843.263 166.382 9
2 -8 -1 2995.49 336.196 39
2 -8 -1 2811.37 305.209 9
2 -8 0 34497.2 1170.97 9
2 -8 1 25231.5 988.142 9
2 -8 2 13705.2 674.538 12
2 -8 2 14622.1 732.476 9
2 -8 3 11541.5 611.92 12
2 -8 4 1643.67 215.635 12
2 -8 5 4726.33 336.917 12
2 -8 6 22827.8 718.73 12
2 -8 6 22147.4 727.234 9
2 -8 7 5444.86 268.538 12
2 -7 -9 42619.6 1073.83 16
2 -7 -8 4181.65 338.04 16
2 -7 -7 56470.1 1508.26 16
2 -7 -7 53291.7 1459.25 51
2 -7 -6 483.249 142.551 16
2 -7 -6 452.831 140.062 51
2 -7 -5 3289.52 329.468 16
2 -7 -5 3779.57 373.997 51
2 -7 -4 2411.82 287.577 9
2 -7 -4 2701.61 321.056 51
2 -7 -3 39398.4 1460.19 19
2 -7 -3 43210 1375.21 39
2 -7 -3 42347.2 1301.97 9
2 -7 -2 14970.7 819.523 19
2 -7 -2 15209.7 772.081 39
2 -7 -2 14695.3 706.205 9
2 -7 -1 15164.8 781.533 39
2 -7 -1 15673 734.251 9
2 -7 0 16814.7 774.507 9
2 -7 0 15688.9 811.134 21
2 -7 1 15836.9 758.368 9
2 -7 1 13984.2 766.176 21
2 -7 2 88000.5 2140.99 12
2 -7 3 35458 1207.9 12
2 -7 4 25095.2 977.647 12
2 -7 4 24471.4 960.748 14
2 -7 5 9306.94 535.042 12
2 -7 5 8468.79 519.403 14
2 -7 6 17211.6 679.837 12
2 -7 7 9829.81 443.465 12
2 -7 8 2738.51 191.593 12
2 -6 -10 4672.69 272.168 16
2 -6 -9 6487.28 405.284 16
2 -6 -8 20437.3 834.868 16
2 -6 -7 5721.73 444.464 16
2 -6 -7 5780.26 440.352 51
2 -6 -6 52179.1 1515.95 16
2 -6 -6 53076 1552.57 51
2 -6 -5 25827.1 1178.85 19
2 -6 -5 26646.3 981.492 16
2 -6 -5 27070.8 1055.42 51
2 -6 -4 8109.4 587.142 19
2 -6 -4 8256.92 530.354 39
2 -6 -4 9350.12 558.052 9
2 -6 -4 8085.09 565.423 27
2 -6 -4 9163.71 584.872 51
2 -6 -3 27626.4 1074.45 19
2 -6 -3 28514.2 1044.27 39
2 -6 -3 28248.8 993.752 9
2 -6 -3 26368.6 1033.42 51
2 -6 -2 48301.3 1457.41 19
2 -6 -2 49365.1 1470.8 39
2 -6 -2 50702.5 1396.79 9
2 -6 -1 34256.8 1160.33 19
2 -6 -1 33708.3 1101.02 9
2 -6 0 94338.1 2152.09 9
2 -6 1 18282.5 797.435 21
2 -6 2 6448.67 456.258 14
2 -6 2 6163.65 455.747 21
2 -6 3 87134.5 2063.23 14
2 -6 3 78123.1 2062.47 21
2 -6 4 17841 818.758 14
2 -6 5 16247.1 742.823 12
2 -6 5 15193.4 744.137 14
2 -6 6 42623.4 1235.23 12
2 -6 6 42226.5 1272.31 14
2 -6 7 12745.9 569.865 12
2 -6 7 11870.6 558.597 14
2 -6 8 16.6984 35.2143 12
2 -6 9 1692.14 138.708 12
2 -5 -10 16548.5 623.19 16
2 -5 -9 33995.1 1070.31 16
2 -5 -9 30442.2 963.482 31
2 -5 -8 9247.22 573.524 16
2 -5 -8 8494.54 513.813 31
2 -5 -7 244.054 108.445 16
2 -5 -7 135.905 96.4902 31
2 -5 -7 414.912 130.225 51
2 -5 -6 121.822 99.0936 19
2 -5 -6 457.151 126.96 16
2 -5 -6 363.088 119.293 51
2 -5 -5 34339.5 1316.04 19
2 -5 -5 35889 1148.28 16
2 -5 -5 36019.4 1222.81 51
2 -5 -4 23916.7 972.734 19
2 -5 -4 24081.8 908.968 9
2 -5 -4 22802.6 933.647 51
2 -5 -3 31748.7 1068.87 19
2 -5 -2 38877.9 1143.98 19
2 -5 -1 6030.89 399.48 19
2 -5 0 878.832 152.719 19
2 -5 1 175963 3266.06 21
2 -5 2 19538.6 769.364 21
2 -5 3 34554.4 1150.37 14
2 -5 3 38456.9 1189.14 21
2 -5 4 50981.4 1488.3 14
2 -5 4 50714.3 1470.65 21
2 -5 5 15730.4 761.116 14
2 -5 5 12801.6 698.804 21
2 -5 6 1710.43 230.075 12
2 -5 6 1899.51 252.462 14
2 -5 6 1775.34 254.395 13
2 -5 7 48310.5 1370.1 14
2 -5 7 50250.4 1463.17 13
2 -5 8 9237.03 475.487 12
2 -5 8 9488.87 511.619 13
2 -5 9 14710.6 533.439 12
2 -5 9 16237.8 586.696 13
2 -4 -10 1722.08 203.381 16
2 -4 -9 29.8612 56.5364 16
2 -4 -9 33.8245 48.9917 31
2 -4 -8 39980.4 1306.41 16
2 -4 -8 37491.8 1225.24 31
2 -4 -7 24108.6 978.17 16
2 -4 -7 23520 953.045 31
2 -4 -6 70798.8 2070.36 19
2 -4 -6 72350.4 1826.64 16
2 -4 -6 72160.6 1850.94 51
2 -4 -5 13992.7 758.314 19
2 -4 -5 13776.6 662.346 16
2 -4 -5 14142.8 711.228 51
2 -4 -4 1901.06 242.676 19
2 -4 -3 9376.19 498.623 19
2 -4 -2 337448 5536.36 19
2 -4 -1 9723.01 453.911 19
2 -4 0 66467.3 1480.9 19
2 -4 1 117113 2246.08 21
2 -4 2 43.9715 47.8448 21
2 -4 3 74.487 50.2509 21
2 -4 4 142170 2851.47 21
2 -4 5 11116.5 629.844 14
2 -4 5 11541.9 676.107 13
2 -4 5 13292 663.444 21
2 -4 6 14766 736.451 14
2 -4 6 16644.4 828.818 13
2 -4 7 11607 599.305 12
2 -4 7 11322.7 656.162 13
2 -4 8 5058.66 363.763 12
2 -4 8 5225.68 408.578 13
2 -4 9 8093.2 414.016 12
2 -4 9 7574.69 441.194 13
2 -4 10 58276.2 1273.97 13
2 -3 -11 42697.1 1027.92 16
2 -3 -10 18712.9 744.025 16
2 -3 -9 6632.69 496.175 16
2 -3 -9 8932.25 524.189 31
2 -3 -8 1467.24 241.682 16
2 -3 -8 2142.95 304.148 31
2 -3 -7 25180.6 1185.37 19
2 -3 -7 28457.1 1081.8 16
2 -3 -7 28368.2 1157.57 31
2 -3 -6 10628.2 659.787 20
2 -3 -6 11253.7 622.532 16
2 -3 -6 11515.7 676.513 31
2 -3 -6 10690.4 609.375 51
2 -3 -5 56107.8 1547.47 20
2 -3 -4 14951.7 661.413 19
2 -3 -3 24764.7 799.829 19
2 -3 -2 27507.1 789.528 19
2 -3 -1 45157.2 1058.81 19
2 -3 0 3493.31 233.348 19
2 -3 1 235126 3867.61 21
2 -3 2 26040 760.612 21
2 -3 3 11375.9 512.069 21
2 -3 4 3093.83 237.532 17
2 -3 4 3217.87 283.965 21
2 -3 5 41529.2 1224.15 21
2 -3 6 14404.7 761.276 13
2 -3 7 93944.4 2149.66 12
2 -3 7 96279 2312.03 13
2 -3 8 27437.2 936.396 12
2 -3 8 26884.3 1023.23 13
2 -3 9 16481.3 703.387 13
2 -3 10 19855 689.821 13
2 -3 11 5237.47 256.513 13
2 -2 -11 124.574 58.1592 16
2 -2 -10 30819.5 997.086 16
2 -2 -9 14715.6 722.572 16
2 -2 -9 12747.4 649.715 31
2 -2 -8 137725 2982.64 16
2 -2 -8 132237 2892.27 31
2 -2 -7 35386.5 1284.21 16
2 -2 -7 35034.8 1284.61 24
2 -2 -6 1013.71 199.882 20
2 -2 -6 967.223 185.466 16
2 -2 -6 1156.49 235.897 31
2 -2 -6 1188.3 212.301 24
2 -2 -5 9356.86 539.32 20
2 -2 -4 138161 2646.25 20
2 -2 -3 121414 2027.77 2
2 -2 -3 126230 2215.8 24
2 -2 -2 134513 2355.21 19
2 -2 -2 130390 2152.61 24
2 -2 -2 133288 2118.14 2
2 -2 -1 40400.8 882.484 19
2 -2 -1 35141.5 634.605 24
2 -2 0 52809.2 1110.44 19
2 -2 1 2641.03 173.97 6
2 -2 1 2711.47 188.674 21
2 -2 2 134504 2322.12 6
2 -2 2 135384 2372.23 21
2 -2 3 10845.3 432.099 6
2 -2 3 13578.8 524.807 21
2 -2 4 123816 2236.13 17
2 -2 4 124708 2351.27 6
2 -2 4 130061 2419.15 21
2 -2 6 861.339 168.65 12
2 -2 6 1081.48 210.298 13
2 -2 7 2134.6 254.604 12
2 -2 7 2094.97 277.578 13
2 -2 8 79093.5 1984.29 13
2 -2 9 35362.7 1134.45 13
2 -2 10 4940.78 344.681 13
2 -2 11 2751.18 207.536 13
2 -1 -11 27596.7 801.591 16
2 -1 -10 3373.55 314.998 16
2 -1 -9 20073.2 877.541 16
2 -1 -8 202.003 97.1316 16
2 -1 -8 82.3808 79.9296 31
2 -1 -7 63761.8 1916.35 20
2 -1 -7 66649.8 1837.01 31
2 -1 -7 64671.1 1903.13 24
2 -1 -6 15624.6 780.658 20
2 -1 -6 17084.2 787.334 16
2 -1 -6 15578.1 801.551 31
2 -1 -6 16391.1 793.989 24
2 -1 -5 58160.4 1522.77 20
2 -1 -5 60086 1566.82 24
2 -1 -4 73660.5 1604.65 20
2 -1 -4 69156.5 1593.02 24
2 -1 -3 12029.5 450.701 24
2 -1 -2 2188.72 159.724 19
2 -1 -2 2160.42 144.87 24
2 -1 -1 143498 2362.41 19
2 -1 -1 141130 2272.76 2
2 -1 -1 142323 2243.03 24
2 -1 0 99316.9 1732.78 6
2 -1 1 113382 1987.34 6
2 -1 1 118406 2003.09 21
2 -1 2 26468 680.053 6
2 -1 2 27938.6 706.271 21
2 -1 3 11615.6 452.96 6
2 -1 3 11890.7 453.409 21
2 -1 4 3585.59 223.792 17
2 -1 4 3339.58 258.584 6
2 -1 4 3460.88 252.061 21
2 -1 5 246525 4317.58 6
2 -1 6 35745.4 1173.71 6
2 -1 7 38305.2 1342.53 10
2 -1 7 41599.2 1384.82 13
2 -1 8 56416.7 1697.54 10
2 -1 8 59782 1663.85 13
2 -1 9 482.527 132.511 13
2 -1 10 553.517 124.451 13
2 -1 11 39955.3 1006.74 13
2 0 -11 300.07 77.8136 16
2 0 -10 68215.2 1614.57 16
2 0 -10 62414 1537.39 32
2 0 -9 11204.4 616.348 16
2 0 -9 10513 605.738 32
2 0 -8 36389.2 1251.88 16
2 0 -8 36500.5 1306.37 32
2 0 -7 18865.2 861.357 16
2 0 -7 19713.9 965.755 24
2 0 -6 29060.5 1094.11 16
2 0 -6 27838.3 1112.83 24
2 0 -5 19000.9 752.078 20
2 0 -5 17962.2 805.063 24
2 0 -4 281424 4639.94 20
2 0 -4 275904 4772.1 24
2 0 -3 3607.47 247.114 24
2 0 -2 61210.5 1136.14 19
2 0 -2 62266.7 1199.95 24
2 0 -1 6142.38 226.453 19
2 0 -1 6184.63 234.451 24
2 0 0 86410.1 1446.31 2
2 0 0 82686.8 1454.26 21
2 0 1 9646.38 339.135 6
2 0 1 9470.65 336.557 21
2 0 2 195601 3200.31 6
2 0 2 196836 3222.4 21
2 0 3 61135.5 1287.01 6
2 0 3 62607 1256.84 21
2 0 4 21308.8 621.736 17
2 0 4 23916.2 759.118 6
2 0 5 14121.7 645.234 6
2 0 6 1904.38 259.452 6
2 0 7 29724.7 1127.01 10
2 0 7 26091.4 1015.82 37
2 0 7 28899.7 1130.39 6
2 0 7 30097.5 1145.18 13
2 0 8 65784.4 1874.25 10
2 0 8 71456.4 1876.74 13
2 0 9 5465.64 457.424 10
2 0 9 7935.87 513.574 13
2 0 10 471.899 114.355 13
2 0 11 6485.77 357.209 13
2 1 -11 488.119 90.8446 34
2 1 -10 177.372 84.4541 16
2 1 -10 258.702 86.3103 32
2 1 -9 10975 595.032 16
2 1 -9 11228.7 623.765 32
2 1 -8 424.094 137.421 16
2 1 -8 398.748 139.72 32
2 1 -7 147933 3312.67 32
2 1 -7 148875 3386.36 24
2 1 -6 10536.2 643.71 16
2 1 -6 10550.5 695.479 24
2 1 -5 5525.82 458.932 24
2 1 -4 10807.9 563.969 24
2 1 -3 100747 1975.04 24
2 1 -2 868.249 104.575 24
2 1 -1 448847 6462.99 24
2 1 -1 416159 6292.47 21
2 1 0 142280 2376.33 6
2 1 0 142648 2347.14 24
2 1 0 145942 2339.61 21
2 1 1 8962.29 289.401 2
2 1 1 8597.89 326.026 6
2 1 1 9372.63 353.733 21
2 1 2 41.6038 32.6196 6
2 1 3 221193 3411.8 17
2 1 3 229543 3726.89 6
2 1 4 82837.2 1547.1 17
2 1 4 85394.7 1818.39 6
2 1 5 135728 2770.07 6
2 1 6 25612.9 1026.07 6
2 1 7 28526.9 1101.65 10
2 1 7 28025.3 1154.83 6
2 1 7 29179.2 1166.73 13
2 1 8 161.722 83.7786 10
2 1 8 163.177 93.5789 6
2 1 8 342.624 117.102 13
2 1 9 44291.1 1420.25 10
2 1 9 42337.3 1337.47 13
2 1 10 14936.6 712.086 10
2 1 10 13807.2 631.173 13
2 1 11 55402.3 1275.41 13
2 2 -10 61644 1452.64 34
2 2 -10 56163.4 1382.24 32
2 2 -9 2953.07 290.7 16
2 2 -9 3261.06 324.915 32
2 2 -8 11209.7 655.204 16
2 2 -8 12321.4 724.161 32
2 2 -7 14083 770.45 16
2 2 -7 14570.5 854.793 32
2 2 -6 68756.4 1933.95 16
2 2 -6 66194.6 2061.88 32
2 2 -6 65784.2 2041.56 24
2 2 -5 5908.99 506.549 24
2 2 -4 99922.5 2266.04 24
2 2 -3 23748.7 687.422 1
2 2 -3 22540.4 751.609 24
2 2 -2 2297.97 195.157 1
2 2 -2 2277.65 179.987 24
2 2 -1 24504.4 700.601 1
2 2 -1 23091.1 619.116 24
2 2 0 67988.3 1405.29 1
2 2 0 69269.2 1304.68 6
2 2 0 68723.4 1301.26 24
2 2 1 154366 2545.33 6
2 2 1 147755 2443.9 2
2 2 2 11566.1 425.25 6
2 2 2 10285.9 332.802 2
2 2 3 74879.5 1353.06 17
2 2 3 77063.5 1582.63 6
2 2 4 21657.7 610.507 17
2 2 4 21566.8 770.636 6
2 2 5 1952.25 250.987 6
2 2 6 111633 2595.08 6
2 2 7 44810.3 1400.67 41
2 2 7 44331.1 1414.23 10
2 2 7 40276.1 1361.04 8
2 2 7 45491 1532.02 6
2 2 7 40620.9 1470.61 13
2 2 8 6241.14 490.684 10
2 2 8 6418.26 513.234 13
2 2 9 18909.2 875.171 10
2 2 9 20370.7 870.6 13
2 2 10 6583.95 460.936 10
2 2 11 133.247 64.2777 10
2 3 -10 187.609 66.6168 34
2 3 -10 87.1255 54.2016 32
2 3 -9 51197.5 1417.71 34
2 3 -9 51008.9 1410.37 32
2 3 -8 12742.3 692.907 16
2 3 -8 13903.5 756.292 32
2 3 -7 21004.9 992.041 16
2 3 -7 24094.5 1119.53 32
2 3 -6 193.838 137.239 32
2 3 -6 -64.1167 112.266 24
2 3 -5 2330.26 349.066 16
2 3 -5 1906.44 321.055 32
2 3 -5 2021.37 317.028 24
2 3 -4 6937.58 504.092 24
2 3 -3 209097 3593.16 1
2 3 -3 191314 3581.33 24
2 3 -2 83235.1 1769.48 1
2 3 -2 78351.9 1641.91 24
2 3 -1 183553 3213.26 1
2 3 -1 176034 3046.58 24
2 3 0 448.32 74.6725 6
2 3 0 328.672 80.176 1
2 3 1 38184.9 890.929 6
2 3 1 37202.6 966.584 1
2 3 1 38407.9 837.303 2
2 3 2 19187 511.38 2
2 3 2 19122.5 605.668 6
2 3 2 18524.7 636.239 1
2 3 3 201074 3500 6
2 3 4 101675 1923.73 17
2 3 4 96360 2152.5 6
2 3 5 25523.5 1012.82 6
2 3 6 4673.62 428.98 10
2 3 6 4529.4 443.591 6
2 3 7 19446.6 882.715 41
2 3 7 20350.3 926.782 10
2 3 7 19167.1 931.434 8
2 3 7 19594 1009.88 6
2 3 8 10441.6 646.243 10
2 3 9 52716.4 1554.85 10
2 3 10 44253.9 1314.34 10
2 3 11 10120.3 500.748 10
2 4 -10 4542.22 254.643 32
2 4 -9 42.7588 53.1543 34
2 4 -9 49.8648 54.3443 32
2 4 -8 9307.8 582.42 34
2 4 -8 9295.14 579.618 32
2 4 -7 6030.93 511.106 16
2 4 -7 5497.69 518.876 34
2 4 -7 5734.48 522.845 32
2 4 -6 23400.4 1144.16 16
2 4 -6 22420.4 1175.74 34
2 4 -6 22524.8 1054.43 33
2 4 -6 24183.8 1194.45 32
2 4 -5 77300.8 2317.93 16
2 4 -5 69028.2 2239.97 34
2 4 -5 69775.5 2096.76 33
2 4 -5 71553.4 2210.87 32
2 4 -5 69216.7 2199.68 24
2 4 -4 7569.64 641.758 16
2 4 -4 6409.27 564.249 34
2 4 -4 7044.64 576.786 32
2 4 -4 6810.28 550.497 24
2 4 -3 693.047 160.184 24
2 4 -3 259.868 100.257 1
2 4 -2 57868.3 1420.78 24
2 4 -2 58453.4 1572.59 1
2 4 -1 127.509 56.8505 24
2 4 -1 76.3385 49.2427 1
2 4 0 116483 2349.06 18
2 4 0 110845 1983.07 6
2 4 0 109071 2300.07 1
2 4 1 46470.8 1047.61 6
2 4 1 43179.8 1169.54 1
2 4 2 15567 481.09 2
2 4 2 15090.8 616.151 1
2 4 2 15256.1 558.68 6
2 4 3 171865 3113.03 6
2 4 3 164889 3126.64 1
2 4 4 245203 4480.77 6
2 4 5 4935.29 453.903 6
2 4 6 85353.6 2213.8 10
2 4 6 81790.6 2306.69 6
2 4 7 23006.4 1013.2 10
2 4 7 22379.1 1029.45 8
2 4 7 23818.9 1178.62 6
2 4 8 5237.68 465.994 10
2 4 8 5148.86 460.673 8
2 4 9 4669.5 404.682 10
2 4 10 38967 1177.43 10
2 4 11 8274.22 429.266 10
2 5 -9 22445.1 708.394 32
2 5 -8 554.97 125.263 34
2 5 -8 510.866 127.946 32
2 5 -7 176.658 111.275 34
2 5 -7 227.593 98.0228 33
2 5 -7 121.768 97.3101 32
2 5 -6 4739.75 511.347 34
2 5 -6 5509.24 500.12 33
2 5 -6 4651.15 504.159 32
2 5 -5 43164.6 1709.68 34
2 5 -5 48924.7 1699.46 33
2 5 -5 44005.2 1678.33 32
2 5 -4 25085.4 1189.3 34
2 5 -4 24359.5 1150.58 33
2 5 -4 21800.9 1080.02 32
2 5 -4 24293.6 1179.15 24
2 5 -3 112105 2739.89 34
2 5 -3 115808 2773.68 33
2 5 -3 125957 2839.25 1
2 5 -3 117424 2725.49 32
2 5 -3 109710 2847.53 3
2 5 -3 125311 2801.64 24
2 5 -2 20612.3 830.595 24
2 5 -2 20313.1 970.176 1
2 5 -1 204.109 99.8449 1
2 5 0 581.31 146.55 1
2 5 1 107299 2334.52 1
2 5 1 105724 2007.1 2
2 5 2 65163.4 1326.62 2
2 5 2 62884 1444.32 6
2 5 2 60586.1 1588.64 1
2 5 3 101236 2265.89 1
2 5 3 102461 2192.23 6
2 5 4 2618.21 305.999 6
2 5 5 8781.91 654.851 6
2 5 5 8798.58 628.543 30
2 5 5 8647.13 533.003 8
2 5 6 3713.01 418.273 10
2 5 6 3357.37 447.179 6
2 5 6 4584.71 426.226 8
2 5 7 56600.2 1715.07 10
2 5 7 50809.8 1669.89 8
2 5 8 29170.6 1131.96 10
2 5 8 26974.4 1113.33 8
2 5 9 43574.3 1337.56 10
2 5 10 16090.5 681.207 10
2 5 11 107.606 54.8115 10
2 6 -8 26528.3 834.174 32
2 6 -7 11968.8 653.672 32
2 6 -6 61731.5 1854.03 34
2 6 -6 62103.4 1778.8 33
2 6 -5 9613.07 733.69 34
2 6 -5 10295.1 728.652 33
2 6 -5 8798.19 702.432 32
2 6 -4 18248.5 1032.61 34
2 6 -4 19900.7 1055.3 33
2 6 -4 18088.7 1011.61 32
2 6 -3 7489.99 608.63 34
2 6 -3 7131.59 589.327 33
2 6 -3 7757.39 622.547 3
2 6 -3 7174.66 571.631 32
2 6 -2 85708.5 2176.43 33
2 6 -2 83464.4 2330.75 3
2 6 -2 83102.5 2123.95 32
2 6 -2 82735.4 2474.21 1
2 6 -1 2562.44 335.728 48
2 6 -1 2990.89 354.86 3
2 6 -1 2806.4 303.516 32
2 6 -1 2781.62 395.634 1
2 6 0 101629 2508.83 48
2 6 0 109588 2461.2 3
2 6 0 107924 2721.81 1
2 6 0 106383 2339.55 8
2 6 1 8196.95 505.729 3
2 6 1 8287.28 502.484 8
2 6 1 8316.51 586.675 1
2 6 2 7201.8 460.273 3
2 6 2 6931.11 514.84 1
2 6 2 7365.96 469.228 8
2 6 3 8209.23 564.621 1
2 6 3 8081.06 566.486 30
2 6 3 9149.55 526.867 8
2 6 4 104645 2612.94 30
2 6 4 116506 2448.8 8
2 6 5 2471.74 338.517 30
2 6 5 3272.23 335.822 8
2 6 6 143928 3327.96 10
2 6 6 144613 3151.48 8
2 6 7 462.863 152.098 10
2 6 7 582.107 172.89 8
2 6 8 6316.34 484.584 10
2 6 8 6205.79 501.526 8
2 6 9 9596.53 547.25 10
2 6 9 10070 563.044 8
2 6 10 43513.6 1157.13 10
2 7 -7 20549.4 758.999 32
2 7 -6 1126.9 214.273 32
2 7 -5 28392.9 1233.78 32
2 7 -4 28839.1 1283.63 32
2 7 -3 9035.04 653.791 3
2 7 -3 7719.09 614.936 32
2 7 -2 781.704 219.29 48
2 7 -2 1020.2 234.552 3
2 7 -2 740.749 173.894 8
2 7 -1 23636.8 1145.6 48
2 7 -1 20452.8 1256.67 1
2 7 -1 24349.2 1119.44 3
2 7 -1 21446.2 930.108 8
2 7 0 30406.6 1184.6 3
2 7 0 26139 1005.92 8
2 7 0 27542 1392.71 1
2 7 1 87342.1 2542.27 1
2 7 1 92178.8 2164.94 8
2 7 2 13438.9 830.846 1
2 7 2 13385.1 793.561 30
2 7 2 15403.9 720.553 8
2 7 3 8559.84 640.864 1
2 7 3 8936.26 623.04 30
2 7 3 8810.65 535.388 8
2 7 4 3410.15 392.001 30
2 7 4 3815.33 354.714 8
2 7 5 16356.2 895.207 30
2 7 5 17541 819.328 8
2 7 6 7471.77 600.109 10
2 7 6 7371.94 554.688 8
2 7 7 71163.3 1944.88 10
2 7 7 68974.7 1973.14 8
2 7 8 10747.3 603.093 10
2 7 8 11754.4 670.304 8
2 7 9 5127.3 361.925 10
2 7 9 5438.22 379.146 8
2 7 10 8208.88 386.932 10
2 8 -6 5819.16 382.331 8
2 8 -5 -2.00295 84.7573 32
2 8 -5 190.711 97.2724 8
2 8 -4 16686.4 903.889 32
2 8 -4 16656.5 882.013 8
2 8 -3 1763.65 285.32 8
2 8 -2 62753.6 1825.53 8
2 8 -1 6461.47 497.581 8
2 8 0 4252.56 389.061 8
2 8 1 11141.3 807.579 30
2 8 1 10853.1 607.78 8
2 8 2 17917.9 977.831 30
2 8 2 18121.8 795.288 8
2 8 3 18690 952.033 30
2 8 3 20807.6 848.953 8
2 8 4 69369 2054.45 30
2 8 4 81540.1 1940.41 8
2 8 5 24378 1102.22 30
2 8 5 27861.5 1053.17 8
2 8 6 15.3722 65.9261 8
2 8 7 5907.63 478.373 8
2 8 8 17156.9 712.928 10
2 8 8 19207.1 798.837 8
2 8 9 14173.2 535.385 10
2 9 -5 24037.2 798.717 8
2 9 -4 410.263 122.291 8
2 9 -3 5634.65 468 8
2 9 -2 305.084 141.43 30
2 9 -2 241.856 114.306 8
2 9 -1 81443.5 2540.98 30
2 9 -1 72446.4 1922.78 8
2 9 0 9688.32 838.881 30
2 9 0 9007.17 548.44 8
2 9 1 42927.3 1741.98 30
2 9 1 40524.7 1257.61 8
2 9 2 19595.9 1048.95 30
2 9 2 19418.1 801.566 8
2 9 3 3728.72 414.678 30
2 9 3 3438.96 318.946 8
2 9 4 996.742 205.1 30
2 9 4 876.202 163.058 8
2 9 5 29832.3 1048.24 8
2 9 5 26311.4 1081.28 30
2 9 6 7713.09 510.159 8
2 9 6 6623.84 472.832 15
2 9 7 26361.5 948.319 8
2 9 8 5880.21 355.343 8
2 10 -3 2253.8 239.899 8
2 10 -2 17361.9 752.982 8
2 10 -1 67.21 103.473 30
2 10 -1 1.14432 55.9318 8
2 10 0 18531.3 1124.61 30
2 10 0 16799.6 725.67 8
2 10 1 845.822 258.622 30
2 10 1 1008.83 161.884 8
2 10 2 30237.2 1329.9 30
2 10 2 28433.5 941.073 8
2 10 3 25150.2 1100.9 30
2 10 3 27434.9 912.394 8
2 10 4 3925.74 381.815 30
2 10 4 3704.73 315.556 8
2 10 5 289.127 107.511 15
2 10 5 387.906 107.27 8
2 10 6 10633.3 536.618 8
2 10 7 6135.73 340.915 8
2 11 0 8372.4 466.266 8
2 11 1 10986.3 786.855 30
2 11 1 9647.62 503.546 8
2 11 2 1063.7 241.648 30
2 11 2 772.503 140.195 8
2 11 3 12029.3 561.676 8
2 11 4 1059.87 161.426 8
3 -10 -4 5757.84 317.558 16
3 -10 -3 5308.88 305.443 7
3 -10 -3 5326.08 319.794 16
3 -10 -2 1460.67 171.43 7
3 -10 -2 1509.95 173.818 16
3 -10 -1 380.791 98.2756 9
3 -10 0 27841.8 859.011 9
3 -10 1 10014.1 459.715 9
3 -10 2 2555.24 207.036 9
3 -9 -6 1108.52 145.006 16
3 -9 -5 16068.6 623.845 16
3 -9 -4 7245.36 402.13 7
3 -9 -4 7725.5 434.133 16
3 -9 -3 9306.68 496.375 7
3 -9 -3 9360.83 491.641 16
3 -9 -2 35586.5 1103.83 9
3 -9 -1 2621.41 272.927 9
3 -9 0 3350.85 307.979 9
3 -9 1 20945.9 808.598 9
3 -9 2 7410.79 448.962 9
3 -9 3 45317.1 1190.87 9
3 -9 4 19069.2 617.779 9
3 -9 4 16946.8 561.593 12
3 -8 -8 17597.7 562.29 16
3 -8 -7 7820.98 419.519 16
3 -8 -6 4875.85 351.171 16
3 -8 -5 17582.5 722.888 16
3 -8 -4 1505.94 206.953 7
3 -8 -4 1683.99 221.778 16
3 -8 -3 2240.23 266.738 9
3 -8 -2 17759.8 788.062 9
3 -8 -1 32115.7 1117.54 9
3 -8 0 38946 1256.41 9
3 -8 1 13441.4 691 9
3 -8 2 1494.88 227.417 9
3 -8 3 8049.15 486.391 12
3 -8 3 8660.82 527.407 9
3 -8 4 6970.56 433.233 12
3 -8 4 7548.3 455.661 9
3 -8 5 13241.8 545.249 12
3 -8 5 11627.5 508.721 9
3 -8 6 9828.13 407.265 12
3 -7 -8 22064.7 752.233 16
3 -7 -7 38138 1131.83 16
3 -7 -6 2044.56 246.146 16
3 -7 -5 50586.7 1423.14 16
3 -7 -4 26009.3 968.243 7
3 -7 -4 26656.6 966.009 16
3 -7 -3 11918.4 651.06 9
3 -7 -2 7539.11 511.082 9
3 -7 -1 29772.5 1085.79 9
3 -7 0 3254.38 335.854 9
3 -7 1 81472.1 2062.08 9
3 -7 2 10136.9 601.637 12
3 -7 2 10473.9 631.276 9
3 -7 3 36057.9 1226 12
3 -7 3 37218.4 1262.98 9
3 -7 4 10444.6 590.683 12
3 -7 4 10558.3 606.423 9
3 -7 5 14901.7 670.896 12
3 -7 5 13430.8 643.681 9
3 -7 6 1119.93 158.274 12
3 -7 7 21390 654.464 12
3 -6 -9 2750.68 234.26 16
3 -6 -8 18962.1 749.314 16
3 -6 -7 4622.76 374.044 16
3 -6 -6 19299.8 824.651 16
3 -6 -5 26699.1 989.33 16
3 -6 -4 29712.1 1056.29 7
3 -6 -4 29263.9 1031.64 16
3 -6 -4 27546.6 1128.39 51
3 -6 -3 6877.37 565.119 19
3 -6 -3 6980.19 493.115 9
3 -6 -2 74002.7 2036.96 19
3 -6 -2 74923.6 1892.16 9
3 -6 -1 68032.8 1774.83 9
3 -6 0 1389.98 218.607 9
3 -6 0 1805.67 262.208 21
3 -6 1 21418.7 903.657 9
3 -6 1 22417.7 968.697 21
3 -6 2 8811.57 574.996 12
3 -6 2 9029.07 586.419 9
3 -6 2 9117.88 614.827 21
3 -6 3 13346.3 728.519 12
3 -6 4 53385.4 1575.28 12
3 -6 5 14993.1 721.917 12
3 -6 6 -15.4998 52.5536 12
3 -6 7 4341.17 311.094 12
3 -6 8 10213.2 424.985 12
3 -5 -10 1770.11 164.101 16
3 -5 -9 661.841 130.319 16
3 -5 -8 471.256 128.439 16
3 -5 -7 54921 1547.88 16
3 -5 -6 2610.2 296.67 16
3 -5 -5 101224 2799.65 19
3 -5 -5 116935 2498.47 16
3 -5 -4 1386.34 255.199 19
3 -5 -4 1287.64 212.09 7
3 -5 -4 1327.68 206.082 16
3 -5 -4 1243.58 233.913 51
3 -5 -3 389.765 122.193 19
3 -5 -3 335.524 115.676 9
3 -5 -2 2095.94 268.524 19
3 -5 -2 1808.76 238.194 9
3 -5 -1 25696.1 972.873 19
3 -5 0 14406.8 682.882 21
3 -5 1 62332.6 1645.7 21
3 -5 2 35938.4 1224.31 12
3 -5 2 38320.8 1237.96 21
3 -5 3 971.302 203.546 12
3 -5 3 1712.45 253.243 21
3 -5 4 10111.5 630.723 12
3 -5 4 9843.35 631.925 21
3 -5 5 5499.55 441.631 12
3 -5 6 30323.5 1039.38 12
3 -5 6 26490.1 1037.21 13
3 -5 7 49133.3 1304.76 12
3 -5 7 45202.2 1336.55 13
3 -5 8 33157.7 939.782 12
3 -5 8 30949.7 961.832 13
3 -5 9 752.82 109.325 13
3 -5 9 745.981 104.779 12
3 -4 -10 20597.6 670.471 16
3 -4 -9 4826.12 351.644 16
3 -4 -8 28162 1020.2 16
3 -4 -7 37840.2 1256.76 16
3 -4 -6 3534.94 353.403 16
3 -4 -5 4.00442 66.0203 19
3 -4 -5 211.289 94.3639 16
3 -4 -4 67367 1858.28 19
3 -4 -4 57353 1588.26 7
3 -4 -4 67611.8 1676.42 16
3 -4 -4 59919.8 1789.76 51
3 -4 -3 45700.1 1381.67 19
3 -4 -2 48114.6 1357.4 19
3 -4 -1 65955.8 1611.61 19
3 -4 0 13280.8 600.052 21
3 -4 1 6013.38 396.163 21
3 -4 2 121390 2503.64 21
3 -4 3 28785.5 1090.2 12
3 -4 3 33058.2 1104.99 21
3 -4 4 4016.84 383.211 12
3 -4 4 3052.74 335.995 13
3 -4 4 4324.74 385.658 21
3 -4 5 32300.8 1222.29 13
3 -4 5 32416.1 1182.17 21
3 -4 6 8558.35 543.536 12
3 -4 6 7761.02 556.284 13
3 -4 7 1027.19 180.595 12
3 -4 7 920.118 184.554 13
3 -4 8 38650.4 1102.08 12
3 -4 8 38773.4 1184.87 13
3 -4 9 31105 917.884 13
3 -4 9 30424.9 848.111 12
3 -4 10 3990.52 232.647 13
3 -3 -10 2823.65 244.581 16
3 -3 -9 7666.16 469.973 16
3 -3 -8 13524.3 688.898 16
3 -3 -7 51293.5 1521.01 16
3 -3 -7 46288.8 1481.38 31
3 -3 -6 21141.3 915.492 16
3 -3 -5 16207.3 864.729 19
3 -3 -5 17349 786.782 16
3 -3 -4 5603.81 445.774 19
3 -3 -3 4990.09 377.319 19
3 -3 -2 17341.8 681.717 19
3 -3 -1 70268.1 1586.57 19
3 -3 1 6330.6 373.194 21
3 -3 2 45326.5 1199.97 21
3 -3 3 41397.1 1199.28 21
3 -3 4 2588.13 280.56 21
3 -3 5 93505.7 2240.69 12
3 -3 5 91477.8 2148.46 21
3 -3 6 166717 3370.9 12
3 -3 6 159387 3484.55 13
3 -3 7 211.007 90.1733 12
3 -3 7 148.025 84.3805 13
3 -3 8 11894.7 587.623 12
3 -3 8 13524.3 677.332 13
3 -3 9 6246.61 404.762 13
3 -3 9 5930.19 353.708 12
3 -3 10 114.699 51.5346 13
3 -2 -10 31850.1 966.761 16
3 -2 -9 38778.7 1263.06 16
3 -2 -8 4999.94 430.826 16
3 -2 -7 4184.93 401.24 16
3 -2 -7 4103.41 397.374 31
3 -2 -6 32131.3 1150.42 16
3 -2 -6 27515.7 1128.38 31
3 -2 -5 9522.82 572.132 16
3 -2 -4 117735 2527.09 19
3 -2 -3 29023 923.659 19
3 -2 -2 3939.12 284.93 19
3 -2 -1 3606.58 259.044 19
3 -2 0 255672 4215.71 21
3 -2 1 6389.24 344.337 6
3 -2 1 6575.19 352.175 21
3 -2 2 66896.6 1473.98 6
3 -2 2 68344.9 1506.03 21
3 -2 3 67380.8 1574.83 6
3 -2 3 75142.7 1691.38 21
3 -2 4 527.001 118.054 6
3 -2 4 355.148 101.222 21
3 -2 5 5210.22 443.156 12
3 -2 5 4518.54 428.534 13
3 -2 6 51411 1519.28 12
3 -2 6 46211.9 1518.15 13
3 -2 7 5837.26 447.311 12
3 -2 7 5856 487.24 13
3 -2 8 37148.8 1141.07 12
3 -2 8 38718.9 1262.93 13
3 -2 9 19090.2 762.929 13
3 -2 10 408.117 102.022 13
3 -2 11 85.6789 38.9987 13
3 -1 -10 16.9942 41.8613 16
3 -1 -9 50583.3 1414.1 16
3 -1 -8 16918.5 827.684 16
3 -1 -7 33854 1353.45 16
3 -1 -6 34470.7 1220.27 16
3 -1 -6 30110.8 1251.34 24
3 -1 -5 1964.92 264.558 16
3 -1 -5 1780.5 255.809 24
3 -1 -4 2657.01 220.947 2
3 -1 -4 2572.03 260.592 24
3 -1 -3 90797.8 1859.43 19
3 -1 -3 88034.5 1710.9 2
3 -1 -3 89773.8 1784.55 24
3 -1 -2 42147.9 1026 19
3 -1 -2 42506.5 945.746 2
3 -1 -2 40597 923.582 24
3 -1 -1 90253 1585.15 24
3 -1 -1 86037.1 1611.65 2
3 -1 0 115118 2095.23 21
3 -1 1 170.634 56.9403 6
3 -1 1 219.278 62.4105 21
3 -1 2 13382.2 532.728 6
3 -1 2 14159.1 540.501 21
3 -1 3 191871 3471.7 6
3 -1 3 199032 3442.69 21
3 -1 4 89886.9 2027.05 6
3 -1 4 92534 1938 21
3 -1 5 99247.1 2285.48 6
3 -1 6 17581.3 849.459 12
3 -1 6 18833.8 891.049 10
3 -1 6 17820.2 862.917 6
3 -1 6 17112.9 855.017 13
3 -1 7 5986.98 453.919 12
3 -1 7 6113.25 505.349 13
3 -1 8 1742.8 255.613 13
3 -1 9 48249.1 1377.33 13
3 -1 10 22823.8 790.792 13
3 -1 11 19517.5 602.274 13
3 0 -10 29159.4 879.42 16
3 0 -10 29828.5 907.401 34
3 0 -9 9683.23 531.344 16
3 0 -8 6223.76 447.883 3
3 0 -8 7933.58 538.132 16
3 0 -7 620.26 166.262 16
3 0 -6 59319.2 1715.5 16
3 0 -6 54860.3 1817.87 24
3 0 -5 17549.9 841.6 16
3 0 -5 16994.4 854.933 24
3 0 -4 10340.2 562.443 24
3 0 -3 52708.3 1264.88 24
3 0 -2 26240.7 708.655 2
3 0 -2 24744.6 693.411 24
3 0 -1 62678.1 1280.75 2
3 0 -1 66215.6 1298.14 24
3 0 -1 65866.4 1313.09 21
3 0 0 108532 1928.84 2
3 0 0 108340 2024.83 6
3 0 0 113800 2015.24 21
3 0 1 23213.6 695.413 6
3 0 1 25307.8 736.178 21
3 0 2 89812.4 1787.11 6
3 0 2 87749.1 1768.65 21
3 0 3 2044.38 215.148 6
3 0 3 1789.26 186.838 21
3 0 4 26593.7 926.642 6
3 0 5 2058.04 267.763 6
3 0 6 78670.9 2053.52 10
3 0 6 80669.7 2135.19 6
3 0 6 75650.5 2087.6 13
3 0 7 32946.7 1227.18 10
3 0 7 30167.2 1262.18 6
3 0 7 33980.3 1277.88 13
3 0 8 13538.8 751.243 10
3 0 8 14943.6 786.283 13
3 0 9 11669.2 632.964 13
3 0 10 15173 642.27 13
3 0 11 9201.93 401.227 13
3 1 -10 2087.76 203.993 16
3 1 -10 2314.12 217.684 34
3 1 -9 32853.2 1042.45 16
3 1 -8 18056.6 805.428 16
3 1 -7 1393.95 223.402 3
3 1 -7 1480.19 237.282 16
3 1 -6 4813.7 444.101 16
3 1 -6 4904.26 509.689 24
3 1 -5 65771.2 1877.44 16
3 1 -5 64827.6 1916.29 24
3 1 -4 28904 1047.52 24
3 1 -3 107991 2191.06 24
3 1 -2 125405 2314.93 24
3 1 -1 18619.9 565.614 2
3 1 -1 18772.3 587.46 24
3 1 0 37333 914.497 6
3 1 0 34611.1 826.775 2
3 1 0 36948 903.408 21
3 1 1 69061.8 1460.82 6
3 1 1 71031.3 1361.59 2
3 1 1 72407.3 1525.53 21
3 1 2 59402.9 1330.4 6
3 1 3 169008 3089.13 6
3 1 4 60928 1557.4 6
3 1 5 2659.57 307.293 6
3 1 6 4764.87 434.186 10
3 1 6 4640.33 456.771 6
3 1 6 4104 409.898 15
3 1 6 4657.69 447.766 13
3 1 7 70198.2 1949.86 10
3 1 7 70997.9 2138.55 6
3 1 7 73515.1 2077.65 13
3 1 8 15426.2 801.813 10
3 1 8 17262.7 865.559 13
3 1 9 37499.9 1274.43 10
3 1 9 40056.7 1272.48 13
3 1 10 32847.4 1014.87 13
3 1 11 86.501 53.077 13
3 2 -10 15.1669 32.7931 34
3 2 -9 586.409 133.344 34
3 2 -9 443.052 110.543 16
3 2 -9 498.202 112.904 32
3 2 -8 38176.1 1237.53 16
3 2 -8 40617.7 1308.2 32
3 2 -7 128.695 106.672 16
3 2 -7 241.517 118.149 32
3 2 -6 23452.1 1011.52 3
3 2 -6 23421.4 1051.28 16
3 2 -6 22750 1106.67 32
3 2 -6 21676.8 1149.36 24
3 2 -5 44251.8 1524.37 3
3 2 -5 44459.5 1547.05 16
3 2 -5 39365.4 1482.79 32
3 2 -5 39813 1502.17 24
3 2 -4 2828.16 321.898 24
3 2 -3 937.759 157.108 24
3 2 -2 204359 3550.82 24
3 2 -1 215.928 63.696 24
3 2 0 57300.6 1268.02 6
3 2 0 56023.4 1203.55 2
3 2 1 55145.1 1174.78 2
3 2 1 57023.9 1279.91 6
3 2 2 3234.19 256.547 6
3 2 2 3436.43 218.323 2
3 2 3 904.39 149.189 6
3 2 4 63200.9 1618.06 6
3 2 5 47616.9 1486.41 6
3 2 6 59005.1 1718.15 10
3 2 6 57385.6 1787.43 6
3 2 6 48686.9 1643.32 15
3 2 6 47324 1611.25 13
3 2 7 22554.5 1005.22 10
3 2 7 23580.9 1153.55 6
3 2 7 21607 1048.35 13
3 2 8 2451.46 312.931 10
3 2 8 2624.59 333.933 13
3 2 9 1068.16 196.355 10
3 2 9 1109.79 197.657 13
3 2 10 42201.6 1243.23 10
3 2 11 18697.4 644.158 5
3 3 -9 9626.97 485.971 34
3 3 -9 8760.56 446.682 32
3 3 -8 4948.62 394.892 16
3 3 -8 5126.75 425.277 34
3 3 -8 4903.61 404.712 32
3 3 -7 8810.67 604.849 16
3 3 -7 10080.4 693.55 34
3 3 -7 9344.7 651.87 32
3 3 -6 4255.15 404.034 3
3 3 -6 4728.15 475.732 16
3 3 -6 4158.31 482.262 34
3 3 -6 4867.16 503.262 32
3 3 -5 189753 3855.97 3
3 3 -5 180108 3930.69 16
3 3 -5 165043 3888.76 34
3 3 -5 174001 3879.93 32
3 3 -5 164499 3913.01 24
3 3 -4 16838.4 945.93 3
3 3 -4 15703.5 868.59 34
3 3 -4 15063.7 833.604 32
3 3 -4 15051 821.09 24
3 3 -3 33199.3 1115.95 24
3 3 -2 62697.7 1521.48 24
3 3 -1 20951 703.048 24
3 3 0 465.502 94.2274 6
3 3 0 479.134 91.8747 2
3 3 1 229049 3801.01 2
3 3 1 231090 3924.76 6
3 3 2 65973.5 1517.36 6
3 3 2 64884.9 1362.38 2
3 3 3 42148.3 1201.75 6
3 3 4 22298.3 900.687 6
3 3 5 27278.2 1121.54 6
3 3 6 7611.03 581.605 10
3 3 6 7508.99 614.796 6
3 3 6 6392.19 559.23 15
3 3 7 70132.3 1952.04 10
3 3 7 61880.2 2080.84 6
3 3 8 18141.3 880.224 10
3 3 9 28269.9 1056.26 10
3 3 10 3190.54 298.337 10
3 3 11 4210.57 289.378 5
3 4 -9 83.1722 53.6096 34
3 4 -9 58.8545 45.976 32
3 4 -8 33158.9 1091.1 34
3 4 -8 33555.2 1077.74 32
3 4 -7 1997.14 295.387 34
3 4 -7 2119.4 299.082 32
3 4 -6 66331.9 1996.34 16
3 4 -6 64406.3 2070.13 34
3 4 -6 65864.8 2042.05 32
3 4 -5 5036.94 524.978 16
3 4 -5 4833.11 528.176 34
3 4 -5 4544.69 502.12 32
3 4 -5 5181.93 486.629 3
3 4 -4 26459.2 1215.22 34
3 4 -4 28295.7 1226.07 32
3 4 -4 28199 1261.34 24
3 4 -4 30151.6 1299.18 3
3 4 -3 811.372 180.475 34
3 4 -3 645.527 156.724 32
3 4 -3 1073.2 238.442 3
3 4 -3 783.718 177.061 24
3 4 -2 60684 1576.2 24
3 4 -1 24500.8 1048.64 1
3 4 0 27467.4 821.932 6
3 4 1 115.095 57.1797 6
3 4 1 161.868 58.0921 2
3 4 2 40168.5 1143.81 6
3 4 2 40438.1 1023.22 2
3 4 3 70797.7 1756.76 6
3 4 4 47673.8 1468.45 6
3 4 5 44668.7 1587.6 10
3 4 5 49997.2 1668.97 6
3 4 5 48670 1653.34 15
3 4 6 23816.6 1080.81 10
3 4 6 22056.2 1160.16 6
3 4 6 20793.1 1055.36 15
3 4 7 13081.2 768.688 10
3 4 8 34055.6 1244.53 10
3 4 9 31588.7 1101.82 10
3 4 10 27795.1 929.47 10
3 4 11 32808 880.488 5
3 5 -8 24.1144 45.0808 34
3 5 -8 28.4045 45.0514 32
3 5 -7 86427 2109.54 34
3 5 -7 82729.2 2067.94 32
3 5 -6 16855 929.05 34
3 5 -6 16621.5 897.369 32
3 5 -5 23364.9 1203.53 34
3 5 -5 24272 1180.78 32
3 5 -4 2779.82 395.995 34
3 5 -4 2869.92 384.892 32
3 5 -4 3243.43 402.392 3
3 5 -3 16760.1 904.615 34
3 5 -3 16598.6 865.487 32
3 5 -3 17223.8 985.367 3
3 5 -2 226.554 122.892 1
3 5 -2 711.398 165.382 34
3 5 -2 216.178 100.894 32
3 5 -2 648.239 187.349 3
3 5 -1 113684 2890.42 1
3 5 -1 105527 2408.81 32
3 5 -1 110782 2631.91 3
3 5 0 20129.2 865.034 3
3 5 0 20610.9 764.409 2
3 5 1 99805.5 2058.66 2
3 5 2 16891 639.363 2
3 5 3 4360.53 344.571 3
3 5 3 4566.56 390.161 6
3 5 3 4314.34 444.626 30
3 5 4 2035.8 294.554 6
3 5 4 1993.63 301.579 30
3 5 4 2123.72 254.658 8
3 5 5 46183.1 1686.58 6
3 5 5 45944.1 1423.45 8
3 5 6 36185.3 1402.18 10
3 5 6 34284 1300.06 8
3 5 6 36621.3 1436.16 15
3 5 7 33567.2 1277.59 10
3 5 7 30307.1 1221.78 8
3 5 7 29521.1 1239.55 15
3 5 8 12874.5 714.297 10
3 5 8 13726.2 721.386 8
3 5 9 16.0319 54.013 10
3 5 10 524.067 114.376 10
3 5 11 3838.65 235.955 5
3 6 -8 14658.7 502.246 8
3 6 -7 18422.9 740.093 32
3 6 -6 1857.72 269.493 32
3 6 -5 1819.94 306.024 32
3 6 -4 10033.7 725.107 32
3 6 -4 12539.4 741.524 3
3 6 -3 38678.9 1429.89 32
3 6 -3 41664.5 1566.16 3
3 6 -2 24520.6 1037.84 32
3 6 -2 26666.9 1224.59 3
3 6 -1 11727.2 907.311 1
3 6 -1 12582 671.472 32
3 6 -1 13062 790.775 3
3 6 -1 12213.6 666.153 8
3 6 0 15129.7 998.1 1
3 6 0 15124.2 773.219 3
3 6 0 13125.8 641.721 2
3 6 0 13471 932.298 30
3 6 0 14584.1 711.988 8
3 6 1 6981.83 478.352 3
3 6 1 7294.44 654.008 30
3 6 1 6605 458.569 8
3 6 1 6531.73 611.953 1
3 6 2 104028 2283.64 3
3 6 2 100403 2690.54 30
3 6 2 101058 2274.31 8
3 6 3 29948.6 1280.51 30
3 6 3 30671.3 1058.31 8
3 6 4 15172.5 876.569 30
3 6 4 18085 793.295 8
3 6 5 104270 2437.02 8
3 6 6 44558.6 1484.36 8
3 6 6 42600.2 1570.08 15
3 6 7 1499.61 253.612 10
3 6 7 1528.01 257.868 8
3 6 7 1487.54 255.942 15
3 6 8 49388.7 1477.6 10
3 6 8 51667.7 1500.14 8
3 6 9 23344.2 848.858 10
3 6 10 14615.6 552.614 10
3 6 10 14323.1 570.89 5
3 7 -7 17954.4 594.106 8
3 7 -6 46.7497 49.7855 32
3 7 -6 89.4397 58.607 8
3 7 -5 13321.5 746.908 32
3 7 -4 3957.68 361.546 3
3 7 -4 2737.99 360.874 32
3 7 -3 20881.7 998.734 3
3 7 -3 18735.4 956.877 32
3 7 -3 17544.4 930.225 8
3 7 -2 18073.4 991.448 3
3 7 -2 16270.2 849.872 8
3 7 -1 65105.4 1981.79 3
3 7 -1 58042.3 1691.08 8
3 7 0 16383 858.574 3
3 7 0 16068.5 1085.44 30
3 7 0 15072.1 744.208 8
3 7 1 35578 1220.12 3
3 7 1 34828.6 1578.62 30
3 7 1 33580.9 1138.1 8
3 7 2 36380.1 1196.9 3
3 7 2 34778.5 1500.6 30
3 7 2 35677.5 1166.12 8
3 7 3 8615.18 675.833 30
3 7 3 8736.28 530.145 8
3 7 4 15722.7 894.894 30
3 7 4 17850.1 793.432 8
3 7 5 65526.4 1790.35 8
3 7 6 9717.84 627.423 8
3 7 6 8750.52 642.791 15
3 7 7 795.216 182.282 15
3 7 7 904.967 191.895 8
3 7 8 15845.2 717.964 10
3 7 8 16998.9 738.388 8
3 7 9 6666.55 381.341 10
3 7 9 7352.5 440.671 5
3 8 -6 16813.8 566.358 8
3 8 -5 3179.69 301.927 8
3 8 -4 27473.4 1088.62 8
3 8 -3 12972.8 754.175 8
3 8 -2 1156.9 220.683 3
3 8 -2 1213.49 225.172 8
3 8 -1 8593.48 667.206 3
3 8 -1 7534.65 534.607 8
3 8 0 87544.3 2835.32 30
3 8 0 85067.3 2083.33 8
3 8 1 6753.09 707.379 30
3 8 1 6002.91 441.785 8
3 8 2 54664.7 1988.29 30
3 8 2 52509 1456.79 8
3 8 3 7170.31 625.121 30
3 8 3 6955.09 464.622 8
3 8 4 1628.96 280.606 30
3 8 4 1612.69 224.056 8
3 8 5 37.9839 55.6313 8
3 8 6 53012 1539.52 8
3 8 6 49609.1 1565.13 15
3 8 7 636.597 146.402 8
3 8 8 77324.8 1692.5 8
3 9 -4 936.425 150.428 8
3 9 -3 21237 872.979 8
3 9 -2 14297.2 723.198 8
3 9 -1 19161.7 828.294 8
3 9 0 40258.6 1761.56 30
3 9 0 35291.4 1150.53 8
3 9 1 7488.2 747.264 30
3 9 1 7169.31 461.969 8
3 9 2 1082.95 267.678 30
3 9 2 1192.05 180.665 8
3 9 3 53554.8 1820.52 30
3 9 3 51242.9 1381.03 8
3 9 4 6684.32 440.101 8
3 9 5 13361.7 645.454 8
3 9 5 12051.3 680.224 15
3 9 6 12232.7 609.015 8
3 9 6 11765.8 612.405 15
3 9 7 -8.86811 45.818 8
3 10 -2 6210.63 388.188 8
3 10 -1 3859.8 322.895 8
3 10 0 34916.9 1070.53 8
3 10 1 -149.521 159.943 30
3 10 1 18.6562 43.7068 8
3 10 2 8352.57 460.516 8
3 10 3 107.101 65.4699 8
3 10 4 2399.22 245.695 8
3 10 4 2428.84 296.145 15
3 10 5 7055.45 415.42 8
3 10 5 6479.23 421.412 15
4 -10 -1 10663.8 405.497 7
4 -10 -1 8119.72 364.595 16
4 -10 0 1597.92 149.004 7
4 -9 -5 21783.7 652.254 16
4 -9 -4 8925.93 386.088 7
4 -9 -4 11242.9 469.617 16
4 -9 -3 5683.75 341.007 7
4 -9 -3 5433.11 339.35 16
4 -9 -2 712.499 134.713 7
4 -9 -2 656.178 122.299 16
4 -9 -1 20200.2 742.995 7
4 -9 0 1704.61 205.286 7
4 -9 1 11123.2 517.416 7
4 -9 1 11050.1 514.777 9
4 -9 2 24503.6 741.159 7
4 -9 2 22271 710.773 9
4 -8 -7 3782.15 234.126 16
4 -8 -6 51.7719 40.9146 16
4 -8 -5 8247.83 439.89 16
4 -8 -4 19205.6 716.272 7
4 -8 -4 20733.4 762.188 16
4 -8 -3 5751.73 401.551 7
4 -8 -3 6036.48 402.19 16
4 -8 -2 19210.2 795.566 7
4 -8 -1 24557.2 931.235 7
4 -8 -1 23874.6 918.393 9
4 -8 0 269.594 97.212 9
4 -8 1 4509.89 369.496 9
4 -8 2 30060.9 997.651 9
4 -8 3 7563.31 414.753 7
4 -8 3 7347.26 416.852 12
4 -8 4 15133.3 581.962 12
4 -8 5 14833.4 517.902 12
4 -7 -8 262.107 64.0285 16
4 -7 -7 14956.5 583.024 16
4 -7 -6 36925.1 1078.27 16
4 -7 -5 10697.4 527.208 7
4 -7 -5 12349.8 595.107 16
4 -7 -4 12381.7 614.372 7
4 -7 -4 12916.5 630.813 16
4 -7 -3 6018.46 445.5 7
4 -7 -3 6248.95 438.494 16
4 -7 -2 1721.51 245.155 7
4 -7 -1 8911.24 568.359 9
4 -7 0 43429.2 1369.03 9
4 -7 1 1619.1 239.808 9
4 -7 2 18702.8 833.817 9
4 -7 2 20451.7 840.503 12
4 -7 3 5205.18 407.171 12
4 -7 4 669.276 145.076 12
4 -7 5 22061.6 786.969 12
4 -7 6 14018.7 536.57 12
4 -7 7 2982.21 187.553 12
4 -6 -8 2317.11 212.03 16
4 -6 -7 19196.3 744.776 16
4 -6 -6 8378.64 504.43 16
4 -6 -5 8770.62 509.151 7
4 -6 -5 8923.84 539.37 16
4 -6 -4 14056.7 696.111 7
4 -6 -4 14635.1 713.045 16
4 -6 -3 24675.9 982.277 7
4 -6 -3 25349.7 969.197 16
4 -6 -2 10360.9 622.38 7
4 -6 -2 10520.3 630.773 9
4 -6 -1 10548.6 628.557 9
4 -6 0 8981.81 580.756 9
4 -6 1 20389.6 906.007 9
4 -6 1 19618.9 849.657 12
4 -6 2 52234 1538.66 12
4 -6 3 31470.4 1157.3 12
4 -6 4 582.566 158.053 12
4 -6 5 6871.94 462.73 12
4 -6 6 15772 652.587 12
4 -6 7 9474.6 429.843 12
4 -5 -9 8471.27 384.926 16
4 -5 -8 18348.1 697.465 16
4 -5 -7 19062.9 784.811 16
4 -5 -6 48076.4 1419.88 16
4 -5 -5 12707 649.968 7
4 -5 -5 12711.3 682.044 16
4 -5 -4 32953.5 1153.49 7
4 -5 -4 35395.2 1194.68 16
4 -5 -3 25801 1009.46 7
4 -5 -3 27014.9 1009.43 16
4 -5 -2 25760.4 1012.32 7
4 -5 -1 41518.1 1329.36 9
4 -5 -1 41233.4 1417.35 21
4 -5 0 35957.4 1228.78 9
4 -5 0 38707.6 1339.48 21
4 -5 1 4758.87 434.302 21
4 -5 1 5026.64 413.111 12
4 -5 2 31708.6 1227.52 21
4 -5 2 32774.5 1179.41 12
4 -5 3 37763.6 1315.21 12
4 -5 4 1027.68 204.649 12
4 -5 5 51123.3 1507.51 12
4 -5 6 50465.8 1444.92 13
4 -5 6 54565.4 1449.21 12
4 -5 7 817.473 148.115 13
4 -5 7 914.722 154.109 12
4 -5 8 701.131 109.449 12
4 -5 8 587.026 107.498 13
4 -4 -9 10273.8 461.67 16
4 -4 -8 122.536 81.22 16
4 -4 -7 208.784 95.4275 16
4 -4 -6 32364.7 1162.55 16
4 -4 -5 6360.74 459.693 7
4 -4 -5 6367.69 486.306 16
4 -4 -4 20137.7 860.795 7
4 -4 -4 21112.6 892.382 16
4 -4 -3 36039.7 1381.25 19
4 -4 -3 38831.8 1262.48 7
4 -4 -3 38722.4 1250.68 16
4 -4 -2 17705.8 812.617 7
4 -4 -1 30.5964 63.5294 7
4 -4 -1 31.9593 55.5296 21
4 -4 0 61593.3 1658.47 21
4 -4 0 55034.9 1511.89 12
4 -4 1 78173.5 1957.16 21
4 -4 1 74436.5 1879.19 12
4 -4 2 10842 644.921 21
4 -4 2 10715.7 624.538 12
4 -4 3 35121 1253.4 12
4 -4 3 32707.3 1187.17 13
4 -4 4 3653.12 377.875 12
4 -4 4 3406.13 372.938 13
4 -4 4 3636.14 384.697 21
4 -4 5 4802.1 428.322 12
4 -4 5 4571.94 430.79 13
4 -4 6 45370.9 1361.17 12
4 -4 6 39416.3 1348.19 13
4 -4 7 7742.54 511.893 13
4 -4 7 7578.86 467.512 12
4 -4 8 3835.43 313.488 13
4 -4 8 3715.63 282.941 12
4 -4 9 19423.2 606.187 13
4 -4 9 14693.8 490.262 12
4 -3 -9 46631.2 1181.13 16
4 -3 -9 44009.6 1130.8 3
4 -3 -8 7375.05 467.229 16
4 -3 -7 7066.49 499.566 16
4 -3 -6 25169.7 1028.21 16
4 -3 -5 10989.4 612.652 7
4 -3 -5 11499.7 664.911 16
4 -3 -4 1340.59 211.987 7
4 -3 -4 1693.32 248.493 16
4 -3 -3 206006 4120.31 19
4 -3 -3 198382 3897.96 16
4 -3 -2 23126.6 932.522 7
4 -3 -1 12666.3 638.931 21
4 -3 0 29007.3 1003.81 21
4 -3 1 679.693 146.272 21
4 -3 2 221.35 86.3291 12
4 -3 2 203.506 83.844 21
4 -3 3 67005.6 1812.86 13
4 -3 3 73504.4 1885.35 21
4 -3 3 70826.5 1870.03 12
4 -3 4 44815.4 1476.25 12
4 -3 4 47500.4 1497.85 13
4 -3 5 34135.5 1247.69 12
4 -3 5 32966.8 1243.1 13
4 -3 5 31926.5 1201.18 21
4 -3 6 401.659 123.667 12
4 -3 6 528.419 148.424 13
4 -3 7 535.793 141.55 12
4 -3 7 466.139 142.893 13
4 -3 8 7326.62 470.745 13
4 -3 8 7109.73 424.142 12
4 -3 9 29232.2 886.011 13
4 -3 10 27942.1 715.408 13
4 -2 -10 1939.12 170.019 16
4 -2 -9 2986.93 247.656 3
4 -2 -9 3289.74 280.187 16
4 -2 -8 9218.07 539.721 16
4 -2 -7 3406.27 348.354 16
4 -2 -6 33043.2 1212.27 16
4 -2 -5 21118.1 878.262 7
4 -2 -5 24309.9 1005.44 16
4 -2 -4 2966.83 311.316 7
4 -2 -4 3053.51 333.482 16
4 -2 -3 4476.94 381.028 7
4 -2 -2 25316.2 927.238 21
4 -2 -1 19198.6 759.269 21
4 -2 0 84933.4 1910.27 21
4 -2 1 70350.6 1688 21
4 -2 2 165.403 79.7041 6
4 -2 2 145.011 69.0555 21
4 -2 3 4675.28 387.038 6
4 -2 3 4559.84 372.247 21
4 -2 3 4140.81 379 12
4 -2 4 62121.6 1733.64 6
4 -2 4 66128.5 1775.91 13
4 -2 4 59050 1639.01 21
4 -2 4 63167.8 1801.15 12
4 -2 5 13337.1 749.847 13
4 -2 5 14500.7 797.433 12
4 -2 6 8405.93 605.056 13
4 -2 6 9642.57 628.578 12
4 -2 7 52139 1590.39 13
4 -2 7 52038.7 1509.09 12
4 -2 8 2159.69 265.584 13
4 -2 8 2058.22 233.87 12
4 -2 9 1895.22 216.309 13
4 -2 10 12457.4 482.027 13
4 -1 -10 3016.29 211.256 16
4 -1 -9 14969 574.561 3
4 -1 -9 16739.8 659.716 34
4 -1 -8 6616.95 476.479 34
4 -1 -8 6268.15 436.666 16
4 -1 -8 6136.84 421.736 3
4 -1 -7 1304.22 217.636 16
4 -1 -6 139.478 99.5653 16
4 -1 -5 62162.1 1757.27 16
4 -1 -5 52328.8 1517.99 7
4 -1 -4 61307.8 1639.26 7
4 -1 -4 60759.9 1744.62 16
4 -1 -3 88040.4 1879.14 2
4 -1 -2 26193.5 807.29 2
4 -1 -1 10571.4 529.902 21
4 -1 0 2457.65 241.964 21
4 -1 1 42931.5 1203.88 6
4 -1 1 44020.4 1215.47 21
4 -1 2 99321.2 2169.23 6
4 -1 2 99043.4 2158.89 21
4 -1 3 20203.6 836.159 6
4 -1 3 18741.9 754.006 21
4 -1 4 54824 1592.16 6
4 -1 4 51679.5 1523.72 13
4 -1 4 50890.5 1603.31 12
4 -1 4 51775.7 1452.03 21
4 -1 5 4840.25 456.837 6
4 -1 5 4266.65 410.465 13
4 -1 5 4437.99 433.406 5
4 -1 5 4672.42 457.053 12
4 -1 6 1339.68 239.321 13
4 -1 6 1008.67 210.329 5
4 -1 6 1477.34 262.986 12
4 -1 7 30543 1203.86 13
4 -1 7 34113.1 1182.99 12
4 -1 8 105662 2445.64 13
4 -1 9 2534.86 265.657 13
4 -1 10 16357.4 595.558 13
4 0 -9 993.462 150.435 16
4 0 -9 1105.17 163.759 34
4 0 -8 23649.4 866.126 3
4 0 -8 25015.2 914.982 16
4 0 -8 26060.8 994.143 34
4 0 -7 24505.4 1080.38 34
4 0 -7 23480.3 958.814 16
4 0 -7 23016.1 944.99 3
4 0 -6 1426.2 238.13 16
4 0 -5 5143.09 463.076 16
4 0 -5 4763.76 472.063 24
4 0 -5 4421.67 381.609 7
4 0 -4 2991.67 300.222 2
4 0 -4 2820.43 342.089 34
4 0 -4 3023.62 329.434 24
4 0 -4 2625.7 291.694 7
4 0 -3 5154.63 363.966 2
4 0 -3 4757.15 363.799 24
4 0 -2 119932 2350.28 2
4 0 -2 118249 2323.22 24
4 0 -1 46829.4 1155.09 2
4 0 0 12708.8 512.162 2
4 0 1 25225.7 856.599 6
4 0 1 26889.4 898.724 21
4 0 2 62628.8 1553.63 6
4 0 2 59987.8 1510.96 21
4 0 3 459.526 122.722 6
4 0 3 91.9731 51.8099 21
4 0 4 69958.1 1874.81 6
4 0 4 68709.2 1958.92 15
4 0 4 64365.4 1752.01 13
4 0 5 80723.8 2205.48 6
4 0 5 83691.2 2184.03 15
4 0 5 82760.2 2111.53 13
4 0 5 78040.5 2155.59 5
4 0 6 15321.5 908.943 6
4 0 6 16099.1 866.173 13
4 0 6 17735.2 926.163 5
4 0 6 17304.5 889.1 12
4 0 7 25039 1107.83 13
4 0 7 26944.5 1151.89 5
4 0 8 13600 742.37 13
4 0 8 13605.4 737.523 5
4 0 9 148.656 82.4985 13
4 0 10 21769.8 729.373 13
4 1 -9 881.929 136.968 16
4 1 -9 980.502 149.177 34
4 1 -8 4351.89 328.232 3
4 1 -8 4620.5 362.772 16
4 1 -8 4960.11 406.747 34
4 1 -7 14832.2 716.99 3
4 1 -7 14624.7 736.99 16
4 1 -7 15530.9 838.891 34
4 1 -6 24927.1 1052.66 3
4 1 -6 24928.6 1051.63 16
4 1 -6 24014.9 1150.94 34
4 1 -5 101993 2651.03 34
4 1 -5 102553 2554.78 16
4 1 -5 109836 2641.6 3
4 1 -5 88925.3 2329.76 2
4 1 -5 89235.5 2547.07 24
4 1 -4 74620.6 2057.31 34
4 1 -4 75074.9 1900.23 2
4 1 -4 70573.9 1965.57 24
4 1 -4 68981 1838.24 7
4 1 -3 2299.87 257.28 2
4 1 -3 2368.03 273.182 24
4 1 -3 2131.41 277.056 7
4 1 -2 10928 527.589 2
4 1 -2 11236.3 544.624 24
4 1 -1 17027 635.352 2
4 1 0 21176.8 695.911 2
4 1 0 21224.9 768.639 6
4 1 1 92171 1996.05 6
4 1 2 68870.5 1669.85 6
4 1 3 66.2367 54.134 6
4 1 4 39866.5 1325.94 6
4 1 4 34818.9 1361.49 15
4 1 4 35657.6 1224.74 13
4 1 4 36423 1304.43 5
4 1 5 40530.4 1448.86 10
4 1 5 43788.6 1537.32 6
4 1 5 44558.7 1532.04 15
4 1 5 46947.3 1489.58 13
4 1 5 43744.1 1505.14 5
4 1 6 19360.7 965.426 10
4 1 6 19086.7 1048.25 6
4 1 6 20015.2 970.146 15
4 1 6 18017.8 938.307 13
4 1 7 69538.6 1980.83 10
4 1 7 65875.9 1995.6 13
4 1 8 22168.2 989.084 13
4 1 8 22149.7 1000.84 5
4 1 9 106.069 78.7869 13
4 1 9 151.334 78.18 5
4 1 10 8727.94 439.765 13
4 1 10 8024.7 430.055 5
4 2 -9 1090.64 145.286 34
4 2 -8 35816.6 1107.43 16
4 2 -8 41388 1226.18 34
4 2 -7 4540.52 369.014 3
4 2 -7 5029.89 415.668 16
4 2 -7 4970.01 457.907 34
4 2 -6 257.817 125.52 34
4 2 -6 248.277 110.482 16
4 2 -6 396.676 126.534 3
4 2 -5 22029.9 1039.53 3
4 2 -5 18005 999.717 34
4 2 -4 20276.1 1064.72 3
4 2 -4 19232.9 967.766 34
4 2 -4 19368.2 982.881 24
4 2 -3 20023.8 1064.77 3
4 2 -3 20267.4 920.546 34
4 2 -3 23477.7 962.335 24
4 2 -3 22188.5 956.752 7
4 2 -2 28573.8 958.618 2
4 2 -2 29406.1 991.833 24
4 2 -2 28866.9 1141.89 7
4 2 -1 37692.2 1069.13 2
4 2 0 18.0599 35.845 6
4 2 0 66.2084 49.1257 2
4 2 1 1419.42 197.959 6
4 2 1 1441.63 170.479 2
4 2 2 70695.9 1744.76 6
4 2 3 61381.1 1657.53 6
4 2 4 147718 3103.29 6
4 2 4 132643 3201.67 15
4 2 4 130984 2943.3 13
4 2 4 143749 3084.66 5
4 2 5 21688.9 1043.41 10
4 2 5 24501.6 1128.94 6
4 2 5 24006.4 1129.11 15
4 2 5 25535.7 1077.98 13
4 2 6 2048.56 315.269 10
4 2 6 1741.49 323.603 6
4 2 6 1553.65 273.62 15
4 2 6 1601.29 278.473 13
4 2 7 10004.4 679.679 10
4 2 7 10109.2 665.567 15
4 2 7 9533.49 684.704 13
4 2 8 35381.9 1278.71 10
4 2 8 37446.8 1332.92 13
4 2 9 26567 965.211 13
4 2 9 25849.5 991.996 5
4 2 10 31388.1 967.876 5
4 3 -9 1342.96 142.868 34
4 3 -8 119.837 70.0282 34
4 3 -7 56118.6 1584.51 16
4 3 -7 64257.2 1744.65 34
4 3 -7 61309.9 1625.8 32
4 3 -7 58122 1467.08 3
4 3 -6 47491 1579.71 16
4 3 -6 49303.5 1677.38 34
4 3 -6 49368.7 1587.25 32
4 3 -6 52186 1500.17 3
4 3 -5 13928.7 802.664 3
4 3 -5 11241.1 783.647 34
4 3 -5 12006.8 756.571 32
4 3 -4 13137.7 843.654 3
4 3 -4 13163.1 807.885 34
4 3 -4 12692.8 755.907 32
4 3 -4 12159.5 816.024 24
4 3 -3 6414.56 596.957 3
4 3 -3 6854.32 532.009 34
4 3 -3 6189.91 489.268 32
4 3 -3 7397.85 551.148 24
4 3 -2 124.993 71.758 34
4 3 -2 252.255 97.4866 32
4 3 -2 73.8743 68.0042 3
4 3 -2 174.304 74.263 2
4 3 -1 73998.2 2024.21 3
4 3 -1 76081.4 1754.47 2
4 3 0 94490 2003.41 2
4 3 1 15607.3 628.861 2
4 3 1 15456.6 698.193 6
4 3 2 22213.5 884.12 6
4 3 3 1102.59 207.664 11
4 3 3 851.17 177.72 6
4 3 3 700.448 167.056 53
4 3 3 753.306 168.283 5
4 3 4 659.736 162.639 11
4 3 4 499.51 146.173 6
4 3 4 410.704 158.702 15
4 3 4 363.552 132.571 53
4 3 4 317.443 137.231 5
4 3 5 59235.7 1912.52 6
4 3 5 58633.3 1912.38 15
4 3 5 56362.3 1748.67 13
4 3 5 59022.6 1850.42 53
4 3 6 32425 1319.7 10
4 3 6 31923 1338.4 15
4 3 6 30762.1 1291.23 13
4 3 7 15023.2 845.14 10
4 3 7 14750.8 831.958 15
4 3 8 15492.8 800.887 10
4 3 9 11846.7 626.832 10
4 3 9 12371 657.902 5
4 3 10 1500.91 190.161 5
4 4 -7 9645.59 572.155 34
4 4 -7 8974.22 517.436 32
4 4 -6 2159.02 314.312 34
4 4 -6 2422.93 313.339 32
4 4 -6 2235.39 255.852 3
4 4 -5 718.249 205.364 34
4 4 -5 697.37 180.247 32
4 4 -5 831.158 191.208 3
4 4 -4 36688 1452.55 34
4 4 -4 38899.5 1448.06 32
4 4 -4 41911 1551.51 3
4 4 -3 38602.9 1395.59 34
4 4 -3 40882.4 1401.83 32
4 4 -3 38728.9 1560.54 3
4 4 -2 5747.34 468.045 34
4 4 -2 6205.93 478.074 32
4 4 -2 5947.93 465.618 2
4 4 -2 5910.01 547.086 3
4 4 -1 11959 625.344 2
4 4 -1 12853.6 758.86 3
4 4 0 62547.7 1576.66 2
4 4 0 63495.8 1736 3
4 4 1 5460.34 379.857 2
4 4 1 5967.11 433.759 6
4 4 1 5652.7 418.987 3
4 4 1 5713.17 429.1 53
4 4 2 142726 2939.22 6
4 4 2 126425 2702.86 3
4 4 2 124015 2865.73 5
4 4 2 149660 2757.48 2
4 4 2 143918 2994.44 53
4 4 3 100968 2420.49 6
4 4 3 92053.3 2091.25 3
4 4 3 100606 2682.09 15
4 4 3 95527.2 2367.95 5
4 4 3 106767 2534.62 53
4 4 4 1282.67 224.048 11
4 4 4 1681.86 283.013 6
4 4 4 2248.29 345.755 15
4 4 4 1597.39 266.639 5
4 4 4 1831.09 301.189 53
4 4 5 6550.63 609.964 6
4 4 5 6243.53 583.641 15
4 4 5 6752.42 574.439 53
4 4 6 9943.19 705.546 10
4 4 6 9389.07 705.034 15
4 4 7 17653.1 910.56 10
4 4 7 16778.7 899 15
4 4 8 57009.2 1656.1 10
4 4 9 24648.8 915.705 10
4 4 9 25648.2 948.345 5
4 4 10 10125.3 482.425 5
4 5 -7 24635.2 820.485 32
4 5 -6 6279.46 470.166 32
4 5 -6 5694.59 362.621 3
4 5 -5 74.994 85.1448 34
4 5 -5 186.192 107.755 32
4 5 -5 145.303 87.1803 3
4 5 -4 11226.2 773.133 34
4 5 -4 10377.7 716.759 32
4 5 -4 12584.1 768.704 3
4 5 -3 78777.3 2155.57 32
4 5 -3 77304.3 2311.4 3
4 5 -2 15941.2 817.026 32
4 5 -2 15829.8 938.701 3
4 5 -1 43633.1 1399.32 2
4 5 -1 47657.1 1582.14 3
4 5 0 35936.3 1184.31 2
4 5 0 39293.5 1314.37 3
4 5 1 701.888 163.113 3
4 5 1 622.47 138.771 2
4 5 2 51749.4 1429.36 3
4 5 3 22005.3 834.039 3
4 5 3 20365.6 929.831 5
4 5 4 16758.8 948.244 6
4 5 4 18824.8 1024.04 15
4 5 4 19450.6 950.605 5
4 5 5 43569.8 1632.72 15
4 5 5 46258 1631.8 5
4 5 6 24554 1153.84 15
4 5 6 24277.7 1172.13 5
4 5 7 822.889 192.156 10
4 5 7 628.836 172.53 15
4 5 8 567.289 141.271 10
4 5 8 561.966 152.079 5
4 5 9 19982 774.49 10
4 5 9 22159.3 849.721 5
4 5 10 9211.89 425.343 5
4 6 -6 26498.5 912.902 8
4 6 -5 4109.75 321.495 3
4 6 -5 3257.43 354.068 8
4 6 -4 55131.5 1567.66 3
4 6 -4 43995.8 1535.31 8
4 6 -3 2888.37 375.445 3
4 6 -3 2143.6 305.184 8
4 6 -2 11196.4 774.462 3
4 6 -2 10564.8 648.962 8
4 6 -1 3425.2 402.383 3
4 6 -1 2819.59 313.299 8
4 6 0 71366.6 1916.65 3
4 6 0 63483.8 1706.6 8
4 6 1 64471.6 1746.61 3
4 6 1 68595.8 2455.49 30
4 6 2 56157.2 1528.8 3
4 6 3 886.244 162.977 3
4 6 4 5528.42 542.896 15
4 6 5 5634.36 537.043 15
4 6 5 5803.7 525.235 5
4 6 6 31581.7 1290.88 15
4 6 6 30944.2 1302.33 5
4 6 7 33647.5 1248.56 15
4 6 7 33746.3 1335 5
4 6 8 26105 1049.64 5
4 6 9 18735.7 730.086 5
4 7 -5 11766.9 586.736 8
4 7 -4 3019.34 282.76 3
4 7 -4 2446.14 298.154 8
4 7 -3 54511.1 1588.54 3
4 7 -3 44004.8 1477.97 8
4 7 -2 9655.89 672.853 3
4 7 -2 8236.61 559.553 8
4 7 -1 31789.3 1281.15 3
4 7 -1 29273.1 1081.06 8
4 7 0 16172.2 832.147 3
4 7 0 15468.8 731.075 8
4 7 1 1768.5 255.557 3
4 7 1 2190.48 413.635 30
4 7 1 2893.34 295.337 8
4 7 2 1871.99 246.76 3
4 7 2 1542.64 211.174 8
4 7 3 65586.4 1663.78 8
4 7 4 18740.8 1001.97 15
4 7 5 7722.32 602.856 15
4 7 6 7438.35 563.456 15
4 7 7 3870.84 361.294 15
4 7 7 3861.9 387.348 5
4 7 8 8735.34 509.544 5
4 8 -4 384.56 102.802 8
4 8 -3 81.2911 74.4585 8
4 8 -2 409.599 138.343 3
4 8 -2 312.698 101.233 8
4 8 -1 33770.5 1267.26 3
4 8 -1 27142.8 1010.86 8
4 8 0 65038.7 1808.49 3
4 8 0 53484.7 1494.07 8
4 8 1 8195.44 484.037 8
4 8 2 5388.89 384.711 8
4 8 3 341.615 98.8936 8
4 8 4 18062.9 805.315 11
4 8 4 20036.4 795.794 8
4 8 4 20197.9 992.64 15
4 8 5 17635.4 868.874 15
4 8 6 21029.8 883.29 15
4 8 7 51752.9 1320 15
4 9 -2 7225.43 428.241 8
4 9 -1 83.5059 55.0168 8
4 9 0 1329.84 291.561 15
4 9 0 919.358 157.97 8
4 9 1 13776.3 1001.8 15
4 9 1 10820.8 541.103 8
4 9 2 18057.5 1105.3 15
4 9 2 14832.8 638.373 8
4 9 3 27396.5 912.282 8
4 9 3 31490.6 1326.27 15
4 9 4 12966.2 588.062 11
4 9 4 13139.1 601.837 8
4 9 4 14749.3 786.402 15
4 9 5 13.4438 59.0987 15
4 9 6 190.884 73.7354 15
4 10 0 770.146 171.618 11
4 10 1 5614.93 460.642 11
4 10 1 5395.53 517.468 15
4 10 2 13896.2 683.203 11
4 10 2 15080.2 920.437 15
4 10 3 124.472 100.394 15
4 10 4 41444.8 1257.25 15
5 -9 -1 4205.5 255.808 7
5 -9 0 17069.9 554.748 7
5 -8 -4 6787.1 330.981 7
5 -8 -4 8555 404.568 16
5 -8 -3 15940.8 598.737 7
5 -8 -3 15720.5 608.197 16
5 -8 -2 1730.15 200.224 7
5 -8 -2 1456.69 179.558 16
5 -8 -1 841.767 143.853 7
5 -8 -1 849.859 134.898 16
5 -8 0 13093.7 593.053 7
5 -8 0 10878.6 518.175 16
5 -8 1 11740.3 528.99 7
5 -8 1 7309.05 406.118 16
5 -8 2 6451.37 352.013 7
5 -7 -6 13159.4 503.079 16
5 -7 -5 930.29 128.19 7
5 -7 -5 1113.36 156.447 16
5 -7 -4 526.67 110.834 7
5 -7 -4 567.985 124.709 16
5 -7 -3 7934.11 462.738 7
5 -7 -3 7174.88 447.327 16
5 -7 -2 8234.11 503.343 7
5 -7 -2 8058.03 483.409 16
5 -7 -1 25148.5 945.215 7
5 -7 -1 24662.1 901.933 16
5 -7 0 21031.2 881.904 7
5 -7 1 8140.38 520.984 7
5 -7 2 505.984 109.12 12
5 -7 2 680.943 137.268 7
5 -7 3 3710.92 281.22 7
5 -7 3 4153.16 317.406 12
5 -7 4 24145.5 784.323 12
5 -7 5 106.843 52.974 12
5 -6 -7 111.571 47.9921 16
5 -6 -6 9811.27 488.172 16
5 -6 -5 14636.4 603.013 7
5 -6 -5 16504.5 690.087 16
5 -6 -4 1910.76 230.909 7
5 -6 -4 1723 227.06 16
5 -6 -3 8167.38 506.514 7
5 -6 -3 7827.07 499.084 16
5 -6 -2 35583.5 1190.71 7
5 -6 -2 34214.5 1136.02 16
5 -6 -1 2898.29 327.393 7
5 -6 -1 2860.96 307.167 16
5 -6 0 21547.6 967.428 7
5 -6 1 34600.3 1254.03 7
5 -6 1 34769.7 1109.08 12
5 -6 2 8081.5 531.958 7
5 -6 2 7826.9 499.966 12
5 -6 3 15731.9 690.646 7
5 -6 3 16588.8 748.647 12
5 -6 4 19073.5 786.516 12
5 -6 5 1967.21 220.428 12
5 -6 6 15462.5 563.015 12
5 -5 -8 6391.31 303.957 3
5 -5 -7 1291.16 168.358 16
5 -5 -6 2380.17 258.645 16
5 -5 -5 2304.96 246.578 7
5 -5 -5 2125.13 259.735 16
5 -5 -4 8051.2 506.717 7
5 -5 -4 7857.4 516.77 16
5 -5 -3 28081.2 1042.68 7
5 -5 -3 27868.9 1039.08 16
5 -5 -2 66109.5 1809.41 7
5 -5 -2 67192 1771.07 16
5 -5 -1 2216.46 301.34 7
5 -5 -1 2457.48 290.313 16
5 -5 0 1678.61 272.713 7
5 -5 1 1347.51 244.984 7
5 -5 1 1289.94 209.634 12
5 -5 2 18421 889.57 7
5 -5 2 17712.4 827.672 12
5 -5 3 8386.1 530.8 7
5 -5 3 8426.66 564.833 12
5 -5 4 34565.1 1192.6 12
5 -5 5 637.197 141.607 12
5 -5 6 6413.89 401.662 12
5 -5 7 14828.5 543 12
5 -4 -8 11000.9 456.846 16
5 -4 -8 10430.2 444.768 3
5 -4 -7 3391.57 289.412 16
5 -4 -6 12587.9 638.81 16
5 -4 -5 25072.5 918.35 7
5 -4 -5 26321.3 1005.08 16
5 -4 -4 15685.8 748.451 7
5 -4 -4 16679.5 799.924 16
5 -4 -3 12870.3 696.292 7
5 -4 -3 13018.2 699.544 16
5 -4 -2 8990.75 588.672 7
5 -4 -1 10335.3 670.287 7
5 -4 0 34306.4 1327.77 7
5 -4 0 33533.5 1128.61 12
5 -4 1 33438.6 1335.79 7
5 -4 1 34119.8 1174.21 12
5 -4 2 1555.88 257.72 7
5 -4 2 1419.01 234.28 12
5 -4 3 2975.32 342.186 12
5 -4 4 20815.8 941.447 12
5 -4 5 23118 960.608 13
5 -4 5 23653 963.275 12
5 -4 6 10126.6 584.114 13
5 -4 6 10711.7 578.121 12
5 -4 7 26264 887.229 13
5 -4 7 25437.7 833.254 12
5 -4 8 501.745 88.3617 12
5 -3 -8 12162 513.433 16
5 -3 -8 12368 513.187 3
5 -3 -7 5387.87 385.508 16
5 -3 -6 2989.02 315.506 16
5 -3 -5 10940.6 599.698 7
5 -3 -5 10903.3 641.25 16
5 -3 -4 97140.9 2289.9 7
5 -3 -4 101106 2403.59 16
5 -3 -3 4356.2 396.599 7
5 -3 -2 80623.6 2088.6 7
5 -3 -1 7795.86 579.278 7
5 -3 -1 7214.11 476.804 12
5 -3 0 2145.05 326.718 7
5 -3 0 1918.92 249.216 12
5 -3 0 2051.77 301.909 21
5 -3 0 1985.03 267.975 4
5 -3 1 22724.5 938.814 4
5 -3 1 21738.8 1076.6 7
5 -3 1 23019.7 926.214 12
5 -3 1 22365.3 1030.69 21
5 -3 2 54781.8 1735.66 7
5 -3 2 54448.9 1581.65 12
5 -3 2 50560.8 1649.47 21
5 -3 3 291.643 130.631 12
5 -3 4 38242.3 1329.48 13
5 -3 4 33734.3 1260.78 12
5 -3 5 30169.8 1182.69 13
5 -3 5 30059.7 1166.57 12
5 -3 6 -25.061 71.4326 12
5 -3 6 85.9042 71.4125 13
5 -3 7 27267.6 989.401 13
5 -3 7 26542.2 914.265 12
5 -3 8 36960.7 1049.52 13
5 -3 8 34768.9 937.239 12
5 -2 -8 13563.5 556.717 3
5 -2 -8 14109.4 565.26 16
5 -2 -7 19504.6 780.465 16
5 -2 -6 453.888 119.688 7
5 -2 -6 542.564 130.406 16
5 -2 -5 174.888 89.2406 7
5 -2 -5 201.113 100.081 16
5 -2 -4 29736.4 1086.21 7
5 -2 -3 553.938 155.627 7
5 -2 -2 16023.7 807.632 7
5 -2 -1 95477.1 2458.18 7
5 -2 -1 96768.3 2193.09 12
5 -2 -1 98834.6 2282.34 4
5 -2 0 700.824 146.38 12
5 -2 0 669.873 149.72 4
5 -2 0 477.605 151.664 7
5 -2 1 2938.95 311.848 4
5 -2 1 2365.65 350.259 7
5 -2 1 2715.92 299.58 12
5 -2 1 2912.25 356.74 21
5 -2 2 20782.2 1022.16 7
5 -2 2 19810.5 865.887 4
5 -2 2 22761.8 935.349 12
5 -2 2 20041.9 931.536 21
5 -2 3 24554.1 1020.92 13
5 -2 3 23466.8 991.687 12
5 -2 4 16693.8 855.607 5
5 -2 4 19290.8 913.39 13
5 -2 4 16431.2 865.67 12
5 -2 5 94744.9 2394.51 13
5 -2 5 92377.8 2378.19 12
5 -2 6 9744.98 640.999 13
5 -2 6 10244.8 628.527 12
5 -2 7 3361.5 352.452 13
5 -2 7 3153.35 305.588 12
5 -2 8 19430 765.543 13
5 -2 8 17306 640.557 12
5 -2 9 1961.49 193.386 13
5 -1 -8 1081.18 152.594 3
5 -1 -8 894.513 140.966 16
5 -1 -7 39269.7 1175.19 3
5 -1 -7 37014.5 1148.58 16
5 -1 -6 4462.52 391.431 16
5 -1 -5 39657.3 1266.66 7
5 -1 -4 92216.8 2207.23 7
5 -1 -3 769.241 171.949 7
5 -1 -2 16852.3 835.931 7
5 -1 -2 17602.8 789.397 4
5 -1 -1 122718 2575.59 4
5 -1 -1 124629 2872.41 7
5 -1 0 5488.59 523.848 7
5 -1 0 4903.22 391.936 4
5 -1 0 4817.08 383.312 12
5 -1 1 25442.7 1208.41 7
5 -1 1 27305.8 1001.22 4
5 -1 1 28120.7 1009 12
5 -1 2 42177.8 1533.65 7
5 -1 2 49313.8 1492.83 5
5 -1 2 46613.7 1399.26 12
5 -1 2 43407.4 1424.62 21
5 -1 3 1093.96 215.875 6
5 -1 3 1571.47 251.666 5
5 -1 3 1857.88 260.803 13
5 -1 3 1612.15 262.551 12
5 -1 3 1233.79 221.895 21
5 -1 4 185.418 119.396 12
5 -1 4 296.881 139.184 6
5 -1 4 190.009 117.26 13
5 -1 4 218.521 118.5 5
5 -1 5 33408.3 1278.56 5
5 -1 5 32662.1 1251.93 13
5 -1 5 32379.8 1291.19 12
5 -1 6 11436.9 692.057 5
5 -1 6 10803.5 684.861 13
5 -1 6 11709.4 700.249 12
5 -1 7 36792.4 1274.18 13
5 -1 7 37188.7 1183.38 12
5 -1 8 5027 395.522 13
5 -1 9 362.132 85.1362 13
5 0 -8 11413 482.292 3
5 0 -8 10677.1 488.412 34
5 0 -7 11306.1 575.907 3
5 0 -7 10931.7 559.216 16
5 0 -7 10033.8 575.989 34
5 0 -6 9278.39 579.83 3
5 0 -6 8003.07 560.815 34
5 0 -5 345.88 125.606 7
5 0 -5 203.588 111.782 34
5 0 -5 325.482 160.278 3
5 0 -4 9172.32 573.649 7
5 0 -3 31236 1157.27 7
5 0 -2 9579.76 631.596 7
5 0 -2 9418.43 679.154 11
5 0 -2 10191.5 576.169 2
5 0 -2 10157.7 588.171 4
5 0 -1 18018.7 936.142 7
5 0 -1 18405.3 787.008 4
5 0 -1 19476 1016.9 11
5 0 -1 16507.5 862.703 3
5 0 -1 18203.8 759.577 53
5 0 0 16484.9 944.948 7
5 0 0 17672.1 953.63 11
5 0 0 15412.4 704.782 4
5 0 0 13364.2 662.301 12
5 0 0 15045.9 694.943 53
5 0 1 189.066 96.3257 12
5 0 1 194.129 128.869 11
5 0 1 159.176 126.893 7
5 0 1 87.8993 76.2977 15
5 0 2 44773 1576.27 7
5 0 2 46386.4 1577.13 11
5 0 2 49969.4 1525.86 6
5 0 2 49761 1512.45 5
5 0 2 47325.6 1438.53 12
5 0 3 97188.2 2437.68 6
5 0 3 97765.4 2558.47 15
5 0 3 92850 2355.73 5
5 0 3 92296.9 2327.79 12
5 0 4 52546.4 1777 6
5 0 4 53238.9 1694.31 5
5 0 4 54107.3 1630.84 13
5 0 4 50276.7 1681.16 12
5 0 5 56240.7 1786.63 5
5 0 5 55427.4 1718.04 13
5 0 5 55412.8 1788.64 12
5 0 6 19832.5 980.311 5
5 0 6 18929.4 951.529 13
5 0 6 21513.8 975.96 12
5 0 7 2682.12 326.609 5
5 0 7 2847.89 341.888 13
5 0 7 2692.32 289.328 12
5 0 8 4865.75 387.882 5
5 0 8 5276.96 420.525 13
5 0 9 37243.2 1063.87 13
5 1 -8 739.142 125.489 34
5 1 -8 425.359 87.0893 3
5 1 -7 24960.8 862.482 3
5 1 -7 24034.7 931.101 34
5 1 -6 27392.7 1026.52 3
5 1 -6 24557.3 1048.84 34
5 1 -5 28985.8 1189.13 3
5 1 -5 24931.4 1108.97 34
5 1 -4 4090.93 456.444 3
5 1 -4 3906.74 406.667 34
5 1 -4 3514.15 360.798 7
5 1 -3 22640.7 981.772 2
5 1 -3 22429.4 1154.38 3
5 1 -3 25105 1023.21 34
5 1 -3 23386.1 996.779 7
5 1 -2 8287.61 637.553 11
5 1 -2 7691.69 631.412 3
5 1 -2 6950.92 545.956 7
5 1 -2 7128.49 496.321 2
5 1 -2 7824.06 513.713 4
5 1 -1 53978.4 1494.08 4
5 1 -1 55178.2 1818.91 11
5 1 -1 49212.8 1616.6 3
5 1 -1 53540.1 1469.21 2
5 1 -1 50276.4 1413.77 53
5 1 -1 55119.3 1784.57 7
5 1 0 29469.9 1034.73 4
5 1 0 29187.9 1014.09 12
5 1 0 31189.8 1042.99 53
5 1 0 31817.7 1387.23 7
5 1 1 34067.7 1321.84 11
5 1 1 31769.2 1398.74 15
5 1 1 33769.7 1163.17 5
5 1 1 30587.2 1069.21 12
5 1 1 30328.3 1066.41 53
5 1 1 30585.5 1355.14 7
5 1 2 1559.89 267.009 11
5 1 2 1428.55 233.557 6
5 1 2 2249.66 365.632 15
5 1 2 1769.46 252.004 5
5 1 2 1372.05 223.21 12
5 1 3 22490.3 1035.2 11
5 1 3 23797.5 1051.83 6
5 1 3 24135.3 1168.69 15
5 1 3 23672.6 1022.61 5
5 1 3 23723.4 1031.88 12
5 1 4 11378.2 761.618 6
5 1 4 11062.8 742.129 15
5 1 4 10669.9 704.539 5
5 1 4 10598.3 710.985 12
5 1 5 3074.02 380.964 15
5 1 5 2733.56 356.296 13
5 1 5 2769.38 366.792 5
5 1 5 2435.87 340.714 12
5 1 6 46497 1601.75 13
5 1 6 45811 1608.61 5
5 1 6 45986.1 1504.18 12
5 1 7 1396.84 253.708 13
5 1 7 1054.11 213.981 5
5 1 8 6691.9 485.536 5
5 1 8 7316.28 509.624 13
5 1 8 5581.7 364.824 53
5 1 9 6072.35 385.904 5
5 2 -7 4770.51 377.025 34
5 2 -7 3992.42 297.895 3
5 2 -6 9254.24 548.621 3
5 2 -6 8589.24 591.701 34
5 2 -5 7891.41 574.414 3
5 2 -5 6463.12 547.543 34
5 2 -4 17075.3 952.889 3
5 2 -4 17167.2 905.626 34
5 2 -3 26880.4 1271.35 3
5 2 -3 30926.4 1188.07 34
5 2 -2 272.05 140.217 11
5 2 -2 238.876 92.3962 4
5 2 -2 432.947 155.483 7
5 2 -2 164.95 118.796 3
5 2 -2 512.946 137.186 2
5 2 -1 6927.89 476.644 2
5 2 -1 6152.96 448.604 4
5 2 -1 6232.11 522.968 3
5 2 -1 6859.34 600.525 11
5 2 -1 6633.23 456.839 53
5 2 -1 7234.45 626.754 7
5 2 0 61585.1 1744.4 3
5 2 0 74356.5 2151.72 11
5 2 0 63688.4 1697.69 4
5 2 0 69021.6 1697.52 2
5 2 0 66828.1 1702.68 53
5 2 0 71057.3 2252.53 7
5 2 1 25615.5 1143.97 11
5 2 1 25677.5 1034.73 6
5 2 1 25200.1 1308.01 15
5 2 1 25486.2 1011.98 5
5 2 1 24246.6 930.092 53
5 2 1 25506.9 1228.45 7
5 2 2 66131.9 1956.61 11
5 2 2 68944.1 1902.21 6
5 2 2 70149.1 2275.62 15
5 2 2 66299.6 1841.22 5
5 2 2 66713.1 1832.25 12
5 2 2 66171.4 1771.79 53
5 2 3 128466 2999.6 11
5 2 3 132700 3041.45 6
5 2 3 128536 3274.63 15
5 2 3 127797 2915.37 5
5 2 3 137135 3029.54 12
5 2 3 124292 2905.88 53
5 2 4 651.087 182.225 12
5 2 4 674.218 179.337 11
5 2 4 658.748 185.858 6
5 2 4 507.383 159.329 15
5 2 4 643.116 179.287 5
5 2 5 460.267 159.164 12
5 2 5 276.265 126.799 15
5 2 5 565.789 177.503 5
5 2 6 27127.1 1146.24 15
5 2 6 24232.4 1127.02 5
5 2 6 25230.8 1085.51 53
5 2 7 28222.9 1172.77 5
5 2 7 27806.2 1007.01 53
5 2 8 26650 1032.26 5
5 2 9 43185.4 1210.07 5
5 3 -7 10299.2 441.58 3
5 3 -6 16771.9 814.953 34
5 3 -6 17428 725.89 3
5 3 -5 3870.69 418.369 34
5 3 -5 4258.41 404.143 3
5 3 -4 812.779 204.457 34
5 3 -4 898.763 213.134 3
5 3 -3 23513.1 1162.89 3
5 3 -2 45487.6 1630.53 11
5 3 -2 38543.6 1527.04 3
5 3 -1 24131.9 934.552 4
5 3 -1 23787 970.52 2
5 3 -1 23211.9 1063.28 3
5 3 0 37771.2 1207.41 4
5 3 0 40572.8 1570.05 11
5 3 0 38010.4 1686.79 15
5 3 0 37622.3 1275.81 3
5 3 0 35751.9 1171.89 53
5 3 0 35857.2 1182.51 2
5 3 1 6540.14 572.876 11
5 3 1 6403.56 678.681 15
5 3 1 5919.86 473.917 5
5 3 1 5542.98 422.567 3
5 3 1 6077.81 450.657 53
5 3 2 858.226 209.371 11
5 3 2 753.609 180.149 6
5 3 2 760.378 255.965 15
5 3 2 540.581 156.688 53
5 3 2 839.629 189.9 5
5 3 3 5961.1 521.122 11
5 3 3 5314.53 500.63 6
5 3 3 7038.96 659.259 15
5 3 3 5823.79 494.251 5
5 3 3 5504.09 488.474 53
5 3 4 13931.2 797.072 11
5 3 4 13818 888.324 15
5 3 4 14594.9 823.283 5
5 3 4 14773.6 862.138 53
5 3 5 7577.32 566.33 11
5 3 5 7185.68 612.11 15
5 3 5 7572.25 601.649 5
5 3 5 7273.33 600.717 53
5 3 6 55169.9 1767.15 15
5 3 6 51000.5 1745.19 5
5 3 7 14086.7 749.03 15
5 3 7 12625.1 755.81 5
5 3 8 2444.46 293.767 5
5 3 9 29494.5 952.26 5
5 3 10 15362.6 511.231 5
5 4 -6 36909.9 1021.52 3
5 4 -5 17375.2 774.067 3
5 4 -4 3154.54 369.093 3
5 4 -3 13390.1 835.398 3
5 4 -2 28093.7 1255.32 11
5 4 -2 23769.1 1155.49 3
5 4 -1 10649.4 793.808 11
5 4 -1 10776.8 712.629 3
5 4 0 29286.2 1345.64 11
5 4 0 28925 1499.87 15
5 4 0 26875.4 1073.81 3
5 4 1 66256.9 2076.36 11
5 4 1 63693 1708.47 3
5 4 2 42896.8 1553.33 11
5 4 2 41077.2 1246.93 3
5 4 2 44781.8 1878.94 15
5 4 2 43858.5 1413.94 5
5 4 2 46317.3 1465.69 53
5 4 3 3702.79 412.059 11
5 4 3 3874.56 498.004 15
5 4 3 4043.08 406.076 5
5 4 3 4146.84 436.795 53
5 4 4 32821.4 1275.77 11
5 4 4 32639.2 1423.84 15
5 4 4 33803.3 1303.67 5
5 4 4 35700.7 1399.49 53
5 4 5 9377.62 622.954 11
5 4 5 8862.18 678.975 15
5 4 5 9165.77 669.724 5
5 4 5 9631.34 682.536 53
5 4 6 63895 1921.88 15
5 4 6 61064.5 1937.84 5
5 4 6 67653.7 1816.2 53
5 4 7 36440.9 1268.09 15
5 4 7 37007.5 1349.01 5
5 4 8 3959.6 366.565 5
5 4 9 14951.3 613.925 5
5 5 -6 2467.25 187.86 3
5 5 -5 15404 645.083 3
5 5 -4 8638.81 566.359 3
5 5 -3 20836.8 943.635 11
5 5 -3 19547.1 972.662 3
5 5 -2 54680.7 1793.05 11
5 5 -2 48106.7 1668.83 3
5 5 -1 2946.83 367.724 3
5 5 0 5692.41 473.135 3
5 5 0 6699.23 717.894 15
5 5 1 14852.3 719.868 3
5 5 1 17819.6 1210.62 15
5 5 2 6204.31 553.946 11
5 5 2 6192.34 427.192 3
5 5 2 7139.75 731.952 15
5 5 3 9938.71 676.066 11
5 5 3 9623.42 522.727 3
5 5 3 9701.15 798.759 15
5 5 3 10288.4 637.259 5
5 5 4 38646.6 1369 11
5 5 4 38141.2 1533.46 15
5 5 4 38767 1374.5 5
5 5 5 2414.59 301.895 11
5 5 5 2166.1 329.942 15
5 5 5 2413.61 331.984 5
5 5 6 983.983 208.76 15
5 5 6 1071 225.673 5
5 5 7 27477 1050.27 15
5 5 7 28399.8 1140.26 5
5 5 8 9029.4 543.13 5
5 5 9 23080.8 742.376 5
5 6 -5 6512.61 328.8 3
5 6 -4 4148.66 332.913 3
5 6 -3 6.04746 62.2828 11
5 6 -3 87.0331 67.495 3
5 6 -2 20995.4 1002.84 11
5 6 -2 19395.5 951.23 3
5 6 -1 17997.4 898.506 3
5 6 0 26698.8 1061.73 3
5 6 0 28048.7 1458.94 15
5 6 1 42476.7 1316.28 3
5 6 1 47003.4 2024.65 15
5 6 2 21596.8 1069.95 11
5 6 2 21501.8 832.831 3
5 6 2 24043.4 1377.1 15
5 6 3 1164.68 224.68 11
5 6 3 1044.25 267.785 15
5 6 4 34538.8 1237.01 11
5 6 4 34666.8 1424.22 15
5 6 5 39807.6 1273.36 11
5 6 5 38501.6 1425.41 15
5 6 5 41247.5 1384.6 5
5 6 6 16787.4 832.596 15
5 6 6 17451.6 861.93 5
5 6 7 25340.4 934.499 15
5 6 7 25128.5 998.972 5
5 6 8 -24.8212 52.3517 5
5 7 -4 12612.8 480.628 3
5 7 -3 15099 662.136 3
5 7 -2 39565.2 1325.38 11
5 7 -2 41166.6 1333 3
5 7 -1 25144.9 1150.52 11
5 7 -1 24072.2 1006.55 3
5 7 0 759.169 160.368 3
5 7 0 872.159 242.677 15
5 7 1 14812.4 704.52 3
5 7 1 15389.1 1094.77 15
5 7 2 26940.3 1172.52 11
5 7 2 30121.2 1520.97 15
5 7 3 4909.41 443.268 11
5 7 3 5202.43 564.806 15
5 7 4 30207.3 1085.73 11
5 7 4 32868.8 1321.52 15
5 7 5 12119.7 593.676 11
5 7 5 13139.4 741.597 15
5 7 6 4621.01 387.45 15
5 7 7 15516.9 616.702 15
5 8 -2 27377.8 911.828 11
5 8 -1 10629.6 650.365 11
5 8 0 354.434 143.739 11
5 8 0 495.927 169.888 15
5 8 1 5925.48 531.579 11
5 8 1 6988.87 672.119 15
5 8 2 21745.6 995.848 11
5 8 2 24035.5 1299.76 15
5 8 3 8870.89 555.469 11
5 8 3 9444.17 731.871 15
5 8 4 37475.7 1130.76 11
5 8 4 41971.6 1428.86 15
5 8 5 19051.3 818.336 15
5 8 6 5941.75 372.694 15
5 9 0 988.767 185.044 11
5 9 1 31978.3 1172.43 11
5 9 2 19251.3 839.389 11
5 9 2 20715.9 1061.05 15
5 9 3 787.615 140.512 11
5 9 3 1080.08 234.098 15
5 9 4 329.625 116.914 15
6 -7 -3 59.7751 40.4272 7
6 -7 -2 36604.7 985.377 7
6 -7 -1 842.56 142.437 7
6 -7 0 692.317 126.293 7
6 -7 1 5634.02 340.437 7
6 -6 -4 3673.89 260.107 7
6 -6 -3 11287 522.136 7
6 -6 -2 23562.7 841.231 7
6 -6 -1 14436.2 671.41 7
6 -6 0 -28.3543 70.3605 7
6 -6 1 19139.2 778.217 7
6 -6 2 3162.68 271.902 7
6 -6 2 3125.61 259.063 12
6 -6 3 5038.55 329.593 12
6 -6 4 3677.03 263.207 12
6 -6 5 23575.8 644.476 12
6 -5 -6 9802.94 416.442 3
6 -5 -5 3437.52 244.241 7
6 -5 -4 17744.2 675.319 7
6 -5 -3 6546.5 424.801 7
6 -5 -2 21987.8 869.813 7
6 -5 -1 5088.86 424.609 7
6 -5 0 4093.9 391.522 7
6 -5 1 15293.7 760.055 7
6 -5 1 14311.4 642.099 12
6 -5 2 21352.4 848.896 7
6 -5 2 22420.9 844.867 12
6 -5 3 234.999 97.4223 12
6 -5 4 5707.98 385.992 12
6 -5 5 8752.39 438.51 12
6 -5 6 33285.9 827.438 12
6 -4 -6 1261.85 163.773 3
6 -4 -5 1153.87 155.405 7
6 -4 -4 22667.1 824.057 7
6 -4 -3 15814.3 716.433 7
6 -4 -2 1367.07 225.125 7
6 -4 -1 31893.2 1182.32 7
6 -4 0 2227.33 315.408 7
6 -4 0 2487.41 269.834 12
6 -4 1 430.908 117.764 12
6 -4 1 386.813 135.234 7
6 -4 2 21551.7 917.671 7
6 -4 2 22891.3 900.22 12
6 -4 3 18669 810.914 12
6 -4 4 5512.49 419.338 12
6 -4 5 42732.3 1208.63 12
6 -4 6 634.362 115.142 12
6 -4 7 5076.19 259.922 12
6 -3 -7 23994.1 690.076 3
6 -3 -6 8279.71 450.049 3
6 -3 -5 5407.51 414.33 3
6 -3 -5 5300.23 360.16 7
6 -3 -4 31133.9 1025.81 7
6 -3 -3 1201.42 202.161 7
6 -3 -2 2368.57 296.107 7
6 -3 -1 22422.7 1009.2 7
6 -3 0 31758.3 1290.4 7
6 -3 0 31890.5 1080.74 12
6 -3 1 2236.1 328.907 7
6 -3 1 2301.2 274.866 12
6 -3 1 2125.55 282.538 4
6 -3 2 12746.7 724.273 7
6 -3 2 12593.6 676.117 12
6 -3 2 12927.7 687.675 4
6 -3 3 2.61601 64.262 12
6 -3 4 18866.8 836.432 12
6 -3 5 22416.8 880.566 12
6 -3 6 18516.6 717.977 12
6 -3 7 390.893 90.5987 12
6 -2 -7 20239.4 643.911 3
6 -2 -6 7888.61 452.29 3
6 -2 -5 2851.61 312.202 3
6 -2 -5 2663.9 263.849 7
6 -2 -4 11761.1 708.82 3
6 -2 -4 12842.5 636.144 7
6 -2 -3 28132 1030.16 7
6 -2 -3 23633.2 1079.43 3
6 -2 -2 154.216 84.8903 7
6 -2 -2 599.306 168.533 3
6 -2 -1 1540.91 270.262 7
6 -2 0 6955.79 594.679 7
6 -2 0 7256.61 491.514 12
6 -2 0 7713.95 535.009 4
6 -2 1 10013.8 607.912 4
6 -2 1 9638.18 697.717 7
6 -2 1 10188.7 591.372 12
6 -2 2 33035.4 1252.93 7
6 -2 2 32277.3 1159.48 4
6 -2 2 32636.1 1160.54 12
6 -2 3 34454.1 1190.92 4
6 -2 3 35991.4 1249.48 12
6 -2 4 14093.5 700.956 4
6 -2 4 13358.8 733.232 12
6 -2 5 23173.5 947.467 12
6 -2 6 1671.8 223.639 12
6 -2 7 13522.4 545.11 12
6 -1 -7 5088.87 302.091 3
6 -1 -6 22994.8 820.05 3
6 -1 -5 761.081 167.966 3
6 -1 -4 374.105 113.008 7
6 -1 -4 453.312 146.96 3
6 -1 -3 7463.67 597.866 3
6 -1 -3 8542.39 558.162 7
6 -1 -2 48943 1532.16 7
6 -1 -2 45439.2 1549.79 3
6 -1 -1 133.514 79.4888 4
6 -1 -1 209.369 129.932 7
6 -1 -1 124.989 93.493 3
6 -1 0 63101.9 1712.46 4
6 -1 0 63368.6 2017.2 7
6 -1 0 65310.1 1699.11 12
6 -1 0 59617.6 1611.55 53
6 -1 1 765.904 167.458 12
6 -1 1 647.25 152.379 4
6 -1 1 575.043 189.844 7
6 -1 2 1541.62 266.502 7
6 -1 2 1755.35 253.188 4
6 -1 2 1673.91 246.547 12
6 -1 3 30152.7 1131.48 4
6 -1 3 31655.5 1178.3 12
6 -1 4 41846 1363.91 4
6 -1 4 45514.1 1486.57 12
6 -1 5 1584.86 230.663 4
6 -1 5 1511.96 253.26 12
6 -1 6 22777.4 854.135 4
6 -1 6 26177.4 950.554 12
6 -1 7 3283.1 267.029 12
6 -1 8 2568.29 195.047 53
6 0 -7 631.005 103.362 3
6 0 -6 17124.5 687.383 3
6 0 -5 15361.1 747.922 3
6 0 -4 8603.42 618.408 3
6 0 -4 8176.86 518.954 7
6 0 -3 13984.2 841.185 3
6 0 -3 15768 774.163 7
6 0 -2 4944.74 483.008 3
6 0 -2 5362.11 479.356 7
6 0 -1 9.64967 70.873 4
6 0 -1 300.088 136.043 7
6 0 -1 208.839 114.225 3
6 0 -1 89.1499 66.2432 53
6 0 0 27299.9 1015.11 4
6 0 0 26136.9 983.557 53
6 0 0 27698.3 1292.66 7
6 0 1 90562.5 2198 4
6 0 1 92258.3 2210.85 12
6 0 1 97680.6 2251.97 53
6 0 1 99424 2644.11 7
6 0 2 2588.71 305.212 4
6 0 2 3213.3 341.376 12
6 0 2 2630.83 341.671 7
6 0 3 48085.5 1546.01 12
6 0 4 3747.82 402.154 5
6 0 4 3673.79 408.377 12
6 0 5 3517.53 379.983 5
6 0 5 3914.53 402.161 12
6 0 6 16686.6 806.222 5
6 0 6 17203.7 774.911 12
6 0 7 51784.2 1378.1 5
6 0 7 45992.4 1203.61 12
6 0 8 4996.64 287.01 4
6 0 8 5612.46 299.333 53
6 1 -7 259.701 66.3959 3
6 1 -6 11891.2 547.553 3
6 1 -5 21065.1 867.689 3
6 1 -4 280.099 127.607 3
6 1 -3 12554 789.87 3
6 1 -2 42560.4 1528.01 3
6 1 -2 46197.2 1535.91 7
6 1 -1 261.522 99.2828 4
6 1 -1 233.094 149.163 7
6 1 -1 144.77 107.459 3
6 1 -1 158.032 82.0793 53
6 1 0 74454.4 1877.39 4
6 1 0 77815.6 2301.7 11
6 1 0 72276.4 1828.9 53
6 1 0 76611.9 2335.87 7
6 1 1 50768.7 1776.16 11
6 1 1 45025.3 1398.69 4
6 1 1 54922.4 1813.22 15
6 1 1 47434 1436.15 53
6 1 1 50068 1783.08 7
6 1 2 3067.23 325.854 4
6 1 2 3275.84 421.936 15
6 1 2 2943.84 338.057 12
6 1 2 2460.56 304.489 53
6 1 2 2917.7 360.985 7
6 1 3 17617.8 966.337 15
6 1 3 15281.2 809.345 5
6 1 3 15945.7 851.305 12
6 1 3 15182.4 813.951 53
6 1 4 15485 850.542 15
6 1 4 13959.2 783.354 5
6 1 4 14408.7 825.985 12
6 1 4 13701.2 798.848 53
6 1 5 365.376 133.686 12
6 1 5 293.924 134.663 5
6 1 5 246.091 123.578 53
6 1 6 12569.3 717.955 5
6 1 6 13189.8 660.628 12
6 1 6 12973.9 684.665 53
6 1 7 13374 668.239 5
6 1 7 12179.4 579.753 53
6 1 8 8085.13 425.161 5
6 1 8 5511.98 297.914 53
6 2 -6 15031.3 584.469 3
6 2 -5 28063.1 986.599 3
6 2 -4 33.3557 91.0375 3
6 2 -3 4768.98 474.946 3
6 2 -2 22239.8 1062.12 11
6 2 -2 20575.4 1022.23 3
6 2 -1 51160.2 1790.84 11
6 2 -1 46735.4 1528.75 3
6 2 -1 48295.7 1437.53 4
6 2 0 20397.8 864.631 4
6 2 0 18804.3 842.717 3
6 2 0 20229.1 853.287 53
6 2 1 29290.5 1296.02 11
6 2 1 25514.7 991.204 4
6 2 1 30381.9 1377.38 15
6 2 1 25531.4 995.946 53
6 2 2 348.553 140.51 11
6 2 2 361.953 118.291 4
6 2 2 545 204.108 15
6 2 2 589.286 152.745 53
6 2 3 21712.8 1046.36 11
6 2 3 24553.8 1198.22 15
6 2 3 23112.6 1005.4 5
6 2 3 24095.3 1028.28 53
6 2 4 28765.2 1146.01 5
6 2 4 28102.4 1186.73 53
6 2 5 50314.1 1555.81 15
6 2 5 46120.9 1524.45 5
6 2 5 46693.5 1545.2 53
6 2 6 21462.7 955.037 5
6 2 6 22881.8 928.339 53
6 2 7 44132.3 1329.83 5
6 2 7 39243.8 1115.75 53
6 2 8 717.934 152.82 5
6 3 -6 1679.03 163.333 3
6 3 -5 12106.9 570.876 3
6 3 -4 3966.99 374.547 3
6 3 -3 20771 984.171 3
6 3 -2 22303.7 1050.22 11
6 3 -2 19140.1 963.408 3
6 3 -1 235.585 141.929 11
6 3 -1 213.217 99.7639 4
6 3 -1 87.1057 85.1467 3
6 3 0 1377.07 213.615 4
6 3 0 1559.62 313.915 11
6 3 0 1463.04 225.791 3
6 3 1 29806.1 1078.22 4
6 3 1 34834.6 1443.75 11
6 3 1 34681.1 1535.35 15
6 3 1 29699.2 1018.62 3
6 3 1 32015.7 1118.84 53
6 3 2 9124.24 678.068 11
6 3 2 8701.18 549.032 4
6 3 2 9604.01 790.939 15
6 3 2 8925.27 576.072 53
6 3 3 22106.1 1038.18 11
6 3 3 21863.8 961.244 5
6 3 3 20833.4 966.021 53
6 3 4 11556.3 707.611 11
6 3 4 13241.8 824.403 15
6 3 4 12142.8 712.95 5
6 3 4 12462.6 754.163 53
6 3 5 290.73 144.258 15
6 3 5 205.003 111.845 5
6 3 5 308.663 111.944 53
6 3 6 3886.3 368.704 15
6 3 6 3601.52 371.473 5
6 3 6 3824.87 351.887 53
6 3 7 12245.7 636.179 5
6 3 7 11688 516.408 53
6 3 8 35242.1 1012.3 5
6 4 -5 12129.7 509.245 3
6 4 -4 5455.29 402.651 3
6 4 -3 9297.91 606.746 3
6 4 -2 32586.6 1254.47 11
6 4 -2 29449.5 1174.55 3
6 4 -1 23259.2 1143.02 11
6 4 -1 20099.2 918.817 3
6 4 0 843.563 224.623 11
6 4 0 833.587 159.743 4
6 4 0 763.537 162.108 3
6 4 1 28914 1005.11 4
6 4 1 25949.6 1239.42 11
6 4 1 28642.6 979.364 3
6 4 2 15144.3 864.836 11
6 4 2 12992.7 658.368 4
6 4 2 14885.9 1023.12 15
6 4 3 8606.82 619.491 11
6 4 3 9195.13 751.512 15
6 4 4 33492.4 1234.05 11
6 4 4 37160.9 1446.03 15
6 4 4 35602.4 1249.69 5
6 4 4 35710.6 1327.14 53
6 4 5 46930.1 1514.92 15
6 4 5 48664.7 1514.16 5
6 4 6 1982.17 257.849 15
6 4 6 2081.96 276.05 5
6 4 7 19545.7 803.278 5
6 4 8 194.184 72.308 5
6 5 -4 19558.6 701.428 3
6 5 -3 1698.62 229.305 3
6 5 -2 8343.84 565.343 11
6 5 -2 7302.27 526.871 3
6 5 -1 3248.57 405.278 11
6 5 -1 3107.81 341.101 3
6 5 0 21503.5 1116.96 11
6 5 0 20843.9 859.559 3
6 5 1 20079.3 1053.03 11
6 5 1 18435.6 746.128 3
6 5 1 20116.2 1157.3 15
6 5 2 31597.5 1028.29 4
6 5 2 25862 1171.18 11
6 5 2 32782.8 970.89 3
6 5 2 38561 1666.65 15
6 5 3 721.318 170.953 11
6 5 3 742.436 149.933 4
6 5 3 678.557 217.252 15
6 5 4 1637.2 248.962 11
6 5 4 2264.02 337.979 15
6 5 5 7806.63 551.711 15
6 5 5 8208.62 542.963 5
6 5 6 23678.5 893.791 15
6 5 6 22307.3 904.064 5
6 5 7 8394.3 474.855 5
6 6 -3 10716.9 505.997 3
6 6 -2 3734.1 330.689 11
6 6 -2 3681.74 328.422 3
6 6 -1 17180 874.609 11
6 6 -1 19231.1 816.833 3
6 6 0 1814.34 297.638 11
6 6 0 1648.91 224.82 3
6 6 1 243.231 130.32 11
6 6 1 144.084 74.5097 3
6 6 1 85.8773 89.7768 15
6 6 2 11240.9 711.009 11
6 6 2 12010.7 880.758 15
6 6 3 18557.6 862.174 11
6 6 3 19785.6 1090.46 15
6 6 4 21722.3 875.86 11
6 6 4 25317.5 1105.16 15
6 6 5 13433 607.633 4
6 6 5 17113.4 771.216 15
6 6 6 548.953 113.335 4
6 6 6 849.756 145.783 15
6 7 -2 952.15 139.157 3
6 7 -1 15785.6 715.811 11
6 7 -1 13092.9 612.069 3
6 7 0 27919.7 1130.44 11
6 7 1 6974.6 549.131 11
6 7 1 6924.24 530.63 15
6 7 2 14985.9 790.147 11
6 7 2 17066.6 956.579 15
6 7 3 3766.77 352.96 11
6 7 3 5115.18 502.566 15
6 7 4 5531.76 377.163 11
6 7 4 6861.08 515.434 15
6 7 5 17480.6 713.678 15
6 8 1 1972.72 256.689 11
6 8 2 11036.3 589.755 11
7 -5 -3 3645.44 238.575 7
7 -5 -2 1622.06 177.364 7
7 -5 -1 1425.92 179.896 7
7 -5 0 29902.1 912.923 7
7 -5 1 81.2296 58.6823 7
7 -4 -4 2440.34 190.762 7
7 -4 -3 13524.5 539.886 7
7 -4 -2 87.1435 55.4035 7
7 -4 -1 1434.66 201.157 7
7 -4 0 7717.34 480.516 7
7 -4 1 18747 738.664 7
7 -4 2 6354.93 381.301 12
7 -4 3 26959 797.602 12
7 -4 3 17191 623.716 53
7 -4 4 -1.49235 46.2718 12
7 -4 4 45.1686 45.7358 53
7 -3 -4 2152.31 202.474 3
7 -3 -4 3167.08 239.193 7
7 -3 -3 3900.25 298.428 7
7 -3 -2 18283.7 740.19 7
7 -3 -1 2269.2 271.386 7
7 -3 0 9928.9 591.142 7
7 -3 1 2966.8 304.976 7
7 -3 2 778.521 143.364 12
7 -3 2 519.206 115.762 7
7 -3 2 538.613 118.205 53
7 -3 3 9675.05 509.483 12
7 -3 3 8276.52 459.696 53
7 -3 4 35555.8 1010.98 12
7 -3 4 32432.3 973.37 53
7 -3 5 412.936 89.8327 12
7 -3 5 332.961 81.336 53
7 -2 -5 20476 645.886 3
7 -2 -4 -70.1617 63.271 3
7 -2 -3 13237.8 615.236 3
7 -2 -3 17536.8 681.047 7
7 -2 -2 3536.12 328.892 7
7 -2 -1 6845.61 498.709 7
7 -2 0 10772.4 651.618 7
7 -2 1 56010.3 1413.84 53
7 -2 1 61014.6 1669.7 7
7 -2 2 584.439 133.979 12
7 -2 2 654.636 149.05 4
7 -2 2 464.627 119.344 7
7 -2 2 371.487 106.557 53
7 -2 3 8338.6 498.346 12
7 -2 3 7397.36 462.299 53
7 -2 3 8256.26 485.545 4
7 -2 4 799.595 150.441 12
7 -2 4 755.532 149.212 53
7 -2 4 986.291 154.556 4
7 -2 5 802.482 136.767 12
7 -2 5 713.927 126.34 53
7 -2 6 6751.2 328.934 12
7 -2 6 6424.1 325.497 53
7 -1 -5 15934.4 580.304 3
7 -1 -4 3871.45 317.802 3
7 -1 -3 3225.35 309.283 3
7 -1 -3 3374.44 303.089 7
7 -1 -2 22802.1 885.764 7
7 -1 -2 17400.5 744.951 3
7 -1 -1 152.107 88.3856 7
7 -1 0 1434.72 252.591 7
7 -1 1 2116.14 240.895 53
7 -1 1 1906.62 284.319 7
7 -1 1 2482.22 287.788 4
7 -1 2 13848.7 655.42 53
7 -1 2 15272.3 709.646 4
7 -1 3 8635.18 519.157 4
7 -1 3 8994.68 538.9 12
7 -1 3 9007.14 530.562 53
7 -1 4 12137.7 593.181 4
7 -1 4 12977.5 639.696 12
7 -1 4 11675.9 608.192 53
7 -1 5 334.839 98.3349 12
7 -1 5 295.442 87.121 4
7 -1 5 335.902 100.161 53
7 -1 6 595.639 107.403 53
7 0 -5 37713 979.804 3
7 0 -4 414.164 115.572 3
7 0 -3 1463.62 233.074 3
7 0 -2 17487.6 817.342 3
7 0 -1 48413.4 1557.58 7
7 0 0 14903.7 642.714 53
7 0 0 15575.3 853.133 7
7 0 0 16212.6 724.409 4
7 0 1 7870.19 477.902 53
7 0 1 8514.17 593.556 7
7 0 1 8537.87 516.812 4
7 0 2 1628.46 229.929 4
7 0 2 1219.43 208.216 53
7 0 3 634.789 145.604 4
7 0 3 618.033 150.201 53
7 0 4 12649.7 624.52 4
7 0 4 12481.4 640.62 53
7 0 5 26394.9 900.82 4
7 0 5 27991.7 942.549 53
7 0 6 12001.8 505.186 4
7 0 6 13015.7 536.359 53
7 0 7 7608.1 321.027 53
7 1 -5 3308.6 238.317 3
7 1 -4 13719.4 609.636 3
7 1 -3 1748.48 233.058 3
7 1 -2 3546.32 339.779 3
7 1 -1 635.263 178.181 3
7 1 0 9471.82 541.306 4
7 1 1 123.483 106.315 4
7 1 1 244.736 102.179 53
7 1 2 50789.7 1400.14 4
7 1 2 50435.6 1424.84 53
7 1 3 4444.75 366.573 4
7 1 3 4253.54 374.455 53
7 1 4 15953.6 703.45 4
7 1 4 11149.2 641.771 53
7 1 5 20308.5 759.13 4
7 1 5 7909.19 520.212 53
7 1 6 20832.2 717.682 4
7 1 6 17466.3 656.904 53
7 2 -4 9885.87 482.427 3
7 2 -3 8264.48 496.956 3
7 2 -2 16647.7 746.746 3
7 2 -1 24219.7 886.894 3
7 2 0 464.287 122.757 4
7 2 1 4673.27 367.324 4
7 2 2 4260.37 360.334 4
7 2 2 4338.48 368.947 53
7 2 3 47162.6 1353.02 4
7 2 3 50283.8 1431.54 53
7 2 4 4032.35 338.968 4
7 2 4 3824.71 354.399 53
7 2 5 20715.8 800.164 4
7 2 5 24877.9 884.977 53
7 2 6 2916.69 255.059 4
7 2 6 1798.98 198.825 53
7 2 7 866.317 114.234 4
7 3 -4 19519.9 642.554 3
7 3 -3 4779.96 351.562 3
7 3 -2 2643.57 278.785 3
7 3 -1 3272.78 299.002 3
7 3 0 27237.7 878.799 3
7 3 1 2283.66 247.915 4
7 3 2 79458.8 1852.75 4
7 3 3 9790.04 536.88 4
7 3 4 677.274 143.338 4
7 3 5 8132.45 465.411 4
7 3 6 24286.1 778.879 4
7 4 -3 16321.1 605.46 3
7 4 -2 1363.06 187.021 3
7 4 -1 13715.6 609.105 3
7 4 0 1696.29 193.721 3
7 4 1 11108.8 529.768 4
7 4 2 11413.7 673.967 15
7 4 2 10440.1 519.985 4
7 4 3 14709.2 636.572 4
7 4 3 16292.3 824.207 15
7 4 4 178.24 71.1206 4
7 4 5 22961.4 788.332 4
7 4 6 1118.04 145.137 4
7 5 -2 1625.19 174.678 3
7 5 -1 19622.1 691.898 3
7 5 0 17145.5 619.729 3
7 5 1 3441.03 371.497 11
7 5 3 13856.9 707.937 15
7 5 4 2604.17 228.253 4
8 1 3 11039.5 494.105 4
8 2 3 8504.95 410.603 4
