#------------------------------------------------------------------------------
#$Date: 2019-11-17 06:03:07 +0200 (Sun, 17 Nov 2019) $
#$Revision: 228289 $
#$URL: file:///home/coder/svn-repositories/cod/cif/7/12/11/7121103.cif $
#------------------------------------------------------------------------------
#
# This file is available in the Crystallography Open Database (COD),
# http://www.crystallography.net/
#
# All data on this site have been placed in the public domain by the
# contributors.
#
data_7121103
loop_
_publ_author_name
'Roy, Arundhati'
'Gautam, Amitosh'
'Malla, Javid Ahmad'
'Sarkar, Sohini'
'Mukherjee, Arnab'
'Talukdar, Pinaki'
_publ_section_title
;
 Self-assembly of small-molecule fumaramides allows transmembrane chloride
 channel formation.
;
_journal_issue                   16
_journal_name_full
'Chemical communications (Cambridge, England)'
_journal_page_first              2024
_journal_page_last               2027
_journal_paper_doi               10.1039/c7cc08693h
_journal_volume                  54
_journal_year                    2018
_chemical_formula_moiety         'C16 H30 N2 O2'
_chemical_formula_sum            'C16 H30 N2 O2'
_chemical_formula_weight         282.42
_chemical_name_common            Compound1
_space_group_crystal_system      triclinic
_space_group_IT_number           2
_space_group_name_Hall           '-P 1'
_space_group_name_H-M_alt        'P -1'
_symmetry_space_group_name_Hall  '-P 1'
_symmetry_space_group_name_H-M   'P -1'
_atom_sites_solution_hydrogens   geom
_audit_creation_method           SHELXL-2013
_audit_update_record
;
2017-02-24 deposited with the CCDC.
2018-01-05 downloaded from the CCDC.
;
_cell_angle_alpha                85.972(12)
_cell_angle_beta                 89.944(8)
_cell_angle_gamma                64.398(8)
_cell_formula_units_Z            1
_cell_length_a                   4.8725(17)
_cell_length_b                   5.548(3)
_cell_length_c                   16.422(6)
_cell_measurement_reflns_used    1521
_cell_measurement_temperature    200(2)
_cell_measurement_theta_max      28.21
_cell_measurement_theta_min      3.72
_cell_volume                     399.1(3)
_computing_cell_refinement       'Bruker SAINT'
_computing_data_collection       'Bruker APEX2'
_computing_data_reduction        'Bruker SAINT'
_computing_molecular_graphics    'Bruker SHELXTL'
_computing_publication_material  'Bruker SHELXTL'
_computing_structure_refinement  'SHELXL-2013 (Sheldrick 2013)'
_computing_structure_solution    'SHELXS-97 (Sheldrick 2008)'
_diffrn_ambient_temperature      200(2)
_diffrn_measured_fraction_theta_full 0.997
_diffrn_measured_fraction_theta_max 0.992
_diffrn_measurement_device_type  'Bruker APEX-II CCD'
_diffrn_measurement_method       '\f and \w scans'
_diffrn_radiation_type           MoK\a
_diffrn_radiation_wavelength     0.71073
_diffrn_reflns_av_R_equivalents  0.0465
_diffrn_reflns_av_unetI/netI     0.0560
_diffrn_reflns_Laue_measured_fraction_full 0.997
_diffrn_reflns_Laue_measured_fraction_max 0.992
_diffrn_reflns_limit_h_max       6
_diffrn_reflns_limit_h_min       -6
_diffrn_reflns_limit_k_max       7
_diffrn_reflns_limit_k_min       -6
_diffrn_reflns_limit_l_max       21
_diffrn_reflns_limit_l_min       -21
_diffrn_reflns_number            6587
_diffrn_reflns_point_group_measured_fraction_full 0.997
_diffrn_reflns_point_group_measured_fraction_max 0.992
_diffrn_reflns_theta_full        25.242
_diffrn_reflns_theta_max         28.337
_diffrn_reflns_theta_min         2.488
_diffrn_source                   'fine-focus sealed tube'
_exptl_absorpt_coefficient_mu    0.077
_exptl_absorpt_correction_T_max  0.992
_exptl_absorpt_correction_T_min  0.989
_exptl_absorpt_correction_type   multi-scan
_exptl_absorpt_process_details   'multi-scan absorption correction'
_exptl_crystal_colour            yellow
_exptl_crystal_density_diffrn    1.175
_exptl_crystal_density_method    'not measured'
_exptl_crystal_description       'Rod shaped'
_exptl_crystal_F_000             156
_exptl_crystal_size_max          0.14
_exptl_crystal_size_mid          0.12
_exptl_crystal_size_min          0.10
_refine_diff_density_max         0.377
_refine_diff_density_min         -0.341
_refine_diff_density_rms         0.063
_refine_ls_extinction_method     none
_refine_ls_goodness_of_fit_ref   1.083
_refine_ls_hydrogen_treatment    constr
_refine_ls_matrix_type           full
_refine_ls_number_parameters     92
_refine_ls_number_reflns         1999
_refine_ls_number_restraints     0
_refine_ls_restrained_S_all      1.083
_refine_ls_R_factor_all          0.0849
_refine_ls_R_factor_gt           0.0582
_refine_ls_shift/su_max          0.000
_refine_ls_shift/su_mean         0.000
_refine_ls_structure_factor_coef Fsqd
_refine_ls_weighting_details
'w=1/[\s^2^(Fo^2^)+(0.1000P)^2^] where P=(Fo^2^+2Fc^2^)/3'
_refine_ls_weighting_scheme      calc
_refine_ls_wR_factor_gt          0.1558
_refine_ls_wR_factor_ref         0.1741
_reflns_Friedel_coverage         0.000
_reflns_number_gt                1454
_reflns_number_total             1999
_reflns_threshold_expression     'I > 2\s(I)'
_cod_data_source_file            c7cc08693h2.cif
_cod_data_source_block           Compound2b
_cod_depositor_comments
'Adding full bibliography for 7121103--7121105.cif.'
_cod_database_code               7121103
_shelx_space_group_comment
;
The symmetry employed for this shelxl refinement is uniquely defined
by the following loop, which should always be used as a source of
symmetry information in preference to the above space-group names.
They are only intended as comments.
;
_shelxl_version_number           2013-3
_shelx_res_file
;
TITL TR1 in P-1
CELL 0.71073 4.8725 5.5478 16.4221 85.972 89.944 64.398
ZERR 1.00 0.0017 0.0026 0.0055 0.012 0.008 0.008
LATT 1
SFAC C  H  N  O
UNIT 16  30  2  2
L.S. 40
ACTA
BOND $H
FMAP 2
PLAN 20
TEMP 23.000
WGHT    0.100000
FVAR       0.37422
O1    4    0.454243    1.209289    0.919273    11.00000    0.00883    0.01729 =
         0.02770   -0.00530    0.00238   -0.00661
N1    3    0.093925    1.072530    0.888833    11.00000    0.00794    0.01371 =
         0.02298   -0.00595    0.00234   -0.00454
AFIX  43
H1    2   -0.089728    1.093630    0.896021    11.00000   -1.20000
AFIX   0
C1    1    0.132164    0.158861    0.567590    11.00000    0.02188    0.02615 =
         0.02796   -0.00883    0.00313   -0.01225
AFIX 137
H1A   2    0.041251    0.072676    0.603830    11.00000   -1.50000
H1B   2    0.267226    0.031349    0.532410    11.00000   -1.50000
H1C   2   -0.024499    0.303569    0.535181    11.00000   -1.50000
AFIX   0
C2    1    0.310144    0.267991    0.617176    11.00000    0.01483    0.02169 =
         0.02592   -0.00840    0.00238   -0.00728
AFIX  23
H2A   2    0.471527    0.120051    0.648541    11.00000   -1.20000
H2B   2    0.404355    0.351739    0.580123    11.00000   -1.20000
AFIX   0
C3    1    0.114104    0.470910    0.675033    11.00000    0.01293    0.01662 =
         0.02344   -0.00469    0.00122   -0.00608
AFIX  23
H3A   2    0.015302    0.388648    0.711030    11.00000   -1.20000
H3B   2   -0.043820    0.621139    0.643492    11.00000   -1.20000
AFIX   0
C4    1    0.293266    0.575025    0.726569    11.00000    0.01163    0.01542 =
         0.02357   -0.00396    0.00074   -0.00587
AFIX  23
H4A   2    0.449036    0.425134    0.758780    11.00000   -1.20000
H4B   2    0.394794    0.654631    0.690566    11.00000   -1.20000
AFIX   0
C5    1    0.096776    0.781011    0.783379    11.00000    0.01043    0.01181 =
         0.02204   -0.00231    0.00058   -0.00364
AFIX  23
H5A   2   -0.055884    0.933750    0.751383    11.00000   -1.20000
H5B   2   -0.007981    0.703445    0.818951    11.00000   -1.20000
AFIX   0
C6    1    0.284053    0.874687    0.834771    11.00000    0.01056    0.01423 =
         0.02336   -0.00493    0.00240   -0.00454
AFIX  23
H6A   2    0.436246    0.722233    0.866979    11.00000   -1.20000
H6B   2    0.389198    0.952047    0.799266    11.00000   -1.20000
AFIX   0
C7    1    0.196323    1.222993    0.927797    11.00000    0.00913    0.01115 =
         0.01954    0.00145   -0.00102   -0.00385
C8    1   -0.029351    1.412673    0.980806    11.00000    0.00958    0.01237 =
         0.01999   -0.00040    0.00036   -0.00426
AFIX  43
H8    2   -0.216952    1.408466    0.987161    11.00000   -1.20000
AFIX   0
HKLF 4 1 1 0 0 0 1 0 0 0 1

REM  TR1 in P-1
REM R1 =  0.0582 for    1454 Fo > 4sig(Fo)  and  0.0849 for all    1999 data
REM     92 parameters refined using      0 restraints

END

WGHT      0.0731      0.1298

REM Highest difference peak  0.377,  deepest hole -0.341,  1-sigma level  0.063
Q1    1   0.4584  1.2072  0.9749  11.00000  0.05    0.38
Q2    1   0.4561  1.2315  0.8652  11.00000  0.05    0.35
Q3    1   0.1278  1.0635  0.9410  11.00000  0.05    0.32
Q4    1   0.2009  1.2083  0.9897  11.00000  0.05    0.28
Q5    1   0.2613  0.8820  0.8891  11.00000  0.05    0.26
Q6    1  -0.0107  1.4232  0.9297  11.00000  0.05    0.26
Q7    1  -0.0008  1.4026  1.0372  11.00000  0.05    0.25
Q8    1   0.1497  0.7699  0.8301  11.00000  0.05    0.24
Q9    1   0.0820  1.1005  0.8307  11.00000  0.05    0.24
Q10   1   0.1442  0.1715  0.5112  11.00000  0.05    0.23
Q11   1   0.3006  0.5806  0.6668  11.00000  0.05    0.22
Q12   1   0.0941  0.7847  0.7270  11.00000  0.05    0.20
Q13   1   0.3380  0.2181  0.6772  11.00000  0.05    0.19
Q14   1   0.2964  0.8803  0.7791  11.00000  0.05    0.19
Q15   1   0.2065  0.5448  0.7031  11.00000  0.05    0.19
Q16   1   0.1167  0.4674  0.6201  11.00000  0.05    0.19
Q17   1   0.3352  1.2059  0.8244  11.00000  0.05    0.19
Q18   1   0.4223  1.2058  1.0180  11.00000  0.05    0.19
Q19   1  -0.1673  0.7917  0.9180  11.00000  0.05    0.18
Q20   1   0.5004  0.0501  0.6899  11.00000  0.05    0.18
;
_shelx_res_checksum              1814
_shelx_hkl_file
;
   1   1   0   35.72    1.50
   1   1   0   33.71    1.50
   1   1   0   32.74    1.62
   1   1   0   34.68    1.56
   1   1   0   35.43    1.64
   1   1   0   35.09    1.60
   1   1   0   31.53    1.60
  -1  -1   0   34.81    1.51
   2   2   0    9.45    0.49
   2   2   0    7.38    0.59
   2   2   0    9.39    0.52
   2   2   0    9.19    0.50
   2   2   0    9.49    0.58
   2   2   0    8.16    0.52
  -2  -2   0    9.35    0.52
   3   3   0    1.85    0.23
   3   3   0    1.65    0.22
   3   3   0    1.77    0.28
   3   3   0    2.43    0.40
   3   3   0    1.89    0.32
   3   3   0    1.42    0.23
   3   3   0    1.82    0.30
  -3  -3   0    1.61    0.28
   4   4   0   45.53    2.38
   4   4   0   41.38    1.96
   4   4   0   42.79    2.17
   4   4   0   42.43    2.19
   4   4   0   44.36    2.20
   4   4   0   41.75    1.95
   4   4   0   42.31    2.10
   5   5   0    1.00    0.37
   5   5   0    1.90    0.54
   6   5   0    1.45    0.59
   6   5   0    1.20    0.34
  -4  -3   0    0.63    0.24
   4   3   0    0.25    0.14
   4   3   0    0.65    0.21
   4   3   0    0.11    0.22
   4   3   0    0.76    0.26
   4   3   0    0.51    0.27
   4   3   0    0.48    0.31
  -3  -2   0    0.11    0.15
   3   2   0    0.28    0.22
   3   2   0   -0.05    0.15
   3   2   0    0.13    0.20
   3   2   0    0.41    0.23
   3   2   0    0.06    0.10
   3   2   0    0.25    0.14
   3   2   0    0.26    0.15
  -2  -1   0    0.95    0.18
  -2  -1   0    1.24    0.21
   2   1   0    0.68    0.16
   2   1   0    0.88    0.21
   2   1   0    0.71    0.19
   2   1   0    1.15    0.23
  -1   0   0   87.73    3.84
  -1   0   0   77.92    3.62
  -1   0   0   82.72    3.84
  -1   0   0   87.78    3.63
   1   0   0   84.56    3.84
   1   0   0   84.59    3.63
   1   0   0   86.59    3.80
   0   1   0    0.93    0.14
   0   1   0    0.78    0.16
   0   1   0    0.97    0.15
   1   2   0    5.06    0.44
   1   2   0    6.03    0.43
   1   2   0    6.93    0.43
   2   3   0   32.84    1.85
   2   3   0   36.74    1.88
   2   3   0   37.15    1.73
   2   3   0   37.05    1.68
   3   4   0    4.12    0.51
   3   4   0    3.38    0.43
   4   5   0    2.54    0.43
   4   5   0    2.10    0.37
   4   5   0    1.68    0.33
   4   5   0    2.24    0.48
   5   6   0    1.01    0.38
   5   6   0    0.34    0.46
   5   6   0    0.99    0.34
   6   4   0   -0.07    0.34
   6   4   0   -0.16    0.33
   6   4   0   -0.04    0.22
   5   3   0   12.71    0.92
   5   3   0   14.10    1.01
   5   3   0   16.50    1.14
  -4  -2   0    0.16    0.19
   4   2   0    0.02    0.17
   4   2   0    0.28    0.22
   4   2   0   -0.05    0.19
   4   2   0   -0.10    0.10
   4   2   0    0.21    0.26
  -3  -1   0   27.10    1.35
  -3  -1   0   25.77    1.45
  -3  -1   0   27.34    1.44
   3   1   0   26.91    1.46
   3   1   0   26.34    1.45
   3   1   0   28.58    1.36
   3   1   0   27.89    1.45
  -2   0   0    6.03    0.45
  -2   0   0    6.43    0.40
  -2   0   0    5.65    0.47
  -2   0   0    5.91    0.41
   2   0   0    6.39    0.44
   2   0   0    5.86    0.47
   2   0   0    5.96    0.42
  -1   1   0   11.50    0.63
  -1   1   0   10.03    0.58
  -1   1   0   10.52    0.57
  -1   1   0   11.06    0.67
   1  -1   0    9.84    0.63
   0   2   0   19.38    1.13
   0   2   0   20.33    1.06
   0   2   0   19.76    1.04
   1   3   0   17.31    0.96
   1   3   0   14.94    0.95
   1   3   0   16.37    1.02
   2   4   0    1.08    0.31
   2   4   0    1.04    0.29
   3   5   0    0.77    0.35
   3   5   0    0.74    0.31
   4   6   0    0.25    0.39
   4   6   0    0.80    0.36
   6   3   0    0.25    0.37
   6   3   0    0.05    0.32
   6   3   0    0.23    0.31
  -5  -2   0    2.10    0.39
   5   2   0    2.83    0.47
   5   2   0    2.58    0.51
   5   2   0    3.34    0.59
  -4  -1   0    6.05    0.54
  -4  -1   0    6.05    0.66
   4   1   0    7.44    0.73
   4   1   0    6.68    0.68
   4   1   0    5.60    0.66
  -3   0   0    0.27    0.19
  -3   0   0    0.59    0.17
  -3   0   0    0.53    0.18
  -3   0   0    0.82    0.24
   3   0   0    0.59    0.21
   3   0   0    0.35    0.22
   3   0   0    0.95    0.23
  -2   1   0   -0.05    0.13
  -2   1   0   -0.20    0.12
  -2   1   0    0.06    0.08
  -2   1   0   -0.04    0.09
   2  -1   0    0.01    0.12
   2  -1   0   -0.07    0.18
  -1   2   0   37.56    1.94
  -1   2   0   39.87    2.07
   1  -2   0   39.34    1.92
   0   3   0   37.52    1.87
   0   3   0   34.37    2.00
   0   3   0   38.20    1.91
   1   4   0    3.53    0.48
   1   4   0    3.75    0.54
   1   4   0    3.52    0.48
   2   5   0    2.70    0.51
   2   5   0    2.86    0.54
   3   6   0    0.10    0.28
   3   6   0    0.42    0.38
   4   7   0    1.05    0.62
  -6  -2   0    1.28    0.39
   6   2   0    1.46    0.49
   6   2   0    1.84    0.57
   6   2   0    0.91    0.39
   5   1   0    2.04    0.39
   5   1   0    0.98    0.38
  -4   0   0    0.16    0.18
  -4   0   0    0.39    0.27
   4   0   0    0.67    0.29
   4   0   0    0.37    0.30
   4   0   0    0.42    0.26
  -3   1   0    0.69    0.16
  -3   1   0    0.55    0.23
  -3   1   0    0.67    0.18
  -3   1   0    0.76    0.26
   3  -1   0    0.50    0.29
  -2   2   0    4.32    0.41
  -2   2   0    4.06    0.41
  -2   2   0    5.46    0.57
   2  -2   0    4.75    0.57
  -1   3   0   16.10    1.01
  -1   3   0   16.59    1.09
   1  -3   0   13.43    0.94
   0   4   0    1.15    0.31
   0   4   0    0.88    0.31
   0   4   0    1.35    0.39
   1   5   0    4.15    0.60
   1   5   0    4.27    0.61
   1   5   0    3.69    0.60
   2   6   0    3.70    0.65
   2   6   0    3.45    0.64
   3   7   0    2.81    0.64
   3   7   0    3.51    0.68
  -6  -1   0    1.29    0.38
   6   1   0    1.35    0.49
   6   1   0    0.13    0.44
  -5   0   0   14.80    0.98
   5   0   0   16.43    1.12
   5   0   0   16.08    1.24
  -4   1   0   16.01    1.07
  -4   1   0   16.65    1.15
  -4   1   0   15.62    0.89
   4  -1   0   17.66    1.10
   4  -1   0   15.12    1.16
  -3   2   0   14.13    0.91
  -3   2   0   12.59    0.95
  -3   2   0   12.86    0.86
   3  -2   0   14.22    1.03
  -2   3   0   19.38    1.24
   2  -3   0   18.91    1.23
  -1   4   0   -0.01    0.25
   1  -4   0    0.01    0.24
   0   5   0    5.45    0.68
   0   5   0    6.20    0.78
   0   5   0    4.83    0.73
   0  -5   0    5.76    0.63
   1   6   0    6.43    0.90
   1   6   0    6.58    0.87
   1   6   0    5.72    0.77
   2   7   0    7.04    1.02
   2   7   0    6.95    1.06
  -5   1   0    1.24    0.29
  -5   1   0    1.26    0.48
  -5   1   0    1.26    0.45
   5  -1   0    1.59    0.46
   5  -1   0    1.40    0.53
  -4   2   0    0.74    0.32
  -4   2   0    0.81    0.36
   4  -2   0    0.65    0.38
   4  -2   0   -0.34    0.33
  -3   3   0   25.54    1.62
   3  -3   0   25.72    1.62
  -2   4   0    0.41    0.34
   2  -4   0    0.50    0.33
  -1   5   0    1.93    0.50
   1  -5   0    1.65    0.44
   0   6   0   10.58    1.24
   1   7   0    0.94    0.60
   1   7   0    2.24    0.66
  -4   3   0    0.72    0.53
  -4   3   0    0.81    0.40
  -4   3   0    0.65    0.33
   4  -3   0    1.38    0.53
  -3   4   0    2.05    0.62
   3  -4   0    1.36    0.49
  -2   5   0    1.42    0.56
   2  -5   0    1.80    0.51
  -1   6   0    0.17    0.47
   1  -6  -1    0.77    0.41
  -1   6   1    0.41    0.49
   2  -5  -1    1.84    0.54
  -2   5   1    1.48    0.62
   3  -4  -1    0.78    0.43
  -3   4   1    0.01    0.42
   4  -3  -1    1.62    0.58
  -4   3   1    1.63    0.45
  -4   3   1    2.31    0.66
  -4   3   1    1.12    0.39
   1   7   1    0.98    0.56
   1   7   1    1.32    0.63
   0   6   1    4.77    0.80
   1  -5  -1    0.15    0.31
  -1   5   1    0.74    0.40
   2  -4  -1    1.36    0.41
  -2   4   1    0.52    0.33
   3  -3  -1    2.00    0.49
  -3   3   1    0.95    0.37
   4  -2  -1    1.19    0.43
  -4   2   1    2.45    0.47
  -4   2   1    2.12    0.54
   5  -1  -1    0.55    0.37
   5  -1  -1   -0.14    0.37
  -5   1   1   -0.02    0.37
  -5   1   1    0.04    0.20
   2   7   1    0.91    0.49
   1   6   1   50.65    2.77
   1   6   1   49.01    2.74
   0   5   1   14.70    1.11
   1  -4  -1   -0.28    0.23
  -1   4   1    0.35    0.32
   2  -3  -1   22.10    1.37
  -2   3   1   21.94    1.36
   3  -2  -1   16.06    1.10
  -3   2   1   15.31    0.98
  -3   2   1   15.65    1.07
  -3   2   1   14.30    0.95
   4  -1  -1   15.42    1.14
   4  -1  -1   15.32    1.03
  -4   1   1   15.55    0.86
  -4   1   1   13.28    1.01
   5   0  -1    1.66    0.42
   5   0  -1    0.88    0.42
  -5   0   1    0.73    0.27
   6   1  -1   10.24    1.10
   6   1  -1    8.84    1.09
  -6  -1   1   10.87    0.89
   3   7   1    0.84    0.49
   3   7   1    0.61    0.42
   2   6   1    3.42    0.57
   2   6   1    3.85    0.64
   2   6   1    4.09    0.69
   1   5   1    1.84    0.44
   1   5   1    0.74    0.31
   1   5   1    0.68    0.35
   0   4   1    0.25    0.22
   0   4   1    0.17    0.25
   0   4   1    0.50    0.27
  -1   3   1   70.25    3.45
  -2   2   1    1.00    0.26
   3  -1  -1    5.81    0.68
   3  -1  -1    7.33    0.55
  -3   1   1    5.99    0.59
  -3   1   1    7.24    0.46
  -3   1   1    7.82    0.59
  -3   1   1    6.96    0.48
   4   0  -1    0.41    0.25
   4   0  -1    0.19    0.28
   4   0  -1    0.19    0.23
  -4   0   1    0.47    0.21
  -4   0   1    1.06    0.31
   5   1  -1   22.02    1.54
   5   1  -1   24.78    1.46
   5   1  -1   26.96    1.57
  -5  -1   1   25.33    1.40
   6   2  -1    0.53    0.43
   6   2  -1    0.36    0.47
   6   2  -1    0.85    0.36
  -6  -2   1    1.20    0.37
   4   7   1    0.38    0.51
   3   6   1    2.72    0.56
   3   6   1    3.25    0.62
   2   5   1    0.01    0.19
   2   5   1    0.38    0.29
   2   5   1    0.21    0.27
   1   4   1    0.53    0.23
   1   4   1    0.39    0.22
   1   4   1    0.17    0.23
   0   3   1    6.54    0.52
   0   3   1    6.16    0.61
   0   3   1    7.25    0.56
  -1   2   1   14.83    0.88
   2  -1  -1    1.16    0.28
   2  -1  -1    1.20    0.20
  -2   1   1    0.81    0.16
  -2   1   1    0.85    0.20
  -2   1   1    1.23    0.25
  -2   1   1    1.12    0.17
   3   0  -1   14.54    0.90
   3   0  -1   14.69    0.94
   3   0  -1   14.60    0.85
  -3   0   1   14.09    0.83
  -3   0   1   14.79    0.90
  -3   0   1   14.07    0.91
  -3   0   1   15.88    0.81
   4   1  -1    8.26    0.63
   4   1  -1    8.17    0.70
   4   1  -1    8.46    0.70
  -4  -1   1    7.54    0.61
  -4  -1   1    6.95    0.65
   5   2  -1    4.22    0.56
   5   2  -1    4.64    0.65
   5   2  -1    6.28    0.77
  -5  -2   1    4.57    0.61
   6   3  -1    1.79    0.56
   6   3  -1    0.31    0.32
   6   3  -1    0.20    0.38
   4   6   1    4.78    0.80
   3   5   1    0.51    0.33
   3   5   1    0.28    0.28
   2   4   1   10.04    0.77
   2   4   1    9.31    0.74
   1   3   1   47.71    2.61
   1   3   1   55.11    2.51
   1   3   1   51.33    2.55
   0   2   1    0.78    0.18
   0   2   1    0.14    0.17
   0   2   1    0.25    0.15
  -1   1   1   19.15    0.86
  -1   1   1   18.56    0.85
  -1   1   1   18.04    0.94
  -1   1   1   19.80    0.94
   2   0  -1    7.56    0.54
   2   0  -1    7.60    0.53
   2   0  -1    7.59    0.48
  -2   0   1    7.17    0.47
  -2   0   1    7.64    0.53
  -2   0   1    7.72    0.46
  -2   0   1    7.31    0.51
   3   1  -1    1.24    0.29
   3   1  -1    0.86    0.24
   3   1  -1    1.35    0.27
   3   1  -1    1.53    0.28
  -3  -1   1    0.99    0.21
  -3  -1   1    0.59    0.22
   4   2  -1    1.84    0.36
   4   2  -1    1.77    0.33
   4   2  -1    1.55    0.40
   4   2  -1    1.92    0.36
   4   2  -1    1.56    0.24
  -4  -2   1    1.85    0.34
   5   3  -1    2.68    0.49
   5   3  -1    3.13    0.45
   5   3  -1    3.25    0.56
   6   4  -1   -0.29    0.19
   6   4  -1    0.25    0.39
   6   4  -1    0.32    0.36
   5   6   1    0.29    0.31
   5   6   1    0.73    0.50
   5   6   1    0.56    0.32
   4   5   1    0.98    0.40
   4   5   1    2.43    0.40
   4   5   1    1.90    0.34
   3   4   1    1.55    0.28
   3   4   1    1.47    0.27
   3   4   1    1.87    0.40
   3   4   1    1.00    0.22
   3   4   1    1.36    0.29
   2   3   1    9.01    0.50
   2   3   1    8.93    0.64
   2   3   1    8.26    0.52
   2   3   1    8.29    0.52
   2   3   1    7.25    0.57
   1   2   1    4.90    0.35
   1   2   1    4.26    0.39
   1   2   1    4.44    0.43
   0   1   1   29.17    1.51
   0   1   1   31.49    1.46
   0   1   1   31.31    1.44
   1   0  -1  319.60   14.34
   1   0  -1  326.07   14.17
   1   0  -1  336.57   13.61
  -1   0   1  324.28   14.34
  -1   0   1  307.57   13.60
  -1   0   1  311.55   13.61
  -1   0   1  323.65   14.34
   2   1  -1    8.62    0.57
   2   1  -1    8.43    0.57
   2   1  -1    9.16    0.53
   2   1  -1    9.03    0.59
   2   1  -1    9.05    0.56
  -2  -1   1    9.33    0.53
  -2  -1   1    9.44    0.58
   3   2  -1   10.86    0.72
   3   2  -1   10.99    0.74
   3   2  -1   10.56    0.66
   3   2  -1   10.97    0.80
   3   2  -1   11.66    0.65
   3   2  -1   11.20    0.69
   3   2  -1   11.20    0.64
  -3  -2   1   11.08    0.68
   4   3  -1    1.83    0.38
   4   3  -1    1.83    0.32
   4   3  -1    3.17    0.44
   4   3  -1    2.06    0.28
   4   3  -1    2.62    0.48
   4   3  -1    1.63    0.39
  -4  -3   1    2.48    0.38
   5   4  -1   19.81    1.35
   5   4  -1   18.78    1.22
   5   4  -1   18.99    1.14
   5   4  -1   16.15    1.01
   6   5  -1    2.64    0.73
   5   5   1    2.61    0.61
   5   5   1    2.32    0.48
   4   4   1   19.82    1.18
   4   4   1   18.94    0.98
   4   4   1   18.60    0.99
   4   4   1   19.69    1.18
   4   4   1   20.31    1.11
  -3  -3  -1   16.60    0.88
   3   3   1   17.11    0.94
   3   3   1   15.32    0.87
   3   3   1   15.07    0.88
   3   3   1   17.15    1.04
   3   3   1   15.65    0.81
   3   3   1   15.27    0.81
  -2  -2  -1    0.84    0.16
   2   2   1    0.74    0.17
   2   2   1    0.58    0.19
   2   2   1    0.50    0.14
   2   2   1    0.67    0.14
   2   2   1    0.52    0.20
   2   2   1    0.52    0.14
   2   2   1    0.83    0.19
  -1  -1  -1    4.38    0.27
   1   1   1    4.15    0.30
   1   1   1    4.25    0.29
   1   1   1    4.76    0.27
   1   1   1    5.02    0.31
   1   1   1    4.34    0.26
   1   1   1    4.10    0.31
   1   1  -1   10.82    0.59
   1   1  -1   11.37    0.55
   1   1  -1   11.08    0.54
   1   1  -1   11.46    0.59
   1   1  -1   11.10    0.59
   1   1  -1   10.92    0.62
   1   1  -1   11.40    0.53
  -1  -1   1   11.34    0.54
   2   2  -1    9.84    0.60
   2   2  -1    9.91    0.53
   2   2  -1    9.61    0.54
   2   2  -1   10.99    0.61
   2   2  -1   11.28    0.63
   2   2  -1    9.75    0.55
   2   2  -1    9.64    0.66
  -2  -2   1    9.04    0.55
   3   3  -1   10.47    0.68
   3   3  -1   10.69    0.58
   3   3  -1   10.88    0.79
   3   3  -1   11.12    0.72
   3   3  -1    9.67    0.66
   3   3  -1   10.62    0.58
   3   3  -1   10.32    0.63
  -3  -3   1   10.56    0.65
   4   4  -1   11.41    0.67
   4   4  -1    8.17    0.67
   5   5  -1    2.68    0.51
   5   5  -1    2.06    0.53
   6   5   1    0.94    0.32
   6   5   1    1.49    0.55
   5   4   1    0.38    0.28
   5   4   1    0.04    0.31
   5   4   1    0.04    0.17
   5   4   1    0.00    0.26
  -4  -3  -1   69.44    3.22
   4   3   1   64.09    3.39
   4   3   1   70.49    3.34
   4   3   1   69.51    3.40
   4   3   1   72.78    3.19
   4   3   1   71.47    3.52
  -3  -2  -1   -0.04    0.14
  -3  -2  -1    0.06    0.18
   3   2   1   -0.19    0.15
   3   2   1   -0.05    0.11
   3   2   1    0.03    0.18
   3   2   1   -0.04    0.16
   3   2   1    0.13    0.16
   3   2   1    0.07    0.13
  -2  -1  -1    5.65    0.40
  -2  -1  -1    5.87    0.45
   2   1   1    5.44    0.43
   2   1   1    6.04    0.46
   2   1   1    5.79    0.40
   2   1   1    6.60    0.45
   2   1   1    5.85    0.43
  -1   0  -1  339.70   14.25
  -1   0  -1  332.82   15.02
  -1   0  -1  339.54   15.52
  -1   0  -1  306.90   14.25
  -1   0  -1  330.41   15.02
   1   0   1  340.42   15.15
   1   0   1  355.19   14.85
   1   0   1  350.87   15.02
   1   0   1  333.82   14.26
   0   1  -1    1.85    0.18
   0   1  -1    1.71    0.20
   0   1  -1    1.74    0.21
   0  -1   1    1.91    0.16
   1   2  -1   22.91    1.20
   1   2  -1   25.64    1.18
   1   2  -1   21.00    1.22
   2   3  -1    3.66    0.26
   2   3  -1    3.72    0.41
   2   3  -1    3.56    0.45
   3   4  -1   76.96    3.51
   3   4  -1   80.21    3.52
   3   4  -1   73.13    3.40
   3   4  -1   77.28    3.75
   3   4  -1   67.00    3.69
   4   5  -1   12.67    1.01
   4   5  -1   12.08    0.91
   4   5  -1   11.07    0.82
   4   5  -1   13.46    0.86
   5   6  -1    1.34    0.55
   5   6  -1    0.59    0.36
   5   6  -1    0.79    0.31
   6   4   1    0.45    0.43
   6   4   1    1.41    0.48
   6   4   1    0.42    0.27
   5   3   1    2.11    0.48
   5   3   1    1.44    0.38
  -4  -2  -1   -0.06    0.19
   4   2   1    0.00    0.22
   4   2   1   -0.06    0.23
   4   2   1   -0.06    0.16
   4   2   1    0.16    0.20
  -3  -1  -1   13.08    0.82
  -3  -1  -1   13.42    0.78
  -3  -1  -1   13.44    0.85
   3   1   1   13.62    0.84
   3   1   1   12.51    0.77
   3   1   1   12.83    0.83
   3   1   1   13.61    0.84
  -2   0  -1   36.34    1.73
  -2   0  -1   39.62    1.86
  -2   0  -1   40.48    1.74
  -2   0  -1   39.19    1.86
   2   0   1   37.71    1.88
   2   0   1   36.55    1.84
   2   0   1   36.56    1.75
  -1   1  -1    1.87    0.22
  -1   1  -1    1.53    0.22
  -1   1  -1    1.09    0.17
  -1   1  -1    1.49    0.24
   1  -1   1    1.45    0.23
   0   2  -1   11.01    0.75
   0   2  -1   12.11    0.70
   0   2  -1   11.54    0.66
   1   3  -1    8.28    0.68
   1   3  -1    9.29    0.65
   1   3  -1    9.90    0.64
   2   4  -1   11.25    0.84
   2   4  -1   10.13    0.79
   3   5  -1    1.03    0.35
   3   5  -1    0.77    0.38
   4   6  -1    0.51    0.34
   4   6  -1    0.06    0.37
   6   3   1    1.26    0.46
   6   3   1    0.39    0.39
   6   3   1    1.22    0.51
  -5  -2  -1   10.80    0.81
   5   2   1    8.90    0.77
   5   2   1   10.03    0.87
   5   2   1   11.53    0.89
  -4  -1  -1    4.37    0.56
  -4  -1  -1    4.25    0.50
   4   1   1    4.73    0.59
   4   1   1    4.73    0.57
   4   1   1    4.81    0.58
  -3   0  -1    0.90    0.20
  -3   0  -1    0.81    0.18
  -3   0  -1    0.71    0.25
  -3   0  -1    0.78    0.24
   3   0   1    1.10    0.30
   3   0   1    1.51    0.27
   3   0   1    1.41    0.27
  -2   1  -1    3.57    0.40
  -2   1  -1    2.57    0.32
  -2   1  -1    2.91    0.24
  -2   1  -1    2.62    0.33
  -2   1  -1    2.92    0.23
   2  -1   1    2.60    0.37
   2  -1   1    3.22    0.35
  -1   2  -1    7.48    0.63
  -1   2  -1    6.80    0.53
   1  -2   1    6.70    0.53
   0   3  -1    0.88    0.21
   0   3  -1    0.65    0.22
   0   3  -1    0.53    0.25
   1   4  -1    8.48    0.67
   1   4  -1    8.62    0.67
   1   4  -1    7.15    0.72
   2   5  -1    0.64    0.32
   2   5  -1    0.72    0.35
   3   6  -1   -0.10    0.27
   3   6  -1   -0.05    0.31
   4   7  -1    0.72    0.42
   4   7  -1    0.50    0.56
  -6  -2  -1    0.69    0.33
   6   2   1    1.45    0.38
   6   2   1    1.02    0.46
   6   2   1    1.12    0.46
  -5  -1  -1    1.44    0.33
   5   1   1    2.23    0.50
   5   1   1    3.71    0.59
   5   1   1    1.71    0.47
  -4   0  -1   18.46    1.20
  -4   0  -1   20.59    1.10
   4   0   1   18.84    1.26
   4   0   1   20.05    1.20
  -3   1  -1    2.58    0.39
  -3   1  -1    2.44    0.30
  -3   1  -1    3.06    0.46
  -3   1  -1    3.72    0.47
  -3   1  -1    3.29    0.32
   3  -1   1    3.06    0.50
  -2   2  -1    0.06    0.14
  -2   2  -1    0.32    0.21
  -2   2  -1    0.02    0.14
   2  -2   1    0.42    0.25
  -1   3  -1   24.66    1.45
  -1   3  -1   26.34    1.57
   1  -3   1   24.70    1.38
   0   4  -1    0.43    0.29
   0   4  -1    0.87    0.29
   0   4  -1    0.28    0.23
   0  -4   1    0.38    0.23
   1   5  -1    3.71    0.58
   1   5  -1    3.14    0.58
   1   5  -1    3.77    0.57
   2   6  -1    0.93    0.41
   2   6  -1    0.75    0.40
   3   7  -1   19.91    1.55
   3   7  -1   21.27    1.56
  -6  -1  -1    0.41    0.33
   6   1   1    0.62    0.48
   6   1   1    0.34    0.42
  -5   0  -1    3.30    0.46
   5   0   1    4.39    0.60
   5   0   1    3.37    0.60
  -4   1  -1   13.93    0.87
  -4   1  -1   16.64    1.09
  -4   1  -1   17.64    1.16
   4  -1   1   16.20    1.18
   4  -1   1   18.50    1.10
  -3   2  -1   19.99    1.18
  -3   2  -1   21.10    1.30
  -3   2  -1   19.41    1.16
   3  -2   1   20.91    1.33
  -2   3  -1   22.45    1.38
   2  -3   1   21.23    1.34
  -1   4  -1    1.87    0.41
  -1   4  -1    1.25    0.40
   1  -4   1    1.26    0.35
   0   5  -1    1.38    0.38
   0   5  -1    1.53    0.42
   0   5  -1    1.43    0.39
   0  -5   1    0.64    0.31
   1   6  -1    2.14    0.58
   1   6  -1    1.78    0.48
   1   6  -1    2.20    0.54
   2   7  -1    9.00    1.17
   2   7  -1    9.59    1.12
  -5   1  -1    0.80    0.24
  -5   1  -1    1.58    0.49
  -5   1  -1    2.09    0.57
   5  -1   1    1.25    0.49
  -4   2  -1    0.23    0.29
  -4   2  -1    0.39    0.37
  -4   2  -1    0.06    0.28
   4  -2   1    0.18    0.29
   4  -2   1   -0.20    0.27
  -3   3  -1    1.53    0.41
   3  -3   1    0.57    0.33
  -2   4  -1   19.43    1.39
   2  -4   1   19.86    1.31
  -1   5  -1    0.95    0.39
   1  -5   1    1.13    0.39
   0   6  -1    7.29    1.03
   0   6  -1    6.45    0.96
   1   7  -1    1.05    0.56
   1   7  -1   -0.09    0.48
   1   7  -1   -0.24    0.45
  -4   3  -1    3.52    0.59
  -4   3  -1    4.33    0.80
   4  -3   1    3.78    0.77
  -3   4  -1   -0.52    0.37
   3  -4   1    0.23    0.38
  -2   5  -1    2.77    0.74
   2  -5   1    2.13    0.53
  -1   6  -1    0.69    0.48
   1  -6  -2   -0.14    0.39
  -1   6   2    0.39    0.50
   2  -5  -2    0.36    0.38
  -2   5   2    0.97    0.47
   3  -4  -2    0.47    0.45
  -3   4   2    0.26    0.43
   4  -3  -2    0.12    0.48
  -4   3   2    1.76    0.61
  -4   3   2    1.32    0.42
  -4   3   2    0.93    0.38
   1   7   2    0.57    0.53
   0  -6  -2    9.68    0.84
   0   6   2   10.48    1.18
   1  -5  -2    0.12    0.30
  -1   5   2    0.77    0.39
   2  -4  -2    2.31    0.47
  -2   4   2    2.97    0.60
   3  -3  -2    0.51    0.34
  -3   3   2    0.96    0.29
  -3   3   2    0.48    0.26
  -3   3   2    1.09    0.36
   4  -2  -2   10.41    1.09
  -4   2   2    8.36    0.89
  -4   2   2    9.51    1.01
   5  -1  -2    0.12    0.39
   5  -1  -2   -0.32    0.29
  -5   1   2   -0.04    0.19
  -5   1   2    0.21    0.38
   2   7   2    0.00    0.33
   2   7   2    0.14    0.45
   1   6   2    6.49    0.86
   1   6   2    7.23    0.90
   0   5   2    8.89    0.81
  -1   4   2    0.19    0.29
   2  -3  -2   20.06    1.26
  -2   3   2   19.77    1.26
   3  -2  -2   10.49    0.89
  -3   2   2   11.46    0.80
  -3   2   2   10.77    0.80
  -3   2   2   10.37    0.86
   4  -1  -2    6.17    0.70
   4  -1  -2    5.72    0.75
  -4   1   2    5.22    0.62
  -4   1   2    4.43    0.48
   5   0  -2    0.29    0.39
   5   0  -2    0.62    0.37
  -5   0   2    0.68    0.29
   6   1  -2   11.21    1.18
   6   1  -2    7.95    1.04
  -6  -1   2   10.57    0.89
   3   7   2   -0.13    0.41
   2   6   2   25.24    1.58
   2   6   2   27.51    1.70
   1   5   2    0.97    0.37
   1   5   2    0.51    0.29
   1   5   2    0.83    0.31
   0   4   2    0.43    0.26
   0   4   2    0.35    0.25
  -1   3   2   17.12    1.07
   2  -2  -2   43.27    2.14
  -2   2   2   39.03    2.01
  -2   2   2   42.69    2.14
  -2   2   2   40.31    2.03
   3  -1  -2   22.08    1.35
   3  -1  -2   21.00    1.19
  -3   1   2   21.70    1.25
  -3   1   2   22.42    1.29
  -3   1   2   23.84    1.14
  -3   1   2   23.62    1.12
   4   0  -2    8.78    0.74
   4   0  -2   10.08    0.80
   4   0  -2    9.18    0.80
  -4   0   2    9.07    0.67
  -4   0   2   10.31    0.79
   5   1  -2   24.77    1.50
   5   1  -2   20.84    1.37
   5   1  -2   21.86    1.48
  -5  -1   2   24.42    1.34
   6   2  -2    0.02    0.35
   6   2  -2    0.25    0.38
   6   2  -2    0.14    0.29
  -6  -2   2    0.08    0.27
   4   7   2    0.25    0.51
   3   6   2   20.27    1.37
   3   6   2   19.34    1.40
   2   5   2    1.59    0.35
   2   5   2    1.57    0.42
   2   5   2    0.75    0.34
   1   4   2    4.12    0.58
   1   4   2    5.56    0.58
   1   4   2    4.93    0.59
   0   3   2    1.33    0.28
   0   3   2    0.97    0.26
  -1   2   2   38.94    1.95
   2  -1  -2    0.26    0.15
   2  -1  -2    0.47    0.22
  -2   1   2    0.30    0.17
  -2   1   2    0.20    0.13
  -2   1   2    0.56    0.13
  -2   1   2    0.64    0.19
   3   0  -2   12.17    0.78
   3   0  -2   10.80    0.70
   3   0  -2   12.23    0.80
  -3   0   2   10.91    0.75
  -3   0   2   11.86    0.79
  -3   0   2   11.15    0.70
  -3   0   2   11.09    0.66
   4   1  -2   13.47    0.93
   4   1  -2   10.56    0.86
   4   1  -2   13.77    0.85
  -4  -1   2   12.09    0.82
  -4  -1   2   14.45    0.94
   5   2  -2    0.34    0.31
   5   2  -2   -0.27    0.20
   5   2  -2    0.65    0.35
  -5  -2   2    0.55    0.30
   6   3  -2    0.61    0.47
   6   3  -2    0.59    0.38
   6   3  -2    1.24    0.36
   4   6   2    2.96    0.63
   3   5   2   -0.31    0.23
   3   5   2    0.18    0.21
   2   4   2    0.99    0.29
   2   4   2    1.21    0.33
   1   3   2   21.92    1.10
   1   3   2   19.47    1.13
   1   3   2   18.28    1.16
   0   2   2   11.78    0.69
   0   2   2   12.04    0.71
  -1   1   2    4.81    0.35
  -1   1   2    4.65    0.27
  -1   1   2    4.88    0.29
  -1   1   2    4.66    0.35
   2   0  -2    8.76    0.56
   2   0  -2    7.60    0.48
   2   0  -2    7.39    0.52
  -2   0   2    8.28    0.54
  -2   0   2    9.02    0.54
  -2   0   2    6.95    0.48
  -2   0   2    7.04    0.46
   3   1  -2    2.01    0.30
   3   1  -2    1.86    0.33
   3   1  -2    2.10    0.35
   3   1  -2    2.12    0.34
   3   1  -2    2.03    0.37
  -3  -1   2    1.72    0.28
  -3  -1   2    2.18    0.35
   4   2  -2    4.87    0.57
   4   2  -2    6.03    0.52
   4   2  -2    5.01    0.62
   4   2  -2    5.24    0.60
  -4  -2   2    3.53    0.46
   5   3  -2   11.90    0.79
   5   3  -2   10.17    0.94
   5   3  -2   10.73    0.84
   6   4  -2    1.11    0.50
   6   4  -2    0.93    0.34
   5   6   2    6.63    0.77
   5   6   2    6.50    1.00
   5   6   2    5.63    0.72
   4   5   2    0.16    0.31
   4   5   2    0.10    0.22
   4   5   2    0.80    0.27
   4   5   2    0.46    0.24
   3   4   2    0.44    0.20
   3   4   2    0.40    0.28
   3   4   2    0.27    0.18
   2   3   2   42.96    2.07
   2   3   2   41.52    2.06
   2   3   2   45.70    2.05
   2   3   2   43.16    2.18
   2   3   2   43.16    2.21
   1   2   2    0.44    0.19
   1   2   2    0.25    0.13
   1   2   2    0.18    0.10
   1   2   2    0.46    0.12
   1   2   2    0.30    0.14
   0   1   2    4.11    0.25
   0   1   2    3.95    0.25
   0   1   2    3.69    0.27
   0   1   2    3.81    0.21
   0   1   2    3.93    0.30
   1   0  -2   -0.06    0.11
   1   0  -2    0.10    0.09
  -1   0   2    0.09    0.11
  -1   0   2    0.02    0.08
  -1   0   2    0.16    0.11
  -1   0   2    0.03    0.10
   2   1  -2   80.21    3.64
   2   1  -2   81.48    3.78
   2   1  -2   80.45    3.84
   2   1  -2   82.79    3.92
   2   1  -2   86.33    3.84
  -2  -1   2   86.68    3.85
  -2  -1   2   83.72    3.64
   3   2  -2    7.16    0.56
   3   2  -2    7.48    0.51
   3   2  -2    7.68    0.51
   3   2  -2    7.05    0.61
   3   2  -2    7.07    0.48
   3   2  -2    7.55    0.54
   3   2  -2    6.56    0.53
  -3  -2   2    6.50    0.50
   4   3  -2    0.30    0.18
   4   3  -2    0.14    0.28
   4   3  -2    0.56    0.23
   4   3  -2    0.15    0.18
   4   3  -2    0.21    0.26
   4   3  -2    0.56    0.28
   5   4  -2    5.18    0.79
   5   4  -2    4.13    0.59
   5   4  -2    3.82    0.53
   5   4  -2    3.16    0.41
   6   5  -2    1.55    0.72
   5   5   2    1.75    0.41
   5   5   2    2.81    0.52
   5   5   2    2.96    0.61
   4   4   2   26.85    1.62
   4   4   2   27.34    1.52
   4   4   2   28.81    1.52
   4   4   2   25.38    1.43
   4   4   2   26.63    1.30
   4   4   2   25.24    1.30
  -3  -3  -2   93.27    4.09
   3   3   2   92.75    4.31
   3   3   2   91.68    4.23
   3   3   2   92.05    4.03
   3   3   2   91.15    4.34
   3   3   2   91.55    4.44
   3   3   2   91.31    4.02
   3   3   2   92.37    4.31
  -2  -2  -2    0.29    0.16
   2   2   2    0.26    0.12
   2   2   2    0.41    0.11
   2   2   2    0.07    0.15
   2   2   2    0.46    0.17
   2   2   2    0.30    0.16
   2   2   2    0.40    0.13
   2   2   2    0.25    0.18
  -1  -1  -2   21.30    1.03
  -1  -1  -2   22.17    1.10
   1   1   2   22.09    1.10
   1   1   2   24.69    1.11
   1   1   2   24.19    1.12
   1   1   2   23.24    1.09
   1   1   2   21.39    1.03
   0   0  -2    0.05    0.06
   0   0  -2    0.07    0.06
   0   0  -2   -0.03    0.04
   0   0   2    0.15    0.06
   0   0   2    0.08    0.06
   0   0   2    0.05    0.05
   1   1  -2  190.27    8.55
   1   1  -2  204.19    8.69
   1   1  -2  184.71    9.01
   1   1  -2  191.47    8.24
   1   1  -2  201.71    8.24
   1   1  -2  190.66    8.69
   1   1  -2  187.86    8.82
  -1  -1   2  202.31    8.25
   2   2  -2   16.23    0.93
   2   2  -2   15.74    0.86
   2   2  -2   15.64    0.84
   2   2  -2   15.30    0.74
   2   2  -2   14.66    0.77
   2   2  -2   15.18    0.75
   2   2  -2   15.29    0.83
  -2  -2   2   15.03    0.77
   3   3  -2   -0.05    0.10
   3   3  -2   -0.14    0.18
   3   3  -2    0.06    0.11
   3   3  -2    0.02    0.12
   3   3  -2    0.06    0.14
   3   3  -2    0.33    0.25
   3   3  -2   -0.07    0.15
  -3  -3   2   -0.06    0.12
   4   4  -2   56.87    2.69
   4   4  -2   52.47    2.54
   4   4  -2   52.39    2.85
   4   4  -2   53.11    2.66
   4   4  -2   52.84    2.72
   5   5  -2    0.77    0.33
   5   5  -2    1.87    0.52
   6   5   2    0.35    0.26
   6   5   2   -0.30    0.39
   5   4   2    0.83    0.35
   5   4   2    1.51    0.39
   5   4   2    0.10    0.18
   5   4   2    0.82    0.37
  -4  -3  -2    5.17    0.55
  -3  -2  -2   19.40    1.03
  -3  -2  -2   20.46    1.12
   3   2   2   18.40    1.09
   3   2   2   20.31    1.11
   3   2   2   18.78    1.00
   3   2   2   19.14    1.13
   3   2   2   19.98    1.09
   3   2   2   18.62    1.02
  -2  -1  -2    5.23    0.38
  -2  -1  -2    6.11    0.45
   2   1   2    5.60    0.43
   2   1   2    5.47    0.44
   2   1   2    5.23    0.42
   2   1   2    5.54    0.39
   2   1   2    5.88    0.45
  -1   0  -2    4.03    0.28
  -1   0  -2    4.87    0.33
  -1   0  -2    4.66    0.30
  -1   0  -2    3.97    0.30
  -1   0  -2    4.99    0.35
   1   0   2    4.52    0.34
   1   0   2    4.50    0.33
   1   0   2    4.34    0.30
   1   0   2    4.26    0.26
   0   1  -2   19.55    0.96
   0   1  -2   17.86    1.00
   0   1  -2   19.68    0.93
   0  -1   2   19.80    0.91
   1   2  -2    2.99    0.33
   1   2  -2    2.81    0.31
   2   3  -2    3.09    0.39
   2   3  -2    3.06    0.40
   3   4  -2    0.93    0.25
   3   4  -2    1.05    0.23
   3   4  -2    0.84    0.32
   4   5  -2    9.73    0.80
   4   5  -2    8.44    0.68
   4   5  -2    8.65    0.69
   5   6  -2    1.59    0.63
   6   4   2    2.62    0.59
   6   4   2    1.45    0.39
   6   4   2    2.01    0.56
   5   3   2   17.99    1.21
   5   3   2   19.09    1.26
   5   3   2   17.51    1.11
  -4  -2  -2    4.35    0.53
   4   2   2    3.89    0.52
   4   2   2    3.92    0.53
   4   2   2    2.96    0.39
  -3  -1  -2   21.42    1.20
  -3  -1  -2   21.67    1.10
  -3  -1  -2   21.15    1.20
   3   1   2   22.97    1.20
   3   1   2   20.17    1.18
   3   1   2   21.50    1.12
   3   1   2   19.75    1.18
  -2   0  -2   12.28    0.65
  -2   0  -2   12.97    0.73
  -2   0  -2   11.77    0.72
  -2   0  -2   12.22    0.65
   2   0   2   11.98    0.76
   2   0   2   11.60    0.66
   2   0   2   12.07    0.68
  -1   1  -2  145.64    6.79
  -1   1  -2  143.76    6.49
  -1   1  -2  138.74    6.48
  -1   1  -2  145.42    6.54
   1  -1   2  146.83    6.47
   0   2  -2   15.89    0.95
   0   2  -2   15.82    0.84
   0   2  -2   14.67    0.87
   0  -2   2   16.15    0.80
   1   3  -2   -0.13    0.16
   1   3  -2   -0.01    0.14
   1   3  -2    0.06    0.15
   2   4  -2    8.99    0.75
   2   4  -2    9.40    0.74
   3   5  -2   -0.02    0.28
   3   5  -2   -0.24    0.23
   4   6  -2    0.38    0.43
   4   6  -2    0.32    0.30
   6   3   2   -0.35    0.33
   6   3   2    0.13    0.30
   6   3   2    0.77    0.43
  -5  -2  -2    3.28    0.54
   5   2   2    6.00    0.72
   5   2   2    3.62    0.53
   5   2   2    3.65    0.58
  -4  -1  -2    3.38    0.49
  -4  -1  -2    3.26    0.41
   4   1   2    4.02    0.46
   4   1   2    3.69    0.50
   4   1   2    2.74    0.46
  -3   0  -2    0.06    0.14
  -3   0  -2    0.24    0.13
  -3   0  -2    0.10    0.18
  -3   0  -2    0.14    0.18
   3   0   2    0.34    0.22
   3   0   2    0.21    0.15
   3   0   2    0.18    0.16
  -2   1  -2    6.13    0.49
  -2   1  -2    5.72    0.45
  -2   1  -2    5.25    0.33
  -2   1  -2    5.34    0.44
  -2   1  -2    5.05    0.33
  -2   1  -2    5.92    0.45
   2  -1   2    5.55    0.50
  -1   2  -2   13.30    0.89
  -1   2  -2   12.17    0.81
   1  -2   2   14.08    0.81
   0   3  -2   -0.04    0.17
   0   3  -2   -0.18    0.13
   0   3  -2    0.15    0.18
   0  -3   2    0.08    0.15
   1   4  -2   14.69    0.97
   1   4  -2   14.43    0.96
   1   4  -2   15.88    1.08
  -1  -4   2   14.48    0.77
   2   5  -2    4.49    0.64
   2   5  -2    4.32    0.65
   3   6  -2    0.13    0.29
   3   6  -2   -0.41    0.29
   4   7  -2    3.24    0.81
   4   7  -2    3.85    0.72
  -6  -2  -2    0.93    0.38
   6   2   2    0.57    0.43
   6   2   2    1.53    0.43
   6   2   2    0.68    0.41
  -5  -1  -2    1.69    0.38
   5   1   2    1.45    0.40
   5   1   2    1.89    0.49
   5   1   2    1.28    0.42
  -4   0  -2    0.19    0.24
  -4   0  -2    0.75    0.24
   4   0   2    1.72    0.34
   4   0   2    1.20    0.39
  -3   1  -2    9.50    0.69
  -3   1  -2    8.81    0.69
  -3   1  -2    9.36    0.72
  -3   1  -2    9.41    0.55
  -3   1  -2    9.03    0.55
   3  -1   2    9.93    0.79
   3  -1   2   10.30    0.66
  -2   2  -2    0.75    0.20
  -2   2  -2    0.91    0.22
  -2   2  -2    0.73    0.27
  -2   2  -2    1.07    0.28
   2  -2   2    0.82    0.28
  -1   3  -2    6.32    0.67
  -1   3  -2    6.25    0.70
   1  -3   2    5.79    0.59
   0   4  -2    0.22    0.20
   0   4  -2   -0.12    0.23
   0   4  -2   -0.11    0.19
   0  -4   2    0.26    0.21
   1   5  -2    2.85    0.50
   1   5  -2    2.46    0.55
   1   5  -2    1.74    0.46
   2   6  -2    0.39    0.34
   2   6  -2    0.07    0.32
   3   7  -2    0.31    0.46
   3   7  -2    0.46    0.40
  -6  -1  -2   -0.17    0.29
   6   1   2   -0.48    0.42
  -5   0  -2   27.34    1.46
   5   0   2   27.40    1.61
   5   0   2   25.64    1.69
  -4   1  -2    0.68    0.19
  -4   1  -2    0.39    0.26
  -4   1  -2    1.22    0.36
   4  -1   2    1.45    0.40
   4  -1   2    1.70    0.34
  -3   2  -2   10.25    0.73
  -3   2  -2    9.61    0.72
  -3   2  -2    9.41    0.79
   3  -2   2   10.83    0.86
  -2   3  -2    0.23    0.25
   2  -3   2    0.88    0.33
  -1   4  -2   54.69    2.96
  -1   4  -2   49.46    2.76
   1  -4   2   53.25    2.65
   0   5  -2   -0.27    0.23
   0   5  -2   -0.15    0.24
   0   5  -2    0.23    0.28
   0  -5   2    0.17    0.26
   1   6  -2    0.07    0.32
   1   6  -2   -0.25    0.27
   1   6  -2   -0.05    0.30
   2   7  -2    8.18    1.10
   2   7  -2    8.39    1.10
  -5   1  -2    3.88    0.70
  -5   1  -2    3.50    0.65
   5  -1   2    4.18    0.73
  -4   2  -2    5.71    0.69
  -4   2  -2    6.03    0.72
  -4   2  -2    6.28    0.79
   4  -2   2    5.69    0.80
  -3   3  -2    3.82    0.65
   3  -3   2    3.99    0.64
  -2   4  -2    1.30    0.43
   2  -4   2    1.82    0.44
  -1   5  -2    0.21    0.29
  -1   5  -2    0.11    0.40
   1  -5   2   -0.07    0.28
   0   6  -2    9.17    1.15
   0   6  -2    9.06    1.08
   1   7  -2   18.74    1.68
  -4   3  -2    3.49    0.76
   4  -3   2    2.44    0.68
  -3   4  -2    3.79    0.76
   3  -4   2    1.60    0.53
  -2   5  -2    0.47    0.44
   2  -5   2    1.71    0.48
  -1   6  -2   -0.10    0.47
   1  -6  -3   -0.12    0.35
  -1   6   3    0.39    0.52
   2  -5  -3    0.90    0.42
  -2   5   3    0.64    0.50
   3  -4  -3    0.56    0.44
  -3   4   3    0.61    0.46
   4  -3  -3    4.07    0.80
  -4   3   3    3.00    0.56
  -4   3   3    5.16    0.84
   1   7   3   -0.16    0.43
   0   6   3    1.99    0.56
  -1   5   3    1.23    0.45
   2  -4  -3    1.56    0.42
  -2   4   3    1.63    0.47
   3  -3  -3    2.79    0.57
  -3   3   3    2.17    0.41
  -3   3   3    2.31    0.51
  -3   3   3    2.39    0.42
   4  -2  -3    7.08    0.90
  -4   2   3    6.67    0.78
  -4   2   3    6.61    0.85
   5  -1  -3   -0.21    0.38
   5  -1  -3    0.35    0.38
  -5   1   3   -0.17    0.19
  -5   1   3   -0.19    0.35
   2   7   3    1.24    0.45
   2   7   3    1.25    0.54
   1   6   3    2.79    0.61
   1   6   3    3.24    0.62
   0   5   3   18.10    1.24
  -1   4   3    0.61    0.34
   2  -3  -3    2.36    0.45
  -2   3   3    2.44    0.44
   3  -2  -3   32.57    1.82
  -3   2   3   29.09    1.78
  -3   2   3   31.54    1.69
  -3   2   3   30.58    1.69
   4  -1  -3    0.04    0.32
   4  -1  -3   -0.08    0.30
  -4   1   3    0.11    0.25
  -4   1   3    0.25    0.18
   5   0  -3    2.00    0.47
   5   0  -3    0.95    0.42
  -5   0   3    0.46    0.26
   6   1  -3    6.93    0.97
   6   1  -3    6.86    0.95
  -6  -1   3    7.91    0.82
   3   7   3    0.90    0.51
   2   6   3    1.87    0.50
   2   6   3    1.35    0.40
   0   4   3    2.13    0.42
  -1   3   3    2.16    0.37
   3  -1  -3   21.92    1.25
   3  -1  -3   24.16    1.42
  -3   1   3   27.89    1.35
  -3   1   3   22.34    1.18
  -3   1   3   23.79    1.20
  -3   1   3   24.15    1.35
   4   0  -3   13.06    0.96
   4   0  -3   13.28    0.89
   4   0  -3   12.75    0.97
  -4   0   3   12.75    0.94
  -4   0   3   13.36    0.84
   5   1  -3   10.94    1.03
   5   1  -3    9.28    0.99
   5   1  -3    9.53    0.85
  -5  -1   3    9.30    0.77
   6   2  -3    0.52    0.44
   6   2  -3    1.57    0.49
   6   2  -3    0.49    0.33
  -6  -2   3    1.65    0.44
   4   7   3   -0.06    0.47
   3   6   3   14.96    1.17
   2   5   3    4.53    0.58
   2   5   3    4.86    0.68
   1   4   3    6.22    0.56
   1   4   3    6.69    0.60
   0   3   3    0.77    0.25
   0   3   3    0.98    0.26
  -1   2   3  133.33    6.03
  -1   2   3  130.95    6.02
  -1   2   3  134.50    6.13
   2  -1  -3    4.96    0.38
  -2   1   3    4.60    0.41
  -2   1   3    4.54    0.35
  -2   1   3    4.63    0.33
   3   0  -3    1.80    0.31
   3   0  -3    2.10    0.36
   3   0  -3    1.60    0.35
   3   0  -3    1.63    0.34
  -3   0   3    1.22    0.27
  -3   0   3    1.88    0.37
  -3   0   3    1.11    0.23
  -3   0   3    1.81    0.27
   4   1  -3    0.75    0.27
   4   1  -3    0.86    0.31
   4   1  -3    0.52    0.31
  -4  -1   3    0.68    0.25
   5   2  -3    0.63    0.37
   5   2  -3    0.68    0.35
   5   2  -3    0.67    0.26
  -5  -2   3    0.99    0.32
   6   3  -3    1.34    0.56
   6   3  -3    1.30    0.39
   6   3  -3    1.45    0.47
   4   6   3    0.11    0.32
   3   5   3    1.63    0.45
   2   4   3    6.37    0.59
   2   4   3    7.14    0.63
   1   3   3   11.52    0.80
   1   3   3   14.41    0.79
   0   2   3   82.06    3.75
   0   2   3   77.22    3.69
   1  -1  -3   44.27    1.97
  -1   1   3   44.13    2.09
  -1   1   3   43.11    2.09
  -1   1   3   45.63    1.95
  -1   1   3   45.46    1.97
   2   0  -3    0.17    0.14
   2   0  -3    0.06    0.13
  -2   0   3    0.07    0.15
  -2   0   3    0.09    0.14
  -2   0   3    0.07    0.12
   3   1  -3    0.12    0.18
   3   1  -3    0.20    0.16
   3   1  -3   -0.08    0.19
   3   1  -3    0.05    0.16
   3   1  -3   -0.12    0.15
  -3  -1   3    0.09    0.17
  -3  -1   3   -0.04    0.14
   4   2  -3    4.89    0.59
   4   2  -3    5.52    0.62
   4   2  -3    5.53    0.71
   4   2  -3    5.82    0.61
  -4  -2   3    5.08    0.56
   5   3  -3    1.67    0.48
   5   3  -3    2.61    0.49
   5   3  -3    1.93    0.36
   6   4  -3    0.15    0.25
   6   4  -3   -0.29    0.37
   5   6   3    0.49    0.31
   5   6   3    0.80    0.37
   5   6   3    1.44    0.56
   4   5   3   -0.12    0.23
   4   5   3    0.23    0.23
   4   5   3   -0.12    0.20
   4   5   3    0.05    0.31
   3   4   3    1.50    0.29
   3   4   3    1.76    0.31
   3   4   3    2.23    0.46
   3   4   3    1.10    0.26
   2   3   3    0.44    0.23
   2   3   3    0.40    0.15
   2   3   3    0.31    0.14
   2   3   3    0.32    0.16
   1   2   3    0.31    0.17
   1   2   3    0.09    0.11
   1   2   3    0.02    0.10
   1   2   3   -0.02    0.11
   1   2   3    0.12    0.11
   0  -1  -3   37.88    1.77
   0   1   3   43.02    1.87
   0   1   3   39.19    1.88
   0   1   3   40.12    1.87
   0   1   3   40.78    1.76
   0   1   3   42.38    1.76
   1   0  -3   25.13    1.14
   1   0  -3   25.97    1.22
   1   0  -3   24.94    1.22
  -1   0   3   24.65    1.22
  -1   0   3   23.88    1.15
  -1   0   3   25.60    1.22
   2   1  -3    5.48    0.40
   2   1  -3    5.69    0.45
   2   1  -3    5.71    0.41
   2   1  -3    5.73    0.48
   2   1  -3    5.80    0.44
  -2  -1   3    6.98    0.46
  -2  -1   3    6.00    0.40
   3   2  -3   18.77    0.97
   3   2  -3   19.48    1.04
   3   2  -3   19.74    1.06
   3   2  -3   17.38    1.03
   3   2  -3   17.40    0.94
   3   2  -3   17.48    1.00
   3   2  -3   18.56    1.13
  -3  -2   3   17.23    0.97
   4   3  -3    0.25    0.20
   4   3  -3    0.47    0.29
   4   3  -3    0.07    0.15
   4   3  -3    0.12    0.23
   4   3  -3   -0.02    0.25
   4   3  -3    0.31    0.20
   5   4  -3    7.15    0.82
   5   4  -3    9.88    1.07
   5   4  -3    9.90    0.79
   5   4  -3    8.30    0.62
   6   5  -3    0.26    0.48
   5   5   3    2.59    0.60
   5   5   3    1.93    0.43
   5   5   3    2.46    0.49
   4   4   3   11.31    0.91
   4   4   3   11.45    0.77
   4   4   3   10.52    0.80
   4   4   3   10.31    0.64
   4   4   3    9.89    0.63
  -3  -3  -3   17.53    0.96
   3   3   3   17.98    1.03
   3   3   3   17.01    1.02
   3   3   3   18.95    1.02
   3   3   3   16.21    1.08
   3   3   3   18.08    0.92
   3   3   3   17.90    0.91
  -2  -2  -3  163.41    7.40
   2   2   3  169.40    7.81
   2   2   3  175.82    7.72
   2   2   3  175.78    7.40
   2   2   3  173.65    7.39
   2   2   3  165.48    7.81
   2   2   3  185.08    7.94
  -1  -1  -3    6.24    0.41
  -1  -1  -3    6.36    0.37
   1   1   3    6.52    0.38
   1   1   3    6.92    0.42
   1   1   3    5.70    0.40
   1   1   3    6.85    0.41
   1   1   3    5.98    0.41
   0   0  -3    7.11    0.37
   0   0  -3    7.19    0.36
   0   0  -3    7.35    0.40
   0   0  -3    7.47    0.40
   0   0   3    7.30    0.40
   0   0   3    8.02    0.40
   0   0   3    6.39    0.39
   1   1  -3  264.52   12.84
   1   1  -3  293.32   12.18
   1   1  -3  282.24   13.02
   1   1  -3  298.99   12.85
   1   1  -3  289.11   13.32
   1   1  -3  295.55   12.19
  -1  -1   3  288.94   12.19
   2   2  -3    6.65    0.39
   2   2  -3    6.87    0.40
   2   2  -3    6.92    0.55
   2   2  -3    5.99    0.48
   2   2  -3    5.83    0.45
   2   2  -3    6.92    0.40
   2   2  -3    7.12    0.46
  -2  -2   3    6.28    0.41
   3   3  -3    0.54    0.17
   3   3  -3    0.75    0.16
   3   3  -3    0.66    0.22
   3   3  -3    0.91    0.27
   3   3  -3    0.71    0.29
   3   3  -3    0.88    0.16
   3   3  -3    0.77    0.23
  -3  -3   3    1.42    0.25
   4   4  -3    1.06    0.39
   4   4  -3    1.21    0.30
   4   4  -3    1.73    0.35
   4   4  -3    0.94    0.24
   4   4  -3    1.51    0.38
   5   5  -3    6.33    0.76
   5   5  -3    7.56    0.98
   6   5   3   -0.44    0.39
   6   5   3    0.14    0.23
   5   4   3    1.67    0.48
   5   4   3    2.10    0.54
   5   4   3    2.80    0.51
   5   4   3    2.15    0.38
  -4  -3  -3   21.08    1.16
   4   3   3   20.17    1.29
   4   3   3   22.02    1.26
   4   3   3   19.23    1.12
   4   3   3   20.63    1.22
  -3  -2  -3    1.85    0.33
  -3  -2  -3    1.37    0.26
   3   2   3    1.68    0.31
   3   2   3    2.55    0.35
   3   2   3    1.48    0.29
   3   2   3    1.87    0.31
   3   2   3    2.38    0.37
  -2  -1  -3   24.02    1.13
  -2  -1  -3   22.90    1.22
   2   1   3   25.01    1.22
   2   1   3   22.45    1.20
   2   1   3   21.86    1.19
   2   1   3   23.53    1.21
   2   1   3   23.35    1.13
  -1   0  -3   46.13    2.19
  -1   0  -3   49.05    2.20
  -1   0  -3   45.99    2.07
  -1   0  -3   45.62    2.24
  -1   0  -3   46.70    2.16
   1   0   3   48.50    2.20
   1   0   3   46.52    2.16
   1   0   3   48.52    2.08
   1   0   3   47.78    2.19
   0   1  -3  965.45   43.50
   0   1  -3  971.37   44.55
   0   1  -3  932.30   43.15
   0  -1   3 1000.00   42.44
   1   2  -3   12.19    0.72
   1   2  -3   12.84    0.76
   2   3  -3    0.05    0.18
   2   3  -3    0.01    0.16
   3   4  -3    1.31    0.37
   3   4  -3    1.12    0.29
   3   4  -3    1.10    0.26
   4   5  -3   30.25    1.77
   4   5  -3   29.17    1.62
   4   5  -3   29.92    1.61
   4   5  -3   31.48    1.91
   5   6  -3    0.51    0.50
   6   4   3    0.94    0.47
   6   4   3    1.03    0.47
   6   4   3    1.19    0.39
   5   3   3    2.66    0.51
   5   3   3    1.82    0.36
   5   3   3    2.79    0.49
  -4  -2  -3    2.71    0.42
   4   2   3    2.22    0.41
   4   2   3    2.68    0.38
   4   2   3    3.25    0.48
   4   2   3    2.19    0.40
  -3  -1  -3    1.38    0.32
  -3  -1  -3    1.56    0.31
  -3  -1  -3    1.28    0.22
   3   1   3    1.69    0.33
   3   1   3    1.56    0.30
   3   1   3    1.60    0.26
   3   1   3    1.99    0.31
  -2   0  -3    5.75    0.40
  -2   0  -3    6.51    0.40
  -2   0  -3    5.45    0.44
  -2   0  -3    5.47    0.46
  -2   0  -3    5.68    0.42
   2   0   3    6.07    0.39
   2   0   3    6.04    0.43
   2   0   3    6.34    0.49
  -1   1  -3    5.34    0.39
  -1   1  -3    5.87    0.45
  -1   1  -3    4.60    0.35
  -1   1  -3    5.37    0.37
   1  -1   3    5.47    0.42
   0   2  -3    7.00    0.45
   0   2  -3    7.28    0.50
   0   2  -3    6.92    0.55
   0  -2   3    6.78    0.42
   1   3  -3    0.59    0.20
   1   3  -3    0.36    0.21
   1   3  -3    0.76    0.22
   2   4  -3    1.70    0.35
   2   4  -3    2.29    0.40
   3   5  -3    0.03    0.27
   3   5  -3   -0.01    0.23
   4   6  -3    0.30    0.30
   4   6  -3    1.05    0.50
   6   3   3   -0.21    0.33
   6   3   3    0.49    0.39
   6   3   3    0.39    0.36
  -5  -2  -3   10.40    0.82
   5   2   3   12.28    0.87
   5   2   3   10.26    0.90
   5   2   3   10.66    0.89
  -4  -1  -3   -0.01    0.22
  -4  -1  -3    0.34    0.20
   4   1   3   -0.16    0.21
   4   1   3    0.15    0.25
   4   1   3    0.24    0.22
  -3   0  -3    9.59    0.67
  -3   0  -3    8.44    0.56
  -3   0  -3    8.67    0.65
  -3   0  -3    8.22    0.55
   3   0   3    8.57    0.57
   3   0   3    7.92    0.60
   3   0   3    8.48    0.68
  -2   1  -3    1.06    0.23
  -2   1  -3    1.40    0.25
  -2   1  -3    1.46    0.18
  -2   1  -3    2.02    0.31
  -2   1  -3    1.50    0.27
  -2   1  -3    1.65    0.19
   2  -1   3    1.53    0.33
  -1   2  -3    0.60    0.22
  -1   2  -3    1.05    0.28
   1  -2   3    1.41    0.27
   0   3  -3    2.73    0.44
   0   3  -3    2.66    0.34
   0   3  -3    2.93    0.40
   0  -3   3    3.28    0.33
   1   4  -3    7.66    0.65
   1   4  -3    8.89    0.76
   1   4  -3    8.65    0.69
   2   5  -3    0.12    0.24
   2   5  -3    0.27    0.30
   3   6  -3    0.04    0.36
   3   6  -3    0.51    0.36
   4   7  -3    0.19    0.40
   4   7  -3    0.77    0.60
  -6  -2  -3    0.50    0.38
   6   2   3    0.97    0.46
   6   2   3    0.04    0.29
   6   2   3    0.08    0.40
  -5  -1  -3    0.75    0.30
   5   1   3    2.12    0.46
   5   1   3    1.57    0.47
  -4   0  -3    4.69    0.58
  -4   0  -3    4.53    0.49
   4   0   3    4.30    0.62
   4   0   3    4.71    0.54
  -3   1  -3    1.82    0.34
  -3   1  -3    2.16    0.25
  -3   1  -3    1.71    0.23
  -3   1  -3    2.30    0.39
  -3   1  -3    1.79    0.34
   3  -1   3    1.93    0.41
   3  -1   3    3.09    0.35
  -2   2  -3   -0.08    0.13
  -2   2  -3    0.31    0.24
  -2   2  -3    0.24    0.21
  -2   2  -3    0.13    0.15
   2  -2   3    0.20    0.23
  -1   3  -3   19.54    1.28
  -1   3  -3   19.15    1.18
   1  -3   3   18.38    1.10
   0   4  -3   16.45    1.20
   0   4  -3   16.19    1.01
   0   4  -3   17.03    1.11
   0  -4   3   17.07    0.96
   1   5  -3   -0.18    0.24
   1   5  -3    0.13    0.24
   1   5  -3   -0.10    0.25
   2   6  -3    0.82    0.40
   2   6  -3    1.48    0.44
   3   7  -3    0.13    0.43
   3   7  -3   -0.23    0.39
  -6  -1  -3    0.53    0.37
   6   1   3    0.50    0.49
  -5   0  -3    1.68    0.43
  -5   0  -3    1.35    0.32
   5   0   3    3.07    0.57
  -4   1  -3    3.27    0.54
  -4   1  -3    3.64    0.40
  -4   1  -3    5.03    0.47
  -4   1  -3    4.98    0.65
   4  -1   3    4.98    0.55
   4  -1   3    4.73    0.70
  -3   2  -3    4.93    0.55
  -3   2  -3    4.76    0.57
  -3   2  -3    4.78    0.63
   3  -2   3    4.58    0.64
  -2   3  -3    3.15    0.55
  -2   3  -3    3.50    0.57
   2  -3   3    3.14    0.51
  -1   4  -3    1.12    0.34
   1  -4   3    0.87    0.30
   0   5  -3    2.32    0.47
   0   5  -3    1.63    0.50
   0   5  -3    2.39    0.53
   0  -5   3    2.19    0.39
   1   6  -3    0.21    0.37
   1   6  -3    0.93    0.42
   1   6  -3    0.55    0.35
   2   7  -3    0.98    0.53
   2   7  -3    0.29    0.52
  -5   1  -3    9.74    0.93
  -5   1  -3    9.65    1.04
   5  -1   3   10.89    1.16
  -4   2  -3   11.36    0.94
  -4   2  -3    9.62    0.84
  -4   2  -3    9.43    0.86
   4  -2   3    9.87    1.09
  -3   3  -3    3.46    0.63
   3  -3   3    4.42    0.67
  -2   4  -3   20.00    1.39
   2  -4   3   19.87    1.32
  -1   5  -3    0.17    0.29
  -1   5  -3   -0.29    0.37
   1  -5   3    0.12    0.28
   0   6  -3    5.34    0.94
   0   6  -3    6.09    0.91
  -4   3  -3    1.19    0.61
   4  -3   3    0.92    0.53
  -3   4  -3    8.11    1.10
   3  -4   3    7.01    0.93
  -2   5  -3    0.58    0.48
   2  -5   3   -0.36    0.37
   1  -6  -4   -0.34    0.34
  -1   6   4    0.45    0.54
   2  -5  -4    7.02    0.93
  -2   5   4    6.86    1.05
   3  -4  -4    0.17    0.38
  -3   4   4    0.23    0.43
   4  -3  -4    2.41    0.63
  -4   3   4    3.18    0.53
  -4   3   4    2.35    0.66
   1   7   4    1.42    0.61
   0   6   4    1.56    0.52
  -1   5   4   -0.02    0.34
   2  -4  -4    3.43    0.58
  -2   4   4    3.80    0.63
   3  -3  -4    0.00    0.33
  -3   3   4    0.37    0.26
  -3   3   4    0.59    0.32
  -3   3   4    0.18    0.26
   4  -2  -4    2.30    0.58
  -4   2   4    2.21    0.49
  -4   2   4    1.43    0.50
   5  -1  -4   -0.46    0.38
   5  -1  -4   -0.23    0.38
  -5   1   4   -0.27    0.21
   2   7   4    1.12    0.47
   2   7   4    0.80    0.56
   1   6   4    1.85    0.47
   1   6   4    2.03    0.55
   0   5   4   28.70    1.73
  -1   4   4    0.13    0.27
  -2   3   4    3.76    0.43
  -2   3   4    4.10    0.58
  -2   3   4    3.48    0.43
   3  -2  -4    1.53    0.42
  -3   2   4    1.69    0.37
  -3   2   4    1.06    0.31
  -3   2   4    1.21    0.36
   4  -1  -4    0.19    0.28
   4  -1  -4   -0.38    0.26
  -4   1   4    0.07    0.28
  -4   1   4    0.06    0.15
   5   0  -4    0.66    0.39
   5   0  -4    1.40    0.50
  -5   0   4    1.05    0.31
   6   1  -4    3.55    0.71
   6   1  -4    2.91    0.74
  -6  -1   4    2.91    0.54
   3   7   4    0.04    0.47
   2   6   4    0.73    0.36
   2   6   4    1.43    0.46
   1   5   4   61.96    3.19
   1   5   4   60.16    3.11
   0   4   4    9.98    0.77
  -1   3   4    1.33    0.31
  -2   2   4   45.20    2.21
  -2   2   4   39.13    2.05
   3  -1  -4   24.45    1.32
   3  -1  -4   24.73    1.48
  -3   1   4   25.52    1.27
  -3   1   4   26.48    1.42
  -3   1   4   25.52    1.43
  -3   1   4   25.26    1.28
   4   0  -4   14.64    1.08
   4   0  -4   15.80    1.01
   4   0  -4   14.33    1.09
  -4   0   4   18.19    0.99
  -4   0   4   15.69    1.06
   5   1  -4    0.36    0.27
   5   1  -4    0.47    0.32
   5   1  -4    0.63    0.37
  -5  -1   4    0.59    0.29
   6   2  -4   14.52    1.13
   6   2  -4   13.83    1.25
   6   2  -4   14.50    1.18
  -6  -2   4   15.71    1.11
   4   7   4   -0.08    0.39
   3   6   4    0.58    0.38
   2   5   4    1.41    0.34
   2   5   4    1.46    0.41
   1   4   4    8.92    0.65
   1   4   4    8.63    0.71
   0   3   4    0.82    0.24
  -1   2   4   43.00    2.13
  -1   2   4   45.15    2.13
  -1   2   4   46.97    2.23
   2  -1  -4    0.94    0.20
  -2   1   4    0.70    0.21
  -2   1   4    0.37    0.18
  -2   1   4    1.05    0.18
  -2   1   4    0.78    0.18
   3   0  -4    0.68    0.21
   3   0  -4    0.76    0.28
   3   0  -4    0.84    0.26
   3   0  -4    0.63    0.26
  -3   0   4    0.93    0.22
  -3   0   4    0.67    0.28
  -3   0   4    0.51    0.20
   4   1  -4    0.55    0.27
   4   1  -4    0.38    0.28
   4   1  -4    0.35    0.25
  -4  -1   4    0.27    0.22
   5   2  -4   10.64    0.81
   5   2  -4    9.58    0.90
   5   2  -4    8.82    0.96
  -5  -2   4   10.12    0.81
   6   3  -4    1.39    0.45
   6   3  -4    1.33    0.55
   6   3  -4    1.29    0.37
   4   6   4   -0.07    0.32
   3   5   4    4.90    0.68
   2   4   4    0.08    0.14
   2   4   4    0.13    0.22
   1   3   4    2.10    0.30
   1   3   4    2.38    0.35
   0   2   4   52.23    2.37
   0   2   4   49.64    2.42
   0   2   4   51.12    2.36
   1  -1  -4   15.36    0.76
  -1   1   4   15.03    0.82
  -1   1   4   15.48    0.76
  -1   1   4   15.68    0.75
  -1   1   4   15.90    0.83
   2   0  -4    1.71    0.27
   2   0  -4    1.82    0.26
  -2   0   4    1.81    0.27
  -2   0   4    2.16    0.31
  -2   0   4    1.87    0.26
   3   1  -4    5.41    0.49
   3   1  -4    5.53    0.53
   3   1  -4    5.32    0.54
   3   1  -4    5.45    0.47
   3   1  -4    5.15    0.58
  -3  -1   4    4.50    0.51
  -3  -1   4    5.49    0.45
   4   2  -4   17.07    1.16
   4   2  -4   17.74    1.01
   4   2  -4   17.06    1.04
   4   2  -4   18.22    1.10
  -4  -2   4   14.58    0.98
   5   3  -4    7.12    0.62
   5   3  -4    6.92    0.76
   5   3  -4    6.57    0.88
   6   4  -4    0.18    0.25
   6   4  -4    0.26    0.42
   5   6   4    2.88    0.71
   5   6   4    2.33    0.53
   4   5   4    2.30    0.42
   4   5   4    1.66    0.48
   4   5   4    2.83    0.46
   3   4   4    0.43    0.21
   3   4   4    0.65    0.23
   3   4   4    0.45    0.30
   3   4   4    0.91    0.25
   2   3   4   16.89    0.94
   2   3   4   16.76    0.82
   2   3   4   18.70    1.08
   2   3   4   17.34    0.82
   2   3   4   16.27    0.94
   2   3   4   18.50    0.95
   1   2   4  127.96    5.51
   1   2   4  122.83    5.84
   1   2   4  130.46    5.79
   1   2   4  124.43    5.83
   1   2   4  127.60    5.51
   1   2   4  135.71    5.84
   1   2   4  133.81    5.96
   0  -1  -4   -0.07    0.07
   0   1   4    0.08    0.11
   0   1   4    0.06    0.10
   0   1   4   -0.01    0.08
   0   1   4    0.09    0.08
   1   0  -4    6.85    0.45
   1   0  -4    6.85    0.40
   1   0  -4    6.73    0.44
  -1   0   4    6.93    0.45
  -1   0   4    7.04    0.42
  -1   0   4    7.40    0.45
   2   1  -4   -0.15    0.11
   2   1  -4    0.12    0.15
   2   1  -4    0.04    0.16
   2   1  -4    0.28    0.16
   2   1  -4    0.04    0.11
   2   1  -4    0.39    0.15
  -2  -1   4    0.26    0.13
  -2  -1   4    0.11    0.14
   3   2  -4   11.93    0.75
   3   2  -4   11.63    0.67
   3   2  -4   11.22    0.74
   3   2  -4   10.82    0.69
   3   2  -4   11.66    0.68
   3   2  -4   11.14    0.74
   3   2  -4   10.30    0.82
  -3  -2   4   11.09    0.68
   4   3  -4    0.01    0.19
   4   3  -4    0.28    0.17
   4   3  -4    0.39    0.23
   4   3  -4    0.48    0.26
   4   3  -4    0.05    0.25
   4   3  -4    0.15    0.26
   5   4  -4    1.03    0.25
   5   4  -4    1.25    0.44
   5   4  -4    0.67    0.36
   6   5  -4    1.61    0.66
   5   5   4    0.84    0.41
   5   5   4   -0.16    0.36
   5   5   4    0.35    0.29
   4   4   4    7.14    0.81
   4   4   4    4.93    0.61
   4   4   4    5.15    0.64
   4   4   4    6.59    0.48
   4   4   4    5.32    0.45
   4   4   4    6.56    0.57
  -3  -3  -4    4.87    0.42
   3   3   4    5.33    0.54
   3   3   4    4.47    0.50
   3   3   4    5.11    0.53
   3   3   4    4.62    0.39
   3   3   4    5.24    0.42
   3   3   4    5.66    0.59
  -2  -2  -4    7.10    0.46
   2   2   4    7.24    0.50
   2   2   4    8.22    0.53
   2   2   4    7.32    0.52
   2   2   4    7.55    0.47
   2   2   4    5.93    0.51
   2   2   4    7.53    0.45
  -1  -1  -4    3.96    0.32
  -1  -1  -4    4.08    0.28
  -1  -1  -4    3.43    0.20
   1   1   4    3.48    0.27
   1   1   4    3.66    0.31
   1   1   4    3.55    0.29
   1   1   4    4.11    0.33
   1   1   4    3.79    0.30
   1   1   4    3.69    0.31
   0   0  -4   24.82    1.22
   0   0  -4   25.90    1.15
   0   0  -4   25.93    1.23
   0   0  -4   26.01    1.16
   0   0   4   25.46    1.21
   0   0   4   26.04    1.23
   1   1  -4   81.92    3.51
   1   1  -4   80.81    3.50
   1   1  -4   83.86    3.72
   1   1  -4   81.67    3.71
   1   1  -4   80.10    3.80
  -1  -1   4   80.22    3.51
   2   2  -4    3.84    0.29
   2   2  -4    3.96    0.36
   2   2  -4    3.76    0.44
   2   2  -4    3.43    0.27
   2   2  -4    3.74    0.40
   2   2  -4    3.63    0.27
   2   2  -4    3.81    0.35
  -2  -2   4    3.95    0.31
   3   3  -4    1.69    0.22
   3   3  -4    0.96    0.18
   3   3  -4    1.35    0.19
   3   3  -4    1.39    0.29
   3   3  -4    1.82    0.33
   3   3  -4    1.23    0.26
   3   3  -4    1.25    0.35
  -3  -3   4    1.74    0.28
   4   4  -4    1.57    0.38
   4   4  -4    1.60    0.34
   4   4  -4    1.53    0.35
   4   4  -4    1.31    0.43
   5   5  -4    6.08    0.75
   5   5  -4    5.60    0.84
   6   5   4    6.98    1.01
   6   5   4    7.72    0.93
   6   5   4    5.96    0.66
   5   4   4    3.29    0.59
   5   4   4    4.25    0.52
   5   4   4    4.52    0.66
  -4  -3  -4   11.79    0.82
   4   3   4   13.40    0.81
   4   3   4   12.64    0.94
   4   3   4   14.03    0.92
   4   3   4   12.94    0.92
  -3  -2  -4   50.74    2.31
   3   2   4   49.85    2.48
   3   2   4   45.30    2.30
   3   2   4   52.32    2.47
   3   2   4   49.98    2.44
   3   2   4   50.45    2.46
  -2  -1  -4    1.43    0.26
  -2  -1  -4    1.13    0.23
  -2  -1  -4    1.46    0.23
   2   1   4    1.11    0.23
   2   1   4    1.08    0.20
   2   1   4    1.48    0.25
   2   1   4    1.39    0.27
   2   1   4    0.88    0.22
  -1   0  -4   13.11    0.67
  -1   0  -4   12.25    0.61
  -1   0  -4   11.87    0.61
  -1   0  -4   13.05    0.63
  -1   0  -4   12.49    0.67
  -1   0  -4   11.59    0.67
   1   0   4   12.33    0.64
   1   0   4   11.65    0.68
   0   1  -4  252.79   11.56
   0   1  -4  257.35   11.51
   0   1  -4  251.21   11.92
   0   1  -4  261.66   11.44
   0   1  -4  251.45   11.45
   0  -1   4  263.73   11.30
   1   2  -4    9.89    0.64
   1   2  -4    8.28    0.58
   2   3  -4    1.55    0.30
   2   3  -4    0.62    0.24
   3   4  -4    3.47    0.49
   3   4  -4    4.55    0.58
   4   5  -4   32.31    1.91
   4   5  -4   28.92    1.76
   4   5  -4   28.78    1.58
   5   6  -4    0.26    0.46
   6   4   4    2.09    0.58
   6   4   4    1.43    0.40
   6   4   4    4.33    0.75
  -5  -3  -4   -0.04    0.20
   5   3   4    0.86    0.33
   5   3   4    0.19    0.32
   5   3   4    0.48    0.32
  -4  -2  -4   33.33    1.69
   4   2   4   33.01    1.84
   4   2   4   32.03    1.70
   4   2   4   34.35    1.81
   4   2   4   32.58    1.81
  -3  -1  -4    0.06    0.18
  -3  -1  -4    0.16    0.16
  -3  -1  -4    0.67    0.25
   3   1   4    0.11    0.18
   3   1   4    0.37    0.19
   3   1   4    0.65    0.24
   3   1   4    0.72    0.21
  -2   0  -4   -0.07    0.12
  -2   0  -4   -0.03    0.13
  -2   0  -4    0.16    0.11
  -2   0  -4   -0.04    0.11
  -2   0  -4   -0.08    0.10
  -2   0  -4    0.12    0.12
   2   0   4    0.02    0.17
   2   0   4    0.07    0.12
   2   0   4    0.01    0.10
  -1   1  -4  103.51    5.10
  -1   1  -4  112.68    4.88
  -1   1  -4  104.09    4.92
  -1   1  -4  106.30    4.87
   1  -1   4  109.65    4.87
   0   2  -4    0.42    0.14
   0   2  -4    0.56    0.20
   0   2  -4    0.22    0.16
   0  -2   4    0.47    0.13
   1   3  -4    7.27    0.61
   1   3  -4    7.84    0.56
   1   3  -4    7.34    0.55
   2   4  -4    1.46    0.35
   2   4  -4    0.75    0.28
   3   5  -4   44.81    2.38
   3   5  -4   38.65    2.29
   4   6  -4    4.07    0.69
   4   6  -4    4.00    0.76
   6   3   4    0.05    0.33
   6   3   4    0.52    0.36
   6   3   4    0.23    0.38
  -5  -2  -4    7.20    0.77
   5   2   4    7.38    0.86
   5   2   4    8.60    0.75
   5   2   4    8.22    0.85
  -4  -1  -4    0.16    0.19
  -4  -1  -4    0.17    0.24
   4   1   4    0.35    0.28
   4   1   4    0.09    0.22
   4   1   4    0.30    0.22
  -3   0  -4    6.36    0.58
  -3   0  -4    7.21    0.51
  -3   0  -4    7.53    0.60
  -3   0  -4    6.74    0.50
   3   0   4    6.86    0.50
   3   0   4    7.17    0.55
   3   0   4    7.79    0.64
  -2   1  -4   17.71    0.95
  -2   1  -4   18.65    1.04
  -2   1  -4   16.31    0.80
  -2   1  -4   16.21    0.80
  -2   1  -4   16.32    0.95
  -2   1  -4   17.00    0.94
   2  -1   4   16.74    1.02
   2  -1   4   16.09    0.85
  -1   2  -4    3.22    0.44
  -1   2  -4    4.68    0.43
   1  -2   4    4.19    0.44
   0   3  -4    4.35    0.53
   0   3  -4    4.50    0.52
   0   3  -4    4.50    0.38
   0  -3   4    3.93    0.36
   1   4  -4    8.90    0.69
   1   4  -4    8.43    0.69
   1   4  -4    8.40    0.76
   2   5  -4    2.25    0.48
   2   5  -4    2.00    0.47
   3   6  -4    1.10    0.50
   3   6  -4    1.23    0.39
  -6  -2  -4   -0.02    0.27
   6   2   4    0.30    0.41
   6   2   4    0.46    0.39
  -5  -1  -4    6.42    0.70
   5   1   4    6.53    0.84
   5   1   4    6.31    0.74
  -4   0  -4    2.80    0.38
  -4   0  -4    1.85    0.44
  -4   0  -4    3.06    0.48
   4   0   4    1.92    0.46
   4   0   4    2.76    0.41
  -3   1  -4    0.89    0.18
  -3   1  -4    0.72    0.25
  -3   1  -4    0.91    0.29
  -3   1  -4    0.65    0.16
  -3   1  -4    0.82    0.28
   3  -1   4    0.65    0.29
   3  -1   4    1.08    0.22
  -2   2  -4    1.14    0.30
  -2   2  -4    1.21    0.31
  -2   2  -4    0.49    0.19
  -2   2  -4    1.24    0.24
   2  -2   4    1.10    0.33
  -1   3  -4    3.40    0.49
  -1   3  -4    3.34    0.55
   1  -3   4    4.05    0.48
   0   4  -4    0.97    0.28
   0   4  -4    0.54    0.29
   0   4  -4    1.55    0.41
   0  -4   4    1.19    0.26
   1   5  -4    2.75    0.49
   1   5  -4    2.39    0.46
   1   5  -4    2.82    0.58
   2   6  -4    0.01    0.29
   2   6  -4    0.04    0.33
   3   7  -4    0.85    0.50
   3   7  -4    0.43    0.51
  -6  -1  -4    0.11    0.37
  -6  -1  -4   -0.04    0.29
   6   1   4    0.69    0.51
  -5   0  -4    3.57    0.47
  -5   0  -4    4.17    0.62
   5   0   4    2.96    0.64
  -4   1  -4   15.44    0.84
  -4   1  -4   15.12    1.07
  -4   1  -4   14.99    0.82
  -4   1  -4   15.25    1.05
   4  -1   4   14.64    1.12
  -3   2  -4    0.26    0.22
  -3   2  -4    0.03    0.21
  -3   2  -4    0.19    0.24
   3  -2   4   -0.17    0.24
  -2   3  -4    1.09    0.40
  -2   3  -4    0.83    0.36
   2  -3   4    0.88    0.36
  -1   4  -4    9.73    0.86
  -1   4  -4   11.66    1.03
   1  -4   4    9.94    0.78
   0   5  -4   -0.17    0.21
   0   5  -4    0.00    0.24
   0   5  -4    0.31    0.34
   1   6  -4    1.53    0.55
   1   6  -4    1.09    0.46
   1   6  -4    1.30    0.45
   2   7  -4    0.73    0.54
   2   7  -4    0.42    0.58
  -5   1  -4    1.29    0.49
  -5   1  -4    1.03    0.40
   5  -1   4    0.88    0.53
  -4   2  -4   18.27    1.26
  -4   2  -4   16.63    1.12
  -4   2  -4   16.48    1.13
   4  -2   4   15.60    1.26
  -3   3  -4   10.55    0.96
   3  -3   4    9.05    0.97
  -2   4  -4    2.73    0.64
  -2   4  -4    2.13    0.51
   2  -4   4    2.83    0.54
  -1   5  -4    1.25    0.44
  -1   5  -4    1.51    0.55
   1  -5   4    1.13    0.36
   0   6  -4    2.60    0.68
   0   6  -4    2.72    0.65
  -4   3  -4    1.05    0.57
   4  -3   4    1.00    0.54
  -3   4  -4    2.39    0.67
   3  -4   4    2.20    0.59
  -2   5  -4    8.53    1.10
   2  -5   4    6.98    0.91
   1  -6  -5    1.37    0.56
  -1   6   5    2.15    0.68
   2  -5  -5    0.55    0.43
  -2   5   5    0.32    0.55
   3  -4  -5    5.27    0.85
  -3   4   5    6.55    0.95
   4  -3  -5    4.16    0.82
  -4   3   5    4.45    0.78
  -4   3   5    3.27    0.62
   1   7   5    0.73    0.58
   0   6   5    0.92    0.47
  -1   5   5    0.08    0.37
  -2   4   5    1.30    0.43
   3  -3  -5    2.64    0.53
  -3   3   5    1.61    0.40
  -3   3   5    1.32    0.39
  -3   3   5    1.46    0.47
   4  -2  -5    0.55    0.37
  -4   2   5    1.00    0.43
  -4   2   5    0.71    0.35
   5  -1  -5    1.41    0.57
   5  -1  -5    1.64    0.53
  -5   1   5    0.41    0.26
   2   7   5    0.42    0.53
   2   7   5    0.16    0.40
   1   6   5    0.45    0.34
   1   6   5    0.35    0.34
   0   5   5    4.93    0.70
  -1   4   5    0.64    0.31
  -2   3   5    0.26    0.19
  -2   3   5    0.25    0.19
  -2   3   5    0.20    0.24
   3  -2  -5    0.37    0.28
  -3   2   5    0.56    0.25
  -3   2   5    0.11    0.25
  -3   2   5    0.42    0.27
  -3   2   5    0.53    0.18
   4  -1  -5    5.57    0.77
  -4   1   5    7.31    0.57
  -4   1   5    8.78    0.79
   5   0  -5    0.10    0.32
   5   0  -5    0.13    0.37
  -5   0   5    0.15    0.25
   6   1  -5    0.35    0.48
   6   1  -5   -0.04    0.49
  -6  -1   5    1.14    0.43
   3   7   5    0.22    0.52
   2   6   5   -0.17    0.29
   2   6   5    0.16    0.28
   1   5   5   38.43    2.15
   1   5   5   37.44    2.06
   0   4   5    6.89    0.64
  -1   3   5    0.16    0.21
  -2   2   5    7.27    0.63
  -2   2   5    6.97    0.55
  -2   2   5    7.58    0.58
   3  -1  -5   35.62    1.95
   3  -1  -5   36.98    1.79
  -3   1   5   35.79    1.73
  -3   1   5   34.46    1.71
  -3   1   5   36.84    1.90
  -3   1   5   35.28    1.90
   4   0  -5   10.41    0.82
   4   0  -5   11.47    0.91
   4   0  -5   11.69    0.92
  -4   0   5   12.37    0.78
  -4   0   5    9.71    0.85
   5   1  -5    0.36    0.28
   5   1  -5   -0.18    0.28
   5   1  -5    0.11    0.32
  -5  -1   5   -0.02    0.22
   6   2  -5    0.84    0.49
   6   2  -5    0.45    0.32
   6   2  -5    0.12    0.41
  -6  -2   5    0.98    0.39
   4   7   5    0.23    0.49
   3   6   5    0.11    0.28
   2   5   5   39.86    2.21
   2   5   5   38.90    2.07
   1   4   5   -0.10    0.16
   1   4   5    0.28    0.22
   0   3   5   -0.10    0.15
  -1   2   5   44.25    2.11
  -1   2   5   42.06    2.11
  -1   2   5   45.98    2.20
   2  -1  -5   45.56    2.19
  -2   1   5   47.75    2.17
  -2   1   5   47.70    2.19
  -2   1   5   48.64    2.35
  -2   1   5   51.02    2.35
   3   0  -5   11.61    0.72
   3   0  -5   10.07    0.78
   3   0  -5    8.86    0.74
   3   0  -5   10.03    0.75
  -3   0   5   11.94    0.70
  -3   0   5   10.97    0.75
   4   1  -5    4.74    0.61
   4   1  -5    3.72    0.53
   4   1  -5    3.23    0.54
  -4  -1   5    3.83    0.49
   5   2  -5   40.16    2.29
   5   2  -5   40.71    2.15
   5   2  -5   36.54    2.01
  -5  -2   5   39.53    2.04
   6   3  -5    0.69    0.41
   6   3  -5    0.74    0.49
   6   3  -5    0.45    0.29
   4   6   5   -0.05    0.30
   3   5   5    8.11    0.62
   3   5   5    8.70    0.79
   3   5   5    7.50    0.61
   2   4   5    3.44    0.50
   2   4   5    4.35    0.45
   2   4   5    3.68    0.40
   2   4   5    3.07    0.37
   1   3   5    1.53    0.33
   1   3   5    2.05    0.26
   1   3   5    1.98    0.26
   1   3   5    2.00    0.28
   0   2   5    0.00    0.10
   0   2   5    0.11    0.12
   0   2   5    0.15    0.09
   0   2   5    0.03    0.07
   0   2   5    0.26    0.14
   1  -1  -5   10.16    0.56
  -1   1   5   10.15    0.61
  -1   1   5    9.43    0.54
  -1   1   5   10.66    0.62
  -1   1   5   10.91    0.57
   2   0  -5    3.84    0.41
   2   0  -5    3.02    0.33
  -2   0   5    2.72    0.32
  -2   0   5    2.92    0.36
  -2   0   5    2.78    0.36
   3   1  -5    7.98    0.64
   3   1  -5    8.62    0.62
   3   1  -5    8.47    0.60
   3   1  -5    8.52    0.69
   3   1  -5    8.99    0.66
  -3  -1   5    8.53    0.58
  -3  -1   5    9.21    0.64
   4   2  -5    2.34    0.48
   4   2  -5    2.27    0.41
   4   2  -5    2.38    0.40
   4   2  -5    2.98    0.46
  -4  -2   5    2.03    0.37
   5   3  -5    0.27    0.25
   5   3  -5    0.30    0.36
   5   3  -5    0.35    0.24
   6   4  -5    0.76    0.32
   6   4  -5    0.72    0.52
   5   6   5    1.55    0.46
   5   6   5    1.60    0.63
   4   5   5    2.12    0.52
   4   5   5    1.39    0.38
   4   5   5    1.14    0.35
   4   5   5    0.93    0.35
   3   4   5    1.27    0.39
   3   4   5    1.07    0.28
   3   4   5    0.91    0.27
   3   4   5    1.35    0.31
  -2  -3  -5    0.68    0.17
   2   3   5    0.68    0.22
   2   3   5    0.74    0.15
   2   3   5    0.56    0.19
   2   3   5    0.73    0.20
   2   3   5    0.83    0.28
   2   3   5    1.05    0.17
  -1  -2  -5   32.88    1.53
   1   2   5   34.27    1.60
   1   2   5   33.89    1.64
   1   2   5   31.60    1.70
   1   2   5   32.80    1.63
   1   2   5   34.36    1.63
   1   2   5   33.51    1.52
   1   2   5   35.58    1.52
   0  -1  -5   26.82    1.25
   0   1   5   27.24    1.25
   0   1   5   29.47    1.34
   0   1   5   27.23    1.34
   0   1   5   26.77    1.25
   1   0  -5    3.08    0.26
   1   0  -5    3.15    0.33
   1   0  -5    3.59    0.36
  -1   0   5    3.20    0.33
  -1   0   5    2.81    0.31
  -1   0   5    2.59    0.26
   2   1  -5   16.65    0.84
   2   1  -5   15.51    0.90
   2   1  -5   16.35    0.83
   2   1  -5   16.69    0.90
   2   1  -5   15.34    0.95
  -2  -1   5   15.95    0.84
  -2  -1   5   15.44    0.89
   3   2  -5    9.18    0.59
   3   2  -5    8.43    0.58
   3   2  -5    8.79    0.56
   3   2  -5    9.84    0.67
   3   2  -5    9.19    0.66
   3   2  -5    8.29    0.71
  -3  -2   5    9.46    0.60
   4   3  -5    3.18    0.41
   4   3  -5    3.04    0.47
   4   3  -5    3.82    0.44
   4   3  -5    4.78    0.54
   4   3  -5    3.87    0.55
   4   3  -5    3.54    0.61
   5   4  -5    8.78    1.07
   5   4  -5   10.09    0.99
   5   4  -5    6.97    0.57
   5   5   5    8.76    0.81
   5   5   5    9.98    1.16
   4   4   5    0.17    0.24
   4   4   5    0.15    0.24
   4   4   5    0.08    0.29
   4   4   5    0.45    0.25
   4   4   5    0.39    0.18
  -3  -3  -5    0.81    0.21
   3   3   5    1.04    0.29
   3   3   5    1.10    0.27
   3   3   5    1.03    0.22
   3   3   5    0.50    0.24
   3   3   5    1.27    0.23
   3   3   5    0.75    0.29
  -2  -2  -5   90.93    3.85
   2   2   5   86.47    4.02
   2   2   5   90.48    4.07
   2   2   5   87.81    4.13
   2   2   5   85.63    3.83
   2   2   5   86.37    3.83
   2   2   5   83.73    4.06
  -1  -1  -5    1.87    0.23
  -1  -1  -5    2.17    0.27
   1   1   5    2.03    0.26
   1   1   5    1.34    0.21
   1   1   5    1.61    0.22
   1   1   5    1.47    0.21
   1   1   5    1.52    0.22
   0   0  -5    5.44    0.33
   0   0  -5    5.71    0.35
   0   0  -5    5.51    0.38
   0   0  -5    6.19    0.38
   0   0   5    5.44    0.37
   0   0   5    5.38    0.37
   1   1  -5    1.96    0.24
   1   1  -5    1.95    0.20
   1   1  -5    1.50    0.22
   1   1  -5    1.80    0.26
  -1  -1   5    1.66    0.20
   2   2  -5   91.64    4.36
   2   2  -5   91.46    4.21
   2   2  -5   94.59    4.21
   2   2  -5   90.56    3.95
   2   2  -5   90.67    4.41
   2   2  -5   88.96    4.09
   2   2  -5   93.20    3.96
  -2  -2   5   89.29    3.99
   3   3  -5    1.53    0.20
   3   3  -5    1.76    0.32
   3   3  -5    1.25    0.36
   3   3  -5    0.92    0.27
   3   3  -5    1.24    0.20
   3   3  -5    0.75    0.26
   4   4  -5    1.61    0.39
   4   4  -5    0.45    0.36
   4   4  -5    1.59    0.38
   4   4  -5    1.43    0.37
   5   5  -5   12.10    0.98
   5   5  -5   11.79    1.29
   6   5   5    5.21    0.63
   6   5   5    6.90    0.89
   6   5   5    8.06    1.08
   5   4   5    3.72    0.52
   5   4   5    4.82    0.70
   5   4   5    3.37    0.60
  -4  -3  -5   27.05    1.49
   4   3   5   28.71    1.61
   4   3   5   29.89    1.49
   4   3   5   27.99    1.63
   4   3   5   28.97    1.62
  -3  -2  -5   31.64    1.54
   3   2   5   30.04    1.62
   3   2   5   31.12    1.64
   3   2   5   30.72    1.64
   3   2   5   29.51    1.62
   3   2   5   32.78    1.54
  -2  -1  -5   15.67    0.82
  -2  -1  -5   16.60    0.89
  -2  -1  -5   13.42    0.76
  -2  -1  -5   16.65    0.89
   2   1   5   16.20    0.89
   2   1   5   14.04    0.88
   2   1   5   15.68    0.83
   2   1   5   17.19    0.85
  -1   0  -5   14.09    0.73
  -1   0  -5   14.67    0.73
  -1   0  -5   14.22    0.72
  -1   0  -5   14.55    0.80
  -1   0  -5   16.93    0.79
  -1   0  -5   13.68    0.79
   1   0   5   14.28    0.80
   1   0   5   14.42    0.74
   0   1  -5   34.50    1.70
   0   1  -5   33.74    1.56
   0   1  -5   33.47    1.57
   0   1  -5   31.31    1.57
   0  -1   5   33.33    1.54
   1   2  -5    8.51    0.62
   1   2  -5    8.78    0.58
   2   3  -5    6.08    0.55
   2   3  -5    5.41    0.54
   3   4  -5   -0.06    0.20
   3   4  -5    0.21    0.18
   3   4  -5   -0.04    0.23
   4   5  -5   11.61    0.97
   4   5  -5   12.63    1.08
   4   5  -5   12.89    0.87
   5   6  -5    0.91    0.57
   6   4   5    1.03    0.49
   6   4   5    0.58    0.40
   6   4   5    1.07    0.39
  -5  -3  -5    0.03    0.23
   5   3   5    0.43    0.32
   5   3   5   -0.20    0.22
   5   3   5   -0.02    0.28
  -4  -2  -5   23.88    1.34
   4   2   5   25.92    1.43
   4   2   5   24.54    1.37
   4   2   5   25.26    1.47
  -3  -1  -5   10.20    0.71
  -3  -1  -5    9.50    0.68
  -3  -1  -5    9.09    0.61
   3   1   5    9.27    0.65
   3   1   5    9.71    0.69
   3   1   5    8.43    0.59
   3   1   5    8.94    0.69
  -2   0  -5    0.35    0.15
  -2   0  -5    0.31    0.13
  -2   0  -5    0.47    0.14
  -2   0  -5    0.52    0.21
  -2   0  -5    0.29    0.16
  -2   0  -5    0.53    0.16
   2   0   5    0.72    0.20
   2   0   5    0.55    0.12
   2   0   5    0.79    0.22
  -1   1  -5    8.49    0.55
  -1   1  -5    7.85    0.51
  -1   1  -5    8.71    0.54
  -1   1  -5    9.55    0.61
   1  -1   5    9.21    0.57
   0   2  -5   22.52    1.25
   0   2  -5   24.46    1.20
   0   2  -5   24.49    1.34
   0  -2   5   23.20    1.15
   1   3  -5    1.95    0.37
   1   3  -5    2.77    0.37
   2   4  -5    0.51    0.24
   2   4  -5    1.49    0.37
   3   5  -5   11.36    0.95
   3   5  -5   10.96    0.93
   4   6  -5    2.20    0.64
   4   6  -5    1.49    0.45
  -6  -3  -5    1.05    0.38
   6   3   5    1.56    0.47
   6   3   5    1.44    0.53
   6   3   5    1.85    0.52
  -5  -2  -5    5.52    0.65
   5   2   5    8.20    0.84
   5   2   5    5.87    0.78
   5   2   5    7.86    0.81
  -4  -1  -5    3.67    0.49
  -4  -1  -5    4.38    0.57
   4   1   5    3.89    0.59
   4   1   5    4.28    0.55
   4   1   5    4.47    0.54
  -3   0  -5   14.04    0.82
  -3   0  -5   14.21    0.87
  -3   0  -5   13.57    0.81
  -3   0  -5   14.30    0.93
  -3   0  -5   16.19    0.96
   3   0   5   14.34    0.98
   3   0   5   15.97    0.84
   3   0   5   15.04    0.88
  -2   1  -5   10.01    0.55
  -2   1  -5   10.56    0.69
  -2   1  -5   11.65    0.77
  -2   1  -5   10.13    0.67
  -2   1  -5   11.48    0.57
  -2   1  -5   10.22    0.69
   2  -1   5   11.86    0.77
   2  -1   5   11.20    0.57
  -1   2  -5   37.91    1.95
  -1   2  -5   32.31    1.81
   1  -2   5   36.65    1.78
   0   3  -5    4.27    0.53
   0   3  -5    4.59    0.52
   0   3  -5    4.02    0.37
   0  -3   5    4.32    0.35
   1   4  -5    0.87    0.32
   1   4  -5    1.38    0.34
   1   4  -5    1.26    0.32
   2   5  -5   11.33    0.96
   2   5  -5    9.33    0.85
   3   6  -5    0.25    0.33
   3   6  -5    0.41    0.37
  -6  -2  -5    0.11    0.30
   6   2   5    0.12    0.36
   6   2   5   -0.03    0.43
  -5  -1  -5    2.92    0.49
   5   1   5    2.77    0.58
  -4   0  -5    5.48    0.55
  -4   0  -5    6.36    0.68
  -4   0  -5    5.85    0.70
   4   0   5    4.68    0.66
   4   0   5    4.82    0.55
  -3   1  -5    0.73    0.25
  -3   1  -5    0.89    0.18
  -3   1  -5    1.00    0.30
  -3   1  -5    1.12    0.19
  -3   1  -5    0.95    0.28
  -3   1  -5    0.65    0.28
   3  -1   5    0.94    0.21
   3  -1   5    0.85    0.29
  -2   2  -5    6.41    0.69
  -2   2  -5    5.39    0.45
  -2   2  -5    5.18    0.60
  -2   2  -5    4.90    0.45
   2  -2   5    5.54    0.61
  -1   3  -5    7.95    0.65
  -1   3  -5    5.85    0.70
   1  -3   5    6.66    0.59
   0   4  -5   -0.11    0.22
   0   4  -5    0.18    0.20
   0   4  -5   -0.05    0.22
   0  -4   5   -0.11    0.16
   1   5  -5    3.93    0.58
   1   5  -5    3.99    0.60
   1   5  -5    3.60    0.65
   2   6  -5    1.26    0.48
   2   6  -5    1.46    0.54
   3   7  -5   -0.14    0.49
   3   7  -5    0.40    0.49
  -5   0  -5   -0.19    0.27
  -5   0  -5    0.19    0.19
   5   0   5    0.23    0.37
  -4   1  -5    1.61    0.27
  -4   1  -5    2.16    0.43
  -4   1  -5    2.19    0.45
  -4   1  -5    2.02    0.27
   4  -1   5    2.80    0.54
  -3   2  -5    6.82    0.75
  -3   2  -5    6.32    0.66
  -3   2  -5    4.74    0.58
   3  -2   5    6.12    0.76
  -2   3  -5    0.56    0.30
  -2   3  -5    1.15    0.40
   2  -3   5    0.91    0.33
  -1   4  -5    0.56    0.37
  -1   4  -5    1.30    0.40
   1  -4   5    0.61    0.31
   0   5  -5    4.09    0.59
   0   5  -5    5.13    0.74
   0   5  -5    3.57    0.71
   1   6  -5    1.69    0.49
   1   6  -5    1.69    0.55
   1   6  -5    2.46    0.55
   2   7  -5    0.26    0.57
   2   7  -5   -0.17    0.40
  -5   1  -5   15.01    1.15
  -5   1  -5   13.11    1.16
   5  -1   5   16.02    1.32
  -4   2  -5    4.28    0.69
  -4   2  -5    4.45    0.63
  -4   2  -5    4.10    0.61
   4  -2   5    6.05    0.82
  -3   3  -5   11.98    1.21
   3  -3   5    7.72    0.93
  -2   4  -5   -0.19    0.34
  -2   4  -5   -0.23    0.30
   2  -4   5   -0.01    0.29
  -1   5  -5   23.67    1.74
  -1   5  -5   20.84    1.52
   0   6  -5    0.05    0.38
   0   6  -5   -0.04    0.50
  -3   4  -5   -0.11    0.46
   3  -4   5   -0.27    0.40
  -2   5  -5    1.77    0.63
   2  -5  -6    1.55    0.53
  -2   5   6    1.91    0.67
   3  -4  -6    2.46    0.60
  -3   4   6    2.40    0.63
   4  -3  -6    0.44    0.50
  -4   3   6    1.16    0.57
  -4   3   6    0.35    0.36
   0   6   6    0.00    0.33
  -1   5   6    1.44    0.50
  -2   4   6    0.05    0.31
   3  -3  -6    0.69    0.38
  -3   3   6    0.33    0.26
  -3   3   6    0.64    0.30
  -3   3   6    0.76    0.40
   4  -2  -6    4.19    0.75
  -4   2   6    3.34    0.69
  -4   2   6    4.44    0.63
   5  -1  -6    0.00    0.49
   5  -1  -6    1.10    0.50
  -5   1   6    1.14    0.33
   2   7   6    0.06    0.38
   2   7   6    0.25    0.51
   1   6   6    0.00    0.33
   0   5   6    5.48    0.76
  -1   4   6    1.73    0.43
  -2   3   6    1.30    0.38
  -2   3   6    1.05    0.28
  -3   2   6    2.52    0.48
  -3   2   6    2.99    0.54
  -3   2   6    2.97    0.32
  -3   2   6    2.47    0.43
   4  -1  -6   21.61    1.43
  -4   1   6   19.80    1.14
  -4   1   6   20.42    1.34
   5   0  -6   -0.02    0.29
   5   0  -6    0.96    0.46
  -5   0   6   -0.05    0.25
   3   7   6    0.93    0.54
   2   6   6    0.02    0.27
   2   6   6   -0.28    0.30
   1   5   6    0.12    0.25
   1   5   6    0.20    0.29
   0   4   6   11.50    0.87
  -1   3   6    0.04    0.14
  -1   3   6   -0.03    0.14
  -1   3   6   -0.09    0.19
  -2   2   6    2.09    0.26
  -2   2   6    2.00    0.34
  -2   2   6    2.16    0.25
  -2   2   6    2.43    0.36
   3  -1  -6   10.09    0.75
  -3   1   6   12.61    0.83
  -3   1   6   11.07    0.70
   4   0  -6    2.23    0.42
   4   0  -6    2.45    0.49
   4   0  -6    3.55    0.60
  -4   0   6    1.76    0.34
   5   1  -6   -0.38    0.26
   5   1  -6   -0.02    0.26
   5   1  -6    0.19    0.33
  -5  -1   6   -0.33    0.18
   6   2  -6   13.95    1.09
   6   2  -6   16.23    1.34
   6   2  -6   13.32    1.20
  -6  -2   6   13.78    1.07
   4   7   6   -0.05    0.46
   3   6   6    1.26    0.46
   2   5   6    0.26    0.28
   2   5   6    0.72    0.25
   1   4   6   13.62    0.87
   1   4   6   13.58    0.98
   0   3   6    0.44    0.16
   0   3   6    0.62    0.20
   0   3   6    0.24    0.13
   1  -2  -6    4.26    0.34
  -1   2   6    4.57    0.49
  -1   2   6    4.88    0.32
  -1   2   6    4.33    0.38
  -1   2   6    5.16    0.41
  -1   2   6    4.14    0.29
   2  -1  -6   16.08    0.94
  -2   1   6   18.74    1.02
  -2   1   6   17.51    0.91
  -2   1   6   19.54    1.03
  -2   1   6   17.89    0.94
   3   0  -6   19.62    1.19
   3   0  -6   19.46    1.08
  -3   0   6   21.10    1.19
  -3   0   6   18.79    1.16
  -3   0   6   19.55    1.07
   4   1  -6    5.05    0.57
   4   1  -6    6.36    0.72
   4   1  -6    6.43    0.72
  -4  -1   6    5.51    0.59
   5   2  -6    1.93    0.49
   5   2  -6    0.90    0.37
   5   2  -6    1.28    0.33
  -5  -2   6    1.08    0.39
   6   3  -6    3.22    0.52
   6   3  -6    2.65    0.57
   6   3  -6    3.35    0.76
   4   6   6    0.40    0.37
   4   6   6    0.77    0.31
   3   5   6   17.80    1.27
   3   5   6   19.56    1.12
   2   4   6    3.06    0.49
   2   4   6    3.04    0.39
   2   4   6    2.72    0.37
   2   4   6    3.14    0.39
   1   3   6    1.73    0.27
   1   3   6    1.52    0.24
   1   3   6    1.73    0.35
   1   3   6    1.47    0.24
   0  -2  -6    1.28    0.19
   0   2   6    1.23    0.17
   0   2   6    0.92    0.14
   0   2   6    1.28    0.21
   0   2   6    0.89    0.19
   0   2   6    1.29    0.21
   1  -1  -6  270.96   11.31
  -1   1   6  254.04   11.93
  -1   1   6  265.68   11.31
  -1   1   6  276.54   11.94
  -1   1   6  259.30   11.30
   2   0  -6    1.60    0.27
   2   0  -6    1.89    0.27
  -2   0   6    1.50    0.27
  -2   0   6    2.19    0.33
  -2   0   6    1.53    0.23
   3   1  -6    2.90    0.42
   3   1  -6    3.30    0.45
   3   1  -6    3.99    0.53
   3   1  -6    4.93    0.50
   3   1  -6    3.68    0.41
  -3  -1   6    3.40    0.45
  -3  -1   6    4.23    0.46
   4   2  -6    1.24    0.31
   4   2  -6    1.60    0.42
   4   2  -6    1.72    0.40
   4   2  -6    2.13    0.38
  -4  -2   6    1.28    0.31
   5   3  -6    3.46    0.54
   5   3  -6    3.22    0.64
   5   3  -6    3.11    0.50
   5   3  -6    2.08    0.39
   6   4  -6    0.43    0.30
   6   4  -6    0.06    0.49
   5   6   6    5.46    0.77
   5   6   6    5.03    0.88
   4   5   6    1.17    0.37
   4   5   6    1.11    0.37
   4   5   6    1.10    0.42
   4   5   6    0.79    0.32
   3   4   6    1.54    0.22
   3   4   6    1.35    0.22
   3   4   6    1.66    0.34
   3   4   6    1.30    0.29
   3   4   6    1.72    0.38
   3   4   6    1.86    0.42
  -2  -3  -6   12.14    0.70
   2   3   6   13.03    0.67
   2   3   6   12.18    0.76
   2   3   6   11.42    0.83
   2   3   6   12.94    0.78
   2   3   6   12.59    0.79
   2   3   6   12.32    0.66
  -1  -2  -6    9.13    0.51
   1   2   6    8.65    0.50
   1   2   6    8.73    0.62
   1   2   6    9.24    0.52
   1   2   6    9.76    0.60
   1   2   6    9.14    0.57
   1   2   6   10.51    0.60
   1   2   6    8.79    0.51
   0  -1  -6   22.08    1.03
   0  -1  -6   20.03    1.10
   0   1   6   22.05    1.10
   0   1   6   21.60    1.03
   0   1   6   22.52    1.10
   0   1   6   21.31    1.02
   1   0  -6   18.49    0.97
   1   0  -6   18.51    0.90
   1   0  -6   17.75    0.97
  -1   0   6   18.12    0.96
  -1   0   6   17.67    0.90
   2   1  -6    0.58    0.20
   2   1  -6    0.47    0.17
   2   1  -6    0.28    0.13
   2   1  -6    0.28    0.17
   2   1  -6    0.24    0.21
  -2  -1   6    0.47    0.14
  -2  -1   6    0.03    0.16
   3   2  -6    2.88    0.35
   3   2  -6    4.06    0.55
   3   2  -6    3.00    0.36
   3   2  -6    3.77    0.48
   3   2  -6    3.05    0.38
   3   2  -6    3.16    0.44
  -3  -2   6    2.73    0.35
   4   3  -6    1.63    0.38
   4   3  -6    1.58    0.32
   4   3  -6    1.35    0.36
   4   3  -6    2.06    0.49
   4   3  -6    1.83    0.45
   4   3  -6    1.19    0.28
   5   4  -6    2.80    0.57
   5   4  -6    2.08    0.33
   5   4  -6    2.73    0.51
   5   4  -6    2.49    0.58
   5   5   6    6.20    0.90
   5   5   6    5.24    0.72
   5   5   6    4.28    0.66
   4   4   6    0.35    0.26
   4   4   6    0.31    0.26
   4   4   6    0.36    0.32
  -3  -3  -6    0.99    0.24
   3   3   6    0.43    0.23
   3   3   6    0.43    0.17
   3   3   6    0.55    0.28
   3   3   6    1.38    0.31
   3   3   6    0.61    0.25
   3   3   6    0.69    0.20
  -2  -2  -6   -0.17    0.11
   2   2   6    0.07    0.15
   2   2   6    0.04    0.13
   2   2   6    0.04    0.15
   2   2   6   -0.19    0.10
   2   2   6   -0.14    0.13
   2   2   6   -0.04    0.11
  -1  -1  -6   25.49    1.32
  -1  -1  -6   27.89    1.24
   1   1   6   24.71    1.31
   1   1   6   24.66    1.31
   1   1   6   27.25    1.32
   1   1   6   28.24    1.25
   1   1   6   26.08    1.33
   0   0  -6   34.68    1.73
   0   0  -6   38.09    1.66
   0   0  -6   37.14    1.75
   0   0   6   37.29    1.75
   0   0   6   35.57    1.72
   1   1  -6   12.22    0.76
   1   1  -6   13.34    0.72
   1   1  -6   12.26    0.72
   1   1  -6   12.74    0.65
  -1  -1   6   13.99    0.68
   2   2  -6   15.72    0.77
   2   2  -6   14.74    0.95
   2   2  -6   15.50    0.95
   2   2  -6   13.81    0.84
   2   2  -6   15.96    0.86
   2   2  -6   14.70    0.77
  -2  -2   6   15.08    0.79
   3   3  -6    2.18    0.24
   3   3  -6    2.62    0.42
   3   3  -6    2.03    0.35
   3   3  -6    2.72    0.40
   3   3  -6    1.61    0.40
   4   4  -6    0.22    0.34
   4   4  -6    0.00    0.23
   4   4  -6    0.55    0.30
   4   4  -6    0.49    0.27
   5   5  -6    1.60    0.59
   5   5  -6    1.78    0.49
   5   4   6    3.58    0.62
   5   4   6    3.79    0.52
   5   4   6    4.63    0.71
  -4  -3  -6   19.00    1.12
   4   3   6   18.98    1.19
   4   3   6   17.64    1.19
   4   3   6   18.83    1.07
   4   3   6   19.77    1.22
  -3  -2  -6   22.01    1.12
  -3  -2  -6   19.00    1.18
   3   2   6   20.99    1.11
   3   2   6   20.93    1.21
   3   2   6   21.79    1.19
   3   2   6   21.39    1.20
   3   2   6   19.82    1.21
  -2  -1  -6   70.02    3.67
  -2  -1  -6   81.14    3.67
  -2  -1  -6   82.27    3.47
  -2  -1  -6   79.25    3.68
   2   1   6   79.29    3.67
   2   1   6   81.91    3.48
   2   1   6   77.36    3.65
   2   1   6   75.90    3.64
  -1   0  -6    3.23    0.34
  -1   0  -6    3.10    0.25
  -1   0  -6    3.93    0.33
  -1   0  -6    4.38    0.30
  -1   0  -6    4.19    0.30
  -1   0  -6    4.05    0.34
   1   0   6    4.55    0.32
   1   0   6    3.92    0.35
   0   1  -6   24.68    1.20
   0   1  -6   25.23    1.19
   0   1  -6   23.30    1.31
   0   1  -6   24.56    1.09
   0   1  -6   23.67    1.18
   0   1  -6   24.21    1.10
   0  -1   6   24.79    1.18
   1   2  -6  120.05    5.66
   1   2  -6  120.08    5.85
   1   2  -6  125.44    5.53
   2   3  -6    4.94    0.40
   2   3  -6    5.50    0.60
   2   3  -6    6.24    0.64
   3   4  -6    0.06    0.27
   3   4  -6    0.26    0.21
   3   4  -6    0.31    0.28
   4   5  -6    3.21    0.66
   4   5  -6    2.42    0.44
   4   5  -6    2.10    0.51
   5   6  -6    7.77    1.20
   6   4   6    1.31    0.52
   6   4   6    2.15    0.59
   6   4   6    1.91    0.47
  -5  -3  -6    0.61    0.30
   5   3   6    1.02    0.38
   5   3   6    0.73    0.34
   5   3   6    1.85    0.42
  -4  -2  -6    3.53    0.50
   4   2   6    2.93    0.44
   4   2   6    3.23    0.48
   4   2   6    3.29    0.51
  -3  -1  -6   18.38    1.05
  -3  -1  -6   16.58    1.02
  -3  -1  -6   17.07    0.94
   3   1   6   16.44    1.02
   3   1   6   17.93    0.98
   3   1   6   16.39    1.04
   3   1   6   15.20    0.93
  -2   0  -6    5.11    0.38
  -2   0  -6    6.35    0.49
  -2   0  -6    5.65    0.40
  -2   0  -6    6.07    0.49
  -2   0  -6    5.98    0.42
  -2   0  -6    6.32    0.45
   2   0   6    6.54    0.52
   2   0   6    5.59    0.34
  -1   1  -6   23.71    1.19
  -1   1  -6   21.71    1.20
  -1   1  -6   26.86    1.32
  -1   1  -6   23.27    1.20
   1  -1   6   23.80    1.23
   0   2  -6  107.57    4.95
   0   2  -6  101.60    4.75
   0   2  -6   98.26    4.70
   0  -2   6  101.71    4.59
   1   3  -6    6.36    0.58
   1   3  -6    6.03    0.51
   2   4  -6    0.36    0.26
   2   4  -6    0.02    0.22
   3   5  -6   -0.14    0.24
   3   5  -6    0.14    0.28
   4   6  -6   10.72    1.02
   4   6  -6   10.73    1.23
  -6  -3  -6    0.04    0.30
   6   3   6    0.38    0.36
   6   3   6    0.39    0.40
   6   3   6    0.62    0.47
  -5  -2  -6    1.39    0.35
   5   2   6    1.81    0.46
   5   2   6    1.53    0.40
   5   2   6    1.22    0.41
  -4  -1  -6    4.58    0.61
  -4  -1  -6    7.52    0.58
   4   1   6    5.76    0.70
   4   1   6    6.03    0.63
   4   1   6    5.59    0.52
  -3   0  -6    4.58    0.43
  -3   0  -6    4.70    0.54
  -3   0  -6    4.56    0.45
  -3   0  -6    4.80    0.41
  -3   0  -6    5.33    0.42
  -3   0  -6    5.05    0.56
   3   0   6    4.37    0.47
   3   0   6    5.04    0.38
   3   0   6    4.28    0.55
  -2   1  -6    4.35    0.48
  -2   1  -6    4.49    0.30
  -2   1  -6    4.04    0.45
  -2   1  -6    4.80    0.49
  -2   1  -6    4.20    0.31
  -2   1  -6    4.25    0.40
   2  -1   6    4.74    0.52
  -1   2  -6   32.98    1.67
  -1   2  -6   31.90    1.77
   1  -2   6   30.44    1.61
   0   3  -6    2.79    0.35
   0   3  -6    3.04    0.48
   0   3  -6    3.20    0.45
   0  -3   6    3.19    0.32
   1   4  -6    0.76    0.27
   1   4  -6    0.63    0.30
   2   5  -6   -0.06    0.25
   2   5  -6   -0.08    0.27
   3   6  -6    2.41    0.59
   3   6  -6    1.67    0.53
  -6  -2  -6    0.84    0.38
   6   2   6    0.62    0.49
  -5  -1  -6    5.79    0.68
  -5  -1  -6    6.82    0.74
   5   1   6    5.91    0.85
  -4   0  -6    0.23    0.17
  -4   0  -6    0.30    0.28
  -4   0  -6   -0.07    0.23
   4   0   6    0.12    0.28
  -3   1  -6    1.60    0.23
  -3   1  -6    0.95    0.18
  -3   1  -6    1.31    0.32
  -3   1  -6    1.22    0.31
  -3   1  -6    1.30    0.34
  -3   1  -6    1.11    0.33
   3  -1   6    1.16    0.37
  -2   2  -6    1.48    0.37
  -2   2  -6    1.19    0.26
  -2   2  -6    0.82    0.28
  -2   2  -6    0.66    0.20
   2  -2   6    1.26    0.32
  -1   3  -6   -0.11    0.20
  -1   3  -6    0.08    0.24
   1  -3   6    0.22    0.21
   0   4  -6    0.59    0.22
   0   4  -6    0.84    0.34
   0   4  -6    0.52    0.29
   0  -4   6    0.84    0.22
   1   5  -6    1.33    0.37
   1   5  -6    1.49    0.47
   2   6  -6    0.10    0.31
   2   6  -6    0.35    0.34
  -5   0  -6    0.53    0.24
  -5   0  -6    0.46    0.29
   5   0   6   -0.15    0.33
  -4   1  -6    1.40    0.39
  -4   1  -6    2.27    0.46
   4  -1   6    1.36    0.44
  -3   2  -6    3.23    0.47
  -3   2  -6    2.52    0.41
  -3   2  -6    2.07    0.46
  -3   2  -6    2.53    0.52
   3  -2   6    3.39    0.53
  -2   3  -6    0.98    0.35
  -2   3  -6    0.43    0.34
   2  -3   6   -0.02    0.25
  -1   4  -6    7.32    0.82
  -1   4  -6    6.67    0.89
   1  -4   6    7.16    0.63
   0   5  -6    7.54    0.67
   0   5  -6    7.24    0.92
   0   5  -6    7.96    0.99
   1   6  -6   -0.15    0.29
   1   6  -6   -0.16    0.40
  -5   1  -6    2.06    0.59
  -5   1  -6    2.04    0.55
   5  -1   6    2.59    0.65
  -4   2  -6    6.91    0.85
  -4   2  -6    3.90    0.60
   4  -2   6    4.91    0.79
  -3   3  -6    7.25    0.93
   3  -3   6    7.41    0.86
  -2   4  -6    0.55    0.37
  -2   4  -6    0.73    0.48
   2  -4   6    1.05    0.34
  -1   5  -6    5.01    0.81
  -1   5  -6    4.90    0.90
   0   6  -6    2.19    0.77
   0   6  -6    1.53    0.59
  -3   4  -6    0.02    0.44
  -2   5   7    0.05    0.48
   3  -4  -7    4.02    0.73
  -3   4   7    3.71    0.77
   0   6   7    0.20    0.38
  -1   5   7    0.23    0.38
  -2   4   7    5.66    0.76
   3  -3  -7    0.15    0.31
  -3   3   7    0.05    0.24
  -3   3   7   -0.07    0.24
  -3   3   7   -0.01    0.30
   4  -2  -7    2.94    0.70
  -4   2   7    4.53    0.65
  -4   2   7    3.88    0.72
   5  -1  -7    2.02    0.59
   5  -1  -7    1.03    0.56
  -5   1   7    1.14    0.34
   2   7   7    0.34    0.40
   2   7   7    0.16    0.47
   1   6   7    1.31    0.47
   0   5   7    1.86    0.49
  -1   4   7    1.32    0.40
  -2   3   7    3.06    0.42
  -2   3   7    2.67    0.42
  -2   3   7    2.43    0.48
  -3   2   7   -0.08    0.24
  -3   2   7    0.11    0.13
  -3   2   7    0.23    0.17
  -3   2   7   -0.15    0.20
   4  -1  -7    0.11    0.34
  -4   1   7   -0.11    0.26
  -4   1   7    0.07    0.19
   5   0  -7   -0.38    0.35
   5   0  -7    0.42    0.39
  -5   0   7    0.47    0.28
   3   7   7   -0.09    0.42
   2   6   7    0.85    0.35
   2   6   7    0.73    0.44
   1   5   7    4.39    0.67
   1   5   7    3.15    0.53
   0   4   7   63.48    3.19
  -1   3   7    0.00    0.14
  -1   3   7   -0.26    0.15
  -1   3   7    0.07    0.15
  -2   2   7    6.00    0.40
  -2   2   7    5.66    0.51
  -2   2   7    5.84    0.43
  -2   2   7    5.86    0.52
   3  -1  -7    6.86    0.61
  -3   1   7    6.94    0.63
  -3   1   7    8.53    0.59
   4   0  -7    2.37    0.48
   4   0  -7    3.63    0.62
   4   0  -7    2.23    0.48
  -4   0   7    2.86    0.44
   5   1  -7    0.17    0.31
   5   1  -7    0.84    0.41
   5   1  -7    0.24    0.33
  -5  -1   7    0.28    0.28
   6   2  -7    0.36    0.44
   6   2  -7    0.45    0.42
   6   2  -7   -0.12    0.45
  -6  -2   7    0.33    0.36
   3   6   7    1.52    0.52
   2   5   7    0.02    0.24
   2   5   7    0.18    0.20
   1   4   7   34.94    1.90
   1   4   7   35.06    1.79
   1   4   7   33.66    1.69
   1   4   7   32.69    1.70
   0   3   7    6.13    0.50
   0   3   7    5.63    0.44
   0   3   7    5.87    0.45
   1  -2  -7    5.29    0.40
  -1   2   7    5.28    0.35
  -1   2   7    5.59    0.38
  -1   2   7    5.54    0.48
  -1   2   7    5.29    0.44
  -1   2   7    5.84    0.47
   2  -1  -7   44.20    2.01
  -2   1   7   41.46    1.96
  -2   1   7   41.72    1.98
  -2   1   7   41.97    2.11
  -2   1   7   43.24    2.12
   3   0  -7   22.39    1.17
  -3   0   7   19.02    1.23
  -3   0   7   22.23    1.15
   4   1  -7    9.96    0.76
   4   1  -7    9.79    0.79
   4   1  -7    9.04    0.84
  -4  -1   7    9.88    0.74
   5   2  -7    0.58    0.34
   5   2  -7    0.40    0.31
   5   2  -7   -0.18    0.32
  -5  -2   7    0.88    0.33
   6   3  -7    7.63    1.10
   6   3  -7   10.04    0.86
   4   6   7    1.06    0.32
   4   6   7   -0.04    0.32
   4   6   7    0.84    0.33
   3   5   7    3.82    0.59
   3   5   7    3.24    0.46
   3   5   7    2.97    0.44
   2   4   7   20.40    1.12
   2   4   7   18.43    1.25
   2   4   7   19.02    1.11
   2   4   7   20.86    1.10
   1   3   7   14.38    0.81
   1   3   7   13.47    0.92
   1   3   7   14.01    0.69
   1   3   7   14.42    0.82
   1   3   7   14.58    0.81
   1   3   7   13.37    0.69
   0  -2  -7    1.00    0.19
   0   2   7    0.75    0.16
   0   2   7    0.55    0.18
   0   2   7    0.79    0.19
   0   2   7    0.64    0.14
   0   2   7    0.57    0.19
   1  -1  -7   -0.01    0.10
  -1   1   7    0.15    0.14
  -1   1   7   -0.06    0.09
  -1   1   7    0.16    0.15
  -1   1   7   -0.10    0.12
   2   0  -7    6.81    0.55
   2   0  -7    7.66    0.51
  -2   0   7    6.33    0.48
  -2   0   7    7.46    0.54
  -2   0   7    7.14    0.54
   3   1  -7    0.69    0.22
   3   1  -7    0.72    0.27
   3   1  -7    0.34    0.26
   3   1  -7    0.36    0.22
  -3  -1   7    0.58    0.24
  -3  -1   7    0.65    0.22
   4   2  -7    0.09    0.19
   4   2  -7   -0.19    0.19
   4   2  -7    0.13    0.24
   4   2  -7   -0.03    0.25
  -4  -2   7   -0.31    0.18
   5   3  -7    0.40    0.23
   5   3  -7   -0.13    0.26
   5   3  -7    0.51    0.38
   5   3  -7    0.51    0.29
   6   4  -7    1.90    0.40
   6   4  -7    3.77    0.83
   5   6   7    1.56    0.56
   5   6   7    1.01    0.44
   4   5   7   -0.13    0.30
   4   5   7    0.00    0.26
   4   5   7    0.21    0.27
   3   4   7    2.55    0.30
   3   4   7    2.38    0.39
   3   4   7    2.16    0.47
   3   4   7    2.83    0.46
   3   4   7    1.55    0.34
   3   4   7    2.58    0.30
  -2  -3  -7    1.23    0.26
   2   3   7    1.02    0.26
   2   3   7    1.20    0.29
   2   3   7    1.31    0.32
   2   3   7    1.53    0.23
   2   3   7    1.30    0.22
   2   3   7    1.03    0.24
  -1  -2  -7    7.34    0.48
   1   2   7    8.91    0.51
   1   2   7    8.89    0.57
   1   2   7    7.89    0.55
   1   2   7    9.47    0.55
   1   2   7    6.93    0.56
   1   2   7    7.76    0.46
   1   2   7    7.83    0.48
   0  -1  -7   43.73    1.91
   0  -1  -7   44.18    2.04
   0   1   7   41.32    2.03
   0   1   7   41.54    1.91
   0   1   7   39.96    2.02
   1   0  -7   18.71    1.04
   1   0  -7   20.69    1.05
   1   0  -7   17.02    0.95
  -1   0   7   21.42    1.06
  -1   0   7   20.69    0.98
   2   1  -7    3.94    0.44
   2   1  -7    5.63    0.58
   2   1  -7    4.51    0.38
   2   1  -7    4.81    0.40
   2   1  -7    5.72    0.46
  -2  -1   7    5.29    0.45
  -2  -1   7    5.08    0.40
   3   2  -7    1.69    0.33
   3   2  -7    1.57    0.28
   3   2  -7    1.78    0.39
   3   2  -7    1.55    0.28
   3   2  -7    1.87    0.34
   3   2  -7    1.82    0.32
  -3  -2   7    1.42    0.27
   4   3  -7   14.99    0.99
   4   3  -7   14.46    1.01
   4   3  -7   14.39    0.88
   4   3  -7   13.64    1.11
   4   3  -7   12.90    0.83
   5   4  -7    4.42    0.67
   5   4  -7    5.74    0.71
   5   4  -7    4.10    0.46
   5   4  -7    4.44    0.79
   5   5   7    1.53    0.49
   5   5   7    2.38    0.58
   5   5   7    0.80    0.42
   4   4   7    3.59    0.59
   4   4   7    2.92    0.48
   4   4   7    3.30    0.54
  -3  -3  -7    0.01    0.13
   3   3   7    0.11    0.19
   3   3   7    0.08    0.21
   3   3   7    0.44    0.18
   3   3   7    0.48    0.22
   3   3   7    0.42    0.19
   3   3   7    0.10    0.23
  -2  -2  -7   14.35    0.88
  -2  -2  -7   15.27    0.82
   2   2   7   15.13    0.89
   2   2   7   15.89    0.82
   2   2   7   14.54    0.89
   2   2   7   14.32    0.82
   2   2   7   16.06    0.90
   2   2   7   14.75    0.88
  -1  -1  -7   58.96    2.49
  -1  -1  -7   57.75    2.65
   1   1   7   54.68    2.63
   1   1   7   56.68    2.63
   1   1   7   50.22    2.63
   0   0  -7    2.24    0.24
   0   0  -7    2.46    0.29
   0   0  -7    2.04    0.26
   0   0   7    2.55    0.29
   0   0   7    2.89    0.31
   1   1  -7    0.73    0.15
   1   1  -7    0.76    0.20
   1   1  -7    0.37    0.22
   1   1  -7    0.57    0.19
  -1  -1   7    1.39    0.20
   2   2  -7    1.36    0.26
   2   2  -7    0.75    0.23
   2   2  -7    1.71    0.33
   2   2  -7    1.65    0.24
   2   2  -7    1.50    0.29
  -2  -2   7    1.44    0.23
   3   3  -7    5.73    0.58
   3   3  -7    5.84    0.41
   3   3  -7    6.90    0.56
   3   3  -7    6.21    0.73
   3   3  -7    6.53    0.70
   4   4  -7    0.05    0.25
   4   4  -7    0.30    0.33
   4   4  -7    0.01    0.24
   4   4  -7   -0.05    0.25
   5   5  -7    0.56    0.32
   5   5  -7    0.31    0.46
   5   5  -7   -0.20    0.33
   5   4   7    0.73    0.37
   5   4   7    1.75    0.49
   5   4   7    1.03    0.30
  -4  -3  -7   14.30    0.89
   4   3   7   11.74    0.93
   4   3   7   13.19    0.95
   4   3   7   12.73    0.96
   4   3   7   13.07    0.85
  -3  -2  -7    7.09    0.53
  -3  -2  -7    4.28    0.55
   3   2   7    6.65    0.55
   3   2   7    6.83    0.60
   3   2   7    7.49    0.62
   3   2   7    6.92    0.60
   3   2   7    7.07    0.55
  -2  -1  -7   52.86    2.58
  -2  -1  -7   54.75    2.60
  -2  -1  -7   56.10    2.62
  -2  -1  -7   52.96    2.44
   2   1   7   56.69    2.60
   2   1   7   50.61    2.46
   2   1   7   55.75    2.55
   2   1   7   51.43    2.60
  -1   0  -7    1.85    0.22
  -1   0  -7    1.86    0.25
  -1   0  -7    2.05    0.26
  -1   0  -7    2.00    0.23
  -1   0  -7    1.36    0.25
   1   0   7    1.12    0.23
   1   0   7    2.35    0.27
   0   1  -7    0.99    0.17
   0   1  -7    1.35    0.21
   0   1  -7    1.11    0.15
   0   1  -7    1.16    0.20
   0   1  -7    1.01    0.24
   0   1  -7    1.15    0.15
   0  -1   7    1.43    0.21
   1   2  -7    0.20    0.18
   1   2  -7    0.43    0.16
   1   2  -7    0.40    0.14
   1   2  -7    0.33    0.17
   2   3  -7   16.01    1.01
   2   3  -7   15.37    1.03
   2   3  -7   14.98    0.86
   2   3  -7   15.32    0.86
   3   4  -7    0.02    0.25
   3   4  -7    0.28    0.30
   4   5  -7    1.29    0.34
   4   5  -7    1.16    0.40
   4   5  -7    0.61    0.45
   6   4   7    2.23    0.65
   6   4   7    3.50    0.68
   6   4   7    2.45    0.53
  -5  -3  -7    4.11    0.57
   5   3   7    4.63    0.65
   5   3   7    3.62    0.63
   5   3   7    4.49    0.59
  -4  -2  -7    3.24    0.47
   4   2   7    2.75    0.46
   4   2   7    1.97    0.47
   4   2   7    3.68    0.49
  -3  -1  -7   40.02    1.90
  -3  -1  -7   37.23    1.89
  -3  -1  -7   42.95    2.07
  -3  -1  -7   36.72    2.06
   3   1   7   39.26    1.95
   3   1   7   41.51    1.96
   3   1   7   39.15    2.07
   3   1   7   41.05    2.06
  -2   0  -7    1.39    0.28
  -2   0  -7    1.70    0.23
  -2   0  -7    1.30    0.23
  -2   0  -7    1.07    0.27
  -2   0  -7    1.30    0.22
  -2   0  -7    1.30    0.23
   2   0   7    1.45    0.27
   2   0   7    1.55    0.32
  -1   1  -7   11.39    0.58
  -1   1  -7   10.94    0.56
  -1   1  -7   11.10    0.67
  -1   1  -7   11.31    0.66
  -1   1  -7   11.16    0.73
  -1   1  -7   10.60    0.66
   1  -1   7   12.06    0.71
   0   2  -7  111.29    5.25
   0   2  -7  115.93    5.48
   0   2  -7  111.17    5.20
   0  -2   7  114.96    5.09
   1   3  -7    2.74    0.44
   1   3  -7    2.81    0.39
   2   4  -7    0.03    0.21
   2   4  -7   -0.05    0.19
   3   5  -7    2.26    0.52
   3   5  -7    1.68    0.46
   4   6  -7   38.64    2.23
   4   6  -7   30.65    2.12
  -6  -3  -7    2.48    0.53
   6   3   7    1.64    0.59
   6   3   7    3.15    0.61
  -5  -2  -7    1.07    0.34
   5   2   7    1.76    0.47
   5   2   7    1.61    0.50
   5   2   7    1.04    0.40
  -4  -1  -7    6.76    0.56
  -4  -1  -7    6.91    0.55
   4   1   7    7.16    0.76
   4   1   7    7.05    0.82
   4   1   7    6.09    0.55
  -3   0  -7    2.79    0.44
  -3   0  -7    2.87    0.36
  -3   0  -7    2.48    0.35
  -3   0  -7    2.46    0.33
  -3   0  -7    3.25    0.39
  -3   0  -7    4.06    0.51
   3   0   7    2.91    0.26
   3   0   7    2.78    0.42
   3   0   7    3.82    0.53
  -2   1  -7    1.48    0.28
  -2   1  -7    1.27    0.27
  -2   1  -7    1.35    0.30
  -2   1  -7    1.99    0.22
  -2   1  -7    1.57    0.28
  -2   1  -7    1.36    0.19
   2  -1   7    1.52    0.27
   2  -1   7    1.36    0.31
  -1   2  -7   16.74    1.01
  -1   2  -7   18.37    1.12
   1  -2   7   16.54    0.98
   0   3  -7    0.00    0.13
   0   3  -7   -0.01    0.21
   0   3  -7   -0.14    0.17
   0  -3   7    0.04    0.13
   1   4  -7    1.56    0.41
   1   4  -7    1.90    0.37
   2   5  -7    0.49    0.29
   2   5  -7   -0.11    0.26
   3   6  -7    9.50    1.15
   3   6  -7   15.15    1.24
  -6  -2  -7    0.20    0.30
   6   2   7   -0.28    0.41
  -5  -1  -7    9.46    0.74
   5   1   7    9.35    1.03
  -4   0  -7    0.51    0.25
  -4   0  -7    0.48    0.30
  -4   0  -7    0.34    0.20
   4   0   7    0.63    0.35
  -3   1  -7    1.74    0.24
  -3   1  -7    1.85    0.38
  -3   1  -7    1.35    0.33
  -3   1  -7    1.34    0.32
  -3   1  -7    1.39    0.34
   3  -1   7    2.05    0.43
  -2   2  -7    2.54    0.45
  -2   2  -7    2.89    0.46
  -2   2  -7    1.87    0.34
  -2   2  -7    1.47    0.28
   2  -2   7    1.82    0.38
  -1   3  -7    3.15    0.55
  -1   3  -7    3.15    0.50
   1  -3   7    3.15    0.42
   0   4  -7    2.10    0.44
   0   4  -7    2.19    0.38
   0   4  -7    2.58    0.52
   0  -4   7    2.25    0.32
   1   5  -7    7.13    0.91
   1   5  -7    5.40    0.67
   2   6  -7    0.28    0.34
   2   6  -7    0.28    0.39
  -5   0  -7    3.68    0.50
   5   0   7    2.44    0.60
  -4   1  -7    0.63    0.33
  -4   1  -7    0.32    0.32
   4  -1   7    0.57    0.38
  -3   2  -7    1.95    0.37
  -3   2  -7    1.91    0.45
  -3   2  -7    1.27    0.37
  -3   2  -7    1.48    0.44
   3  -2   7    1.18    0.39
  -2   3  -7    0.12    0.32
  -2   3  -7    0.28    0.26
   2  -3   7    0.07    0.26
  -1   4  -7    1.71    0.50
  -1   4  -7    1.83    0.47
   1  -4   7    1.60    0.36
   0   5  -7    0.80    0.47
   0   5  -7    1.98    0.50
   1   6  -7    1.27    0.54
   1   6  -7    0.87    0.42
  -5   1  -7    2.78    0.62
   5  -1   7    4.46    0.87
  -4   2  -7    4.16    0.62
  -4   2  -7    5.09    0.77
   4  -2   7    4.16    0.74
  -3   3  -7    2.09    0.56
  -3   3  -7    2.83    0.58
   3  -3   7    2.92    0.61
  -2   4  -7    1.46    0.52
  -2   4  -7    0.47    0.38
   2  -4   7    0.96    0.38
  -1   5  -7    2.04    0.59
  -1   5  -7    2.52    0.71
   0   6  -7    0.23    0.46
   0   6  -7    0.36    0.57
  -2   5   8    0.34    0.47
   3  -4  -8    2.34    0.65
  -3   4   8    3.77    0.77
  -3   4   8    3.84    0.58
   0   6   8    2.22    0.62
  -1   5   8    1.17    0.50
  -2   4   8    0.39    0.28
  -2   4   8    0.78    0.44
  -3   3   8    7.79    0.81
  -3   3   8    7.46    0.89
   4  -2  -8    4.34    0.77
  -4   2   8    5.20    0.80
  -4   2   8    3.86    0.44
  -4   2   8    4.93    0.69
   5  -1  -8    0.45    0.49
   5  -1  -8    1.16    0.58
  -5   1   8    0.88    0.32
   2   7   8    1.09    0.64
   2   7   8    0.76    0.46
   1   6   8    0.49    0.38
   0   5   8    3.37    0.59
  -1   4   8    0.13    0.26
  -2   3   8    3.24    0.55
  -2   3   8    3.11    0.47
  -3   2   8    3.27    0.39
  -3   2   8    2.26    0.44
   4  -1  -8    0.46    0.34
  -4   1   8   -0.11    0.19
   5   0  -8   -0.05    0.35
   5   0  -8   -0.03    0.37
  -5   0   8   -0.03    0.27
   3   7   8    2.50    0.73
   2   6   8    0.73    0.35
   2   6   8    0.60    0.40
   1   5   8   -0.05    0.23
   0   4   8    0.16    0.21
   0   4   8    0.32    0.18
  -1   3   8   -0.05    0.18
  -1   3   8    0.05    0.17
  -1   3   8    0.08    0.17
  -2   2   8    0.81    0.26
  -2   2   8    1.25    0.22
  -2   2   8    0.73    0.20
  -2   2   8    0.52    0.25
   3  -1  -8    0.75    0.28
  -3   1   8   -0.02    0.21
  -3   1   8    0.60    0.24
   4   0  -8    0.63    0.35
   4   0  -8    0.40    0.32
   4   0  -8    0.44    0.30
  -4   0   8    0.59    0.26
   5   1  -8    0.50    0.39
   5   1  -8    0.42    0.37
   5   1  -8    0.17    0.36
  -5  -1   8    0.21    0.23
   3   6   8    0.67    0.40
   2   5   8   -0.13    0.18
   2   5   8    0.02    0.18
   2   5   8    0.38    0.31
   1   4   8   91.19    4.26
   1   4   8  101.27    4.36
   1   4   8   85.64    4.47
   1   4   8   87.10    4.25
   0   3   8    4.48    0.43
   0   3   8    4.88    0.44
   0   3   8    4.89    0.43
   1  -2  -8    0.15    0.14
  -1   2   8    0.15    0.17
  -1   2   8    0.07    0.16
  -1   2   8    0.29    0.12
  -1   2   8    0.37    0.15
   2  -1  -8    0.11    0.17
  -2   1   8    0.26    0.17
  -2   1   8    0.31    0.15
  -2   1   8    0.42    0.20
  -2   1   8    0.18    0.18
   3   0  -8   74.02    3.61
  -3   0   8   85.21    3.62
  -3   0   8   79.06    3.84
   4   1  -8    9.56    0.82
   4   1  -8   11.72    0.93
   4   1  -8   11.08    0.81
  -4  -1   8   10.09    0.78
   5   2  -8    0.72    0.37
   5   2  -8    0.90    0.30
   5   2  -8    0.16    0.30
  -5  -2   8    0.07    0.26
   6   3  -8    3.09    0.78
   6   3  -8    2.07    0.48
   4   6   8   -0.23    0.29
   4   6   8   -0.28    0.19
   4   6   8    0.17    0.36
   3   5   8    0.59    0.28
   3   5   8    0.60    0.34
   3   5   8    0.30    0.23
   2   4   8   26.23    1.53
   2   4   8   25.91    1.34
   2   4   8   22.98    1.36
   2   4   8   27.21    1.40
  -1  -3  -8    0.08    0.11
   1   3   8   -0.04    0.13
   1   3   8    0.05    0.12
   1   3   8   -0.11    0.19
   1   3   8   -0.09    0.13
   1   3   8    0.17    0.16
   1   3   8    0.03    0.10
   0  -2  -8   -0.01    0.10
   0   2   8   -0.02    0.12
   0   2   8   -0.03    0.13
   0   2   8   -0.12    0.12
   0   2   8   -0.04    0.12
   0   2   8   -0.05    0.08
   1  -1  -8   27.84    1.38
   1  -1  -8   28.71    1.50
  -1   1   8   29.33    1.48
  -1   1   8   29.00    1.48
  -1   1   8   30.07    1.39
  -1   1   8   28.37    1.37
   2   0  -8   18.96    1.13
   2   0  -8   21.44    1.06
  -2   0   8   19.64    1.13
  -2   0   8   20.04    1.06
  -2   0   8   20.91    1.13
   3   1  -8    1.16    0.27
   3   1  -8    0.56    0.32
   3   1  -8    1.31    0.33
  -3  -1   8    0.79    0.22
   4   2  -8    1.34    0.34
   4   2  -8    0.58    0.33
   4   2  -8    1.16    0.30
   4   2  -8    1.00    0.35
  -4  -2   8    1.15    0.31
   5   3  -8   29.43    1.95
   5   3  -8   33.29    1.87
   5   3  -8   29.32    1.62
   5   6   8    2.55    0.57
   5   6   8    3.04    0.74
   4   5   8    0.13    0.31
   4   5   8    1.00    0.38
   4   5   8    0.40    0.31
   3   4   8    1.27    0.36
   3   4   8    1.22    0.33
   3   4   8    1.24    0.24
   3   4   8    1.72    0.37
   3   4   8    1.20    0.36
   3   4   8    1.22    0.24
  -2  -3  -8    6.59    0.47
   2   3   8    6.18    0.52
   2   3   8    5.78    0.55
   2   3   8    6.78    0.55
   2   3   8    5.93    0.44
   2   3   8    7.43    0.62
   2   3   8    6.52    0.47
  -1  -2  -8    1.05    0.23
   1   2   8    1.01    0.22
   1   2   8    0.99    0.20
   1   2   8    0.92    0.19
   1   2   8    1.37    0.27
   1   2   8    1.15    0.16
   1   2   8    1.12    0.27
   0  -1  -8    9.82    0.63
   0  -1  -8    9.49    0.56
   0   1   8    9.91    0.62
   0   1   8   11.16    0.60
   0   1   8    9.11    0.61
   1   0  -8    1.22    0.24
   1   0  -8    1.50    0.28
   1   0  -8    1.89    0.26
  -1   0   8    1.68    0.23
  -1   0   8    1.74    0.28
   2   1  -8    1.65    0.30
   2   1  -8    2.38    0.31
   2   1  -8    1.39    0.28
   2   1  -8    1.31    0.31
   2   1  -8    1.63    0.25
  -2  -1   8    1.68    0.26
   3   2  -8    2.92    0.48
   3   2  -8    2.41    0.40
   3   2  -8    3.26    0.40
   3   2  -8    2.41    0.39
   3   2  -8    2.37    0.34
   3   2  -8    2.18    0.33
  -3  -2   8    2.77    0.37
   4   3  -8    0.39    0.22
   4   3  -8    0.13    0.19
   4   3  -8   -0.03    0.24
   4   3  -8    0.33    0.28
   4   3  -8    0.60    0.37
   5   4  -8    0.38    0.34
   5   4  -8    0.56    0.49
   5   4  -8    0.75    0.40
   5   4  -8    0.32    0.21
   5   5   8   -0.04    0.32
   5   5   8    0.89    0.42
   4   4   8    0.20    0.26
   4   4   8   -0.03    0.24
   4   4   8   -0.31    0.22
  -3  -3  -8    3.37    0.45
   3   3   8    2.38    0.43
   3   3   8    2.12    0.40
   3   3   8    2.67    0.46
   3   3   8    2.45    0.41
  -2  -2  -8    1.48    0.29
  -2  -2  -8    1.07    0.20
   2   2   8    1.47    0.30
   2   2   8    1.25    0.29
   2   2   8    1.50    0.29
   2   2   8    1.49    0.30
  -1  -1  -8   44.61    1.97
  -1  -1  -8   41.66    2.10
   1   1   8   44.58    2.09
   1   1   8   40.24    2.08
   1   1   8   43.50    2.10
   0   0  -8    4.67    0.39
   0   0  -8    4.48    0.37
   0   0  -8    4.60    0.33
   0   0   8    3.66    0.35
   0   0   8    4.67    0.38
   1   1  -8    0.07    0.12
   1   1  -8    0.16    0.15
   1   1  -8    0.15    0.15
   1   1  -8   -0.09    0.12
  -1  -1   8    0.18    0.13
   2   2  -8    9.71    0.63
   2   2  -8    9.27    0.55
   2   2  -8    9.02    0.70
   2   2  -8    9.21    0.72
   2   2  -8    9.27    0.63
  -2  -2   8    7.85    0.56
   3   3  -8   15.61    0.94
   3   3  -8   15.34    1.08
   3   3  -8   14.96    1.06
   3   3  -8   12.91    0.90
   4   4  -8    3.35    0.56
   4   4  -8    2.08    0.44
   4   4  -8    2.25    0.45
   4   4  -8    1.52    0.50
   5   5  -8    3.08    0.58
   5   5  -8    2.46    0.53
   5   5  -8    2.71    0.72
   5   4   8    3.35    0.51
   5   4   8    2.72    0.58
   5   4   8    3.52    0.67
  -4  -3  -8    1.84    0.38
   4   3   8    3.69    0.56
   4   3   8    3.35    0.48
   4   3   8    3.34    0.55
  -3  -2  -8    5.47    0.57
  -3  -2  -8    3.28    0.50
   3   2   8    4.88    0.56
   3   2   8    5.10    0.59
   3   2   8    6.08    0.50
   3   2   8    5.14    0.48
  -2  -1  -8   23.42    1.21
  -2  -1  -8   23.48    1.13
  -2  -1  -8   20.45    1.15
  -2  -1  -8   22.20    1.20
   2   1   8   21.35    1.22
   2   1   8   22.71    1.15
   2   1   8   21.87    1.13
   2   1   8   21.78    1.21
  -1   0  -8    0.33    0.16
  -1   0  -8    0.22    0.13
  -1   0  -8    0.41    0.14
  -1   0  -8    0.51    0.18
  -1   0  -8    0.29    0.17
   1   0   8    0.09    0.12
   1   0   8   -0.16    0.12
   0   1  -8    2.74    0.25
   0   1  -8    1.80    0.27
   0   1  -8    2.34    0.24
   0   1  -8    2.69    0.31
   0   1  -8    2.20    0.24
   0   1  -8    2.48    0.35
   0  -1   8    2.38    0.28
   1   2  -8   -0.06    0.15
   1   2  -8    0.04    0.13
   1   2  -8    0.00    0.14
   1   2  -8   -0.06    0.13
   2   3  -8   19.17    1.27
   2   3  -8   20.08    1.09
   2   3  -8   20.01    1.08
   2   3  -8   20.63    1.23
   3   4  -8    0.20    0.21
   3   4  -8    0.05    0.28
   3   4  -8    0.33    0.28
   4   5  -8    2.47    0.55
   4   5  -8    2.41    0.59
  -5  -3  -8    3.93    0.58
   5   3   8    6.36    0.75
   5   3   8    5.01    0.78
   5   3   8    5.92    0.76
  -4  -2  -8   16.52    1.06
   4   2   8   18.10    1.09
   4   2   8   17.30    1.08
   4   2   8   17.64    1.19
  -3  -1  -8    1.26    0.27
  -3  -1  -8    1.45    0.35
  -3  -1  -8    1.89    0.22
  -3  -1  -8    1.52    0.20
   3   1   8    1.73    0.27
   3   1   8    1.12    0.30
   3   1   8    1.90    0.41
  -2   0  -8   11.38    0.71
  -2   0  -8   10.89    0.63
  -2   0  -8   10.57    0.72
  -2   0  -8   11.63    0.66
  -2   0  -8   12.13    0.76
  -2   0  -8   11.49    0.66
   2   0   8   12.36    0.80
  -1   1  -8    8.84    0.60
  -1   1  -8   10.25    0.51
  -1   1  -8    7.90    0.57
  -1   1  -8    9.46    0.66
  -1   1  -8    9.35    0.49
  -1   1  -8    9.21    0.59
   1  -1   8    8.77    0.61
   0   2  -8   25.23    1.29
   0   2  -8   26.25    1.30
   0   2  -8   26.60    1.49
   0  -2   8   25.50    1.27
   1   3  -8    1.95    0.33
   1   3  -8    2.13    0.40
   2   4  -8    0.76    0.31
   2   4  -8    0.33    0.27
   3   5  -8    0.08    0.32
   3   5  -8   -0.32    0.26
   4   6  -8    0.33    0.45
   4   6  -8   -0.03    0.36
  -6  -3  -8    0.44    0.34
   6   3   8    0.73    0.43
   6   3   8    0.52    0.55
  -5  -2  -8    0.24    0.27
   5   2   8    0.86    0.35
   5   2   8   -0.02    0.34
  -4  -1  -8   29.30    1.58
  -4  -1  -8   31.03    1.54
   4   1   8   28.98    1.74
   4   1   8   28.99    1.64
  -3   0  -8    0.98    0.25
  -3   0  -8    1.14    0.31
  -3   0  -8    1.13    0.25
  -3   0  -8    1.40    0.26
  -3   0  -8    1.23    0.32
   3   0   8    1.01    0.34
   3   0   8    1.17    0.34
  -2   1  -8    0.08    0.19
  -2   1  -8    0.38    0.14
  -2   1  -8    0.53    0.24
  -2   1  -8    0.58    0.19
  -2   1  -8    0.59    0.14
  -2   1  -8    0.32    0.18
   2  -1   8    0.46    0.25
  -1   2  -8    4.58    0.53
  -1   2  -8    4.74    0.59
   1  -2   8    4.42    0.48
   0   3  -8   30.25    1.65
   0   3  -8   26.07    1.37
   0   3  -8   26.16    1.50
   0  -3   8   25.51    1.33
   1   4  -8    1.22    0.38
   1   4  -8    1.54    0.37
   2   5  -8    0.18    0.31
   2   5  -8    0.00    0.27
   3   6  -8   14.04    1.27
   3   6  -8   14.31    1.19
  -5  -1  -8    0.11    0.22
   5   1   8    0.27    0.38
  -4   0  -8    4.24    0.51
  -4   0  -8    5.45    0.60
  -4   0  -8    4.91    0.68
   4   0   8    5.11    0.69
  -3   1  -8    6.27    0.57
  -3   1  -8    5.85    0.65
  -3   1  -8    7.19    0.63
  -3   1  -8    5.10    0.62
   3  -1   8    5.13    0.67
  -2   2  -8    2.42    0.41
  -2   2  -8    2.56    0.38
  -2   2  -8    2.76    0.41
  -2   2  -8    2.53    0.46
   2  -2   8    1.99    0.41
  -1   3  -8    3.62    0.60
  -1   3  -8    3.24    0.53
   1  -3   8    3.04    0.43
   0   4  -8    1.11    0.35
   0   4  -8    1.29    0.29
   0   4  -8    0.59    0.37
   1   5  -8    2.20    0.46
   1   5  -8    2.67    0.60
   2   6  -8    4.78    0.91
   2   6  -8    5.29    0.77
  -5   0  -8    3.04    0.46
   5   0   8    2.48    0.68
  -4   1  -8    3.87    0.63
  -4   1  -8    3.39    0.56
   4  -1   8    4.13    0.70
  -3   2  -8    0.82    0.35
  -3   2  -8    0.72    0.28
  -3   2  -8    0.44    0.31
  -3   2  -8    0.40    0.29
   3  -2   8    0.28    0.29
  -2   3  -8    0.14    0.30
  -2   3  -8    0.76    0.32
   2  -3   8    0.43    0.31
  -1   4  -8    3.66    0.69
  -1   4  -8    3.10    0.57
   1  -4   8    4.03    0.52
   0   5  -8    0.36    0.33
   0   5  -8   -0.01    0.34
   1   6  -8    2.17    0.74
  -4   2  -8    4.17    0.69
  -4   2  -8    3.34    0.60
   4  -2   8    3.83    0.74
  -3   3  -8    1.06    0.46
  -3   3  -8    0.51    0.35
   3  -3   8    1.36    0.45
  -2   4  -8    0.69    0.42
  -2   4  -8    1.62    0.59
   2  -4   8    1.09    0.38
  -1   5  -8    0.03    0.46
  -1   5  -8   -0.20    0.33
   0   6  -8    4.67    0.98
   0   6  -8    4.11    0.80
   0   6   9    0.21    0.39
  -1   5   9    0.31    0.41
  -2   4   9    0.13    0.32
  -2   4   9    0.59    0.28
  -3   3   9    0.25    0.36
  -3   3   9   -0.03    0.26
   4  -2  -9    3.21    0.71
  -4   2   9    2.68    0.39
  -4   2   9    2.46    0.66
  -4   2   9    3.88    0.63
   1   6   9    4.27    0.71
   0   5   9   -0.07    0.27
  -1   4   9    0.84    0.27
  -1   4   9    1.21    0.39
  -1   4   9    1.29    0.31
  -2   3   9    0.17    0.24
  -2   3   9   -0.12    0.24
  -2   3   9    0.19    0.21
  -3   2   9    0.16    0.18
  -3   2   9    0.11    0.24
   4  -1  -9    0.60    0.39
  -4   1   9    1.87    0.35
   5   0  -9    0.50    0.44
   5   0  -9   -0.52    0.36
  -5   0   9   -0.12    0.24
   2   6   9    0.58    0.42
   2   6   9    1.10    0.39
   1   5   9    0.13    0.25
   0   4   9    3.62    0.54
   0   4   9    2.45    0.37
   0   4   9    3.33    0.42
  -1   3   9    0.53    0.22
  -1   3   9    0.01    0.17
  -1   3   9    0.42    0.24
  -2   2   9   -0.14    0.18
  -2   2   9   -0.07    0.13
  -2   2   9   -0.04    0.15
  -2   2   9   -0.18    0.17
  -3   1   9    3.04    0.48
  -3   1   9    2.37    0.37
   4   0  -9   28.22    1.65
   4   0  -9   25.42    1.64
  -4   0   9   26.65    1.46
   5   1  -9    1.16    0.46
   5   1  -9    0.65    0.42
   5   1  -9    0.86    0.42
  -5  -1   9    0.94    0.35
   3   6   9    0.47    0.40
   2   5   9    0.28    0.21
   2   5   9   -0.21    0.23
   2   5   9   -0.06    0.18
   2   5   9    0.23    0.22
   1   4   9    0.78    0.24
   1   4   9    1.52    0.32
   1   4   9    1.49    0.30
   0   3   9    0.54    0.20
   0   3   9    0.81    0.23
   0   3   9    1.10    0.25
   0   3   9    0.85    0.16
   1  -2  -9   -0.01    0.12
  -1   2   9   -0.10    0.15
  -1   2   9   -0.01    0.12
  -1   2   9   -0.03    0.11
  -1   2   9    0.03    0.17
   2  -1  -9    1.31    0.27
  -2   1   9    0.91    0.23
  -2   1   9    0.81    0.26
  -2   1   9    0.80    0.24
   3   0  -9    0.02    0.21
  -3   0   9    0.11    0.19
  -3   0   9    0.10    0.18
   4   1  -9    3.21    0.51
   4   1  -9    3.64    0.60
   4   1  -9    3.22    0.54
  -4  -1   9    2.95    0.48
   5   2  -9    0.14    0.31
   5   2  -9    0.09    0.34
   5   2  -9    0.05    0.27
   4   6   9    0.56    0.31
   4   6   9    0.90    0.51
   3   5   9    0.29    0.28
   3   5   9   -0.12    0.22
   3   5   9    0.15    0.23
   2   4   9    4.61    0.52
   2   4   9    4.93    0.42
   2   4   9    5.51    0.50
   2   4   9    5.45    0.70
  -1  -3  -9   42.35    2.02
   1   3   9   40.21    2.13
   1   3   9   45.53    1.97
   1   3   9   41.60    1.96
   1   3   9   45.21    2.16
   1   3   9   44.30    2.11
   0  -2  -9    0.12    0.13
   0   2   9   -0.04    0.14
   0   2   9    0.10    0.13
   0   2   9    0.00    0.12
   0   2   9   -0.01    0.14
   0   2   9    0.02    0.09
   1  -1  -9    6.58    0.53
   1  -1  -9    5.37    0.43
  -1   1   9    6.57    0.51
  -1   1   9    6.12    0.49
  -1   1   9    5.88    0.45
   2   0  -9   58.53    2.84
   2   0  -9   56.92    2.65
  -2   0   9   58.28    2.82
  -2   0   9   57.71    2.66
   3   1  -9    7.10    0.76
   3   1  -9    8.04    0.62
   3   1  -9    7.78    0.74
  -3  -1   9    8.41    0.61
   4   2  -9    2.85    0.56
   4   2  -9    3.03    0.49
   4   2  -9    4.05    0.52
   5   3  -9    1.60    0.49
   5   3  -9    1.63    0.38
   5   3  -9    0.66    0.34
   4   5   9    0.77    0.41
   4   5   9    0.42    0.32
   4   5   9    0.61    0.34
   3   4   9    9.58    0.76
   3   4   9    9.32    0.63
   3   4   9    8.88    0.61
   3   4   9    9.77    0.81
   3   4   9    8.60    0.77
   3   4   9   10.84    0.78
  -2  -3  -9    0.25    0.16
   2   3   9   -0.06    0.17
   2   3   9   -0.05    0.16
   2   3   9    0.40    0.24
   2   3   9    0.19    0.19
   2   3   9    0.33    0.16
   2   3   9    0.34    0.18
  -1  -2  -9    0.17    0.13
   1   2   9   -0.08    0.12
   1   2   9   -0.06    0.13
   1   2   9    0.05    0.10
   1   2   9   -0.10    0.07
   1   2   9    0.31    0.18
   0  -1  -9    5.45    0.44
   0  -1  -9    4.53    0.36
   0   1   9    4.62    0.42
   0   1   9    4.67    0.39
   0   1   9    4.59    0.42
   1   0  -9   89.99    3.82
   1   0  -9   87.06    4.04
   1   0  -9   88.10    4.06
  -1   0   9   83.16    3.82
  -1   0   9   84.04    4.04
   2   1  -9    0.50    0.17
   2   1  -9    0.76    0.22
   2   1  -9    0.93    0.27
   2   1  -9    1.09    0.29
   2   1  -9    0.68    0.23
  -2  -1   9    0.50    0.19
   3   2  -9    2.12    0.39
   3   2  -9    3.10    0.46
   3   2  -9    3.26    0.42
   3   2  -9    3.13    0.55
   3   2  -9    2.91    0.37
  -3  -2   9    2.09    0.34
   4   3  -9    0.60    0.29
   4   3  -9    0.39    0.35
   4   3  -9    0.24    0.21
   4   3  -9    0.26    0.27
   5   4  -9    2.04    0.52
   5   4  -9    2.53    0.70
   5   4  -9    2.07    0.52
   5   5   9    6.38    0.90
   5   5   9    5.01    0.77
   4   4   9    1.14    0.39
   4   4   9    1.03    0.38
   4   4   9    1.71    0.43
  -3  -3  -9    0.31    0.18
   3   3   9    0.17    0.22
   3   3   9    0.25    0.24
   3   3   9    0.24    0.24
  -2  -2  -9    8.47    0.63
  -2  -2  -9    9.14    0.58
   2   2   9    8.91    0.62
   2   2   9    7.64    0.64
   2   2   9    8.74    0.66
   2   2   9    8.24    0.63
  -1  -1  -9    7.71    0.57
  -1  -1  -9    7.87    0.51
   1   1   9    6.91    0.54
   1   1   9    8.82    0.59
   0   0  -9    1.81    0.27
   0   0  -9    2.00    0.30
   0   0  -9    2.67    0.30
   0   0   9    2.44    0.31
   1   1  -9    2.21    0.31
   1   1  -9    1.91    0.25
   1   1  -9    1.56    0.22
   1   1  -9    1.93    0.31
   1   1  -9    1.51    0.26
  -1  -1   9    1.94    0.27
   2   2  -9    0.17    0.22
   2   2  -9    0.02    0.14
   2   2  -9    0.08    0.21
   2   2  -9    0.06    0.17
   2   2  -9   -0.05    0.15
  -2  -2   9    0.03    0.14
   3   3  -9    0.01    0.22
   3   3  -9    0.26    0.28
   3   3  -9    0.40    0.23
   3   3  -9    0.13    0.22
   4   4  -9    0.80    0.42
   4   4  -9    0.15    0.30
   4   4  -9    0.96    0.36
   4   4  -9    1.16    0.42
   5   5  -9    1.64    0.50
   5   5  -9    1.09    0.61
   5   5  -9    2.15    0.52
   5   4   9   12.00    0.99
   5   4   9   10.42    1.13
   5   4   9   10.36    0.84
  -4  -3  -9    0.50    0.28
   4   3   9    0.08    0.20
   4   3   9    0.08    0.26
   4   3   9    0.01    0.23
  -3  -2  -9    0.10    0.14
   3   2   9   -0.09    0.17
   3   2   9   -0.07    0.20
   3   2   9   -0.06    0.17
   3   2   9   -0.09    0.19
  -2  -1  -9    0.25    0.16
  -2  -1  -9    0.29    0.16
  -2  -1  -9    0.12    0.17
  -2  -1  -9    0.08    0.13
   2   1   9    0.14    0.13
   2   1   9   -0.06    0.15
   2   1   9    0.32    0.19
   2   1   9    0.07    0.19
  -1   0  -9    9.36    0.64
  -1   0  -9    9.57    0.57
  -1   0  -9    9.54    0.58
  -1   0  -9    9.24    0.63
  -1   0  -9    8.86    0.64
   1   0   9   10.59    0.62
   1   0   9   10.94    0.66
   0   1  -9   12.48    0.68
   0   1  -9   13.89    0.78
   0   1  -9   12.99    0.73
   0   1  -9   13.83    0.69
   0   1  -9   13.55    0.87
   0  -1   9   13.38    0.75
   1   2  -9    1.77    0.34
   1   2  -9    1.43    0.28
   1   2  -9    2.02    0.31
   1   2  -9    1.35    0.25
   2   3  -9   20.98    1.34
   2   3  -9   21.96    1.12
   2   3  -9   18.69    1.24
   2   3  -9   19.14    1.09
   3   4  -9   -0.10    0.23
   3   4  -9    0.39    0.21
   3   4  -9    0.15    0.23
   3   4  -9    0.10    0.30
   4   5  -9   -0.07    0.28
   4   5  -9    0.07    0.42
   4   5  -9    0.09    0.25
  -5  -3  -9    9.13    0.77
   5   3   9    8.23    0.88
   5   3   9    7.37    0.82
   5   3   9    6.01    0.80
  -4  -2  -9   15.79    0.98
   4   2   9   15.95    1.11
   4   2   9   15.33    1.03
   4   2   9   15.19    1.00
  -3  -1  -9   13.67    0.75
  -3  -1  -9   12.40    0.79
  -3  -1  -9   13.09    0.91
  -3  -1  -9   13.22    0.69
   3   1   9   12.76    0.74
   3   1   9   12.91    0.92
   3   1   9   12.61    0.84
  -2   0  -9    6.10    0.44
  -2   0  -9    7.93    0.55
  -2   0  -9    6.83    0.49
  -2   0  -9    7.14    0.51
  -2   0  -9    7.46    0.59
  -2   0  -9    8.62    0.58
   2   0   9    7.09    0.61
   2   0   9    6.82    0.54
  -1   1  -9    3.88    0.30
  -1   1  -9    4.00    0.29
  -1   1  -9    3.89    0.35
  -1   1  -9    3.51    0.41
  -1   1  -9    4.78    0.40
  -1   1  -9    3.81    0.46
   1  -1   9    4.07    0.44
   1  -1   9    3.55    0.39
   0   2  -9   21.79    1.16
   0   2  -9   20.23    1.13
   0   2  -9   22.56    1.17
   0   2  -9   27.04    1.41
   0  -2   9   22.80    1.14
   1   3  -9   45.83    2.25
   1   3  -9   43.01    2.42
   2   4  -9    1.19    0.37
   2   4  -9    0.83    0.33
   3   5  -9    0.05    0.29
   3   5  -9    0.18    0.33
   4   6  -9    1.85    0.56
   4   6  -9    1.67    0.60
  -5  -2  -9    0.24    0.24
   5   2   9    0.26    0.29
   5   2   9    0.20    0.35
  -4  -1  -9    0.02    0.18
   4   1   9   -0.16    0.27
   4   1   9   -0.03    0.28
  -3   0  -9   27.60    1.45
  -3   0  -9   28.76    1.48
  -3   0  -9   29.36    1.58
  -3   0  -9   30.27    1.65
   3   0   9   29.00    1.66
  -2   1  -9    0.31    0.14
  -2   1  -9    0.26    0.12
  -2   1  -9    0.07    0.19
  -2   1  -9    0.48    0.20
  -2   1  -9    0.33    0.20
  -2   1  -9    0.37    0.23
   2  -1   9    0.31    0.24
  -1   2  -9    8.23    0.57
  -1   2  -9    9.09    0.68
  -1   2  -9    7.18    0.57
  -1   2  -9    9.35    0.75
   1  -2   9    8.76    0.62
   0   3  -9    5.92    0.73
   0   3  -9    4.98    0.43
   0  -3   9    5.44    0.41
   1   4  -9    6.06    0.75
   1   4  -9    5.49    0.63
   2   5  -9   -0.18    0.25
   2   5  -9    0.35    0.33
   3   6  -9    0.72    0.43
   3   6  -9    0.21    0.38
  -5  -1  -9    0.93    0.32
   5   1   9    0.64    0.42
  -4   0  -9    4.17    0.49
  -4   0  -9    3.09    0.54
   4   0   9    4.66    0.70
  -3   1  -9    4.06    0.52
  -3   1  -9    2.75    0.46
  -3   1  -9    5.27    0.61
  -3   1  -9    5.27    0.64
   3  -1   9    6.05    0.72
  -2   2  -9    2.31    0.47
  -2   2  -9    2.05    0.39
  -2   2  -9    1.38    0.34
  -2   2  -9    1.76    0.35
   2  -2   9    1.84    0.41
  -1   3  -9   20.00    1.31
  -1   3  -9   16.01    1.12
   1  -3   9   16.69    1.04
   0   4  -9    0.75    0.32
   0   4  -9    1.18    0.42
   1   5  -9    1.16    0.38
   1   5  -9    1.79    0.50
   2   6  -9    0.62    0.45
   2   6  -9    0.47    0.41
  -5   0  -9    2.24    0.42
   5   0   9    1.10    0.55
  -4   1  -9    0.40    0.34
   4  -1   9    0.97    0.43
  -3   2  -9   -0.13    0.25
  -3   2  -9   -0.21    0.25
  -3   2  -9   -0.31    0.24
  -3   2  -9    0.33    0.26
   3  -2   9   -0.05    0.29
  -2   3  -9   -0.21    0.23
  -2   3  -9   -0.10    0.26
   2  -3   9    0.09    0.27
  -1   4  -9    0.12    0.32
  -1   4  -9    0.19    0.29
   1  -4   9   -0.36    0.24
   0   5  -9   -0.11    0.28
   0   5  -9    0.38    0.41
   1   6  -9   -0.05    0.47
  -4   2  -9    0.29    0.34
  -4   2  -9    0.39    0.41
   4  -2   9    0.47    0.44
  -3   3  -9    3.27    0.64
  -3   3  -9    4.18    0.75
   3  -3   9    2.30    0.57
  -2   4  -9    1.77    0.54
  -2   4  -9    1.64    0.59
   2  -4   9    1.43    0.42
  -1   5  -9    2.30    0.66
  -1   5  -9    2.75    0.78
   0   6  10   18.93    1.42
  -1   5  10    2.58    0.62
  -2   4  10    0.78    0.33
  -2   4  10    0.39    0.29
  -2   4  10    0.59    0.39
  -3   3  10    5.16    0.83
  -3   3  10    6.90    0.80
   4  -2 -10    0.97    0.52
  -4   2  10    0.45    0.28
  -4   2  10    0.38    0.49
   1   6  10    1.69    0.50
   0   5  10    0.93    0.39
  -1   4  10    0.21    0.26
  -1   4  10    0.26    0.21
  -1   4  10   -0.13    0.20
  -2   3  10    4.33    0.56
  -2   3  10    3.94    0.62
  -2   3  10    4.77    0.61
  -3   2  10    0.23    0.29
  -3   2  10    0.39    0.20
   4  -1 -10    2.99    0.62
  -4   1  10    3.95    0.52
   5   0 -10    1.67    0.58
   5   0 -10    2.70    0.68
  -5   0  10    1.80    0.45
   2   6  10    0.64    0.40
   2   6  10    0.34    0.31
   1   5  10    0.49    0.30
   0   4  10    0.73    0.25
   0   4  10    0.41    0.21
   0   4  10    1.08    0.33
  -1   3  10    2.61    0.41
  -1   3  10    3.43    0.45
  -1   3  10    3.53    0.52
  -2   2  10    0.80    0.27
  -2   2  10    1.25    0.25
  -2   2  10    0.47    0.24
  -3   1  10    0.07    0.21
  -3   1  10    0.11    0.18
   4   0 -10    1.51    0.43
   4   0 -10    0.22    0.30
   4   0 -10    0.70    0.38
  -4   0  10    0.37    0.28
   5   1 -10    0.27    0.34
   5   1 -10    0.81    0.43
   5   1 -10    0.74    0.39
  -5  -1  10    0.74    0.34
   3   6  10    0.20    0.26
   3   6  10    0.30    0.25
   3   6  10   -0.20    0.31
   2   5  10    0.55    0.24
   2   5  10    0.20    0.22
   2   5  10    0.52    0.25
   2   5  10   -0.11    0.27
   1   4  10    5.84    0.56
   1   4  10    7.86    0.58
   1   4  10    6.69    0.57
   0   3  10   74.21    3.42
   0   3  10   76.66    3.43
   0   3  10   75.83    3.69
   0   3  10   78.58    3.71
   0   3  10   85.39    3.73
   1  -2 -10    0.30    0.16
  -1   2  10    0.52    0.19
  -1   2  10    0.44    0.24
  -1   2  10    0.50    0.23
  -1   2  10    0.51    0.17
   2  -1 -10    4.69    0.51
  -2   1  10    4.00    0.44
  -2   1  10    3.51    0.50
   3   0 -10   13.97    0.91
  -3   0  10   13.66    0.87
   4   1 -10    8.00    0.84
   4   1 -10    6.70    0.73
   4   1 -10    7.43    0.90
  -4  -1  10    7.96    0.79
   5   2 -10   -0.02    0.21
   5   2 -10   -0.20    0.28
   5   2 -10    0.11    0.33
   4   6  10    4.12    0.77
   4   6  10    3.63    0.60
   3   5  10    1.33    0.37
   3   5  10    1.53    0.45
   3   5  10    0.56    0.28
   2   4  10   -0.16    0.14
   2   4  10    0.04    0.14
   2   4  10   -0.29    0.21
   2   4  10    0.20    0.15
   2   4  10    0.40    0.26
  -1  -3 -10    0.64    0.20
   1   3  10    0.60    0.19
   1   3  10    0.72    0.19
   1   3  10    0.59    0.18
   1   3  10    0.61    0.22
   1   3  10    0.59    0.23
   0  -2 -10    2.71    0.33
   0   2  10    2.33    0.28
   0   2  10    3.17    0.40
   0   2  10    2.33    0.31
   0   2  10    2.64    0.38
   0   2  10    3.17    0.35
   1  -1 -10    8.71    0.67
   1  -1 -10   10.02    0.61
  -1   1  10    8.55    0.64
  -1   1  10    9.06    0.60
  -1   1  10    9.75    0.67
   2   0 -10   13.76    0.76
   2   0 -10   11.18    0.80
  -2   0  10   11.51    0.74
  -2   0  10   11.34    0.80
   3   1 -10    4.37    0.52
   3   1 -10    4.42    0.64
   3   1 -10    4.90    0.60
  -3  -1  10    4.04    0.52
   4   2 -10    3.78    0.67
   4   2 -10    4.61    0.59
   4   2 -10    4.79    0.63
   5   3 -10   -0.12    0.29
   5   3 -10    0.14    0.38
   5   3 -10    0.16    0.24
   4   5  10    1.69    0.46
   4   5  10    1.87    0.49
   4   5  10    2.37    0.59
   3   4  10    6.46    0.53
   3   4  10    7.27    0.79
   3   4  10    7.47    0.83
   3   4  10    6.59    0.73
  -2  -3 -10   31.98    1.54
   2   3  10   31.61    1.51
   2   3  10   30.20    1.65
   2   3  10   30.33    1.52
   2   3  10   30.10    1.67
   2   3  10   27.65    1.63
   2   3  10   32.57    1.73
  -1  -2 -10    9.33    0.60
   1   2  10    9.83    0.68
   1   2  10    9.97    0.59
   1   2  10    9.18    0.52
   1   2  10   10.07    0.63
   1   2  10    8.96    0.65
   0  -1 -10    2.47    0.37
   0  -1 -10    3.04    0.36
   0   1  10    2.44    0.34
   0   1  10    2.88    0.36
   0   1  10    3.22    0.42
   1   0 -10   17.26    0.95
   1   0 -10   14.58    0.91
   1   0 -10   15.31    0.85
  -1   0  10   15.99    0.86
  -1   0  10   15.07    0.92
   2   1 -10    5.50    0.60
   2   1 -10    4.59    0.42
   2   1 -10    4.09    0.50
   2   1 -10    5.50    0.51
   2   1 -10    5.37    0.45
  -2  -1  10    5.45    0.44
   3   2 -10    0.73    0.31
   3   2 -10    0.25    0.24
   3   2 -10    0.69    0.33
   3   2 -10    0.20    0.19
   4   3 -10    0.02    0.34
   4   3 -10    0.06    0.17
   4   3 -10    0.17    0.28
   4   3 -10    0.05    0.30
   5   4 -10    3.08    0.64
   5   4 -10    3.63    0.67
   5   4 -10    3.85    0.82
   5   5  10    0.67    0.42
   5   5  10    1.03    0.47
   4   4  10    0.85    0.38
   4   4  10    0.56    0.33
   4   4  10    0.69    0.34
  -3  -3 -10    0.62    0.25
   3   3  10    1.03    0.32
   3   3  10    0.70    0.31
   3   3  10    0.35    0.25
  -2  -2 -10    1.99    0.31
  -2  -2 -10    3.03    0.46
   2   2  10    2.97    0.40
   2   2  10    2.73    0.44
   2   2  10    2.81    0.44
   2   2  10    2.23    0.38
  -1  -1 -10    9.44    0.68
  -1  -1 -10    9.44    0.71
  -1  -1 -10   10.83    0.62
   1   1  10    9.46    0.66
   1   1  10   10.79    0.71
   0   0 -10    5.78    0.48
   0   0 -10    6.62    0.45
   0   0 -10    6.14    0.50
   0   0  10    6.02    0.49
   0   0  10    6.58    0.48
   1   1 -10    9.93    0.69
   1   1 -10   10.97    0.60
   1   1 -10   10.08    0.60
   1   1 -10   10.10    0.68
   1   1 -10    9.97    0.67
  -1  -1  10    9.82    0.63
   2   2 -10    3.27    0.50
   2   2 -10    2.95    0.47
   2   2 -10    3.00    0.45
   2   2 -10    3.80    0.38
   2   2 -10    4.51    0.52
  -2  -2  10    3.64    0.41
   3   3 -10    1.30    0.33
   3   3 -10    1.27    0.43
   3   3 -10    0.91    0.29
   3   3 -10    0.69    0.29
   4   4 -10    6.51    0.79
   4   4 -10    6.79    0.96
   4   4 -10    7.18    0.89
   4   4 -10    6.48    0.76
   5   5 -10    2.85    0.60
   5   5 -10    2.58    0.80
   5   5 -10    2.50    0.59
   5   4  10    0.56    0.29
   5   4  10   -0.06    0.29
   5   4  10    0.02    0.35
  -4  -3 -10    3.59    0.49
   4   3  10    3.58    0.58
   4   3  10    2.88    0.52
   4   3  10    3.67    0.54
  -3  -2 -10    0.59    0.22
   3   2  10    0.25    0.22
   3   2  10    0.16    0.20
   3   2  10    0.19    0.24
  -2  -1 -10    7.55    0.54
  -2  -1 -10    6.39    0.57
  -2  -1 -10    7.02    0.51
  -2  -1 -10    7.46    0.58
   2   1  10    6.31    0.57
   2   1  10    7.82    0.58
   2   1  10    6.63    0.60
  -1   0 -10    2.29    0.28
  -1   0 -10    2.44    0.35
  -1   0 -10    2.69    0.37
  -1   0 -10    2.57    0.36
  -1   0 -10    1.92    0.28
   1   0  10    2.31    0.35
   1   0  10    2.33    0.31
   0   1 -10    5.27    0.55
   0   1 -10    4.32    0.36
   0   1 -10    4.34    0.46
   0   1 -10    3.45    0.42
   0   1 -10    4.48    0.34
   0   1 -10    4.78    0.34
   0  -1  10    5.01    0.40
   1   2 -10    1.51    0.28
   1   2 -10    1.67    0.37
   1   2 -10    1.20    0.26
   1   2 -10    1.78    0.32
   2   3 -10    0.13    0.18
   2   3 -10    0.03    0.24
   2   3 -10    0.28    0.24
   2   3 -10   -0.08    0.16
   3   4 -10    0.71    0.34
   3   4 -10    0.70    0.29
   3   4 -10    0.48    0.28
   3   4 -10    0.36    0.35
   4   5 -10    0.01    0.30
   4   5 -10    0.41    0.42
  -5  -3 -10    1.27    0.38
   5   3  10    0.37    0.36
   5   3  10    0.73    0.34
  -4  -2 -10   15.19    0.95
   4   2  10   13.34    1.06
   4   2  10   15.25    1.02
  -3  -1 -10    4.09    0.39
  -3  -1 -10    3.95    0.55
  -3  -1 -10    3.38    0.43
   3   1  10    2.96    0.48
   3   1  10    3.60    0.34
   3   1  10    3.33    0.47
  -2   0 -10   43.03    2.29
  -2   0 -10   44.32    2.26
  -2   0 -10   46.01    2.27
  -2   0 -10   45.30    2.11
  -2   0 -10   41.07    2.11
  -2   0 -10   46.14    2.10
   2   0  10   50.39    2.18
   2   0  10   46.99    2.30
  -1   1 -10    0.79    0.26
  -1   1 -10    1.07    0.28
  -1   1 -10    0.90    0.17
  -1   1 -10    0.60    0.21
  -1   1 -10    1.12    0.20
   1  -1  10    0.99    0.23
   1  -1  10    1.23    0.27
   0   2 -10    1.79    0.30
   0   2 -10    1.35    0.22
   0   2 -10    1.22    0.33
   0   2 -10    1.87    0.31
   0  -2  10    1.57    0.26
   1   3 -10    2.48    0.39
   1   3 -10    2.46    0.47
   2   4 -10   13.12    1.05
   2   4 -10   11.57    0.89
   3   5 -10   -0.08    0.31
   3   5 -10   -0.03    0.32
   4   6 -10   -0.43    0.40
   4   6 -10    0.38    0.54
  -5  -2 -10    1.99    0.42
   5   2  10    1.65    0.46
   5   2  10    1.64    0.52
  -4  -1 -10    0.01    0.19
   4   1  10    0.31    0.30
  -3   0 -10   14.75    0.88
  -3   0 -10   14.31    1.05
  -3   0 -10   14.64    0.87
  -3   0 -10   16.32    0.98
   3   0  10   16.55    1.09
  -2   1 -10   -0.13    0.11
  -2   1 -10    0.05    0.11
  -2   1 -10    0.10    0.20
  -2   1 -10   -0.07    0.19
  -2   1 -10   -0.26    0.19
  -2   1 -10   -0.06    0.17
   2  -1  10   -0.34    0.20
  -1   2 -10    9.33    0.79
  -1   2 -10    7.93    0.61
  -1   2 -10    8.12    0.59
  -1   2 -10    9.30    0.68
   1  -2  10    9.02    0.65
   0   3 -10   40.73    1.96
   0   3 -10   41.42    2.28
   0  -3  10   37.53    1.90
   1   4 -10   -0.29    0.21
   1   4 -10    0.15    0.22
   2   5 -10   -0.01    0.31
   2   5 -10    0.29    0.29
   3   6 -10    2.25    0.67
   3   6 -10    1.07    0.49
  -5  -1 -10    1.30    0.41
   5   1  10    1.46    0.50
  -4   0 -10    0.02    0.33
  -4   0 -10   -0.09    0.17
   4   0  10    0.59    0.33
  -3   1 -10    4.73    0.55
  -3   1 -10    3.96    0.54
  -3   1 -10    5.33    0.66
  -3   1 -10    4.94    0.62
   3  -1  10    4.00    0.64
  -2   2 -10    0.74    0.30
  -2   2 -10    0.98    0.37
  -2   2 -10    1.12    0.32
  -2   2 -10    0.87    0.27
   2  -2  10    0.42    0.29
  -1   3 -10    0.36    0.33
  -1   3 -10    0.61    0.30
   1  -3  10    0.28    0.24
   0   4 -10    0.71    0.37
   1   5 -10    0.18    0.34
   2   6 -10    0.02    0.39
   2   6 -10    1.54    0.60
  -5   0 -10    5.75    0.65
   5   0  10    6.13    0.94
  -4   1 -10    0.05    0.33
   4  -1  10    0.34    0.40
  -3   2 -10   -0.10    0.28
  -3   2 -10    0.35    0.29
  -3   2 -10    0.05    0.31
  -3   2 -10    0.12    0.23
   3  -2  10    0.41    0.34
  -2   3 -10    0.48    0.34
  -2   3 -10    0.11    0.35
   2  -3  10    0.56    0.31
  -1   4 -10    0.25    0.32
  -1   4 -10    0.46    0.41
   0   5 -10    0.44    0.49
   1   6 -10    1.40    0.71
  -4   2 -10   -0.30    0.32
   4  -2  10   -0.42    0.45
  -3   3 -10    0.42    0.40
  -3   3 -10    1.01    0.43
   3  -3  10    0.71    0.46
  -2   4 -10   -0.36    0.42
  -2   4 -10    0.34    0.43
  -1   5 -10    1.12    0.65
  -1   5 -10    0.73    0.49
   0   6  11    9.43    1.12
  -1   5  11    0.26    0.40
  -2   4  11   -0.22    0.32
  -2   4  11   -0.16    0.24
  -3   3  11    0.35    0.33
  -3   3  11    1.50    0.53
   4  -2 -11    3.24    0.72
  -4   2  11    4.25    0.50
   1   6  11    3.44    0.69
   0   5  11    3.17    0.60
  -1   4  11    1.27    0.33
  -1   4  11    1.67    0.41
  -1   4  11    1.49    0.34
  -2   3  11    1.59    0.41
  -2   3  11    1.15    0.39
  -3   2  11    6.37    0.56
  -3   2  11    6.14    0.73
  -4   1  11    3.11    0.49
   5   0 -11    1.40    0.56
   5   0 -11    1.07    0.51
  -5   0  11    0.55    0.33
   1   5  11    0.42    0.27
   1   5  11    0.13    0.24
   1   5  11    0.16    0.27
   0   4  11    5.22    0.64
   0   4  11    4.37    0.51
   0   4  11    4.74    0.56
  -1   3  11    0.53    0.18
  -1   3  11    0.78    0.29
  -1   3  11    0.30    0.15
  -1   3  11    0.71    0.24
  -1   3  11    0.13    0.21
  -2   2  11    4.20    0.46
  -2   2  11    3.89    0.54
  -3   1  11    2.46    0.41
   4   0 -11    0.07    0.30
   4   0 -11    0.14    0.27
  -4   0  11    0.25    0.24
   5   1 -11   -0.34    0.27
   5   1 -11    0.37    0.39
   5   1 -11   -0.04    0.33
  -5  -1  11    0.27    0.25
   3   6  11    6.22    0.71
   3   6  11    6.91    0.97
   3   6  11    5.61    0.68
   2   5  11    1.08    0.40
   2   5  11    0.39    0.23
   2   5  11    0.88    0.29
   1   4  11    0.04    0.18
   1   4  11    0.04    0.19
   1   4  11    0.05    0.19
   0   3  11   11.86    0.79
   0   3  11   13.48    0.71
   0   3  11   10.70    0.80
   0   3  11   13.65    0.85
   0   3  11   12.40    0.69
   1  -2 -11    1.32    0.26
  -1   2  11    0.37    0.24
  -1   2  11    1.02    0.28
  -1   2  11    1.22    0.25
   2  -1 -11    3.25    0.42
  -2   1  11    2.79    0.44
  -2   1  11    2.85    0.39
   3   0 -11    0.08    0.22
  -3   0  11    0.59    0.23
   4   1 -11    5.49    0.73
   4   1 -11    4.75    0.71
   4   1 -11    5.15    0.61
  -4  -1  11    5.72    0.67
   5   2 -11    0.01    0.35
   5   2 -11    0.17    0.29
   5   2 -11   -0.04    0.31
   4   6  11    4.26    0.78
   4   6  11    3.51    0.62
   3   5  11    1.43    0.48
   3   5  11    0.39    0.29
   2   4  11   -0.15    0.18
   2   4  11    0.30    0.25
   2   4  11    0.01    0.14
   2   4  11    0.30    0.23
   2   4  11    0.34    0.17
   1   3  11   98.74    4.45
   1   3  11  100.06    4.67
   1   3  11   93.37    4.75
   1   3  11  107.31    4.77
   1   3  11  105.44    4.45
   0  -2 -11    5.09    0.47
   0   2  11    3.56    0.38
   0   2  11    5.04    0.55
   0   2  11    3.33    0.39
   0   2  11    4.06    0.42
   0   2  11    4.55    0.52
   1  -1 -11    1.37    0.27
   1  -1 -11    1.47    0.33
  -1   1  11    1.05    0.25
  -1   1  11    0.96    0.26
  -1   1  11    1.90    0.30
   2   0 -11    0.40    0.19
   2   0 -11    0.40    0.23
  -2   0  11   -0.20    0.13
  -2   0  11    0.01    0.21
   3   1 -11   85.07    3.75
   3   1 -11   75.95    4.01
   3   1 -11   79.01    4.10
  -3  -1  11   87.45    3.78
   4   2 -11    4.74    0.60
   4   2 -11    5.20    0.79
   4   2 -11    7.67    0.77
   5   3 -11   -0.30    0.22
   5   3 -11   -0.08    0.28
   5   3 -11    0.05    0.43
   4   5  11    0.17    0.24
   4   5  11    0.10    0.32
   4   5  11    0.14    0.34
   4   5  11    0.19    0.31
   3   4  11    2.84    0.39
   3   4  11    2.64    0.46
   3   4  11    3.57    0.56
   3   4  11    1.96    0.45
  -2  -3 -11    4.40    0.48
   2   3  11    4.96    0.60
   2   3  11    4.93    0.50
   2   3  11    4.44    0.56
   2   3  11    2.84    0.48
   2   3  11    4.52    0.55
  -1  -2 -11    0.38    0.17
  -1  -2 -11    0.26    0.21
   1   2  11    0.50    0.22
   1   2  11    0.28    0.20
   1   2  11    0.31    0.19
   1   2  11    0.40    0.11
   1   2  11    0.76    0.21
   0  -1 -11   -0.06    0.11
   0  -1 -11   -0.07    0.16
   0   1  11   -0.25    0.13
   0   1  11    0.07    0.16
   1   0 -11    0.41    0.19
   1   0 -11    0.26    0.20
   1   0 -11    0.36    0.21
  -1   0  11    0.62    0.19
  -1   0  11    0.61    0.22
   2   1 -11    0.28    0.21
   2   1 -11    0.52    0.20
   2   1 -11    0.85    0.29
   2   1 -11    0.38    0.27
  -2  -1  11    0.78    0.22
   3   2 -11    0.36    0.19
   3   2 -11    0.18    0.25
   3   2 -11   -0.02    0.27
   4   3 -11    1.10    0.44
   4   3 -11    0.28    0.20
   4   3 -11    0.03    0.29
   4   3 -11    0.57    0.30
   5   4 -11    9.65    1.10
   5   4 -11    9.13    1.06
   5   4 -11    9.67    1.30
   5   5  11    3.19    0.68
   5   5  11    2.50    0.63
   4   4  11    0.15    0.26
   4   4  11   -0.11    0.30
  -3  -3 -11   -0.16    0.17
   3   3  11    0.25    0.27
   3   3  11   -0.45    0.20
   3   3  11    0.21    0.27
  -2  -2 -11    4.76    0.53
   2   2  11    2.63    0.42
   2   2  11    2.70    0.43
  -1  -1 -11   -0.02    0.16
  -1  -1 -11    0.18    0.14
  -1  -1 -11   -0.21    0.14
   1   1  11    0.06    0.19
   1   1  11   -0.01    0.15
   0   0 -11    8.63    0.62
   0   0 -11    7.41    0.53
   0   0 -11    8.25    0.54
   0   0  11    8.21    0.59
   0   0  11    9.03    0.59
   1   1 -11    1.39    0.31
   1   1 -11    1.55    0.33
   1   1 -11    0.94    0.21
   1   1 -11    1.72    0.27
   1   1 -11    1.89    0.33
  -1  -1  11    1.51    0.29
   2   2 -11    0.34    0.22
   2   2 -11    0.54    0.26
   2   2 -11    0.08    0.22
   2   2 -11    0.28    0.17
   2   2 -11   -0.33    0.19
   2   2 -11    0.20    0.15
   3   3 -11    0.40    0.29
   3   3 -11    0.87    0.33
   3   3 -11    0.43    0.27
   3   3 -11    1.03    0.41
   4   4 -11    2.01    0.46
   4   4 -11    1.46    0.51
   4   4 -11    2.00    0.54
   5   4  11    0.00    0.36
   5   4  11   -0.26    0.31
  -4  -3 -11    0.30    0.22
   4   3  11    0.01    0.28
   4   3  11   -0.13    0.23
   4   3  11    0.22    0.29
  -3  -2 -11    1.35    0.31
   3   2  11    1.63    0.32
   3   2  11    1.94    0.40
   3   2  11    1.91    0.42
  -2  -1 -11    2.56    0.40
  -2  -1 -11    2.74    0.36
  -2  -1 -11    3.14    0.38
   2   1  11    2.35    0.42
   2   1  11    2.54    0.42
  -1   0 -11   15.02    0.94
  -1   0 -11   15.26    0.93
  -1   0 -11   16.50    0.83
  -1   0 -11   13.62    0.89
  -1   0 -11   14.97    0.84
   1   0  11   14.73    0.92
   0   1 -11    2.33    0.28
   0   1 -11    1.95    0.35
   0   1 -11    2.52    0.40
   0   1 -11    2.97    0.33
   0   1 -11    2.34    0.29
   0   1 -11    2.81    0.37
   0  -1  11    3.13    0.38
   1   2 -11    0.15    0.20
   1   2 -11    0.15    0.18
   1   2 -11   -0.04    0.19
   1   2 -11    0.08    0.16
   2   3 -11    3.81    0.47
   2   3 -11    3.43    0.45
   2   3 -11    3.70    0.58
   2   3 -11    2.88    0.51
   3   4 -11    7.50    0.65
   3   4 -11    7.18    0.88
   3   4 -11    9.34    0.85
   3   4 -11    6.12    0.67
   4   5 -11    0.83    0.42
   4   5 -11    0.54    0.46
  -5  -3 -11    0.12    0.25
   5   3  11   -0.39    0.31
   5   3  11    0.12    0.31
  -4  -2 -11    7.83    0.66
   4   2  11    7.88    0.91
   4   2  11    8.74    0.85
  -3  -1 -11    5.63    0.70
  -3  -1 -11    8.16    0.59
  -3  -1 -11    8.79    0.64
   3   1  11    9.05    0.75
   3   1  11    7.94    0.70
  -2   0 -11    2.24    0.34
  -2   0 -11    1.28    0.32
  -2   0 -11    0.91    0.27
  -2   0 -11    0.83    0.25
   2   0  11    1.37    0.35
   2   0  11    0.73    0.23
  -1   1 -11   -0.11    0.18
  -1   1 -11   -0.13    0.17
  -1   1 -11   -0.14    0.14
  -1   1 -11   -0.07    0.12
  -1   1 -11   -0.01    0.09
   1  -1  11    0.15    0.18
   0   2 -11    0.24    0.19
   0   2 -11    0.24    0.24
   0   2 -11    0.04    0.16
   0   2 -11    0.06    0.12
   0  -2  11   -0.06    0.15
   1   3 -11    0.25    0.20
   1   3 -11   -0.06    0.21
   2   4 -11    0.54    0.34
   2   4 -11    0.62    0.31
   3   5 -11    0.04    0.32
   3   5 -11    0.05    0.30
  -5  -2 -11    3.06    0.53
   5   2  11    2.97    0.60
   5   2  11    2.70    0.64
  -4  -1 -11    4.90    0.59
   4   1  11    4.42    0.72
  -3   0 -11    2.58    0.37
  -3   0 -11    2.79    0.41
  -3   0 -11    3.39    0.56
   3   0  11    1.58    0.42
  -2   1 -11   10.37    0.58
  -2   1 -11    8.81    0.55
  -2   1 -11    9.35    0.66
  -2   1 -11    8.77    0.73
  -2   1 -11    8.90    0.76
  -2   1 -11    9.52    0.72
   2  -1  11    9.88    0.78
  -1   2 -11    6.35    0.54
  -1   2 -11    5.80    0.53
  -1   2 -11    7.87    0.72
   1  -2  11    6.63    0.56
   0   3 -11   12.14    0.99
   0  -3  11   11.11    0.70
   1   4 -11   10.08    0.74
   1   4 -11    8.63    1.00
   2   5 -11    0.20    0.33
   2   5 -11   -0.03    0.26
   3   6 -11    1.04    0.49
   3   6 -11    1.09    0.60
  -5  -1 -11    1.43    0.40
   5   1  11    1.45    0.60
  -4   0 -11   15.84    0.94
   4   0  11   15.35    1.19
  -3   1 -11    1.13    0.37
  -3   1 -11    1.14    0.39
   3  -1  11    1.04    0.41
  -2   2 -11    1.91    0.48
  -2   2 -11    1.98    0.40
  -2   2 -11    1.51    0.38
  -2   2 -11    2.03    0.39
   2  -2  11    2.23    0.46
  -1   3 -11    0.16    0.23
  -1   3 -11    0.98    0.41
   1  -3  11    0.48    0.29
   0   4 -11   13.67    1.19
   1   5 -11    0.72    0.45
   2   6 -11    0.52    0.55
  -4   1 -11    3.19    0.62
   4  -1  11    1.25    0.54
  -3   2 -11    1.04    0.34
  -3   2 -11    1.50    0.47
  -3   2 -11    1.54    0.43
  -3   2 -11    1.88    0.44
   3  -2  11    1.37    0.43
  -2   3 -11    0.31    0.28
  -2   3 -11    0.17    0.36
   2  -3  11    0.23    0.29
  -1   4 -11   -0.21    0.38
  -1   4 -11    0.22    0.30
   0   5 -11    1.25    0.58
  -3   3 -11   -0.37    0.31
  -3   3 -11   -0.21    0.40
   3  -3  11   -0.18    0.39
  -2   4 -11    0.05    0.48
  -2   4 -11   -0.01    0.38
  -1   5  12    0.71    0.41
  -2   4  12    0.18    0.34
  -2   4  12   -0.28    0.26
  -3   3  12    0.30    0.37
  -3   3  12    0.69    0.43
  -4   2  12   14.60    0.96
   1   6  12    0.13    0.36
   0   5  12    0.56    0.24
   0   5  12    0.83    0.29
   0   5  12    0.56    0.37
  -1   4  12    0.44    0.26
  -1   4  12    0.81    0.32
  -1   4  12    0.10    0.25
  -2   3  12    0.22    0.28
  -2   3  12    0.09    0.26
  -3   2  12    4.66    0.53
  -4   1  12    5.59    0.67
   1   5  12    1.76    0.40
   1   5  12    0.91    0.35
   1   5  12    1.60    0.42
   0   4  12    0.03    0.19
   0   4  12   -0.08    0.22
   0   4  12    0.09    0.21
  -1   3  12    0.69    0.19
  -1   3  12    0.75    0.30
  -1   3  12    0.88    0.31
  -1   3  12    0.68    0.20
  -2   2  12    0.51    0.23
  -2   2  12    0.04    0.25
  -3   1  12   -0.12    0.19
   4   0 -12    0.05    0.32
   4   0 -12   -0.04    0.26
  -4   0  12    0.23    0.29
   5   1 -12   -0.07    0.38
   5   1 -12    0.60    0.44
   5   1 -12    0.31    0.39
  -5  -1  12   -0.12    0.32
   3   6  12    1.22    0.39
   3   6  12    1.57    0.58
   2   5  12    0.25    0.26
   2   5  12    0.50    0.29
   1   4  12    0.44    0.27
   1   4  12    0.07    0.20
   1   4  12    0.55    0.24
   0   3  12    1.37    0.26
   0   3  12    1.80    0.37
   0   3  12    1.16    0.22
   0   3  12    2.16    0.39
   0   3  12    1.55    0.30
   1  -2 -12   -0.18    0.15
  -1   2  12    0.03    0.21
  -1   2  12   -0.06    0.15
   2  -1 -12    0.15    0.21
  -2   1  12    0.06    0.19
  -2   1  12    0.18    0.25
   3   0 -12    3.21    0.48
  -3   0  12    2.70    0.42
   4   1 -12   17.73    1.34
   4   1 -12   17.71    1.23
   4   1 -12   21.05    1.21
  -4  -1  12   18.60    1.18
   5   2 -12    0.55    0.33
   5   2 -12    0.72    0.41
   5   2 -12    0.54    0.48
   4   6  12    3.45    0.80
   4   6  12    3.67    0.65
   3   5  12    3.74    0.64
   3   5  12    2.23    0.49
   2   4  12    0.10    0.22
   2   4  12    0.22    0.17
   1   3  12    8.76    0.71
   1   3  12    9.97    0.62
   1   3  12    9.73    0.75
   1   3  12   10.05    0.65
   0  -2 -12    4.69    0.51
   0   2  12    3.51    0.41
   0   2  12    3.28    0.39
   0   2  12    4.26    0.53
   0   2  12    3.80    0.50
   1  -1 -12    0.17    0.17
  -1   1  12    0.37    0.23
  -1   1  12    0.07    0.16
   2   0 -12    0.20    0.19
  -2   0  12    0.16    0.17
   3   1 -12   13.38    1.07
   3   1 -12   14.71    0.91
  -3  -1  12   14.21    0.93
   4   2 -12    1.52    0.38
   4   2 -12    1.40    0.37
   4   2 -12    2.00    0.53
   5   3 -12    0.13    0.29
   5   3 -12   -0.29    0.32
   5   3 -12   -0.21    0.44
   4   5  12    1.99    0.53
   4   5  12    2.99    0.65
   4   5  12    1.70    0.36
   4   5  12    2.21    0.52
   3   4  12    1.03    0.30
   3   4  12    1.16    0.41
   3   4  12    1.06    0.36
   3   4  12    1.12    0.40
  -2  -3 -12    7.07    0.58
   2   3  12    7.91    0.68
   2   3  12    6.02    0.55
  -1  -2 -12   25.93    1.31
   1   2  12   24.27    1.21
   1   2  12   26.17    1.33
   1   2  12   24.67    1.41
   1   2  12   25.98    1.48
   0  -1 -12    0.05    0.14
   0  -1 -12    0.13    0.20
   0   1  12    0.04    0.18
   0   1  12    0.06    0.18
   1   0 -12    1.25    0.31
   1   0 -12    1.31    0.27
   1   0 -12    0.63    0.27
  -1   0  12    1.37    0.29
  -1   0  12    1.05    0.28
   2   1 -12   42.29    2.28
   2   1 -12   42.83    2.03
   2   1 -12   42.13    2.22
  -2  -1  12   43.24    2.07
   3   2 -12    2.30    0.47
   3   2 -12    2.48    0.54
   3   2 -12    2.95    0.42
   3   2 -12    2.69    0.50
   4   3 -12    1.74    0.50
   4   3 -12    1.11    0.52
   4   3 -12    1.67    0.47
   4   3 -12    1.24    0.28
   5   4 -12    2.49    0.61
   5   4 -12    2.65    0.65
   5   4 -12    2.99    0.80
   4   4  12    0.21    0.30
   4   4  12    0.45    0.33
  -3  -3 -12    4.29    0.58
   3   3  12    3.59    0.55
   3   3  12    3.08    0.54
  -2  -2 -12    6.04    0.62
   2   2  12    4.85    0.58
   2   2  12    5.22    0.60
  -1  -1 -12    0.37    0.22
  -1  -1 -12    0.47    0.19
   1   1  12   -0.05    0.16
   1   1  12    0.12    0.21
   0   0 -12    4.05    0.50
   0   0 -12    5.84    0.44
   0   0 -12    5.33    0.43
   0   0 -12    6.18    0.54
   0   0  12    5.82    0.51
   0   0  12    6.02    0.49
   1   1 -12   21.58    1.19
   1   1 -12   20.81    1.06
   1   1 -12   20.79    1.19
   1   1 -12   19.73    1.16
   1   1 -12   20.52    1.06
  -1  -1  12   19.42    1.10
   2   2 -12    0.51    0.28
   2   2 -12    0.63    0.29
   2   2 -12    0.33    0.25
   2   2 -12    0.17    0.22
   2   2 -12    0.56    0.17
   2   2 -12    0.40    0.18
   3   3 -12    1.18    0.39
   3   3 -12    1.03    0.35
   3   3 -12    2.17    0.52
   3   3 -12    2.37    0.46
   4   4 -12    0.35    0.40
   4   4 -12    0.25    0.36
   4   4 -12    0.00    0.32
   5   4  12    2.72    0.66
  -4  -3 -12    0.44    0.26
   4   3  12    0.56    0.31
   4   3  12    0.06    0.31
   4   3  12   -0.27    0.25
  -3  -2 -12    0.33    0.23
   3   2  12    0.09    0.23
   3   2  12    0.42    0.30
   3   2  12    0.30    0.23
  -2  -1 -12    4.79    0.59
  -2  -1 -12    4.61    0.50
  -2  -1 -12    4.19    0.46
   2   1  12    3.43    0.44
   2   1  12    3.64    0.51
  -1   0 -12    3.76    0.50
  -1   0 -12    4.33    0.44
  -1   0 -12    4.79    0.55
  -1   0 -12    4.48    0.55
  -1   0 -12    3.86    0.41
   1   0  12    4.52    0.54
   0   1 -12   -0.03    0.11
   0   1 -12   -0.01    0.15
   0   1 -12    0.20    0.20
   0   1 -12    0.13    0.14
   0   1 -12    0.08    0.19
   0   1 -12    0.02    0.12
   0  -1  12    0.10    0.16
   1   2 -12    0.22    0.22
   1   2 -12    0.18    0.20
   1   2 -12   -0.07    0.18
   1   2 -12    0.05    0.24
   2   3 -12   -0.05    0.21
   2   3 -12    0.25    0.28
   2   3 -12   -0.13    0.21
   2   3 -12    0.34    0.23
   3   4 -12    0.46    0.26
   3   4 -12    0.30    0.33
   3   4 -12    0.45    0.36
   3   4 -12    0.27    0.24
   4   5 -12   -0.01    0.40
   4   5 -12    1.08    0.51
  -5  -3 -12   12.46    0.97
   5   3  12   14.31    1.10
   5   3  12   12.40    1.14
  -4  -2 -12    1.47    0.36
   4   2  12    0.67    0.39
   4   2  12    1.12    0.40
  -3  -1 -12    0.37    0.23
   3   1  12    0.01    0.22
   3   1  12    0.54    0.27
  -2   0 -12    0.35    0.21
  -2   0 -12    0.05    0.18
  -2   0 -12    0.01    0.13
   2   0  12    0.13    0.24
   2   0  12   -0.06    0.21
  -1   1 -12    7.02    0.70
  -1   1 -12    7.09    0.65
  -1   1 -12    6.29    0.57
  -1   1 -12    6.15    0.42
  -1   1 -12    6.14    0.45
   1  -1  12    6.04    0.56
   0   2 -12    2.95    0.33
   0   2 -12    3.15    0.43
   0   2 -12    3.47    0.43
   0   2 -12    3.48    0.53
   0  -2  12    3.29    0.40
   1   3 -12   -0.08    0.18
   1   3 -12    0.11    0.17
   1   3 -12    0.14    0.25
   2   4 -12   12.94    1.10
   2   4 -12   13.23    0.97
   3   5 -12    0.03    0.37
   3   5 -12   -0.31    0.32
  -5  -2 -12   14.50    1.04
   5   2  12   12.92    1.21
  -4  -1 -12    9.01    0.72
   4   1  12    7.28    0.92
  -3   0 -12    3.96    0.48
  -3   0 -12    6.05    0.74
  -3   0 -12    4.79    0.58
   3   0  12    4.80    0.70
  -2   1 -12    0.06    0.22
  -2   1 -12    0.42    0.15
  -2   1 -12    0.65    0.28
  -2   1 -12    0.10    0.26
  -2   1 -12    0.44    0.17
   2  -1  12    0.42    0.29
  -1   2 -12    4.30    0.50
  -1   2 -12    4.57    0.63
  -1   2 -12    4.40    0.51
   1  -2  12    4.28    0.54
   0   3 -12   15.78    1.19
   0  -3  12   15.49    0.91
   1   4 -12   15.16    1.20
   1   4 -12   13.92    0.95
   2   5 -12   -0.42    0.32
   2   5 -12    0.11    0.29
  -5  -1 -12    0.19    0.30
   5   1  12   -0.54    0.39
  -4   0 -12    2.14    0.38
   4   0  12    2.80    0.59
  -3   1 -12   17.96    1.25
  -3   1 -12   20.35    1.30
   3  -1  12   18.91    1.31
  -2   2 -12    0.27    0.26
  -2   2 -12    0.28    0.28
  -2   2 -12    0.33    0.28
  -2   2 -12    0.34    0.33
   2  -2  12    1.12    0.35
  -1   3 -12    1.89    0.52
   1  -3  12    1.62    0.38
   0   4 -12    0.96    0.41
   1   5 -12    3.13    0.72
  -4   1 -12    0.43    0.37
   4  -1  12    0.38    0.46
  -3   2 -12    1.73    0.45
  -3   2 -12    2.06    0.56
  -3   2 -12    2.17    0.45
   3  -2  12    2.27    0.56
  -2   3 -12    1.16    0.41
  -2   3 -12    0.38    0.39
   2  -3  12    0.58    0.34
  -1   4 -12    6.49    1.03
   0   5 -12    2.02    0.74
  -1   5  13   15.30    1.05
  -1   5  13   16.07    1.06
  -2   4  13    2.05    0.50
  -2   4  13    2.09    0.57
  -3   3  13    0.25    0.36
  -3   3  13    0.10    0.37
   0   5  13    7.50    0.70
   0   5  13   10.77    0.88
   0   5  13    8.52    0.75
  -1   4  13    1.19    0.36
  -1   4  13    1.70    0.45
  -2   3  13    0.87    0.35
  -2   3  13    0.59    0.32
  -3   2  13    3.11    0.46
  -4   1  13    0.16    0.27
   2   6  13    0.76    0.37
   2   6  13    0.57    0.32
   1   5  13    4.46    0.61
   1   5  13    4.84    0.63
   0   4  13    1.64    0.38
   0   4  13    1.42    0.38
  -1   3  13    0.25    0.17
  -1   3  13    0.04    0.22
  -1   3  13    0.09    0.25
  -2   2  13    3.12    0.52
  -2   2  13    2.97    0.41
  -3   1  13    0.71    0.29
   4   0 -13    3.60    0.58
   4   0 -13    2.85    0.62
  -4   0  13    2.41    0.47
   5   1 -13    0.74    0.52
   5   1 -13    1.34    0.45
   5   1 -13    1.60    0.56
  -5  -1  13    1.46    0.47
   3   6  13    1.91    0.49
   2   5  13    1.42    0.41
   1   4  13    0.14    0.16
   1   4  13    0.03    0.21
   1   4  13    0.03    0.16
   1   4  13    0.27    0.22
   0   3  13   -0.25    0.13
   0   3  13   -0.14    0.15
   0   3  13    0.07    0.19
   1  -2 -13   10.59    0.72
  -1   2  13    9.82    0.69
  -1   2  13    9.45    0.78
   2  -1 -13   -0.08    0.20
  -2   1  13    0.08    0.19
   3   0 -13   -0.13    0.23
   3   0 -13    0.04    0.31
  -3   0  13   -0.07    0.19
   4   1 -13    4.55    0.61
   4   1 -13    4.32    0.71
  -4  -1  13    4.40    0.58
   5   2 -13    1.95    0.50
   5   2 -13    1.35    0.60
   3   5  13    2.71    0.54
   3   5  13    3.79    0.71
   2   4  13    0.32    0.20
   2   4  13    0.48    0.30
   1   3  13   11.84    0.86
   1   3  13   11.60    0.76
   1   3  13   13.63    0.79
   0  -2 -13   42.73    2.02
   0   2  13   43.29    2.02
   0   2  13   38.27    2.04
   0   2  13   42.56    2.16
   1  -1 -13    0.04    0.18
  -1   1  13    0.31    0.20
  -1   1  13   -0.10    0.19
   2   0 -13    0.60    0.25
  -2   0  13    0.94    0.29
   3   1 -13    7.20    0.86
   3   1 -13    6.57    0.67
  -3  -1  13    6.46    0.67
   4   2 -13    3.56    0.69
   4   2 -13    5.40    0.68
   4   2 -13    4.54    0.59
   5   3 -13    0.29    0.30
   5   3 -13    0.03    0.35
   5   3 -13   -0.22    0.47
   4   5  13    9.70    1.11
   4   5  13    8.74    0.81
   3   4  13   -0.14    0.18
   3   4  13   -0.16    0.23
   3   4  13   -0.43    0.26
   2   3  13    1.18    0.30
   2   3  13    0.55    0.30
  -1  -2 -13   11.85    0.76
   1   2  13   10.98    0.81
   1   2  13   10.78    0.76
   0  -1 -13    1.21    0.31
   0  -1 -13    1.51    0.31
   0   1  13    1.25    0.30
   0   1  13    0.99    0.28
   1   0 -13    3.21    0.48
   1   0 -13    4.46    0.48
  -1   0  13    3.91    0.49
   2   1 -13    0.31    0.28
   2   1 -13    0.15    0.17
   2   1 -13    0.12    0.25
  -2  -1  13   -0.04    0.17
   3   2 -13    0.15    0.27
   3   2 -13    0.43    0.31
   3   2 -13   -0.04    0.17
   3   2 -13    0.16    0.29
   4   3 -13    1.05    0.27
   4   3 -13    1.71    0.56
   4   3 -13    1.30    0.45
   4   3 -13    1.60    0.48
   4   4  13    2.58    0.57
   4   4  13    3.07    0.58
  -3  -3 -13    4.00    0.59
   3   3  13    4.10    0.63
   3   3  13    5.03    0.65
  -2  -2 -13   19.60    1.10
   2   2  13   17.56    1.18
  -1  -1 -13    4.57    0.47
  -1  -1 -13    4.48    0.60
   1   1  13    4.36    0.55
   0   0 -13    2.73    0.42
   0   0 -13    2.88    0.35
   0   0 -13    2.94    0.44
   0   0  13    3.16    0.42
   1   1 -13   12.10    0.85
   1   1 -13   13.29    0.86
   1   1 -13   13.07    0.75
   1   1 -13   12.77    0.94
   1   1 -13   13.15    0.88
  -1  -1  13   12.12    0.81
   2   2 -13    1.53    0.27
   2   2 -13    1.75    0.41
   2   2 -13    1.81    0.38
   2   2 -13    1.36    0.27
   2   2 -13    2.77    0.48
   2   2 -13    1.59    0.40
   3   3 -13    0.09    0.28
   3   3 -13    0.11    0.32
   3   3 -13   -0.06    0.29
   4   4 -13    0.24    0.45
   4   4 -13    0.29    0.38
   4   4 -13    0.09    0.31
   5   4  13    0.78    0.49
  -4  -3 -13    1.67    0.41
   4   3  13    1.73    0.53
  -3  -2 -13    0.38    0.25
   3   2  13    0.53    0.28
  -2  -1 -13    1.77    0.39
  -2  -1 -13    3.32    0.43
  -2  -1 -13    2.34    0.38
   2   1  13    2.35    0.45
  -1   0 -13    6.46    0.59
  -1   0 -13    7.70    0.53
  -1   0 -13    7.40    0.74
  -1   0 -13    6.66    0.62
   1   0  13    7.21    0.62
   0   1 -13    0.44    0.24
   0   1 -13    0.96    0.30
   0   1 -13    0.70    0.19
   0   1 -13    0.84    0.29
   0   1 -13    1.01    0.23
   0   1 -13    0.43    0.16
   1   2 -13    4.63    0.63
   1   2 -13    3.38    0.46
   1   2 -13    3.29    0.46
   1   2 -13    3.11    0.48
   1   2 -13    3.17    0.32
   2   3 -13    1.94    0.37
   2   3 -13    1.42    0.41
   2   3 -13    1.11    0.37
   2   3 -13    1.22    0.36
   3   4 -13    0.41    0.30
   3   4 -13    0.61    0.40
   3   4 -13    0.84    0.41
   3   4 -13    0.16    0.26
   4   5 -13    2.79    0.57
   4   5 -13    2.10    0.65
   4   5 -13    2.56    0.68
  -5  -3 -13    0.02    0.28
   5   3  13   -0.11    0.39
   5   3  13   -0.13    0.33
  -4  -2 -13    3.10    0.54
   4   2  13    2.90    0.52
   4   2  13    2.31    0.55
  -3  -1 -13    1.38    0.35
   3   1  13    2.45    0.52
   3   1  13    1.20    0.39
  -2   0 -13    1.91    0.40
  -2   0 -13    2.47    0.42
  -2   0 -13    2.07    0.32
   2   0  13    1.56    0.39
  -1   1 -13    0.69    0.30
  -1   1 -13    0.56    0.28
  -1   1 -13    0.72    0.30
  -1   1 -13    0.78    0.19
  -1   1 -13    0.75    0.21
   1  -1  13    0.74    0.26
   0   2 -13    2.69    0.50
   0   2 -13    2.79    0.43
   0   2 -13    3.20    0.45
   0  -2  13    3.23    0.43
   1   3 -13    0.87    0.27
   1   3 -13    0.22    0.30
   1   3 -13    0.84    0.27
   1   3 -13    0.49    0.23
   2   4 -13    0.22    0.32
   2   4 -13    0.26    0.28
   3   5 -13    0.00    0.36
   3   5 -13   -0.17    0.35
  -5  -2 -13   -0.14    0.29
   5   2  13    0.48    0.49
  -4  -1 -13   10.79    0.78
   4   1  13    8.27    0.97
  -3   0 -13    1.39    0.32
  -3   0 -13    0.67    0.37
   3   0  13    0.97    0.37
  -2   1 -13   27.49    1.36
  -2   1 -13   27.14    1.59
  -2   1 -13   29.74    1.39
  -2   1 -13   29.71    1.71
  -2   1 -13   25.42    1.58
   2  -1  13   31.53    1.66
  -1   2 -13    0.98    0.32
  -1   2 -13    0.63    0.35
  -1   2 -13    0.81    0.31
   1  -2  13    0.86    0.30
   0   3 -13    4.05    0.68
   1   4 -13    4.68    0.74
   2   5 -13    8.90    1.18
  -4   0 -13    0.21    0.24
   4   0  13   -0.67    0.31
  -3   1 -13    1.55    0.46
  -3   1 -13    1.41    0.42
   3  -1  13    1.06    0.43
  -2   2 -13    1.65    0.42
  -2   2 -13    1.52    0.49
  -2   2 -13    1.42    0.38
   2  -2  13    1.31    0.38
  -1   3 -13    4.95    0.81
   1  -3  13    4.16    0.56
   0   4 -13    9.29    1.11
   1   5 -13    1.79    0.64
  -4   1 -13    1.54    0.52
   4  -1  13    2.08    0.63
  -3   2 -13    2.57    0.54
  -3   2 -13    2.52    0.60
   3  -2  13    3.42    0.68
  -2   3 -13    0.36    0.45
  -2   3 -13    0.50    0.32
   2  -3  13    0.65    0.35
  -1   4 -13   -0.18    0.42
   0   5 -13    0.26    0.60
  -2   4  14   -0.11    0.36
  -2   4  14    0.32    0.37
   0   5  14   23.94    1.47
   0   5  14   19.40    1.30
  -1   4  14    1.06    0.40
  -1   4  14    1.01    0.37
  -2   3  14    0.59    0.37
  -2   3  14    0.34    0.30
  -2   3  14   -0.20    0.21
  -3   2  14   -0.50    0.22
   4  -1 -14    9.81    1.21
  -4   1  14   13.46    0.97
   2   6  14    2.92    0.56
   1   5  14    0.68    0.32
   0   4  14    3.09    0.54
   0   4  14    3.50    0.56
  -1   3  14    0.65    0.29
  -1   3  14    0.36    0.31
  -1   3  14    1.00    0.26
  -2   2  14    0.99    0.29
  -3   1  14    1.03    0.34
   4   0 -14    1.98    0.59
   4   0 -14    1.53    0.43
  -4   0  14    1.98    0.46
   2   5  14    0.64    0.33
   1   4  14    0.11    0.26
   1   4  14    0.29    0.18
   0   3  14    5.04    0.57
   0   3  14    6.82    0.61
   0   3  14    5.76    0.51
  -1   2  14   -0.01    0.23
  -1   2  14    0.24    0.19
   2  -1 -14    1.07    0.34
  -2   1  14    1.01    0.27
   3   0 -14    0.87    0.41
   3   0 -14    1.71    0.40
  -3   0  14    1.78    0.37
   4   1 -14    0.04    0.28
   4   1 -14    0.08    0.36
  -4  -1  14   -0.13    0.26
   3   5  14   11.24    0.98
   2   4  14    0.21    0.27
   2   4  14    0.26    0.20
   1   3  14    1.69    0.33
   1   3  14    1.48    0.36
   0  -2 -14   32.70    1.66
   0   2  14   35.09    1.68
   0   2  14   31.75    1.66
   0   2  14   31.16    1.78
   1  -1 -14    3.66    0.46
  -1   1  14    3.03    0.44
   2   0 -14    2.41    0.43
  -2   0  14    2.04    0.41
   3   1 -14    0.07    0.32
   3   1 -14    0.17    0.24
  -3  -1  14    0.08    0.21
   4   2 -14   14.77    1.02
   4   2 -14   16.91    1.30
   4   5  14    0.29    0.34
   4   5  14    1.04    0.43
   3   4  14   -0.39    0.19
   2   3  14    2.07    0.39
  -1  -2 -14   43.21    2.14
   1   2  14   44.37    2.16
   0  -1 -14    5.46    0.58
   0   1  14    4.17    0.51
   1   0 -14    3.15    0.45
   1   0 -14    2.38    0.44
  -1   0  14    3.14    0.42
   2   1 -14   -0.28    0.26
   2   1 -14   -0.21    0.15
   2   1 -14   -0.25    0.22
  -2  -1  14    0.14    0.21
   3   2 -14   36.63    1.80
   3   2 -14   35.31    2.15
   3   2 -14   36.80    2.11
   3   2 -14   33.31    2.00
   4   3 -14    2.77    0.61
   4   3 -14    2.99    0.66
   4   3 -14    1.91    0.35
   4   3 -14    3.39    0.73
   4   4  14    0.71    0.36
   4   4  14    0.39    0.43
  -3  -3 -14    3.41    0.55
   3   3  14    4.65    0.72
  -2  -2 -14   -0.04    0.19
   2   2  14   -0.15    0.22
  -1  -1 -14    0.02    0.16
   1   1  14    0.23    0.25
   1   1  14    0.17    0.21
   0   0 -14    0.73    0.28
   0   0 -14    1.57    0.29
   0   0  14    1.45    0.32
   1   1 -14    1.06    0.34
   1   1 -14    0.99    0.24
   1   1 -14    1.16    0.34
   1   1 -14    1.51    0.35
   2   2 -14    1.72    0.43
   2   2 -14    2.30    0.46
   2   2 -14    1.88    0.30
   2   2 -14    2.17    0.49
   3   3 -14    0.22    0.34
   3   3 -14    0.52    0.34
   3   3 -14    0.90    0.44
   4   4 -14    0.33    0.42
   4   4 -14    0.21    0.35
   4   4 -14    0.05    0.45
  -4  -3 -14    0.40    0.26
   4   3  14    0.05    0.32
  -3  -2 -14    0.48    0.27
   3   2  14   -0.24    0.22
  -2  -1 -14    1.36    0.33
  -2  -1 -14    1.09    0.31
   2   1  14    1.80    0.43
  -1   0 -14    0.39    0.24
  -1   0 -14    0.17    0.16
  -1   0 -14    0.22    0.24
   1   0  14    0.26    0.25
   0   1 -14    2.23    0.41
   0   1 -14    2.20    0.32
   0   1 -14    2.47    0.32
   0   1 -14    2.25    0.44
   0   1 -14    1.55    0.31
   0   1 -14    2.01    0.39
   1   2 -14    0.15    0.21
   1   2 -14    0.17    0.21
   1   2 -14    0.30    0.24
   1   2 -14    0.13    0.26
   2   3 -14    0.07    0.25
   2   3 -14    0.17    0.25
   2   3 -14   -0.03    0.26
   2   3 -14   -0.03    0.22
   3   4 -14    0.28    0.34
   3   4 -14   -0.19    0.25
   3   4 -14    0.00    0.35
   3   4 -14    0.13    0.29
   5   3  14    0.43    0.52
   5   3  14    0.18    0.41
  -4  -2 -14    0.01    0.20
   4   2  14    0.42    0.30
   4   2  14    0.32    0.37
  -3  -1 -14    0.22    0.19
   3   1  14    0.37    0.29
  -2   0 -14    2.97    0.50
  -2   0 -14    1.84    0.35
  -2   0 -14    1.99    0.42
   2   0  14    2.29    0.48
  -1   1 -14    8.24    0.73
  -1   1 -14    7.02    0.74
  -1   1 -14    7.23    0.66
  -1   1 -14    6.20    0.47
  -1   1 -14    6.92    0.50
   1  -1  14    6.95    0.65
   0   2 -14    1.11    0.37
   0   2 -14    1.32    0.36
   0   2 -14    1.71    0.36
   0  -2  14    1.70    0.32
   1   3 -14    0.07    0.20
   1   3 -14    0.09    0.28
   1   3 -14    0.17    0.22
   1   3 -14    0.10    0.21
   2   4 -14    1.36    0.47
   2   4 -14    0.89    0.38
   3   5 -14    2.66    0.72
   3   5 -14    3.45    0.67
  -4  -1 -14    9.65    0.77
   4   1  14    9.45    1.13
  -3   0 -14    3.06    0.58
  -3   0 -14    4.68    0.52
   3   0  14    5.06    0.74
  -2   1 -14    0.58    0.34
  -2   1 -14    0.50    0.32
   2  -1  14    0.36    0.30
  -1   2 -14    1.45    0.45
  -1   2 -14    1.12    0.34
  -1   2 -14    0.86    0.31
   1  -2  14    2.40    0.43
   0   3 -14    1.45    0.48
   1   4 -14    0.60    0.38
   2   5 -14    1.20    0.61
  -4   0 -14   -0.02    0.23
   4   0  14    0.53    0.41
  -3   1 -14    4.87    0.76
   3  -1  14    3.97    0.69
  -2   2 -14    2.53    0.48
  -2   2 -14    2.52    0.57
  -2   2 -14    2.27    0.49
   2  -2  14    2.71    0.52
  -1   3 -14    6.12    0.94
   0   4 -14    4.20    0.85
   1   5 -14    7.11    1.14
  -3   2 -14    4.78    0.82
  -3   2 -14    3.13    0.60
   3  -2  14    5.06    0.79
  -2   3 -14    1.58    0.59
   2  -3  14    0.23    0.34
  -1   4 -14    0.62    0.55
   0   5  15    0.06    0.28
  -1   4  15    0.94    0.39
  -1   4  15    0.73    0.39
  -2   3  15    0.62    0.28
  -2   3  15    0.74    0.35
  -3   2  15    0.05    0.28
   1   5  15    0.07    0.28
   0   4  15    1.40    0.42
   0   4  15    1.32    0.40
  -1   3  15    0.51    0.29
  -1   3  15    1.08    0.28
  -1   3  15    0.82    0.32
  -2   2  15    0.40    0.23
  -3   1  15    7.56    0.76
   4   0 -15    4.76    0.70
   4   0 -15    4.67    0.83
  -4   0  15    4.12    0.62
   2   5  15    2.82    0.56
   1   4  15    0.52    0.23
   1   4  15    0.29    0.31
   0   3  15    0.28    0.22
   0   3  15    0.17    0.21
   0   3  15   -0.02    0.17
  -1   2  15    0.11    0.21
   2  -1 -15    2.42    0.46
  -2   1  15    2.67    0.45
   3   0 -15    0.11    0.37
   3   0 -15    0.07    0.26
  -3   0  15    0.00    0.24
   4   1 -15   -0.17    0.40
   4   1 -15   -0.17    0.27
   3   5  15    0.24    0.26
   2   4  15   -0.01    0.27
   2   4  15   -0.21    0.17
   1   3  15    0.19    0.21
   1   3  15    1.13    0.36
   0  -2 -15    0.25    0.24
   0   2  15    0.22    0.20
   0   2  15    0.27    0.18
   1  -1 -15    2.73    0.43
  -1   1  15    3.23    0.48
   2   0 -15    0.35    0.25
  -2   0  15   -0.22    0.20
   3   1 -15    0.73    0.40
   3   1 -15    2.48    0.43
   4   2 -15    3.59    0.55
   4   2 -15    4.28    0.80
   4   2 -15    3.62    0.65
   3   4  15    2.14    0.44
   2   3  15   -0.07    0.21
  -1  -2 -15   12.85    0.87
   1   2  15   14.01    0.93
   0  -1 -15    7.13    0.71
   0   1  15    7.01    0.71
   1   0 -15    0.30    0.22
  -1   0  15    0.87    0.29
   2   1 -15   -0.17    0.26
   2   1 -15   -0.23    0.27
   2   1 -15    0.34    0.21
   3   2 -15   29.66    1.85
   3   2 -15   28.80    1.90
   3   2 -15   30.71    1.57
   4   3 -15    0.57    0.26
   4   3 -15    0.90    0.47
   4   3 -15    1.29    0.54
   4   4  15    5.14    0.87
   3   3  15    2.48    0.54
  -2  -2 -15    2.95    0.47
   2   2  15    4.13    0.61
  -1  -1 -15    6.58    0.66
   1   1  15    4.84    0.59
   0   0 -15   -0.10    0.14
   0   0 -15   -0.09    0.22
   0   0  15    0.10    0.23
   1   1 -15    0.04    0.15
   1   1 -15    0.01    0.22
   1   1 -15    0.09    0.24
   1   1 -15    0.49    0.29
   2   2 -15   22.10    1.47
   2   2 -15   20.63    1.35
   2   2 -15   21.82    1.13
   2   2 -15   19.17    1.30
   3   3 -15    0.64    0.40
   3   3 -15    0.94    0.42
   3   3 -15    0.75    0.37
   4   4 -15    0.22    0.46
   4   4 -15    1.35    0.65
   4   4 -15    1.06    0.57
  -4  -3 -15    0.22    0.28
   4   3  15   -0.16    0.38
  -3  -2 -15    0.70    0.28
   3   2  15    1.10    0.40
  -2  -1 -15    9.63    0.76
  -2  -1 -15    9.43    0.71
   2   1  15    9.60    0.82
  -1   0 -15    0.57    0.33
  -1   0 -15    0.95    0.33
  -1   0 -15    0.19    0.19
   1   0  15    0.75    0.31
   0   1 -15    3.28    0.40
   0   1 -15    3.80    0.43
   0   1 -15    4.37    0.62
   0   1 -15    3.43    0.52
   1   2 -15    4.37    0.61
   1   2 -15    4.36    0.57
   1   2 -15    3.81    0.64
   1   2 -15    3.92    0.38
   1   2 -15    5.47    0.60
   2   3 -15    0.93    0.34
   2   3 -15    0.28    0.33
   2   3 -15    0.54    0.29
   2   3 -15    0.60    0.35
   3   4 -15    0.71    0.33
   3   4 -15    1.59    0.51
   3   4 -15    0.46    0.33
   3   4 -15    1.27    0.50
  -4  -2 -15   -0.44    0.22
   4   2  15   -0.03    0.30
   4   2  15   -0.30    0.30
  -3  -1 -15    0.07    0.20
   3   1  15    0.16    0.30
  -2   0 -15    1.80    0.33
  -2   0 -15    1.38    0.38
  -2   0 -15    2.07    0.44
   2   0  15    1.25    0.39
  -1   1 -15    1.12    0.36
  -1   1 -15    1.58    0.41
  -1   1 -15    1.40    0.25
   1  -1  15    1.31    0.35
   0   2 -15   -0.34    0.23
   0   2 -15   -0.11    0.19
   0   2 -15    0.15    0.24
   1   3 -15    0.25    0.23
   1   3 -15    0.24    0.33
   1   3 -15    0.01    0.25
   2   4 -15   -0.82    0.29
   2   4 -15    0.13    0.32
  -4  -1 -15    4.89    0.65
   4   1  15    5.12    0.85
  -3   0 -15    1.28    0.31
   3   0  15    0.78    0.41
  -2   1 -15    0.12    0.31
  -2   1 -15   -0.07    0.14
  -2   1 -15   -0.05    0.26
   2  -1  15   -0.08    0.23
  -1   2 -15    2.81    0.48
  -1   2 -15    2.54    0.48
  -1   2 -15    3.09    0.61
   1  -2  15    2.71    0.48
   0   3 -15   -0.13    0.28
   1   4 -15   -0.19    0.37
   2   5 -15    8.42    1.23
  -4   0 -15    2.39    0.42
   4   0  15    1.09    0.57
  -3   1 -15    0.58    0.42
   3  -1  15    1.07    0.42
  -2   2 -15    5.16    0.69
  -2   2 -15    5.75    0.86
  -2   2 -15    4.67    0.67
   2  -2  15    5.14    0.72
  -1   3 -15    4.42    0.84
   0   4 -15    6.91    1.08
  -2   3 -15    1.20    0.63
  -1   4  16   20.74    1.34
  -1   4  16   17.02    1.27
  -2   3  16    0.39    0.37
  -2   3  16    0.88    0.32
  -3   2  16    0.25    0.33
   1   5  16    0.18    0.30
   0   4  16    0.76    0.35
   0   4  16    1.29    0.31
  -1   3  16    0.72    0.27
  -1   3  16    0.08    0.28
  -2   2  16    0.61    0.29
  -3   1  16    0.69    0.33
   4   0 -16    0.18    0.48
   4   0 -16    0.81    0.41
  -4   0  16    0.70    0.41
   2   5  16    0.95    0.41
   1   4  16    4.61    0.73
   1   4  16    3.93    0.49
   0   3  16    1.55    0.35
  -1   2  16    0.07    0.21
   2  -1 -16    4.06    0.61
  -2   1  16    3.56    0.52
   3   0 -16    0.31    0.39
   3   0 -16    0.05    0.24
  -3   0  16    0.78    0.37
   4   1 -16    2.13    0.61
   4   1 -16    1.39    0.43
   3   5  16    2.08    0.41
   2   4  16    1.27    0.33
   1   3  16    0.29    0.23
   0  -2 -16    1.15    0.35
   0   2  16    0.57    0.27
   1  -1 -16   11.97    0.86
  -1   1  16   12.13    0.87
   2   0 -16    0.17    0.26
  -2   0  16    0.29    0.29
   3   1 -16   -0.24    0.20
   3   1 -16    0.00    0.33
   4   2 -16    3.94    0.76
   4   2 -16    4.45    0.62
   4   2 -16    3.85    0.73
   3   4  16    8.96    0.80
   2   3  16    0.17    0.26
  -1  -2 -16   13.67    0.92
   1   2  16   14.14    0.96
   0  -1 -16    6.86    0.62
   0   1  16    6.96    0.73
   1   0 -16    0.73    0.26
  -1   0  16    0.20    0.22
   2   1 -16    0.24    0.31
   2   1 -16    0.17    0.22
   3   2 -16    0.56    0.42
   3   2 -16    0.17    0.24
   3   2 -16   -0.17    0.28
   4   3 -16    1.19    0.54
   4   3 -16    0.79    0.52
   4   3 -16    0.88    0.31
   4   4  16    3.92    0.65
   4   4  16    4.44    0.81
   3   3  16    0.33    0.37
   3   3  16    0.21    0.28
  -2  -2 -16    0.41    0.26
   2   2  16    0.46    0.32
   2   2  16    1.07    0.35
  -1  -1 -16   23.56    1.30
   1   1  16   23.27    1.37
   0   0 -16   -0.16    0.21
   0   0 -16    0.21    0.20
   0   0  16   -0.03    0.23
   1   1 -16    0.29    0.20
   1   1 -16    0.62    0.32
   1   1 -16    1.02    0.33
   1   1 -16   -0.03    0.26
   2   2 -16    2.68    0.53
   2   2 -16    2.24    0.49
   2   2 -16    2.64    0.37
   2   2 -16    2.38    0.54
   3   3 -16    0.51    0.47
   3   3 -16    1.06    0.43
   3   3 -16    0.98    0.48
  -4  -3 -16    1.36    0.42
   4   3  16    1.14    0.53
  -3  -2 -16    2.15    0.40
   3   2  16    1.21    0.46
  -2  -1 -16    5.30    0.68
  -2  -1 -16    6.98    0.72
   2   1  16    5.50    0.76
  -1   0 -16    1.83    0.44
  -1   0 -16    1.08    0.37
  -1   0 -16    2.20    0.36
   1   0  16    1.62    0.41
   0   1 -16    2.74    0.53
   0   1 -16    2.29    0.46
   0   1 -16    2.56    0.36
   1   2 -16    7.61    0.64
   1   2 -16    6.59    0.74
   1   2 -16    6.83    0.87
   2   3 -16    0.29    0.29
   2   3 -16   -0.33    0.28
   2   3 -16    0.29    0.31
   3   4 -16   -0.18    0.45
   3   4 -16   -0.10    0.31
   3   4 -16   -0.05    0.38
  -4  -2 -16    1.41    0.40
   4   2  16    0.88    0.49
  -3  -1 -16   -0.09    0.22
   3   1  16    0.42    0.34
  -2   0 -16    1.96    0.46
  -2   0 -16    2.50    0.41
   2   0  16    2.06    0.49
  -1   1 -16    3.16    0.39
  -1   1 -16    3.59    0.56
  -1   1 -16    4.80    0.69
   1  -1  16    3.86    0.57
   0   2 -16    0.13    0.23
   0   2 -16   -0.20    0.25
   0   2 -16    0.01    0.31
   1   3 -16    1.40    0.37
   1   3 -16    1.03    0.47
   1   3 -16    1.06    0.33
   2   4 -16   -0.19    0.39
  -4  -1 -16    1.20    0.40
   4   1  16    0.74    0.49
  -3   0 -16    1.94    0.37
   3   0  16    1.59    0.47
  -2   1 -16    0.26    0.32
  -2   1 -16    0.48    0.35
   2  -1  16    0.20    0.32
  -1   2 -16    3.58    0.55
  -1   2 -16    4.18    0.61
  -1   2 -16    5.76    0.83
   1  -2  16    3.88    0.59
   0   3 -16    1.94    0.52
   0   3 -16    1.12    0.36
   0   3 -16    1.02    0.36
   1   4 -16   -0.45    0.43
  -3   1 -16   -0.04    0.40
   3  -1  16   -0.22    0.36
  -2   2 -16   10.01    1.00
  -2   2 -16   10.54    1.19
   2  -2  16    9.42    0.98
  -1   3 -16    1.99    0.63
   0   4 -16    4.59    0.95
  -2   3  17    0.39    0.33
  -2   3  17    0.15    0.34
   0   4  17   22.23    1.23
  -1   3  17    1.07    0.38
  -1   3  17    1.54    0.36
  -2   2  17   -0.28    0.22
  -3   1  17    0.21    0.32
   1   4  17   -0.24    0.23
   0   3  17    1.09    0.32
  -1   2  17    0.37    0.27
   2  -1 -17    0.42    0.28
  -2   1  17    0.34    0.27
   3   0 -17    0.07    0.41
   3   0 -17    0.00    0.27
  -3   0  17    0.19    0.29
   4   1 -17    0.51    0.38
   4   1 -17    0.97    0.58
   2   4  17    5.42    0.64
   1   3  17    0.45    0.28
   0  -2 -17    2.26    0.45
   0   2  17    2.05    0.40
   1  -1 -17    0.48    0.27
  -1   1  17    0.15    0.24
   2   0 -17    0.52    0.40
   2   0 -17   -0.07    0.19
  -2   0  17    0.50    0.33
   3   1 -17    0.52    0.33
   3   1 -17    1.27    0.49
   4   2 -17    0.43    0.49
   4   2 -17    0.20    0.33
   4   2 -17    0.97    0.53
   3   4  17    6.79    0.78
   2   3  17    0.21    0.27
  -1  -2 -17    7.35    0.74
   1   2  17    6.58    0.76
   0  -1 -17   30.61    1.59
   0   1  17   28.63    1.63
   1   0 -17    1.27    0.30
  -1   0  17    0.83    0.31
   2   1 -17    0.83    0.29
   2   1 -17    0.45    0.35
   3   2 -17    0.38    0.35
   3   2 -17    0.21    0.37
   3   2 -17    0.44    0.27
   3   3  17   -0.69    0.30
   3   3  17    0.10    0.28
  -2  -2 -17    1.71    0.43
  -2  -2 -17    1.22    0.35
   2   2  17    2.23    0.47
  -1  -1 -17    6.78    0.70
   1   1  17    6.18    0.73
   0   0 -17    5.56    0.74
   0   0 -17    6.55    0.66
   1   1 -17    1.16    0.41
   1   1 -17    1.13    0.41
   1   1 -17    0.97    0.27
   1   1 -17    1.41    0.38
   2   2 -17    0.52    0.36
   2   2 -17    0.43    0.21
   2   2 -17    0.06    0.32
   2   2 -17    0.15    0.32
   3   3 -17    7.13    0.89
   3   3 -17    9.18    1.11
   3   3 -17    9.31    1.17
  -4  -3 -17    0.58    0.36
   4   3  17    0.06    0.50
  -3  -2 -17    2.85    0.52
   3   2  17    1.74    0.55
  -2  -1 -17    2.12    0.48
  -2  -1 -17    2.63    0.47
   2   1  17    2.33    0.54
  -1   0 -17    0.51    0.33
  -1   0 -17    0.42    0.21
   1   0  17   -0.05    0.22
   0   1 -17    2.95    0.50
   0   1 -17    2.53    0.55
   0   1 -17    2.03    0.34
   1   2 -17    2.70    0.59
   1   2 -17    1.53    0.42
   2   3 -17    4.20    0.77
   2   3 -17    4.39    0.71
   2   3 -17    4.47    0.66
  -4  -2 -17   -0.07    0.28
   4   2  17    0.63    0.51
  -3  -1 -17    0.27    0.25
   3   1  17    0.50    0.43
  -2   0 -17    0.29    0.23
  -2   0 -17    0.07    0.32
   2   0  17   -0.23    0.32
  -1   1 -17    0.03    0.31
  -1   1 -17   -0.07    0.13
  -1   1 -17    0.25    0.35
   1  -1  17    0.02    0.28
   0   2 -17    0.22    0.30
   0   2 -17   -0.07    0.26
   1   3 -17   -0.16    0.21
   1   3 -17   -0.07    0.27
   1   3 -17   -0.12    0.38
   2   4 -17   -0.25    0.45
  -3   0 -17    0.43    0.27
   3   0  17    0.58    0.39
  -2   1 -17    1.38    0.45
  -2   1 -17    0.88    0.40
   2  -1  17    0.81    0.44
  -1   2 -17    1.07    0.46
  -1   2 -17    1.55    0.43
   1  -2  17    1.76    0.45
   0   3 -17    1.11    0.38
   0   3 -17    1.62    0.56
   0   3 -17    2.57    0.48
   1   4 -17    0.15    0.49
   3  -1  17    1.83    0.59
  -2   2 -17    1.84    0.51
  -2   2 -17    2.65    0.65
   2  -2  17    2.90    0.64
  -1   3 -17    1.46    0.63
   0   4  18    1.73    0.39
  -1   3  18    3.22    0.50
  -2   2  18    0.93    0.40
  -3   1  18    0.08    0.34
   1   4  18   -0.51    0.26
   0   3  18    0.20    0.31
  -1   2  18    1.17    0.36
   2  -1 -18    0.37    0.30
  -2   1  18    1.18    0.37
   3   0 -18    3.51    0.75
   3   0 -18    5.64    0.73
  -3   0  18    5.66    0.74
   2   4  18    1.55    0.42
   1   3  18    0.70    0.32
   0  -2 -18    0.51    0.28
   0   2  18    0.03    0.27
   1  -1 -18    0.06    0.23
  -1   1  18    0.24    0.26
   2   0 -18    0.43    0.31
   2   0 -18    1.05    0.44
  -2   0  18    0.22    0.33
   3   1 -18    0.16    0.28
   3   1 -18   -0.20    0.40
   3   4  18    2.09    0.52
   2   3  18    0.07    0.32
  -1  -2 -18    1.84    0.42
   1   2  18    1.65    0.47
   0  -1 -18    2.38    0.45
   0   1  18    2.16    0.45
   1   0 -18    7.15    0.73
   1   0 -18    8.69    0.91
   2   1 -18    0.09    0.32
   2   1 -18    0.12    0.23
   2   1 -18    0.00    0.30
   3   2 -18    0.18    0.41
   3   2 -18    0.32    0.28
   3   2 -18    0.62    0.45
   3   3  18    0.36    0.41
   3   3  18    0.47    0.35
  -2  -2 -18    1.17    0.42
  -2  -2 -18    1.06    0.36
   2   2  18    0.77    0.35
  -1  -1 -18    7.34    0.87
  -1  -1 -18    8.05    0.69
   1   1  18    5.54    0.76
   0   0 -18    5.19    0.58
   0   0 -18    4.81    0.72
   1   1 -18    0.77    0.29
   1   1 -18    0.53    0.33
   1   1 -18    0.90    0.41
   2   2 -18    0.68    0.38
   2   2 -18    0.26    0.22
   2   2 -18    0.42    0.39
   2   2 -18    1.08    0.52
   3   3 -18   26.52    1.80
   3   3 -18   29.88    2.04
   3   3 -18   23.67    1.68
  -3  -2 -18    1.53    0.43
   3   2  18    1.73    0.59
  -2  -1 -18    0.61    0.31
  -2  -1 -18    0.49    0.37
   2   1  18    0.85    0.39
  -1   0 -18    0.17    0.29
  -1   0 -18   -0.08    0.18
   0   1 -18    0.25    0.33
   0   1 -18   -0.01    0.19
   0   1 -18    0.15    0.34
   1   2 -18    0.74    0.38
   1   2 -18    1.14    0.47
   2   3 -18    5.92    0.76
   2   3 -18    6.29    0.94
  -3  -1 -18   -0.10    0.25
   3   1  18    0.03    0.39
  -2   0 -18    7.38    0.91
  -2   0 -18    7.04    0.62
   2   0  18    7.21    0.90
  -1   1 -18   -0.04    0.30
  -1   1 -18    0.24    0.36
  -1   1 -18    0.39    0.20
   1  -1  18    0.13    0.27
   0   2 -18    1.36    0.51
   0   2 -18    0.80    0.36
   1   3 -18    0.60    0.48
   1   3 -18    0.47    0.35
  -3   0 -18   -0.03    0.23
   3   0  18    0.33    0.43
  -2   1 -18    0.71    0.40
  -2   1 -18    0.64    0.40
   2  -1  18    0.75    0.45
  -1   2 -18    0.16    0.41
  -1   2 -18    0.22    0.34
   1  -2  18    0.58    0.36
   0   3 -18    0.23    0.34
   0   3 -18    0.49    0.45
   0   3 -18   -0.05    0.32
  -1   3  19   10.06    0.89
  -2   2  19    0.01    0.32
   1   4  19   -0.19    0.31
   0   3  19    0.52    0.37
  -1   2  19    0.24    0.33
   2  -1 -19    0.16    0.28
  -2   1  19    0.68    0.36
   3   0 -19    0.05    0.48
   3   0 -19    0.49    0.38
  -3   0  19    0.45    0.36
   2   4  19    0.35    0.34
   1   3  19    2.18    0.49
   0  -2 -19    2.56    0.47
   0   2  19    3.46    0.54
   1  -1 -19    0.31    0.28
  -1   1  19    0.64    0.33
   2   0 -19    4.01    0.72
   2   0 -19    4.04    0.59
   3   1 -19    0.44    0.44
   3   1 -19   -0.19    0.28
   2   3  19   -0.24    0.31
  -1  -2 -19    0.66    0.31
   1   2  19    0.17    0.35
   0  -1 -19    3.23    0.54
   0   1  19    2.42    0.53
   1   0 -19    4.59    0.61
   1   0 -19    5.31    0.73
   2   1 -19    0.42    0.27
   2   1 -19    0.01    0.38
   2   1 -19   -0.35    0.32
   3   2 -19    0.18    0.29
   3   2 -19   -0.02    0.41
   3   2 -19   -0.55    0.42
   3   3  19   12.08    1.05
  -2  -2 -19    0.93    0.41
  -2  -2 -19    0.75    0.33
   2   2  19    1.30    0.44
  -1  -1 -19    8.58    0.96
  -1  -1 -19    8.32    0.74
   0   0 -19   -0.13    0.29
   0   0 -19    0.08    0.22
   1   1 -19    0.99    0.48
   1   1 -19    1.27    0.32
   2   2 -19   -0.14    0.20
   2   2 -19    0.15    0.44
   2   2 -19   -0.36    0.31
  -3  -2 -19    1.45    0.49
   3   2  19    2.37    0.68
  -2  -1 -19   -0.04    0.25
  -2  -1 -19   -0.17    0.31
   2   1  19    0.11    0.38
  -1   0 -19   19.51    1.41
  -1   0 -19   18.85    1.13
   0   1 -19    0.15    0.22
   0   1 -19   -0.26    0.28
   1   2 -19    0.17    0.44
   1   2 -19    0.27    0.31
   2   3 -19    1.60    0.53
   2   3 -19    2.57    0.72
  -3  -1 -19   -0.18    0.27
   3   1  19    0.53    0.48
  -2   0 -19   -0.47    0.21
  -2   0 -19    0.45    0.41
   2   0  19    0.32    0.39
  -1   1 -19    0.90    0.46
  -1   1 -19    0.74    0.25
  -1   1 -19    0.50    0.39
   0   2 -19    1.73    0.57
   0   2 -19    0.83    0.42
   1   3 -19    4.16    0.89
   1   3 -19    1.87    0.51
  -2   1 -19    2.01    0.59
   2  -1  19    2.07    0.62
  -1   2 -19    1.77    0.62
  -1   2 -19    1.45    0.47
   0   3  20   12.06    1.00
  -1   2  20    2.65    0.57
   2  -1 -20   -0.24    0.29
  -2   1  20    0.03    0.33
   1   3  20    0.69    0.33
   0  -2 -20    0.48    0.31
   0   2  20    0.31    0.36
   1  -1 -20    0.26    0.28
  -1   1  20    0.13    0.30
   2   0 -20    0.46    0.44
   2   0 -20    0.49    0.31
   2   3  20    5.79    0.80
  -1  -2 -20   -0.04    0.28
   1   2  20    0.13    0.30
   0  -1 -20    0.38    0.30
   0   1  20    0.04    0.29
   1   0 -20    1.62    0.39
   1   0 -20    1.70    0.54
   2   1 -20    0.33    0.30
   2   1 -20    0.25    0.50
   2   1 -20    0.19    0.38
  -2  -2 -20    1.21    0.46
   2   2  20    0.69    0.39
  -1  -1 -20    7.15    0.92
  -1  -1 -20    9.38    0.92
   0   0 -20   15.52    1.27
   0   0 -20   15.00    1.00
   1   1 -20   -0.15    0.40
   1   1 -20    0.01    0.22
   2   2 -20    0.16    0.53
   2   2 -20    0.57    0.31
  -2  -1 -20    1.37    0.42
  -1   0 -20   -0.48    0.27
  -1   0 -20    0.21    0.24
   0   1 -20    4.63    0.53
   0   1 -20    6.13    0.89
   1   2 -20   -0.66    0.39
   1   2 -20    0.33    0.39
  -2   0 -20    0.89    0.45
  -2   0 -20    1.14    0.35
   2   0  20    2.09    0.63
  -1   1 -20    0.22    0.41
   0   2 -20    2.60    0.69
   0   2 -20    2.72    0.58
   0   2  21    0.07    0.37
   1  -1 -21    1.07    0.40
  -1   1  21    0.03    0.34
  -1  -2 -21    0.31    0.34
   1   2  21    0.52    0.38
   0  -1 -21    0.06    0.29
   1   0 -21   -0.14    0.26
   1   0 -21   -0.20    0.41
  -1  -1 -21    3.88    0.77
  -1  -1 -21    4.74    0.68
   0   0 -21    3.23    0.73
   0   0 -21    2.93    0.50
   1   1 -21    8.70    1.16
   1   1 -21    7.84    0.71
  -1   0 -21    2.18    0.45
  -1   0 -21    2.22    0.65
   0   1 -21    1.10    0.57
   0   1 -21    0.76    0.29
   0   0   0    0.00    0.00
;
_shelx_hkl_checksum              83078
loop_
_space_group_symop_operation_xyz
'x, y, z'
'-x, -y, -z'
loop_
_atom_site_label
_atom_site_type_symbol
_atom_site_fract_x
_atom_site_fract_y
_atom_site_fract_z
_atom_site_U_iso_or_equiv
_atom_site_adp_type
_atom_site_occupancy
_atom_site_site_symmetry_order
_atom_site_calc_flag
_atom_site_refinement_flags_posn
_atom_site_refinement_flags_adp
O1 O 0.4542(2) 1.2093(2) 0.91927(7) 0.0174(3) Uani 1 1 d . .
N1 N 0.0939(3) 1.0725(3) 0.88883(8) 0.0147(3) Uani 1 1 d . .
H1 H -0.0897 1.0936 0.8960 0.018 Uiso 1 1 calc R U
C1 C 0.1322(4) 0.1589(4) 0.56759(11) 0.0243(4) Uani 1 1 d . .
H1A H 0.0413 0.0727 0.6038 0.036 Uiso 1 1 calc R U
H1B H 0.2672 0.0313 0.5324 0.036 Uiso 1 1 calc R U
H1C H -0.0245 0.3036 0.5352 0.036 Uiso 1 1 calc R U
C2 C 0.3101(3) 0.2680(3) 0.61718(10) 0.0207(4) Uani 1 1 d . .
H2A H 0.4715 0.1201 0.6485 0.025 Uiso 1 1 calc R U
H2B H 0.4044 0.3517 0.5801 0.025 Uiso 1 1 calc R U
C3 C 0.1141(3) 0.4709(3) 0.67503(10) 0.0176(4) Uani 1 1 d . .
H3A H 0.0153 0.3886 0.7110 0.021 Uiso 1 1 calc R U
H3B H -0.0438 0.6211 0.6435 0.021 Uiso 1 1 calc R U
C4 C 0.2933(3) 0.5750(3) 0.72657(10) 0.0167(4) Uani 1 1 d . .
H4A H 0.4490 0.4251 0.7588 0.020 Uiso 1 1 calc R U
H4B H 0.3948 0.6546 0.6906 0.020 Uiso 1 1 calc R U
C5 C 0.0968(3) 0.7810(3) 0.78338(9) 0.0151(4) Uani 1 1 d . .
H5A H -0.0559 0.9337 0.7514 0.018 Uiso 1 1 calc R U
H5B H -0.0080 0.7034 0.8190 0.018 Uiso 1 1 calc R U
C6 C 0.2841(3) 0.8747(3) 0.83477(10) 0.0162(4) Uani 1 1 d . .
H6A H 0.4362 0.7222 0.8670 0.019 Uiso 1 1 calc R U
H6B H 0.3892 0.9520 0.7993 0.019 Uiso 1 1 calc R U
C7 C 0.1963(3) 1.2230(3) 0.92780(9) 0.0136(4) Uani 1 1 d . .
C8 C -0.0294(3) 1.4127(3) 0.98081(9) 0.0142(4) Uani 1 1 d . .
H8 H -0.2170 1.4085 0.9872 0.017 Uiso 1 1 calc R U
loop_
_atom_site_aniso_label
_atom_site_aniso_U_11
_atom_site_aniso_U_22
_atom_site_aniso_U_33
_atom_site_aniso_U_23
_atom_site_aniso_U_13
_atom_site_aniso_U_12
O1 0.0088(5) 0.0173(7) 0.0277(7) -0.0053(5) 0.0024(4) -0.0066(4)
N1 0.0079(6) 0.0137(7) 0.0230(7) -0.0059(5) 0.0023(5) -0.0045(5)
C1 0.0219(9) 0.0262(11) 0.0280(10) -0.0088(7) 0.0031(7) -0.0123(7)
C2 0.0148(8) 0.0217(10) 0.0259(9) -0.0084(7) 0.0024(6) -0.0073(7)
C3 0.0129(7) 0.0166(9) 0.0234(9) -0.0047(6) 0.0012(6) -0.0061(6)
C4 0.0116(7) 0.0154(9) 0.0236(8) -0.0040(6) 0.0007(6) -0.0059(6)
C5 0.0104(7) 0.0118(8) 0.0220(8) -0.0023(6) 0.0006(6) -0.0036(6)
C6 0.0106(7) 0.0142(9) 0.0234(9) -0.0049(6) 0.0024(6) -0.0045(6)
C7 0.0091(7) 0.0112(8) 0.0195(8) 0.0015(6) -0.0010(6) -0.0038(6)
C8 0.0096(7) 0.0124(8) 0.0200(8) -0.0004(6) 0.0004(5) -0.0043(6)
loop_
_atom_type_symbol
_atom_type_description
_atom_type_scat_dispersion_real
_atom_type_scat_dispersion_imag
_atom_type_scat_source
C C 0.0033 0.0016 'International Tables Vol C Tables 4.2.6.8 and 6.1.1.4'
H H 0.0000 0.0000 'International Tables Vol C Tables 4.2.6.8 and 6.1.1.4'
N N 0.0061 0.0033 'International Tables Vol C Tables 4.2.6.8 and 6.1.1.4'
O O 0.0106 0.0060 'International Tables Vol C Tables 4.2.6.8 and 6.1.1.4'
loop_
_geom_angle_atom_site_label_1
_geom_angle_atom_site_label_2
_geom_angle_atom_site_label_3
_geom_angle
_geom_angle_site_symmetry_1
C7 N1 C6 121.87(12) .
C7 N1 H1 119.1 .
C6 N1 H1 119.1 .
C2 C1 H1A 109.5 .
C2 C1 H1B 109.5 .
H1A C1 H1B 109.5 .
C2 C1 H1C 109.5 .
H1A C1 H1C 109.5 .
H1B C1 H1C 109.5 .
C3 C2 C1 113.10(13) .
C3 C2 H2A 109.0 .
C1 C2 H2A 109.0 .
C3 C2 H2B 109.0 .
C1 C2 H2B 109.0 .
H2A C2 H2B 107.8 .
C2 C3 C4 113.26(12) .
C2 C3 H3A 108.9 .
C4 C3 H3A 108.9 .
C2 C3 H3B 108.9 .
C4 C3 H3B 108.9 .
H3A C3 H3B 107.7 .
C5 C4 C3 113.28(12) .
C5 C4 H4A 108.9 .
C3 C4 H4A 108.9 .
C5 C4 H4B 108.9 .
C3 C4 H4B 108.9 .
H4A C4 H4B 107.7 .
C6 C5 C4 111.64(12) .
C6 C5 H5A 109.3 .
C4 C5 H5A 109.3 .
C6 C5 H5B 109.3 .
C4 C5 H5B 109.3 .
H5A C5 H5B 108.0 .
N1 C6 C5 111.27(12) .
N1 C6 H6A 109.4 .
C5 C6 H6A 109.4 .
N1 C6 H6B 109.4 .
C5 C6 H6B 109.4 .
H6A C6 H6B 108.0 .
O1 C7 N1 123.02(14) .
O1 C7 C8 122.73(14) .
N1 C7 C8 114.24(13) .
C8 C8 C7 121.68(17) 2_587
C8 C8 H8 119.2 2_587
C7 C8 H8 119.2 .
loop_
_geom_bond_atom_site_label_1
_geom_bond_atom_site_label_2
_geom_bond_distance
_geom_bond_site_symmetry_2
O1 C7 1.2342(17) .
N1 C7 1.338(2) .
N1 C6 1.4518(19) .
N1 H1 0.8600 .
C1 C2 1.519(2) .
C1 H1A 0.9600 .
C1 H1B 0.9600 .
C1 H1C 0.9600 .
C2 C3 1.517(2) .
C2 H2A 0.9700 .
C2 H2B 0.9700 .
C3 C4 1.522(2) .
C3 H3A 0.9700 .
C3 H3B 0.9700 .
C4 C5 1.515(2) .
C4 H4A 0.9700 .
C4 H4B 0.9700 .
C5 C6 1.513(2) .
C5 H5A 0.9700 .
C5 H5B 0.9700 .
C6 H6A 0.9700 .
C6 H6B 0.9700 .
C7 C8 1.484(2) .
C8 C8 1.321(3) 2_587
C8 H8 0.9300 .
